data_PCOD8059801
_publ_section_title
;
Structure prediction by ZEFSAII (Michael W. Deem and Ramdas Pophale) SiO2 
 PCOD8059801
Probable space group: P 2/M
;
_chemical_formula_sum "Si O2"
_cell_formula_units_Z 28
_cell_length_a 12.229556
_cell_length_b 14.736831
_cell_length_c 8.476063
_cell_angle_alpha 90.000000
_cell_angle_beta 106.670638
_cell_angle_gamma 90.000000
_cell_volume 1463.392115
_symmetry_space_group_name_H-M "P 2/M"
_symmetry_group_IT_number 10
_symmetry_cell_setting 'monoclinic'
loop_
_space_group_symop_operation_xyz
x,y,z
-x,y,-z
-x,-y,-z
x,-y,z
loop_
_atom_site_type_symbol
_atom_site_label
_atom_site_fract_x
_atom_site_fract_y
_atom_site_fract_z
Si Si1 0.560937 0.398622 0.787222
Si Si2 0.804071 0.103023 0.376552
Si Si3 0.326244 0.602172 0.824784
Si Si4 0.627986 0.898321 0.562578
Si Si5 0.831322 0.245510 0.142723
Si Si6 0.260482 0.265829 0.243472
Si Si7 0.063517 0.252612 0.382604
O O1 0.570119 0.500000 0.721398
O O2 0.427341 0.370402 0.743936
O O3 0.630475 0.331983 0.700800
O O4 0.618960 0.394545 0.980713
O O5 0.681248 0.103657 0.410037
O O6 0.785657 0.151262 0.198871
O O7 0.896037 0.157432 0.521695
O O8 0.847803 0.000000 0.370680
O O9 0.281696 0.500000 0.770960
O O10 0.221742 0.673018 0.770757
O O11 0.500000 0.860882 0.500000
O O12 0.700723 0.836559 0.710194
O O13 0.630270 0.000000 0.634090
O O14 0.968541 0.240696 0.207699
O O15 0.798534 0.262615 0.950132
O O16 0.171155 0.300329 0.341320
O O17 0.000000 0.308052 0.500000
#
# Coordination Sequence:
#
# PCOD8059801 Si02
#       7
#     4   4   4   4   4   4   4
#     4   8  15  29  50  75 104 133 164 204 253 308
#     4   9  19  35  53  73 101 140 175 203 251 312
#     4   8  15  29  48  74 106 136 163 199 254 311
#     4   9  19  35  51  69 101 144 175 197 244 317
#     4  10  19  30  53  81 104 126 171 221 256 286
#     4  10  19  32  54  80 101 129 170 221 255 286
#     4   9  19  35  52  70 101 141 172 202 249 313
#
# _framework density 19.133628000000002
#
# number of rings (size 3 to 8) (size 9 to 14) (size 15 to 20)
#    0.000    3.000    0.000    1.286    2.000    3.143 
#    0.000    0.714    0.000   25.286    0.000    0.000 
#    0.000    0.000    0.000    0.000    0.000    0.000 
#
# Total GULP energy -346886.736746 kJ/mol
# GULP energy per Si atom -12388.812027 kJ/mol
# Density = 1.909008 g / cm^3
# Si number density = 19.133628 Si / 1000 Ang^3
#
#
#
# Elastic Constant Matrix: (Units=GPa)
#
#
# Indices 1 2 3 4 5 6 
#
# 1 134.7953 48.1626 26.7967 0.0000 -18.1093 0.0000
# 2 48.1626 81.2598 15.3870 0.0000 -13.9810 0.0000
# 3 26.7967 15.3870 44.1869 0.0000 -12.5109 0.0000
# 4 0.0000 0.0000 0.0000 11.7424 0.0000 -2.3643
# 5 -18.1093 -13.9810 -12.5109 0.0000 24.6000 0.0000
# 6 0.0000 0.0000 0.0000 -2.3643 0.0000 26.0406
#
#
#
# Elastic Compliance Matrix: (Units=1/GPa)
#
#
# Indices 1 2 3 4 5 6 
#
# 1 0.010299 -0.004900 -0.003716 0.000000 0.002906 0.000000
# 2 -0.004900 0.016317 -0.001292 0.000000 0.005009 0.000000
# 3 -0.003716 -0.001292 0.028449 0.000000 0.010998 0.000000
# 4 0.000000 0.000000 0.000000 0.086747 0.000000 0.007876
# 5 0.002906 0.005009 0.010998 0.000000 0.051230 0.000000
# 6 0.000000 0.000000 0.000000 0.007876 0.000000 0.039117
#
#
# Mechanical properties :
#
#
# Convention : Reuss Voigt Hill
#
# Bulk Modulus (GPa) = 28.37085 48.99275 38.68180
# Shear Modulus (GPa) = 18.95912 23.80298 21.38105
#
# Velocity S-wave (km/s) = 3.15124 3.53092 3.34647
# Velocity P-wave (km/s) = 5.30098 6.50264 5.93231
#
# Compressibility (1/GPa) = 0.03524745
#
# Stress axis : x y z
#
# Youngs Moduli (GPa) = 97.09867 61.28533 35.15095
#
# Poissons Ratio (x) = 0.30032 0.13063
# Poissons Ratio (y) = 0.47582 0.04542
# Poissons Ratio (z) = 0.36084 0.07918
#
# Static dielectric constant tensor:
#      x y z
#    x 3.986220 0.000000 -0.114390 
#    y 0.000000 3.529690 0.000000 
#    z -0.114390 0.000000 3.163020 
# 
# 
# High freq. dielectric constant tensor:
#      x y z
#    x 1.762480 0.000000 -0.005710 
#    y 0.000000 1.725340 0.000000 
#    z -0.005710 0.000000 1.716730 
# 
# From -- ./inp_files/25020.got.cif
#   From: 2010.06.25/outbox.cif.g09.slc.cpg/sg10_13_cif.got.tgz:25020.got - 2010.06.27 22:07:45.
