data_PCOD8059530
_publ_section_title
;
Structure prediction by ZEFSAII (Michael W. Deem and Ramdas Pophale) SiO2 
 PCOD8059530
Probable space group: P 2/M
;
_chemical_formula_sum "Si O2"
_cell_formula_units_Z 32
_cell_length_a 22.160844
_cell_length_b 9.113307
_cell_length_c 13.791551
_cell_angle_alpha 90.000000
_cell_angle_beta 132.279436
_cell_angle_gamma 90.000000
_cell_volume 2060.783412
_symmetry_space_group_name_H-M "P 2/M"
_symmetry_group_IT_number 10
_symmetry_cell_setting 'monoclinic'
loop_
_space_group_symop_operation_xyz
x,y,z
-x,y,-z
-x,-y,-z
x,-y,z
loop_
_atom_site_type_symbol
_atom_site_label
_atom_site_fract_x
_atom_site_fract_y
_atom_site_fract_z
Si Si1 0.352712 0.670658 0.208651
Si Si2 0.731897 0.830216 0.239261
Si Si3 0.947787 0.328649 0.321958
Si Si4 0.472366 0.671175 0.690290
Si Si5 0.589560 0.165679 0.552444
Si Si6 0.434422 0.169937 0.845925
Si Si7 0.772389 0.670439 0.085586
Si Si8 0.093094 0.829074 0.522042
O O1 0.346375 0.500000 0.227690
O O2 0.435001 0.705286 0.239098
O O3 0.348692 0.758624 0.305208
O O4 0.277238 0.725765 0.061628
O O5 0.653147 0.772801 0.211331
O O6 0.740441 0.749993 0.146513
O O7 0.810688 0.806228 0.395117
O O8 0.721196 0.000000 0.201287
O O9 0.966326 0.500000 0.354598
O O10 0.868962 0.302408 0.168055
O O11 0.923606 0.255688 0.396879
O O12 0.031405 0.246393 0.376085
O O13 0.453039 0.500000 0.667812
O O14 0.409655 0.748450 0.548389
O O15 0.459585 0.732758 0.782869
O O16 0.500000 0.172098 0.500000
O O17 0.618656 0.000000 0.565340
O O18 0.430825 0.000000 0.810661
O O19 0.500000 0.196230 0.000000
O O20 0.754780 0.500000 0.084750
O O21 0.071497 0.000000 0.508051
#
# Coordination Sequence:
#
# PCOD8059530 Si02
#       8
#     4   4   4   4   4   4   4   4
#     4   9  17  29  43  61  85 109 134 166 205 245
#     4   9  18  29  40  56  79 109 143 175 205 238
#     4   9  15  23  36  55  77 102 132 163 199 240
#     4  10  19  30  45  62  81 108 140 173 206 240
#     4   9  17  29  45  63  81 104 135 169 205 244
#     4  10  20  32  44  59  82 111 142 176 209 238
#     4   9  17  27  40  59  84 111 136 166 203 243
#     4   9  15  24  37  52  73 102 135 168 201 236
#
# _framework density 15.528074999999999
#
# number of rings (size 3 to 8) (size 9 to 14) (size 15 to 20)
#    0.000    2.750    0.000    3.000    0.000    4.250 
#    0.000    0.000    0.000    0.000    0.000    0.000 
#    0.000    1.000    0.000   11.500    0.000    3.500 
#
# Total GULP energy -396566.994298 kJ/mol
# GULP energy per Si atom -12392.718572 kJ/mol
# Density = 1.549273 g / cm^3
# Si number density = 15.528075 Si / 1000 Ang^3
#
#
#
# Elastic Constant Matrix: (Units=GPa)
#
#
# Indices 1 2 3 4 5 6 
#
# 1 52.0875 33.1196 43.7589 0.0000 15.5696 0.0000
# 2 33.1196 73.4199 47.0594 0.0000 5.7075 0.0000
# 3 43.7589 47.0594 111.4017 0.0000 14.1230 0.0000
# 4 0.0000 0.0000 0.0000 20.0284 0.0000 -5.6794
# 5 15.5696 5.7075 14.1230 0.0000 25.0042 0.0000
# 6 0.0000 0.0000 0.0000 -5.6794 0.0000 15.0754
#
#
#
# Elastic Compliance Matrix: (Units=1/GPa)
#
#
# Indices 1 2 3 4 5 6 
#
# 1 0.037721 -0.010390 -0.008349 0.000000 -0.016401 0.000000
# 2 -0.010390 0.021540 -0.005617 0.000000 0.004725 0.000000
# 3 -0.008349 -0.005617 0.014872 0.000000 -0.001919 0.000000
# 4 0.000000 0.000000 0.000000 0.055901 0.000000 0.021060
# 5 -0.016401 0.004725 -0.001919 0.000000 0.050211 0.000000
# 6 0.000000 0.000000 0.000000 0.021060 0.000000 0.074267
#
#
# Mechanical properties :
#
#
# Convention : Reuss Voigt Hill
#
# Bulk Modulus (GPa) = 39.33600 53.86501 46.60050
# Shear Modulus (GPa) = 16.04119 19.55299 17.79709
#
# Velocity S-wave (km/s) = 3.21759 3.55237 3.38912
# Velocity P-wave (km/s) = 6.26027 7.18261 6.73724
#
# Compressibility (1/GPa) = 0.02542201
#
# Stress axis : x y z
#
# Youngs Moduli (GPa) = 26.51053 46.42507 67.23991
#
# Poissons Ratio (x) = 0.48234 0.56137
# Poissons Ratio (y) = 0.27543 0.37770
# Poissons Ratio (z) = 0.22133 0.26078
#
# Static dielectric constant tensor:
#      x y z
#    x 3.036570 0.000000 0.594210 
#    y 0.000000 3.076940 0.000000 
#    z 0.594210 0.000000 3.376420 
# 
# 
# High freq. dielectric constant tensor:
#      x y z
#    x 1.552940 0.000000 0.028930 
#    y 0.000000 1.607460 0.000000 
#    z 0.028930 0.000000 1.591070 
# 
# From -- ./inp_files/52700.got.cif
#   From: 2010.06.25/outbox.cif.g09.slc.cpg/sg10_27_cif.got.tgz:52700.got - 2010.06.27 22:07:45.
