data_PCOD8059799
_publ_section_title
;
Structure prediction by ZEFSAII (Michael W. Deem and Ramdas Pophale) SiO2 
 PCOD8059799
Probable space group: P 2/M
;
_chemical_formula_sum "Si O2"
_cell_formula_units_Z 26
_cell_length_a 16.595528
_cell_length_b 7.810140
_cell_length_c 16.226014
_cell_angle_alpha 90.000000
_cell_angle_beta 142.231678
_cell_angle_gamma 90.000000
_cell_volume 1288.091243
_symmetry_space_group_name_H-M "P 2/M"
_symmetry_group_IT_number 10
_symmetry_cell_setting 'monoclinic'
loop_
_space_group_symop_operation_xyz
x,y,z
-x,y,-z
-x,-y,-z
x,-y,z
loop_
_atom_site_type_symbol
_atom_site_label
_atom_site_fract_x
_atom_site_fract_y
_atom_site_fract_z
Si Si1 0.541922 0.810443 0.708399
Si Si2 0.831079 0.500000 0.700710
Si Si3 0.264939 0.689759 0.520860
Si Si4 0.330823 0.500000 0.270314
Si Si5 0.744867 0.808709 0.011469
Si Si6 0.650306 0.298000 0.108561
Si Si7 0.878206 0.500000 0.040983
Si Si8 0.140878 0.297411 0.586501
O O1 0.387772 0.811211 0.603382
O O2 0.581112 0.669148 0.672330
O O3 0.579585 0.000000 0.705646
O O4 0.615746 0.768652 0.853177
O O5 0.818573 0.668221 0.631506
O O6 0.713571 0.500000 0.671345
O O7 0.968881 0.500000 0.859645
O O8 0.317813 0.500000 0.590828
O O9 0.174750 0.766902 0.521213
O O10 0.203801 0.500000 0.109059
O O11 0.706795 0.797680 0.075454
O O12 0.853911 0.668797 0.076227
O O13 0.799128 0.000000 0.037078
O O14 0.658394 0.500000 0.100248
O O15 0.740534 0.238528 0.258041
O O16 0.500000 0.239143 0.000000
O O17 0.127216 0.500000 0.576796
O O18 0.000000 0.216967 0.500000
#
# Coordination Sequence:
#
# PCOD8059799 Si02
#       8
#     4   2   4   2   4   4   2   4
#     4  10  20  37  61  87 119 152 187 239 300 347
#     4  10  22  36  63  87 114 155 195 234 295 352
#     4   9  19  34  57  82 115 150 191 235 283 344
#     4  10  20  40  61  90 119 143 190 245 291 358
#     4  10  21  35  57  86 113 152 199 241 289 346
#     4  10  19  30  52  82 113 148 199 246 292 338
#     4  10  21  38  62  82 116 153 186 239 296 341
#     4   9  18  30  51  79 113 155 195 236 287 342
#
# _framework density 20.184906999999999
#
# number of rings (size 3 to 8) (size 9 to 14) (size 15 to 20)
#    0.462    1.846    1.538    1.154    2.154    2.769 
#    0.000    3.846    0.000    4.615    0.000    0.000 
#    0.000    0.000    0.000    0.000    0.000    0.000 
#
# Total GULP energy -322319.912917 kJ/mol
# GULP energy per Si atom -12396.919728 kJ/mol
# Density = 2.013897 g / cm^3
# Si number density = 20.184907 Si / 1000 Ang^3
#
#
#
# Elastic Constant Matrix: (Units=GPa)
#
#
# Indices 1 2 3 4 5 6 
#
# 1 143.7366 33.0786 52.8306 0.0000 0.2172 0.0000
# 2 33.0786 84.3905 17.1583 0.0000 2.1723 0.0000
# 3 52.8306 17.1583 91.9489 0.0000 11.8710 0.0000
# 4 0.0000 0.0000 0.0000 10.6449 0.0000 -2.3384
# 5 0.2172 2.1723 11.8710 0.0000 33.9674 0.0000
# 6 0.0000 0.0000 0.0000 -2.3384 0.0000 4.1140
#
#
#
# Elastic Compliance Matrix: (Units=1/GPa)
#
#
# Indices 1 2 3 4 5 6 
#
# 1 0.009488 -0.002712 -0.005194 0.000000 0.001928 0.000000
# 2 -0.002712 0.013092 -0.000816 0.000000 -0.000535 0.000000
# 3 -0.005194 -0.000816 0.014663 0.000000 -0.005039 0.000000
# 4 0.000000 0.000000 0.000000 0.107346 0.000000 0.061016
# 5 0.001928 -0.000535 -0.005039 0.000000 0.031223 0.000000
# 6 0.000000 0.000000 0.000000 0.061016 0.000000 0.277753
#
#
# Mechanical properties :
#
#
# Convention : Reuss Voigt Hill
#
# Bulk Modulus (GPa) = 50.50860 58.46789 54.48824
# Shear Modulus (GPa) = 10.46884 24.21248 17.34066
#
# Velocity S-wave (km/s) = 2.27985 3.46719 2.93420
# Velocity P-wave (km/s) = 5.65752 6.71249 6.20746
#
# Compressibility (1/GPa) = 0.01979861
#
# Stress axis : x y z
#
# Youngs Moduli (GPa) = 105.40159 76.37975 68.20060
#
# Poissons Ratio (x) = 0.20717 0.35423
# Poissons Ratio (y) = 0.28589 0.05563
# Poissons Ratio (z) = 0.54745 0.06230
#
# Static dielectric constant tensor:
#      x y z
#    x 3.551820 0.000000 0.017500 
#    y 0.000000 3.433290 0.000000 
#    z 0.017500 0.000000 3.576500 
# 
# 
# High freq. dielectric constant tensor:
#      x y z
#    x 1.781830 0.000000 -0.000870 
#    y 0.000000 1.764250 0.000000 
#    z -0.000870 0.000000 1.781860 
# 
# From -- ./inp_files/66910.got.cif
#   From: 2010.06.25/outbox.cif.g09.slc.cpg/sg10_34_cif.got.tgz:66910.got - 2010.06.27 22:07:45.
