data_PCOD8059425
_publ_section_title
;
Structure prediction by ZEFSAII (Michael W. Deem and Ramdas Pophale) SiO2 
 PCOD8059425
Probable space group: P 2/M
;
_chemical_formula_sum "Si O2"
_cell_formula_units_Z 32
_cell_length_a 27.993311
_cell_length_b 9.373982
_cell_length_c 14.368207
_cell_angle_alpha 90.000000
_cell_angle_beta 29.152548
_cell_angle_gamma 90.000000
_cell_volume 1836.672277
_symmetry_space_group_name_H-M "P 2/M"
_symmetry_group_IT_number 10
_symmetry_cell_setting 'monoclinic'
loop_
_space_group_symop_operation_xyz
x,y,z
-x,y,-z
-x,-y,-z
x,-y,z
loop_
_atom_site_type_symbol
_atom_site_label
_atom_site_fract_x
_atom_site_fract_y
_atom_site_fract_z
Si Si1 0.626330 0.669019 0.877108
Si Si2 0.592894 0.668928 0.728346
Si Si3 0.676774 0.666538 0.397013
Si Si4 0.816997 0.332047 0.001470
Si Si5 0.489158 0.156546 0.408937
Si Si6 0.996506 0.166852 0.613233
Si Si7 0.297253 0.161568 0.949450
Si Si8 0.788288 0.160277 0.710771
O O1 0.637566 0.500000 0.864583
O O2 0.632911 0.724994 0.759122
O O3 0.717283 0.733939 0.777678
O O4 0.519997 0.718958 0.098072
O O5 0.591444 0.500000 0.736625
O O6 0.665639 0.724733 0.522268
O O7 0.657828 0.500000 0.430529
O O8 0.589287 0.728346 0.485496
O O9 0.781270 0.699750 0.169291
O O10 0.830802 0.500000 0.961257
O O11 0.917139 0.251678 0.808884
O O12 0.730901 0.273699 0.081921
O O13 0.500000 0.153384 0.500000
O O14 0.596589 0.198807 0.187330
O O15 0.457687 0.000000 0.425007
O O16 0.097144 0.196263 0.498471
O O17 0.000000 0.221268 0.500000
O O18 0.968502 0.000000 0.661303
O O19 0.297735 0.000000 0.906847
O O20 0.220473 0.173793 0.163215
O O21 0.763405 0.000000 0.720082
#
# Coordination Sequence:
#
# PCOD8059425 Si02
#       8
#     4   4   4   4   4   4   4   4
#     4   9  17  32  56  80 101 130 168 208 249 295
#     4   8  16  33  54  76 104 137 168 198 245 309
#     4  10  20  33  49  70 102 138 168 204 252 301
#     4  11  22  32  47  73 100 129 168 213 248 284
#     4  10  19  29  45  68  97 134 171 204 235 286
#     4  10  20  37  56  70  94 137 174 203 255 311
#     4  10  19  33  48  66  99 138 169 198 243 304
#     4  10  20  33  52  75  99 128 164 207 257 306
#
# _framework density 17.422813999999999
#
# number of rings (size 3 to 8) (size 9 to 14) (size 15 to 20)
#    0.000    2.250    2.500    1.875    0.000    2.500 
#    0.000    1.875    0.000    0.750    0.000    5.250 
#    0.000    0.000    0.000    0.000    0.000    0.000 
#
# Total GULP energy -396552.844925 kJ/mol
# GULP energy per Si atom -12392.276404 kJ/mol
# Density = 1.738316 g / cm^3
# Si number density = 17.422814 Si / 1000 Ang^3
#
#
#
# Elastic Constant Matrix: (Units=GPa)
#
#
# Indices 1 2 3 4 5 6 
#
# 1 67.3930 30.4794 42.7442 0.0000 4.3561 0.0000
# 2 30.4794 49.9346 45.3103 0.0000 3.4700 0.0000
# 3 42.7442 45.3103 124.7269 0.0000 13.0996 0.0000
# 4 0.0000 0.0000 0.0000 24.8795 0.0000 -3.6518
# 5 4.3561 3.4700 13.0996 0.0000 23.3678 0.0000
# 6 0.0000 0.0000 0.0000 -3.6518 0.0000 4.1340
#
#
#
# Elastic Compliance Matrix: (Units=1/GPa)
#
#
# Indices 1 2 3 4 5 6 
#
# 1 0.021712 -0.009715 -0.003866 0.000000 -0.000438 0.000000
# 2 -0.009715 0.034288 -0.009332 0.000000 0.001950 0.000000
# 3 -0.003866 -0.009332 0.013294 0.000000 -0.005346 0.000000
# 4 0.000000 0.000000 0.000000 0.046182 0.000000 0.040795
# 5 -0.000438 0.001950 -0.005346 0.000000 0.045583 0.000000
# 6 0.000000 0.000000 0.000000 0.040795 0.000000 0.277931
#
#
# Mechanical properties :
#
#
# Convention : Reuss Voigt Hill
#
# Bulk Modulus (GPa) = 42.60809 53.23583 47.92196
# Shear Modulus (GPa) = 10.14948 18.71096 14.43022
#
# Velocity S-wave (km/s) = 2.41620 3.28065 2.88103
# Velocity P-wave (km/s) = 5.68265 6.70610 6.21548
#
# Compressibility (1/GPa) = 0.02346972
#
# Stress axis : x y z
#
# Youngs Moduli (GPa) = 46.05746 29.16500 75.22369
#
# Poissons Ratio (x) = 0.28333 0.29079
# Poissons Ratio (y) = 0.44743 0.70195
# Poissons Ratio (z) = 0.17804 0.27215
#
# Static dielectric constant tensor:
#      x y z
#    x 3.147960 0.000000 0.192000 
#    y 0.000000 3.098560 0.000000 
#    z 0.192000 0.000000 3.657810 
# 
# 
# High freq. dielectric constant tensor:
#      x y z
#    x 1.645550 0.000000 0.008330 
#    y 0.000000 1.658530 0.000000 
#    z 0.008330 0.000000 1.683240 
# 
# From -- ./inp_files/65980.got.cif
#   From: 2010.06.25/outbox.cif.g09.slc.cpg/sg10_33_cif.got.tgz:65980.got - 2010.06.27 22:07:45.
