data_PCOD8059298
_publ_section_title
;
Structure prediction by ZEFSAII (Michael W. Deem and Ramdas Pophale) SiO2 
 PCOD8059298
Probable space group: P 2/M
;
_chemical_formula_sum "Si O2"
_cell_formula_units_Z 28
_cell_length_a 18.032489
_cell_length_b 13.972481
_cell_length_c 11.029402
_cell_angle_alpha 90.000000
_cell_angle_beta 143.984647
_cell_angle_gamma 90.000000
_cell_volume 1634.029846
_symmetry_space_group_name_H-M "P 2/M"
_symmetry_group_IT_number 10
_symmetry_cell_setting 'monoclinic'
loop_
_space_group_symop_operation_xyz
x,y,z
-x,y,-z
-x,-y,-z
x,-y,z
loop_
_atom_site_type_symbol
_atom_site_label
_atom_site_fract_x
_atom_site_fract_y
_atom_site_fract_z
Si Si1 0.567689 0.786446 0.705954
Si Si2 0.766892 0.111631 0.351484
Si Si3 0.250691 0.259183 0.861277
Si Si4 0.021875 0.785509 0.720867
Si Si5 0.788334 0.891434 0.874096
Si Si6 0.903929 0.604717 0.481846
Si Si7 0.347991 0.109068 0.544944
O O1 0.500000 0.735016 0.500000
O O2 0.657970 0.869693 0.773004
O O3 0.465718 0.827247 0.663068
O O4 0.653499 0.715326 0.901708
O O5 0.697184 0.172465 0.153782
O O6 0.914790 0.136728 0.551742
O O7 0.702775 0.142328 0.392700
O O8 0.749355 0.000000 0.300563
O O9 0.226471 0.353137 0.747182
O O10 0.116546 0.220264 0.732586
O O11 0.959035 0.679529 0.654797
O O12 0.099788 0.818610 0.942220
O O13 0.766365 0.878734 0.701914
O O14 0.827771 0.000000 0.958437
O O15 0.877977 0.500000 0.507172
O O16 0.000000 0.590823 0.500000
O O17 0.394000 0.000000 0.608868
#
# Coordination Sequence:
#
# PCOD8059298 Si02
#       7
#     4   4   4   4   4   4   4
#     4   9  17  30  45  60  83 115 151 185 210 243
#     4  10  19  28  39  60  91 119 144 179 215 250
#     4   9  18  29  44  66  85 110 146 175 214 262
#     4   9  17  28  43  66  88 110 144 175 212 263
#     4   9  16  27  44  63  87 119 150 180 210 245
#     4   8  14  27  46  67  90 109 132 174 220 264
#     4   9  18  29  40  59  86 121 158 181 206 244
#
# _framework density 17.135549999999999
#
# number of rings (size 3 to 8) (size 9 to 14) (size 15 to 20)
#    0.000    3.000    0.000    2.143    0.000    6.857 
#    0.000    3.571    0.000    0.429    0.000   19.000 
#    0.000    0.000    0.000    0.000    0.000    0.000 
#
# Total GULP energy -346923.704952 kJ/mol
# GULP energy per Si atom -12390.132320 kJ/mol
# Density = 1.709655 g / cm^3
# Si number density = 17.135550 Si / 1000 Ang^3
#
#
#
# Elastic Constant Matrix: (Units=GPa)
#
#
# Indices 1 2 3 4 5 6 
#
# 1 50.1342 17.1756 25.8573 0.0000 -6.3589 0.0000
# 2 17.1756 97.3290 47.4857 0.0000 -5.7111 0.0000
# 3 25.8573 47.4857 114.8756 0.0000 0.0360 0.0000
# 4 0.0000 0.0000 0.0000 17.4616 0.0000 -2.2680
# 5 -6.3589 -5.7111 0.0360 0.0000 17.9004 0.0000
# 6 0.0000 0.0000 0.0000 -2.2680 0.0000 6.7508
#
#
#
# Elastic Compliance Matrix: (Units=1/GPa)
#
#
# Indices 1 2 3 4 5 6 
#
# 1 0.023930 -0.001404 -0.004809 0.000000 0.008063 0.000000
# 2 -0.001404 0.013263 -0.005168 0.000000 0.003743 0.000000
# 3 -0.004809 -0.005168 0.011925 0.000000 -0.003381 0.000000
# 4 0.000000 0.000000 0.000000 0.059882 0.000000 0.020118
# 5 0.008063 0.003743 -0.003381 0.000000 0.059930 0.000000
# 6 0.000000 0.000000 0.000000 0.020118 0.000000 0.154890
#
#
# Mechanical properties :
#
#
# Convention : Reuss Voigt Hill
#
# Bulk Modulus (GPa) = 37.93970 49.26398 43.60184
# Shear Modulus (GPa) = 14.07003 19.87726 16.97364
#
# Velocity S-wave (km/s) = 2.86860 3.40957 3.15072
# Velocity P-wave (km/s) = 5.75854 6.65674 6.22387
#
# Compressibility (1/GPa) = 0.02635762
#
# Stress axis : x y z
#
# Youngs Moduli (GPa) = 41.78830 75.39742 83.85975
#
# Poissons Ratio (x) = 0.10584 0.40326
# Poissons Ratio (y) = 0.05866 0.43336
# Poissons Ratio (z) = 0.20095 0.38963
#
# Static dielectric constant tensor:
#      x y z
#    x 3.029810 0.000000 -0.066120 
#    y 0.000000 3.127480 0.000000 
#    z -0.066120 0.000000 3.375940 
# 
# 
# High freq. dielectric constant tensor:
#      x y z
#    x 1.640500 0.000000 -0.000440 
#    y 0.000000 1.620320 0.000000 
#    z -0.000440 0.000000 1.669380 
# 
# From -- ./inp_files/29604.got.cif
#   From: 2010.06.25/outbox.cif.g09.slc.cpg/sg10_15_cif.got.tgz:29604.got - 2010.06.27 22:07:45.
