data_PCOD8059287
_publ_section_title
;
Structure prediction by ZEFSAII (Michael W. Deem and Ramdas Pophale) SiO2 
 PCOD8059287
Probable space group: P 2/M
;
_chemical_formula_sum "Si O2"
_cell_formula_units_Z 32
_cell_length_a 16.267786
_cell_length_b 9.291800
_cell_length_c 13.959676
_cell_angle_alpha 90.000000
_cell_angle_beta 86.014770
_cell_angle_gamma 90.000000
_cell_volume 2105.000710
_symmetry_space_group_name_H-M "P 2/M"
_symmetry_group_IT_number 10
_symmetry_cell_setting 'monoclinic'
loop_
_space_group_symop_operation_xyz
x,y,z
-x,y,-z
-x,-y,-z
x,-y,z
loop_
_atom_site_type_symbol
_atom_site_label
_atom_site_fract_x
_atom_site_fract_y
_atom_site_fract_z
Si Si1 0.763071 0.833994 0.514144
Si Si2 0.091708 0.656850 0.030870
Si Si3 0.150980 0.672512 0.829867
Si Si4 0.974507 0.328073 0.773688
Si Si5 0.612699 0.338688 0.573753
Si Si6 0.437174 0.338304 0.642221
Si Si7 0.920850 0.667438 0.570753
Si Si8 0.286225 0.833617 0.700590
O O1 0.689038 0.768435 0.584279
O O2 0.847071 0.755768 0.532064
O O3 0.746910 0.809785 0.403540
O O4 0.770464 0.000000 0.540500
O O5 0.131303 0.500000 0.045205
O O6 0.083856 0.736455 0.135325
O O7 0.144586 0.730618 0.941207
O O8 0.000000 0.636762 0.000000
O O9 0.160778 0.500000 0.825660
O O10 0.229367 0.747272 0.777895
O O11 0.069275 0.721858 0.778473
O O12 0.972655 0.500000 0.780084
O O13 0.939817 0.273207 0.675568
O O14 0.639730 0.500000 0.601062
O O15 0.533233 0.290292 0.643338
O O16 0.587504 0.336400 0.465903
O O17 0.425836 0.500000 0.683956
O O18 0.378850 0.228470 0.704460
O O19 0.896726 0.500000 0.574115
O O20 0.000000 0.695299 0.500000
O O21 0.287596 0.000000 0.729187
#
# Coordination Sequence:
#
# PCOD8059287 Si02
#       8
#     4   4   4   4   4   4   4   4
#     4  10  20  30  39  54  79 111 141 167 197 233
#     4   7  11  21  39  61  78  94 123 164 206 242
#     4   9  15  25  43  61  77 101 132 165 201 242
#     4   8  14  25  41  60  79 100 132 172 206 234
#     4   8  14  26  43  59  75  98 131 168 199 229
#     4   8  14  25  41  59  77 100 130 162 196 234
#     4  10  19  29  42  59  79 106 140 174 202 228
#     4  10  19  27  36  55  84 112 134 160 196 236
#
# _framework density 15.201896
#
# number of rings (size 3 to 8) (size 9 to 14) (size 15 to 20)
#    0.000    3.250    0.000    3.750    0.000    3.250 
#    0.000    3.125    0.000    4.125    0.000    0.000 
#    0.000    1.000    0.000   11.500    0.000    3.750 
#
# Total GULP energy -396435.325742 kJ/mol
# GULP energy per Si atom -12388.603929 kJ/mol
# Density = 1.516730 g / cm^3
# Si number density = 15.201896 Si / 1000 Ang^3
#
#
#
# Elastic Constant Matrix: (Units=GPa)
#
#
# Indices 1 2 3 4 5 6 
#
# 1 92.7929 54.8329 34.4413 0.0000 -23.7710 0.0000
# 2 54.8329 65.6448 33.2346 0.0000 -13.0652 0.0000
# 3 34.4413 33.2346 69.2989 0.0000 -15.9891 0.0000
# 4 0.0000 0.0000 0.0000 5.8809 0.0000 4.8499
# 5 -23.7710 -13.0652 -15.9891 0.0000 20.2903 0.0000
# 6 0.0000 0.0000 0.0000 4.8499 0.0000 8.4940
#
#
#
# Elastic Compliance Matrix: (Units=1/GPa)
#
#
# Indices 1 2 3 4 5 6 
#
# 1 0.026564 -0.018376 0.000074 0.000000 0.019347 0.000000
# 2 -0.018376 0.033566 -0.008489 0.000000 -0.006603 0.000000
# 3 0.000074 -0.008489 0.021051 0.000000 0.011209 0.000000
# 4 0.000000 0.000000 0.000000 0.321369 0.000000 -0.183496
# 5 0.019347 -0.006603 0.011209 0.000000 0.076532 0.000000
# 6 0.000000 0.000000 0.000000 -0.183496 0.000000 0.222503
#
#
# Mechanical properties :
#
#
# Convention : Reuss Voigt Hill
#
# Bulk Modulus (GPa) = 36.23123 52.52824 44.37973
# Shear Modulus (GPa) = 6.54139 13.94821 10.24480
#
# Velocity S-wave (km/s) = 2.07662 3.03236 2.59881
# Velocity P-wave (km/s) = 5.44379 6.84756 6.18563
#
# Compressibility (1/GPa) = 0.02760050
#
# Stress axis : x y z
#
# Youngs Moduli (GPa) = 37.64533 29.79202 47.50466
#
# Poissons Ratio (x) = 0.54745 -0.00354
# Poissons Ratio (y) = 0.69176 0.40325
# Poissons Ratio (z) = -0.00280 0.25289
#
# Static dielectric constant tensor:
#      x y z
#    x 2.971340 0.000000 -0.238290 
#    y 0.000000 2.750900 0.000000 
#    z -0.238290 0.000000 2.998010 
# 
# 
# High freq. dielectric constant tensor:
#      x y z
#    x 1.571470 0.000000 -0.026010 
#    y 0.000000 1.558890 0.000000 
#    z -0.026010 0.000000 1.554370 
# 
# From -- ./inp_files/66139.got.cif
#   From: 2010.06.25/outbox.cif.g09.slc.cpg/sg10_34_cif.got.tgz:66139.got - 2010.06.27 22:07:45.
