data_PCOD8059180
_publ_section_title
;
Structure prediction by ZEFSAII (Michael W. Deem and Ramdas Pophale) SiO2 
 PCOD8059180
Probable space group: P 2/M
;
_chemical_formula_sum "Si O2"
_cell_formula_units_Z 32
_cell_length_a 21.830157
_cell_length_b 9.269013
_cell_length_c 28.123955
_cell_angle_alpha 90.000000
_cell_angle_beta 17.822307
_cell_angle_gamma 90.000000
_cell_volume 1741.733868
_symmetry_space_group_name_H-M "P 2/M"
_symmetry_group_IT_number 10
_symmetry_cell_setting 'monoclinic'
loop_
_space_group_symop_operation_xyz
x,y,z
-x,y,-z
-x,-y,-z
x,-y,z
loop_
_atom_site_type_symbol
_atom_site_label
_atom_site_fract_x
_atom_site_fract_y
_atom_site_fract_z
Si Si1 0.493142 0.668760 0.950219
Si Si2 0.226467 0.831133 0.327304
Si Si3 0.686054 0.830614 0.543582
Si Si4 0.518430 0.833778 0.770181
Si Si5 0.964033 0.669283 0.098065
Si Si6 0.673215 0.671239 0.234084
Si Si7 0.114034 0.668599 0.084996
Si Si8 0.058418 0.668922 0.232549
O O1 0.532813 0.500000 0.915019
O O2 0.670132 0.750726 0.792798
O O3 0.500000 0.715841 0.000000
O O4 0.280724 0.712470 0.084455
O O5 0.332011 0.790976 0.298497
O O6 0.000000 0.776724 0.500000
O O7 0.235526 0.000000 0.309293
O O8 0.624746 0.795116 0.642467
O O9 0.534122 0.754816 0.619256
O O10 0.905422 0.763969 0.375538
O O11 0.691773 0.000000 0.528654
O O12 0.456492 0.000000 0.818251
O O13 0.321742 0.742269 0.921148
O O14 0.969871 0.500000 0.086384
O O15 0.957962 0.713471 0.158309
O O16 0.766019 0.722265 0.216481
O O17 0.170258 0.725358 0.921844
O O18 0.631251 0.500000 0.263013
O O19 0.158545 0.500000 0.050416
O O20 0.026988 0.711770 0.200447
O O21 0.017826 0.500000 0.271503
#
# Coordination Sequence:
#
# PCOD8059180 Si02
#       8
#     4   4   4   4   4   4   4   4
#     4  10  22  40  59  84 115 144 180 226 274 324
#     4  10  22  39  59  83 112 145 184 225 267 323
#     4  11  23  36  53  80 113 147 184 225 271 322
#     4  10  21  36  54  80 111 141 181 230 272 315
#     4   8  15  28  53  84 107 135 177 227 274 322
#     4   9  16  31  54  80 110 140 177 225 275 323
#     4  10  18  34  59  83 105 138 185 228 272 325
#     4  10  22  38  56  79 109 146 184 222 269 327
#
# _framework density 18.372498
#
# number of rings (size 3 to 8) (size 9 to 14) (size 15 to 20)
#    0.000    2.250    2.500    1.125    1.750    2.000 
#    0.000    2.500    0.000    3.750    0.000    0.000 
#    0.000    0.000    0.000    0.000    0.000    0.000 
#
# Total GULP energy -396773.421627 kJ/mol
# GULP energy per Si atom -12399.169426 kJ/mol
# Density = 1.833068 g / cm^3
# Si number density = 18.372498 Si / 1000 Ang^3
#
#
#
# Elastic Constant Matrix: (Units=GPa)
#
#
# Indices 1 2 3 4 5 6 
#
# 1 -189.2585 62.8767 48.2986 0.0000 -218.3273 0.0000
# 2 62.8767 48.2203 45.9427 0.0000 23.0853 0.0000
# 3 48.2986 45.9427 103.7735 0.0000 6.2373 0.0000
# 4 0.0000 0.0000 0.0000 0.9105 0.0000 18.1041
# 5 -218.3273 23.0853 6.2373 0.0000 -129.3666 0.0000
# 6 0.0000 0.0000 0.0000 18.1041 0.0000 11.1861
#
#
#
# Elastic Compliance Matrix: (Units=1/GPa)
#
#
# Indices 1 2 3 4 5 6 
#
# 1 0.006098 -0.001342 -0.001606 0.000000 -0.010608 0.000000
# 2 -0.001342 0.032487 -0.014201 0.000000 0.007378 0.000000
# 3 -0.001606 -0.014201 0.016612 0.000000 0.000978 0.000000
# 4 0.000000 0.000000 0.000000 -0.035224 0.000000 0.057008
# 5 -0.010608 0.007378 0.000978 0.000000 0.011537 0.000000
# 6 0.000000 0.000000 0.000000 0.057008 0.000000 -0.002867
#
#
# Mechanical properties :
#
#
# Convention : Reuss Voigt Hill
#
# Bulk Modulus (GPa) = 47.85280 30.77458 39.31369
# Shear Modulus (GPa) = 71.52196 -36.41284 17.55456
#
# Velocity S-wave (km/s) = 6.24606 -4.45671 3.09444
# Velocity P-wave (km/s) = 8.83856 3.11388 5.84910
#
# Compressibility (1/GPa) = 0.02089742
#
# Stress axis : x y z
#
# Youngs Moduli (GPa) = 163.99051 30.78173 60.19598
#
# Poissons Ratio (x) = 0.04132 0.09669
# Poissons Ratio (y) = 0.22013 0.85486
# Poissons Ratio (z) = 0.26340 0.43714
#
# Static dielectric constant tensor:
#      x y z
#    x 3.543930 0.000000 -0.210860 
#    y 0.000000 3.186080 0.000000 
#    z -0.210860 0.000000 3.388460 
# 
# 
# High freq. dielectric constant tensor:
#      x y z
#    x 1.730930 0.000000 -0.004630 
#    y 0.000000 1.692900 0.000000 
#    z -0.004630 0.000000 1.700900 
# 
# From -- ./inp_files/93645.got.cif
#   From: 2010.06.25/outbox.cif.g09.slc.cpg/sg10_47_cif.got.tgz:93645.got - 2010.06.27 22:07:45.
