data_PCOD8059700
_publ_section_title
;
Structure prediction by ZEFSAII (Michael W. Deem and Ramdas Pophale) SiO2 
 PCOD8059700
Probable space group: P 2/M
;
_chemical_formula_sum "Si O2"
_cell_formula_units_Z 32
_cell_length_a 18.374384
_cell_length_b 9.288883
_cell_length_c 12.660653
_cell_angle_alpha 90.000000
_cell_angle_beta 60.896584
_cell_angle_gamma 90.000000
_cell_volume 1888.061813
_symmetry_space_group_name_H-M "P 2/M"
_symmetry_group_IT_number 10
_symmetry_cell_setting 'monoclinic'
loop_
_space_group_symop_operation_xyz
x,y,z
-x,y,-z
-x,-y,-z
x,-y,z
loop_
_atom_site_type_symbol
_atom_site_label
_atom_site_fract_x
_atom_site_fract_y
_atom_site_fract_z
Si Si1 0.680688 0.170426 0.472816
Si Si2 0.154923 0.329449 0.259608
Si Si3 0.491439 0.168496 0.314491
Si Si4 0.467057 0.332892 0.912018
Si Si5 0.323391 0.830835 0.757184
Si Si6 0.004152 0.157612 0.621727
Si Si7 0.280454 0.666582 0.987227
Si Si8 0.184848 0.829244 0.455550
O O1 0.585530 0.220380 0.559054
O O2 0.707863 0.221747 0.336235
O O3 0.741921 0.230758 0.520378
O O4 0.685721 0.000000 0.472162
O O5 0.153412 0.500000 0.279625
O O6 0.062525 0.275244 0.292496
O O7 0.189259 0.253576 0.340980
O O8 0.212826 0.284889 0.120771
O O9 0.480693 0.246826 0.210883
O O10 0.578907 0.211625 0.305887
O O11 0.486755 0.000000 0.296513
O O12 0.485811 0.500000 0.881984
O O13 0.369592 0.297649 0.974456
O O14 0.500000 0.277056 0.000000
O O15 0.269208 0.752630 0.885527
O O16 0.311278 0.000000 0.781803
O O17 0.000000 0.143116 0.500000
O O18 0.099036 0.205250 0.579722
O O19 0.984368 0.000000 0.686010
O O20 0.270842 0.500000 0.965880
O O21 0.191950 0.000000 0.427410
#
# Coordination Sequence:
#
# PCOD8059700 Si02
#       8
#     4   4   4   4   4   4   4   4
#     4   9  17  30  49  71  95 121 151 193 236 270
#     4  10  19  30  48  71  95 121 152 189 227 274
#     4   9  17  29  46  69  92 118 154 193 230 267
#     4   9  18  31  45  60  89 128 155 183 226 271
#     4   9  17  31  50  69  90 121 160 194 227 269
#     4   8  15  29  47  67  93 122 150 182 225 276
#     4   9  19  33  46  65  92 122 155 191 229 268
#     4   9  18  31  47  70  98 124 148 182 231 279
#
# _framework density 16.948596999999999
#
# number of rings (size 3 to 8) (size 9 to 14) (size 15 to 20)
#    0.000    3.000    0.000    1.500    1.750    5.000 
#    0.000    1.250    0.000    3.750    0.000    5.250 
#    0.000    0.000    0.000    0.000    0.000    0.000 
#
# Total GULP energy -396638.270212 kJ/mol
# GULP energy per Si atom -12394.945944 kJ/mol
# Density = 1.691002 g / cm^3
# Si number density = 16.948597 Si / 1000 Ang^3
#
#
#
# Elastic Constant Matrix: (Units=GPa)
#
#
# Indices 1 2 3 4 5 6 
#
# 1 67.3998 28.6050 55.0495 0.0000 -0.9116 0.0000
# 2 28.6050 45.6242 49.1773 0.0000 -0.6244 0.0000
# 3 55.0495 49.1773 133.9562 0.0000 0.7996 0.0000
# 4 0.0000 0.0000 0.0000 8.4324 0.0000 -6.6099
# 5 -0.9116 -0.6244 0.7996 0.0000 21.2427 0.0000
# 6 0.0000 0.0000 0.0000 -6.6099 0.0000 16.4983
#
#
#
# Elastic Compliance Matrix: (Units=1/GPa)
#
#
# Indices 1 2 3 4 5 6 
#
# 1 0.023710 -0.007184 -0.007113 0.000000 0.001074 0.000000
# 2 -0.007184 0.038500 -0.011189 0.000000 0.001245 0.000000
# 3 -0.007113 -0.011189 0.014503 0.000000 -0.001180 0.000000
# 4 0.000000 0.000000 0.000000 0.172885 0.000000 0.069265
# 5 0.001074 0.001245 -0.001180 0.000000 0.047202 0.000000
# 6 0.000000 0.000000 0.000000 0.069265 0.000000 0.088363
#
#
# Mechanical properties :
#
#
# Convention : Reuss Voigt Hill
#
# Bulk Modulus (GPa) = 38.84865 56.96043 47.90454
# Shear Modulus (GPa) = 11.24320 16.84457 14.04388
#
# Velocity S-wave (km/s) = 2.57839 3.15598 2.88169
# Velocity P-wave (km/s) = 5.64228 6.85281 6.27680
#
# Compressibility (1/GPa) = 0.02574092
#
# Stress axis : x y z
#
# Youngs Moduli (GPa) = 42.17706 25.97421 68.95269
#
# Poissons Ratio (x) = 0.18660 0.49043
# Poissons Ratio (y) = 0.30300 0.77151
# Poissons Ratio (z) = 0.29999 0.29062
#
# Static dielectric constant tensor:
#      x y z
#    x 3.456490 0.000000 -0.096020 
#    y 0.000000 3.023800 0.000000 
#    z -0.096020 0.000000 3.266250 
# 
# 
# High freq. dielectric constant tensor:
#      x y z
#    x 1.642590 0.000000 -0.004620 
#    y 0.000000 1.637370 0.000000 
#    z -0.004620 0.000000 1.645680 
# 
# From -- ./inp_files/54764.got.cif
#   From: 2010.06.25/outbox.cif.g09.slc.cpg/sg10_28_cif.got.tgz:54764.got - 2010.06.27 22:07:45.
