data_PCOD8059303
_publ_section_title
;
Structure prediction by ZEFSAII (Michael W. Deem and Ramdas Pophale) SiO2 
 PCOD8059303
Probable space group: P 2/M
;
_chemical_formula_sum "Si O2"
_cell_formula_units_Z 28
_cell_length_a 11.575301
_cell_length_b 9.003436
_cell_length_c 21.807999
_cell_angle_alpha 90.000000
_cell_angle_beta 48.561127
_cell_angle_gamma 90.000000
_cell_volume 1703.813360
_symmetry_space_group_name_H-M "P 2/M"
_symmetry_group_IT_number 10
_symmetry_cell_setting 'monoclinic'
loop_
_space_group_symop_operation_xyz
x,y,z
-x,y,-z
-x,-y,-z
x,-y,z
loop_
_atom_site_type_symbol
_atom_site_label
_atom_site_fract_x
_atom_site_fract_y
_atom_site_fract_z
Si Si1 0.169940 0.176990 0.924308
Si Si2 0.232927 0.172577 0.766523
Si Si3 0.492874 0.827839 0.588260
Si Si4 0.716418 0.327234 0.438915
Si Si5 0.022613 0.673181 0.740182
Si Si6 0.285811 0.175652 0.125356
Si Si7 0.379195 0.176053 0.959222
O O1 0.218588 0.235870 0.840259
O O2 0.289199 0.243215 0.932432
O O3 0.174378 0.000000 0.924510
O O4 0.000000 0.236053 0.000000
O O5 0.412243 0.194528 0.682878
O O6 0.113741 0.255724 0.764760
O O7 0.186198 0.000000 0.780329
O O8 0.387643 0.738161 0.578327
O O9 0.666150 0.757700 0.520092
O O10 0.499056 0.000000 0.568297
O O11 0.683191 0.500000 0.459484
O O12 0.891997 0.298604 0.355396
O O13 0.009588 0.500000 0.758684
O O14 0.854634 0.743350 0.792038
O O15 0.442679 0.227274 0.104267
O O16 0.261986 0.000000 0.138745
O O17 0.294868 0.227563 0.051251
O O18 0.375002 0.000000 0.959346
#
# Coordination Sequence:
#
# PCOD8059303 Si02
#       7
#     4   4   4   4   4   4   4
#     4   9  15  24  42  66  88 110 137 168 201 241
#     4   9  17  27  41  62  86 113 142 170 203 245
#     4   9  15  23  36  56  81 106 134 168 203 241
#     4   9  16  25  37  54  78 108 137 165 202 248
#     4  10  19  28  40  61  87 112 139 172 209 248
#     4   9  16  28  46  64  83 108 140 176 208 242
#     4   8  15  27  44  66  86 107 139 174 206 242
#
# _framework density 16.433724000000002
#
# number of rings (size 3 to 8) (size 9 to 14) (size 15 to 20)
#    0.000    3.000    0.000    3.857    0.000    4.571 
#    0.000    1.429    0.000    4.714    0.000    1.000 
#    0.000    8.000    0.000    0.000    0.000    0.000 
#
# Total GULP energy -346899.837122 kJ/mol
# GULP energy per Si atom -12389.279897 kJ/mol
# Density = 1.639632 g / cm^3
# Si number density = 16.433724 Si / 1000 Ang^3
#
#
#
# Elastic Constant Matrix: (Units=GPa)
#
#
# Indices 1 2 3 4 5 6 
#
# 1 84.5401 14.3388 57.7954 0.0000 -7.6777 0.0000
# 2 14.3388 -87.5227 27.2422 0.0000 18.1507 0.0000
# 3 57.7954 27.2422 152.2794 0.0000 -15.2712 0.0000
# 4 0.0000 0.0000 0.0000 16.3040 0.0000 -9.8205
# 5 -7.6777 18.1507 -15.2712 0.0000 17.4026 0.0000
# 6 0.0000 0.0000 0.0000 -9.8205 0.0000 3.8784
#
#
#
# Elastic Compliance Matrix: (Units=1/GPa)
#
#
# Indices 1 2 3 4 5 6 
#
# 1 0.015941 0.000861 -0.006128 0.000000 0.000757 0.000000
# 2 0.000861 -0.008296 0.002262 0.000000 0.011017 0.000000
# 3 -0.006128 0.002262 0.008750 0.000000 0.002616 0.000000
# 4 0.000000 0.000000 0.000000 -0.116788 0.000000 -0.295720
# 5 0.000757 0.011017 0.002616 0.000000 0.048601 0.000000
# 6 0.000000 0.000000 0.000000 -0.295720 0.000000 -0.490956
#
#
# Mechanical properties :
#
#
# Convention : Reuss Voigt Hill
#
# Bulk Modulus (GPa) = 96.28787 38.67218 67.48003
# Shear Modulus (GPa) = -9.37602 10.84502 0.73450
#
# Velocity S-wave (km/s) = -2.39118 2.57169 0.66927
# Velocity P-wave (km/s) = 7.14809 5.69222 6.46129
#
# Compressibility (1/GPa) = 0.01038552
#
# Stress axis : x y z
#
# Youngs Moduli (GPa) = 62.73137 -120.54491 114.28028
#
# Poissons Ratio (x) = 0.10380 0.70034
# Poissons Ratio (y) = -0.05402 -0.25851
# Poissons Ratio (z) = 0.38444 0.27268
#
# Static dielectric constant tensor:
#      x y z
#    x 2.949600 0.000000 -0.190230 
#    y 0.000000 2.890920 0.000000 
#    z -0.190230 0.000000 3.997550 
# 
# 
# High freq. dielectric constant tensor:
#      x y z
#    x 1.583610 0.000000 -0.019670 
#    y 0.000000 1.611710 0.000000 
#    z -0.019670 0.000000 1.650590 
# 
# From -- ./inp_files/83311.got.cif
#   From: 2010.06.25/outbox.cif.g09.slc.cpg/sg10_42_cif.got.tgz:83311.got - 2010.06.27 22:07:45.
