data_PCOD8059858
_publ_section_title
;
Structure prediction by ZEFSAII (Michael W. Deem and Ramdas Pophale) SiO2 
 PCOD8059858
Probable space group: P 2/M
;
_chemical_formula_sum "Si O2"
_cell_formula_units_Z 32
_cell_length_a 11.546416
_cell_length_b 9.028043
_cell_length_c 21.153697
_cell_angle_alpha 90.000000
_cell_angle_beta 118.235659
_cell_angle_gamma 90.000000
_cell_volume 1942.708020
_symmetry_space_group_name_H-M "P 2/M"
_symmetry_group_IT_number 10
_symmetry_cell_setting 'monoclinic'
loop_
_space_group_symop_operation_xyz
x,y,z
-x,y,-z
-x,-y,-z
x,-y,z
loop_
_atom_site_type_symbol
_atom_site_label
_atom_site_fract_x
_atom_site_fract_y
_atom_site_fract_z
Si Si1 0.034650 0.175403 0.105437
Si Si2 0.848033 0.665892 0.479619
Si Si3 0.782040 0.833805 0.344294
Si Si4 0.721785 0.324111 0.205151
Si Si5 0.206295 0.824108 0.037460
Si Si6 0.508861 0.828156 0.927689
Si Si7 0.986475 0.824492 0.231734
Si Si8 0.913902 0.164081 0.613077
O O1 0.157793 0.230140 0.094579
O O2 0.051189 0.226877 0.182256
O O3 0.029301 0.000000 0.100585
O O4 0.897447 0.236893 0.041314
O O5 0.793046 0.500000 0.464861
O O6 0.762151 0.760812 0.408103
O O7 0.830459 0.728826 0.546168
O O8 0.000000 0.670571 0.500000
O O9 0.705610 0.739001 0.271971
O O10 0.934876 0.836879 0.367752
O O11 0.724240 0.000000 0.330913
O O12 0.730173 0.500000 0.210863
O O13 0.598587 0.274041 0.132452
O O14 0.851105 0.261857 0.204923
O O15 0.351136 0.764176 0.059972
O O16 0.210056 0.000000 0.034560
O O17 0.487451 0.000000 0.903174
O O18 0.500000 0.808497 0.000000
O O19 0.089688 0.783635 0.314420
O O20 0.954723 0.000000 0.225385
O O21 0.853979 0.000000 0.590297
#
# Coordination Sequence:
#
# PCOD8059858 Si02
#       8
#     4   4   4   4   4   4   4   4
#     4   8  13  24  43  66  87 106 135 178 221 254
#     4   9  15  22  34  53  78 108 139 171 207 246
#     4   9  16  27  41  55  76 108 144 177 209 249
#     4  11  21  30  41  60  87 115 145 180 215 253
#     4   8  14  24  42  67  88 106 136 179 219 254
#     4  10  19  31  47  65  86 114 146 177 212 255
#     4   9  16  27  43  61  84 114 146 178 214 256
#     4   8  14  22  33  52  77 107 140 171 204 246
#
# _framework density 16.471851999999998
#
# number of rings (size 3 to 8) (size 9 to 14) (size 15 to 20)
#    0.000    3.000    0.000    4.125    0.000    6.750 
#    0.000    0.000    0.000    0.750    0.000    2.625 
#    0.000    1.000    0.000   11.750    0.000    5.000 
#
# Total GULP energy -396587.244777 kJ/mol
# GULP energy per Si atom -12393.351399 kJ/mol
# Density = 1.643436 g / cm^3
# Si number density = 16.471852 Si / 1000 Ang^3
#
#
#
# Elastic Constant Matrix: (Units=GPa)
#
#
# Indices 1 2 3 4 5 6 
#
# 1 64.0546 27.2745 43.3441 0.0000 -14.6359 0.0000
# 2 27.2745 79.5510 49.4238 0.0000 -8.7576 0.0000
# 3 43.3441 49.4238 124.7859 0.0000 -31.7650 0.0000
# 4 0.0000 0.0000 0.0000 18.1261 0.0000 2.5849
# 5 -14.6359 -8.7576 -31.7650 0.0000 22.4516 0.0000
# 6 0.0000 0.0000 0.0000 2.5849 0.0000 4.4610
#
#
#
# Elastic Compliance Matrix: (Units=1/GPa)
#
#
# Indices 1 2 3 4 5 6 
#
# 1 0.021730 -0.004079 -0.004269 0.000000 0.006535 0.000000
# 2 -0.004079 0.017727 -0.007066 0.000000 -0.005741 0.000000
# 3 -0.004269 -0.007066 0.017012 0.000000 0.018530 0.000000
# 4 0.000000 0.000000 0.000000 0.060138 0.000000 -0.034846
# 5 0.006535 -0.005741 0.018530 0.000000 0.072777 0.000000
# 6 0.000000 0.000000 0.000000 -0.034846 0.000000 0.244356
#
#
# Mechanical properties :
#
#
# Convention : Reuss Voigt Hill
#
# Bulk Modulus (GPa) = 38.99825 56.49738 47.74782
# Shear Modulus (GPa) = 10.56826 18.89767 14.73297
#
# Velocity S-wave (km/s) = 2.53572 3.39081 2.99395
# Velocity P-wave (km/s) = 5.68333 7.05010 6.40329
#
# Compressibility (1/GPa) = 0.02564217
#
# Stress axis : x y z
#
# Youngs Moduli (GPa) = 46.01871 56.41191 58.78209
#
# Poissons Ratio (x) = 0.23008 0.25095
# Poissons Ratio (y) = 0.18769 0.41534
# Poissons Ratio (z) = 0.19646 0.39859
#
# Static dielectric constant tensor:
#      x y z
#    x 2.900010 0.000000 -0.320880 
#    y 0.000000 2.942810 0.000000 
#    z -0.320880 0.000000 3.416600 
# 
# 
# High freq. dielectric constant tensor:
#      x y z
#    x 1.578150 0.000000 -0.023580 
#    y 0.000000 1.612430 0.000000 
#    z -0.023580 0.000000 1.645310 
# 
# From -- ./inp_files/83380.got.cif
#   From: 2010.06.25/outbox.cif.g09.slc.cpg/sg10_42_cif.got.tgz:83380.got - 2010.06.27 22:07:45.
