data_PCOD8059171
_publ_section_title
;
Structure prediction by ZEFSAII (Michael W. Deem and Ramdas Pophale) SiO2 
 PCOD8059171
Probable space group: P 2/M
;
_chemical_formula_sum "Si O2"
_cell_formula_units_Z 28
_cell_length_a 15.734018
_cell_length_b 9.038537
_cell_length_c 11.758122
_cell_angle_alpha 90.000000
_cell_angle_beta 123.629793
_cell_angle_gamma 90.000000
_cell_volume 1392.289534
_symmetry_space_group_name_H-M "P 2/M"
_symmetry_group_IT_number 10
_symmetry_cell_setting 'monoclinic'
loop_
_space_group_symop_operation_xyz
x,y,z
-x,y,-z
-x,-y,-z
x,-y,z
loop_
_atom_site_type_symbol
_atom_site_label
_atom_site_fract_x
_atom_site_fract_y
_atom_site_fract_z
Si Si1 0.832952 0.323775 0.646640
Si Si2 0.763612 0.171600 0.813690
Si Si3 0.990135 0.173333 0.360626
Si Si4 0.614917 0.325894 0.089502
Si Si5 0.785064 0.829914 0.085386
Si Si6 0.356500 0.325343 0.638222
Si Si7 0.552526 0.666442 0.660005
O O1 0.834557 0.500000 0.652361
O O2 0.831328 0.261475 0.773393
O O3 0.733259 0.260447 0.507047
O O4 0.931341 0.267920 0.653735
O O5 0.647306 0.224527 0.728514
O O6 0.766018 0.000000 0.781995
O O7 0.813053 0.198939 0.974353
O O8 0.878508 0.220542 0.234061
O O9 0.000000 0.216085 0.500000
O O10 0.010809 0.000000 0.355708
O O11 0.612600 0.500000 0.069397
O O12 0.683123 0.259418 0.040074
O O13 0.664698 0.280838 0.247300
O O14 0.500000 0.262657 0.000000
O O15 0.759298 0.000000 0.087803
O O16 0.358018 0.500000 0.622618
O O17 0.468597 0.267586 0.685307
O O18 0.500000 0.660620 0.500000
O O19 0.588204 0.500000 0.720792
#
# Coordination Sequence:
#
# PCOD8059171 Si02
#       7
#     4   4   4   4   4   4   4
#     4  11  22  38  60  86 115 149 193 241 289 341
#     4  11  23  38  56  83 119 155 193 235 285 346
#     4  10  22  42  65  87 113 148 192 240 292 346
#     4  10  20  35  58  86 115 148 190 235 280 340
#     4  10  23  41  59  82 117 155 189 235 292 344
#     4   9  18  33  54  83 116 148 184 234 292 339
#     4  10  18  34  58  82 115 156 192 233 284 336
#
# _framework density 20.110759000000002
#
# number of rings (size 3 to 8) (size 9 to 14) (size 15 to 20)
#    0.000    1.857    1.429    2.571    0.000    4.286 
#    0.000    4.286    0.000    0.000    0.000    0.000 
#    0.000    0.000    0.000    0.000    0.000    0.000 
#
# Total GULP energy -347254.199359 kJ/mol
# GULP energy per Si atom -12401.935691 kJ/mol
# Density = 2.006499 g / cm^3
# Si number density = 20.110759 Si / 1000 Ang^3
#
#
#
# Elastic Constant Matrix: (Units=GPa)
#
#
# Indices 1 2 3 4 5 6 
#
# 1 138.6976 54.7425 52.3503 0.0000 -8.8840 0.0000
# 2 54.7425 66.5481 40.8843 0.0000 -2.6515 0.0000
# 3 52.3503 40.8843 114.9885 0.0000 -1.2821 0.0000
# 4 0.0000 0.0000 0.0000 10.9584 0.0000 4.7384
# 5 -8.8840 -2.6515 -1.2821 0.0000 29.6910 0.0000
# 6 0.0000 0.0000 0.0000 4.7384 0.0000 32.5617
#
#
#
# Elastic Compliance Matrix: (Units=1/GPa)
#
#
# Indices 1 2 3 4 5 6 
#
# 1 0.011336 -0.007765 -0.002371 0.000000 0.002596 0.000000
# 2 -0.007765 0.024605 -0.005217 0.000000 -0.000351 0.000000
# 3 -0.002371 -0.005217 0.011624 0.000000 -0.000673 0.000000
# 4 0.000000 0.000000 0.000000 0.097382 0.000000 -0.014171
# 5 0.002596 -0.000351 -0.000673 0.000000 0.034397 0.000000
# 6 0.000000 0.000000 0.000000 -0.014171 0.000000 0.032773
#
#
# Mechanical properties :
#
#
# Convention : Reuss Voigt Hill
#
# Bulk Modulus (GPa) = 59.31794 68.46538 63.89166
# Shear Modulus (GPa) = 20.12540 26.12604 23.12572
#
# Velocity S-wave (km/s) = 3.16686 3.60822 3.39472
# Velocity P-wave (km/s) = 6.55223 7.17475 6.87054
#
# Compressibility (1/GPa) = 0.01685831
#
# Stress axis : x y z
#
# Youngs Moduli (GPa) = 88.21599 40.64166 86.03231
#
# Poissons Ratio (x) = 0.31557 0.20399
# Poissons Ratio (y) = 0.68497 0.44886
# Poissons Ratio (z) = 0.20917 0.21204
#
# Static dielectric constant tensor:
#      x y z
#    x 3.693190 0.000000 -0.088850 
#    y 0.000000 3.450710 0.000000 
#    z -0.088850 0.000000 3.882440 
# 
# 
# High freq. dielectric constant tensor:
#      x y z
#    x 1.790880 0.000000 -0.009870 
#    y 0.000000 1.762060 0.000000 
#    z -0.009870 0.000000 1.796110 
# 
# From -- ./inp_files/50059.got.cif
#   From: 2010.06.25/outbox.cif.g09.slc.cpg/sg10_26_cif.got.tgz:50059.got - 2010.06.27 22:07:45.
