data_PCOD8059178
_publ_section_title
;
Structure prediction by ZEFSAII (Michael W. Deem and Ramdas Pophale) SiO2 
 PCOD8059178
Probable space group: P 2/M
;
_chemical_formula_sum "Si O2"
_cell_formula_units_Z 32
_cell_length_a 25.961291
_cell_length_b 8.976793
_cell_length_c 20.063959
_cell_angle_alpha 90.000000
_cell_angle_beta 21.312954
_cell_angle_gamma 90.000000
_cell_volume 1699.507091
_symmetry_space_group_name_H-M "P 2/M"
_symmetry_group_IT_number 10
_symmetry_cell_setting 'monoclinic'
loop_
_space_group_symop_operation_xyz
x,y,z
-x,y,-z
-x,-y,-z
x,-y,z
loop_
_atom_site_type_symbol
_atom_site_label
_atom_site_fract_x
_atom_site_fract_y
_atom_site_fract_z
Si Si1 0.594772 0.674692 0.745841
Si Si2 0.180629 0.674432 0.418581
Si Si3 0.280673 0.674138 0.149662
Si Si4 0.657413 0.323915 0.289354
Si Si5 0.621580 0.325715 0.562712
Si Si6 0.340059 0.824503 0.851402
Si Si7 0.884016 0.175699 0.766868
Si Si8 0.156942 0.323671 0.812197
O O1 0.583627 0.500000 0.771798
O O2 0.706904 0.739653 0.663504
O O3 0.648956 0.714134 0.606657
O O4 0.437308 0.740980 0.946701
O O5 0.151773 0.500000 0.464504
O O6 0.244217 0.706538 0.269700
O O7 0.035875 0.761537 0.604189
O O8 0.272778 0.500000 0.141770
O O9 0.165297 0.756771 0.243826
O O10 0.500000 0.275875 0.500000
O O11 0.667421 0.500000 0.267184
O O12 0.705485 0.246091 0.163615
O O13 0.761181 0.263637 0.221780
O O14 0.587018 0.500000 0.594520
O O15 0.491464 0.234491 0.691175
O O16 0.761310 0.277670 0.353755
O O17 0.347987 0.000000 0.833893
O O18 0.225111 0.775304 0.044401
O O19 0.893524 0.000000 0.747546
O O20 0.147492 0.500000 0.828555
O O21 0.000000 0.252715 0.000000
#
# Coordination Sequence:
#
# PCOD8059178 Si02
#       8
#     4   4   4   4   4   4   4   4
#     4   9  18  33  58  87 112 142 184 232 282 337
#     4  10  21  36  56  86 117 144 181 231 288 339
#     4  10  19  35  60  85 111 144 184 234 284 334
#     4  10  19  34  58  86 110 139 179 223 268 320
#     4  10  18  34  59  82 108 144 184 225 273 326
#     4  11  23  37  55  80 110 146 188 232 274 318
#     4  11  24  39  54  78 113 152 193 233 276 329
#     4   9  18  32  53  84 116 139 170 219 270 321
#
# _framework density 18.828989
#
# number of rings (size 3 to 8) (size 9 to 14) (size 15 to 20)
#    0.000    2.000    2.500    1.500    0.000    6.250 
#    0.000    3.750    0.000    3.000    0.000    0.000 
#    0.000    0.000    0.000    0.000    0.000    0.000 
#
# Total GULP energy -396886.255231 kJ/mol
# GULP energy per Si atom -12402.695476 kJ/mol
# Density = 1.878613 g / cm^3
# Si number density = 18.828989 Si / 1000 Ang^3
#
#
#
# Elastic Constant Matrix: (Units=GPa)
#
#
# Indices 1 2 3 4 5 6 
#
# 1 128.7515 22.9388 56.3809 0.0000 -1.2001 0.0000
# 2 22.9388 27.9747 24.7028 0.0000 5.4458 0.0000
# 3 56.3809 24.7028 126.1366 0.0000 -8.2094 0.0000
# 4 0.0000 0.0000 0.0000 19.0831 0.0000 7.5954
# 5 -1.2001 5.4458 -8.2094 0.0000 37.1225 0.0000
# 6 0.0000 0.0000 0.0000 7.5954 0.0000 6.0107
#
#
#
# Elastic Compliance Matrix: (Units=1/GPa)
#
#
# Indices 1 2 3 4 5 6 
#
# 1 0.010268 -0.005385 -0.003512 0.000000 0.000345 0.000000
# 2 -0.005385 0.048744 -0.007727 0.000000 -0.009034 0.000000
# 3 -0.003512 -0.007727 0.011239 0.000000 0.003506 0.000000
# 4 0.000000 0.000000 0.000000 0.105425 0.000000 -0.133218
# 5 0.000345 -0.009034 0.003506 0.000000 0.029049 0.000000
# 6 0.000000 0.000000 0.000000 -0.133218 0.000000 0.334707
#
#
# Mechanical properties :
#
#
# Convention : Reuss Voigt Hill
#
# Bulk Modulus (GPa) = 27.02538 54.54530 40.78534
# Shear Modulus (GPa) = 8.54679 24.36596 16.45637
#
# Velocity S-wave (km/s) = 2.13284 3.60122 2.95954
# Velocity P-wave (km/s) = 4.52212 6.80613 5.77810
#
# Compressibility (1/GPa) = 0.03700226
#
# Stress axis : x y z
#
# Youngs Moduli (GPa) = 97.39375 20.51532 88.97326
#
# Poissons Ratio (x) = 0.11047 0.31251
# Poissons Ratio (y) = 0.52445 0.68751
# Poissons Ratio (z) = 0.34209 0.15852
#
# Static dielectric constant tensor:
#      x y z
#    x 3.674740 0.000000 -0.007510 
#    y 0.000000 3.113450 0.000000 
#    z -0.007510 0.000000 3.690320 
# 
# 
# High freq. dielectric constant tensor:
#      x y z
#    x 1.745630 0.000000 0.004100 
#    y 0.000000 1.695420 0.000000 
#    z 0.004100 0.000000 1.740950 
# 
# From -- ./inp_files/86849.got.cif
#   From: 2010.06.25/outbox.cif.g09.slc.cpg/sg10_44_cif.got.tgz:86849.got - 2010.06.27 22:07:45.
