data_PCOD8059477
_publ_section_title
;
Structure prediction by ZEFSAII (Michael W. Deem and Ramdas Pophale) SiO2 
 PCOD8059477
Probable space group: P 2/M
;
_chemical_formula_sum "Si O2"
_cell_formula_units_Z 30
_cell_length_a 11.965692
_cell_length_b 16.523694
_cell_length_c 11.099960
_cell_angle_alpha 90.000000
_cell_angle_beta 138.366018
_cell_angle_gamma 90.000000
_cell_volume 1458.062491
_symmetry_space_group_name_H-M "P 2/M"
_symmetry_group_IT_number 10
_symmetry_cell_setting 'monoclinic'
loop_
_space_group_symop_operation_xyz
x,y,z
-x,y,-z
-x,-y,-z
x,-y,z
loop_
_atom_site_type_symbol
_atom_site_label
_atom_site_fract_x
_atom_site_fract_y
_atom_site_fract_z
Si Si1 0.915799 0.586255 0.308528
Si Si2 0.313528 0.248343 0.393671
Si Si3 0.243490 0.095907 0.013891
Si Si4 0.830151 0.093865 0.311816
Si Si5 0.000000 0.175112 0.000000
Si Si6 0.629086 0.659142 0.195862
Si Si7 0.747108 0.407824 0.534775
Si Si8 0.589380 0.824444 0.289433
O O1 0.831443 0.500000 0.197070
O O2 0.793436 0.661081 0.241148
O O3 0.000000 0.562101 0.500000
O O4 0.055312 0.613216 0.323637
O O5 0.500000 0.223374 0.500000
O O6 0.155745 0.227522 0.179803
O O7 0.317197 0.345444 0.416334
O O8 0.291944 0.201014 0.502896
O O9 0.212953 0.128611 0.854255
O O10 0.273145 0.000000 0.045757
O O11 0.081889 0.118673 0.963920
O O12 0.411182 0.142109 0.194236
O O13 0.679211 0.106011 0.284420
O O14 0.000000 0.135783 0.500000
O O15 0.863277 0.000000 0.321304
O O16 0.648854 0.603503 0.329453
O O17 0.569214 0.748132 0.184690
O O18 0.500000 0.617928 0.000000
O O19 0.719578 0.500000 0.556967
#
# Coordination Sequence:
#
# PCOD8059477 Si02
#       8
#     4   4   4   4   2   4   4   4
#     4   8  15  30  49  75 113 152 191 239 298 367
#     4  11  24  45  66  91 125 167 218 277 328 385
#     4  11  23  41  66  95 130 173 221 267 323 390
#     4  10  21  37  59  91 129 164 204 258 320 388
#     4  12  25  46  71  90 128 174 222 278 323 386
#     4  10  19  29  53  88 127 163 202 250 314 383
#     4   9  20  38  60  85 121 168 213 262 320 381
#     4  11  22  39  61  91 128 167 215 267 327 389
#
# _framework density 20.57525
#
# number of rings (size 3 to 8) (size 9 to 14) (size 15 to 20)
#    0.000    1.867    1.333    3.800    0.000    7.200 
#    0.000    3.000    0.000    0.000    0.000    0.000 
#    0.000    0.000    0.000    0.000    0.000    0.000 
#
# Total GULP energy -371653.957498 kJ/mol
# GULP energy per Si atom -12388.465250 kJ/mol
# Density = 2.052842 g / cm^3
# Si number density = 20.575250 Si / 1000 Ang^3
#
#
#
# Elastic Constant Matrix: (Units=GPa)
#
#
# Indices 1 2 3 4 5 6 
#
# 1 98.0980 29.4286 35.4868 0.0000 10.1436 0.0000
# 2 29.4286 82.0172 39.6675 0.0000 3.2561 0.0000
# 3 35.4868 39.6675 120.2609 0.0000 3.3805 0.0000
# 4 0.0000 0.0000 0.0000 11.4279 0.0000 4.8662
# 5 10.1436 3.2561 3.3805 0.0000 31.8035 0.0000
# 6 0.0000 0.0000 0.0000 4.8662 0.0000 40.8235
#
#
#
# Elastic Compliance Matrix: (Units=1/GPa)
#
#
# Indices 1 2 3 4 5 6 
#
# 1 0.012386 -0.003080 -0.002544 0.000000 -0.003365 0.000000
# 2 -0.003080 0.015303 -0.004135 0.000000 -0.000145 0.000000
# 3 -0.002544 -0.004135 0.010426 0.000000 0.000127 0.000000
# 4 0.000000 0.000000 0.000000 0.092184 0.000000 -0.010988
# 5 -0.003365 -0.000145 0.000127 0.000000 0.032518 0.000000
# 6 0.000000 0.000000 0.000000 -0.010988 0.000000 0.025805
#
#
# Mechanical properties :
#
#
# Convention : Reuss Voigt Hill
#
# Bulk Modulus (GPa) = 53.77133 56.61578 55.19356
# Shear Modulus (GPa) = 23.32731 29.86386 26.59559
#
# Velocity S-wave (km/s) = 3.37078 3.81392 3.59918
# Velocity P-wave (km/s) = 6.42964 6.85353 6.64496
#
# Compressibility (1/GPa) = 0.01859727
#
# Stress axis : x y z
#
# Youngs Moduli (GPa) = 80.73460 65.34553 95.91097
#
# Poissons Ratio (x) = 0.20127 0.24404
# Poissons Ratio (y) = 0.24867 0.39657
# Poissons Ratio (z) = 0.20542 0.27019
#
# Static dielectric constant tensor:
#      x y z
#    x 3.942240 0.000000 0.305610 
#    y 0.000000 3.501040 0.000000 
#    z 0.305610 0.000000 3.969850 
# 
# 
# High freq. dielectric constant tensor:
#      x y z
#    x 1.801660 0.000000 0.008500 
#    y 0.000000 1.797700 0.000000 
#    z 0.008500 0.000000 1.794890 
# 
# From -- ./inp_files/47913.got.cif
#   From: 2010.06.25/outbox.cif.g09.slc.cpg/sg10_24_cif.got.tgz:47913.got - 2010.06.27 22:07:45.
