data_PCOD8059201
_publ_section_title
;
Structure prediction by ZEFSAII (Michael W. Deem and Ramdas Pophale) SiO2 
 PCOD8059201
Probable space group: P 2/M
;
_chemical_formula_sum "Si O2"
_cell_formula_units_Z 32
_cell_length_a 9.788993
_cell_length_b 13.302428
_cell_length_c 22.418847
_cell_angle_alpha 90.000000
_cell_angle_beta 34.091832
_cell_angle_gamma 90.000000
_cell_volume 1636.341900
_symmetry_space_group_name_H-M "P 2/M"
_symmetry_group_IT_number 10
_symmetry_cell_setting 'monoclinic'
loop_
_space_group_symop_operation_xyz
x,y,z
-x,y,-z
-x,-y,-z
x,-y,z
loop_
_atom_site_type_symbol
_atom_site_label
_atom_site_fract_x
_atom_site_fract_y
_atom_site_fract_z
Si Si1 0.565149 0.792042 0.847978
Si Si2 0.240153 0.114997 0.447798
Si Si3 0.339894 0.611005 0.112748
Si Si4 0.550613 0.245543 0.415567
Si Si5 0.959468 0.206451 0.906792
Si Si6 0.985096 0.116114 0.769322
Si Si7 0.575179 0.886800 0.216398
Si Si8 0.158644 0.386619 0.770294
O O1 0.638756 0.677463 0.835622
O O2 0.752076 0.868344 0.811417
O O3 0.572307 0.813557 0.774844
O O4 0.290358 0.805027 0.968513
O O5 0.310443 0.186176 0.478104
O O6 0.468027 0.121994 0.321127
O O7 0.000000 0.153919 0.500000
O O8 0.197449 0.000000 0.485317
O O9 0.442518 0.500000 0.090073
O O10 0.057959 0.607786 0.198949
O O11 0.500000 0.657303 0.000000
O O12 0.500000 0.289567 0.500000
O O13 0.613538 0.335239 0.346362
O O14 0.774490 0.169113 0.342577
O O15 0.144273 0.143150 0.880076
O O16 0.066776 0.320509 0.860277
O O17 0.915453 0.161586 0.857812
O O18 0.046802 0.000000 0.753056
O O19 0.553447 0.000000 0.199439
O O20 0.228866 0.500000 0.766043
#
# Coordination Sequence:
#
# PCOD8059201 Si02
#       8
#     4   4   4   4   4   4   4   4
#     4  12  22  35  56  90 122 154 204 242 288 348
#     4  10  22  40  61  84 114 159 202 238 293 358
#     4  10  18  34  60  88 117 151 195 246 300 346
#     4  11  23  39  62  89 114 146 192 256 305 352
#     4  11  21  38  58  84 117 165 202 237 287 353
#     4  11  22  36  56  85 121 154 198 252 294 341
#     4  11  24  40  56  81 125 169 199 235 291 357
#     4  10  20  37  63  89 116 151 191 243 304 358
#
# _framework density 19.555816
#
# number of rings (size 3 to 8) (size 9 to 14) (size 15 to 20)
#    0.000    1.250    6.250    1.875    1.750    4.250 
#    0.000    0.625    0.000    1.875    0.000    0.000 
#    0.000    0.000    0.000    0.000    0.000    0.000 
#
# Total GULP energy -396780.282697 kJ/mol
# GULP energy per Si atom -12399.383834 kJ/mol
# Density = 1.951131 g / cm^3
# Si number density = 19.555816 Si / 1000 Ang^3
#
#
#
# Elastic Constant Matrix: (Units=GPa)
#
#
# Indices 1 2 3 4 5 6 
#
# 1 78.8729 5.5234 5.0406 0.0000 -4.4272 0.0000
# 2 5.5234 79.9784 15.7371 0.0000 -2.9597 0.0000
# 3 5.0406 15.7371 39.3812 0.0000 -10.4594 0.0000
# 4 0.0000 0.0000 0.0000 17.8639 0.0000 -1.4087
# 5 -4.4272 -2.9597 -10.4594 0.0000 28.2201 0.0000
# 6 0.0000 0.0000 0.0000 -1.4087 0.0000 28.0539
#
#
#
# Elastic Compliance Matrix: (Units=1/GPa)
#
#
# Indices 1 2 3 4 5 6 
#
# 1 0.012875 -0.000639 -0.000969 0.000000 0.001594 0.000000
# 2 -0.000639 0.013613 -0.005552 0.000000 -0.000730 0.000000
# 3 -0.000969 -0.005552 0.030548 0.000000 0.010588 0.000000
# 4 0.000000 0.000000 0.000000 0.056201 0.000000 0.002822
# 5 0.001594 -0.000730 0.010588 0.000000 0.039533 0.000000
# 6 0.000000 0.000000 0.000000 0.002822 0.000000 0.035787
#
#
# Mechanical properties :
#
#
# Convention : Reuss Voigt Hill
#
# Bulk Modulus (GPa) = 23.41151 27.87053 25.64102
# Shear Modulus (GPa) = 23.02909 26.28967 24.65938
#
# Velocity S-wave (km/s) = 3.43535 3.67050 3.55487
# Velocity P-wave (km/s) = 5.26623 5.67857 5.47628
#
# Compressibility (1/GPa) = 0.04271403
#
# Stress axis : x y z
#
# Youngs Moduli (GPa) = 77.67116 73.45935 32.73584
#
# Poissons Ratio (x) = 0.04698 0.03173
# Poissons Ratio (y) = 0.04967 0.18175
# Poissons Ratio (z) = 0.07527 0.40785
#
# Static dielectric constant tensor:
#      x y z
#    x 3.475390 0.000000 -0.110660 
#    y 0.000000 3.898700 0.000000 
#    z -0.110660 0.000000 3.492240 
# 
# 
# High freq. dielectric constant tensor:
#      x y z
#    x 1.753190 0.000000 -0.014290 
#    y 0.000000 1.754520 0.000000 
#    z -0.014290 0.000000 1.752430 
# 
# From -- ./inp_files/82809.got.cif
#   From: 2010.06.25/outbox.cif.g09.slc.cpg/sg10_42_cif.got.tgz:82809.got - 2010.06.27 22:07:45.
