data_PCOD8059002
_publ_section_title
;
Structure prediction by ZEFSAII (Michael W. Deem and Ramdas Pophale) SiO2 
 PCOD8059002
Probable space group: P 2/M
;
_chemical_formula_sum "Si O2"
_cell_formula_units_Z 28
_cell_length_a 23.297280
_cell_length_b 14.014081
_cell_length_c 9.397024
_cell_angle_alpha 90.000000
_cell_angle_beta 30.465271
_cell_angle_gamma 90.000000
_cell_volume 1555.542382
_symmetry_space_group_name_H-M "P 2/M"
_symmetry_group_IT_number 10
_symmetry_cell_setting 'monoclinic'
loop_
_space_group_symop_operation_xyz
x,y,z
-x,y,-z
-x,-y,-z
x,-y,z
loop_
_atom_site_type_symbol
_atom_site_label
_atom_site_fract_x
_atom_site_fract_y
_atom_site_fract_z
Si Si1 0.255457 0.216800 0.572996
Si Si2 0.542874 0.607523 0.257522
Si Si3 0.911999 0.110039 0.892569
Si Si4 0.606627 0.606916 0.682570
Si Si5 0.162188 0.890645 0.264820
Si Si6 0.542258 0.894371 0.749727
Si Si7 0.666677 0.213046 0.906464
O O1 0.281149 0.329568 0.535972
O O2 0.340308 0.161675 0.497884
O O3 0.267345 0.191453 0.381375
O O4 0.132658 0.183236 0.890548
O O5 0.500000 0.646427 0.500000
O O6 0.592876 0.500000 0.161686
O O7 0.430495 0.607116 0.401248
O O8 0.641967 0.674576 0.982509
O O9 0.851880 0.132628 0.871209
O O10 0.045155 0.129147 0.596589
O O11 0.888975 0.000000 0.986157
O O12 0.634046 0.500000 0.679238
O O13 0.500000 0.650385 0.000000
O O14 0.259069 0.823652 0.121303
O O15 0.198453 0.000000 0.209614
O O16 0.562362 0.000000 0.644291
O O17 0.500000 0.899801 0.000000
O O18 0.453713 0.840789 0.837250
#
# Coordination Sequence:
#
# PCOD8059002 Si02
#       7
#     4   4   4   4   4   4   4
#     4  11  19  31  50  79 105 135 171 211 260 307
#     4  10  21  35  51  76 109 141 173 210 255 308
#     4   9  20  38  56  73 100 138 179 218 258 306
#     4  10  18  33  53  75 107 141 172 207 251 310
#     4   9  20  38  55  73 100 139 180 216 257 305
#     4   9  17  28  42  69 107 136 157 196 253 305
#     4  11  20  31  52  79 106 133 171 217 256 305
#
# _framework density 18.000152
#
# number of rings (size 3 to 8) (size 9 to 14) (size 15 to 20)
#    0.000    2.143    2.857    2.143    2.000    2.286 
#    0.000    1.429    0.000    4.286    0.000    4.000 
#    0.000    0.000    0.000    0.000    0.000    0.000 
#
# Total GULP energy -347155.595821 kJ/mol
# GULP energy per Si atom -12398.414136 kJ/mol
# Density = 1.795918 g / cm^3
# Si number density = 18.000152 Si / 1000 Ang^3
#
#
#
# Elastic Constant Matrix: (Units=GPa)
#
#
# Indices 1 2 3 4 5 6 
#
# 1 57.8421 13.2727 4.8728 0.0000 -2.3206 0.0000
# 2 13.2727 96.4571 25.9498 0.0000 -2.2155 0.0000
# 3 4.8728 25.9498 56.2811 0.0000 12.4634 0.0000
# 4 0.0000 0.0000 0.0000 26.4931 0.0000 2.6765
# 5 -2.3206 -2.2155 12.4634 0.0000 25.3498 0.0000
# 6 0.0000 0.0000 0.0000 2.6765 0.0000 18.8073
#
#
#
# Elastic Compliance Matrix: (Units=1/GPa)
#
#
# Indices 1 2 3 4 5 6 
#
# 1 0.017945 -0.002159 -0.000988 0.000000 0.001940 0.000000
# 2 -0.002159 0.012502 -0.006481 0.000000 0.004081 0.000000
# 3 -0.000988 -0.006481 0.023551 0.000000 -0.012236 0.000000
# 4 0.000000 0.000000 0.000000 0.038296 0.000000 -0.005450
# 5 0.001940 0.004081 -0.012236 0.000000 0.045998 0.000000
# 6 0.000000 0.000000 0.000000 -0.005450 0.000000 0.053946
#
#
# Mechanical properties :
#
#
# Convention : Reuss Voigt Hill
#
# Bulk Modulus (GPa) = 28.78333 33.19677 30.99005
# Shear Modulus (GPa) = 22.41392 25.22904 23.82148
#
# Velocity S-wave (km/s) = 3.53258 3.74786 3.64181
# Velocity P-wave (km/s) = 5.71525 6.10009 5.91081
#
# Compressibility (1/GPa) = 0.03474233
#
# Stress axis : x y z
#
# Youngs Moduli (GPa) = 55.72623 79.98877 42.46016
#
# Poissons Ratio (x) = 0.17269 0.04194
# Poissons Ratio (y) = 0.12031 0.27519
# Poissons Ratio (z) = 0.05504 0.51842
#
# Static dielectric constant tensor:
#      x y z
#    x 3.215570 0.000000 0.088550 
#    y 0.000000 3.398040 0.000000 
#    z 0.088550 0.000000 3.110510 
# 
# 
# High freq. dielectric constant tensor:
#      x y z
#    x 1.690600 0.000000 0.014940 
#    y 0.000000 1.695340 0.000000 
#    z 0.014940 0.000000 1.667930 
# 
# From -- ./inp_files/28969.got.cif
#   From: 2010.06.25/outbox.cif.g09.slc.cpg/sg10_15_cif.got.tgz:28969.got - 2010.06.27 22:07:45.
