data_PCOD8059023
_publ_section_title
;
Structure prediction by ZEFSAII (Michael W. Deem and Ramdas Pophale) SiO2 
 PCOD8059023
Probable space group: P 2/M
;
_chemical_formula_sum "Si O2"
_cell_formula_units_Z 28
_cell_length_a 18.966542
_cell_length_b 9.049433
_cell_length_c 15.277934
_cell_angle_alpha 90.000000
_cell_angle_beta 145.615344
_cell_angle_gamma 90.000000
_cell_volume 1480.905448
_symmetry_space_group_name_H-M "P 2/M"
_symmetry_group_IT_number 10
_symmetry_cell_setting 'monoclinic'
loop_
_space_group_symop_operation_xyz
x,y,z
-x,y,-z
-x,-y,-z
x,-y,z
loop_
_atom_site_type_symbol
_atom_site_label
_atom_site_fract_x
_atom_site_fract_y
_atom_site_fract_z
Si Si1 0.087682 0.324993 0.709780
Si Si2 0.821072 0.674769 0.382264
Si Si3 0.429946 0.173534 0.841473
Si Si4 0.484957 0.173915 0.262880
Si Si5 0.231338 0.328878 0.023556
Si Si6 0.390178 0.676032 0.454485
Si Si7 0.132458 0.670080 0.109180
O O1 0.083722 0.500000 0.708249
O O2 0.165685 0.274033 0.705022
O O3 0.944787 0.269770 0.559854
O O4 0.155025 0.261289 0.864060
O O5 0.803238 0.500000 0.371339
O O6 0.704684 0.753974 0.306276
O O7 0.502799 0.215796 0.827276
O O8 0.411982 0.000000 0.832472
O O9 0.500000 0.236135 0.000000
O O10 0.353753 0.232977 0.163097
O O11 0.590433 0.251496 0.430271
O O12 0.494357 0.000000 0.286639
O O13 0.269978 0.500000 0.049006
O O14 0.143119 0.311034 0.016386
O O15 0.500000 0.725240 0.500000
O O16 0.390977 0.500000 0.464644
O O17 0.255960 0.736593 0.282586
O O18 0.126968 0.500000 0.131774
O O19 0.000000 0.746686 0.000000
#
# Coordination Sequence:
#
# PCOD8059023 Si02
#       7
#     4   4   4   4   4   4   4
#     4   8  16  30  52  79 107 136 171 221 274 321
#     4   9  17  32  52  78 107 136 174 220 272 324
#     4  10  22  38  52  72 108 146 181 224 269 317
#     4  11  23  36  54  80 107 142 184 225 273 321
#     4  10  18  33  55  77 103 138 180 219 263 322
#     4  10  19  36  59  83 108 139 181 225 266 324
#     4   9  18  32  53  81 109 135 171 220 269 316
#
# _framework density 18.907350999999998
#
# number of rings (size 3 to 8) (size 9 to 14) (size 15 to 20)
#    0.000    2.429    1.429    2.143    0.000    2.857 
#    0.000    5.000    0.000    1.714    0.000    0.000 
#    0.000    0.000    0.000    0.000    0.000    0.000 
#
# Total GULP energy -347127.180742 kJ/mol
# GULP energy per Si atom -12397.399312 kJ/mol
# Density = 1.886432 g / cm^3
# Si number density = 18.907351 Si / 1000 Ang^3
#
#
#
# Elastic Constant Matrix: (Units=GPa)
#
#
# Indices 1 2 3 4 5 6 
#
# 1 91.8162 25.4618 53.4506 0.0000 9.6683 0.0000
# 2 25.4618 23.4330 21.4959 0.0000 -0.9864 0.0000
# 3 53.4506 21.4959 138.8391 0.0000 -3.8014 0.0000
# 4 0.0000 0.0000 0.0000 5.6833 0.0000 -12.8826
# 5 9.6683 -0.9864 -3.8014 0.0000 39.9989 0.0000
# 6 0.0000 0.0000 0.0000 -12.8826 0.0000 14.1629
#
#
#
# Elastic Compliance Matrix: (Units=1/GPa)
#
#
# Indices 1 2 3 4 5 6 
#
# 1 0.018780 -0.016161 -0.004876 0.000000 -0.005401 0.000000
# 2 -0.016161 0.063655 -0.003493 0.000000 0.005144 0.000000
# 3 -0.004876 -0.003493 0.009676 0.000000 0.002012 0.000000
# 4 0.000000 0.000000 0.000000 -0.165708 0.000000 -0.150728
# 5 -0.005401 0.005144 0.002012 0.000000 0.026624 0.000000
# 6 0.000000 0.000000 0.000000 -0.150728 0.000000 -0.066495
#
#
# Mechanical properties :
#
#
# Convention : Reuss Voigt Hill
#
# Bulk Modulus (GPa) = 23.22771 50.54499 36.88635
# Shear Modulus (GPa) = -99.88393 22.21435 -38.83479
#
# Velocity S-wave (km/s) = -7.27618 3.43141 -4.53697
# Velocity P-wave (km/s) = 7.63405 6.51847 2.80965
#
# Compressibility (1/GPa) = 0.04305203
#
# Stress axis : x y z
#
# Youngs Moduli (GPa) = 53.24807 15.70958 103.35287
#
# Poissons Ratio (x) = 0.25388 0.50393
# Poissons Ratio (y) = 0.86052 0.36103
# Poissons Ratio (z) = 0.25963 0.05488
#
# Static dielectric constant tensor:
#      x y z
#    x 3.497910 0.000000 -0.109470 
#    y 0.000000 3.048190 0.000000 
#    z -0.109470 0.000000 3.958720 
# 
# 
# High freq. dielectric constant tensor:
#      x y z
#    x 1.734550 0.000000 -0.002910 
#    y 0.000000 1.691140 0.000000 
#    z -0.002910 0.000000 1.750120 
# 
# From -- ./inp_files/68665.got.cif
#   From: 2010.06.25/outbox.cif.g09.slc.cpg/sg10_35_cif.got.tgz:68665.got - 2010.06.27 22:07:45.
