data_PCOD8059715
_publ_section_title
;
Structure prediction by ZEFSAII (Michael W. Deem and Ramdas Pophale) SiO2 
 PCOD8059715
Probable space group: P 2/M
;
_chemical_formula_sum "Si O2"
_cell_formula_units_Z 32
_cell_length_a 22.488920
_cell_length_b 9.208184
_cell_length_c 14.109236
_cell_angle_alpha 90.000000
_cell_angle_beta 141.177957
_cell_angle_gamma 90.000000
_cell_volume 1831.668370
_symmetry_space_group_name_H-M "P 2/M"
_symmetry_group_IT_number 10
_symmetry_cell_setting 'monoclinic'
loop_
_space_group_symop_operation_xyz
x,y,z
-x,y,-z
-x,-y,-z
x,-y,z
loop_
_atom_site_type_symbol
_atom_site_label
_atom_site_fract_x
_atom_site_fract_y
_atom_site_fract_z
Si Si1 0.983286 0.835044 0.372201
Si Si2 0.310315 0.327302 0.552397
Si Si3 0.725671 0.339480 0.207273
Si Si4 0.594479 0.832140 0.171170
Si Si5 0.401032 0.827633 0.496324
Si Si6 0.235896 0.165885 0.925508
Si Si7 0.867217 0.659629 0.542487
Si Si8 0.388731 0.830265 0.268695
O O1 0.876455 0.821880 0.201029
O O2 0.000000 0.769847 0.500000
O O3 0.042150 0.761243 0.359812
O O4 0.018362 0.000000 0.420299
O O5 0.318105 0.500000 0.557612
O O6 0.395925 0.265499 0.723191
O O7 0.325609 0.256491 0.468920
O O8 0.209413 0.280837 0.475115
O O9 0.676146 0.500000 0.148127
O O10 0.673819 0.209196 0.195170
O O11 0.735534 0.287940 0.113073
O O12 0.824977 0.352620 0.384309
O O13 0.601322 0.000000 0.209032
O O14 0.500000 0.791887 0.000000
O O15 0.375427 0.771794 0.358835
O O16 0.510815 0.778636 0.653193
O O17 0.386714 0.000000 0.492914
O O18 0.262473 0.000000 0.928176
O O19 0.295640 0.211182 0.092729
O O20 0.900743 0.500000 0.617845
O O21 0.400327 0.000000 0.293729
#
# Coordination Sequence:
#
# PCOD8059715 Si02
#       8
#     4   4   4   4   4   4   4   4
#     4  10  19  30  48  75 102 131 170 213 250 291
#     4  10  21  35  51  75 103 132 166 210 259 303
#     4  10  20  32  46  69 101 135 169 206 247 294
#     4  10  21  34  48  68  96 135 175 207 243 296
#     4   9  17  34  57  78  98 130 173 211 252 305
#     4  10  19  32  50  73 103 136 167 208 257 303
#     4   9  19  34  49  67  98 137 171 201 244 302
#     4   8  17  33  54  77 102 130 168 213 253 302
#
# _framework density 17.470410999999999
#
# number of rings (size 3 to 8) (size 9 to 14) (size 15 to 20)
#    0.000    2.500    1.250    2.625    1.750    4.250 
#    0.000    1.875    0.000    0.750    0.000    5.250 
#    0.000    0.000    0.000    0.000    0.000    0.000 
#
# Total GULP energy -396431.217504 kJ/mol
# GULP energy per Si atom -12388.475547 kJ/mol
# Density = 1.743065 g / cm^3
# Si number density = 17.470411 Si / 1000 Ang^3
#
#
#
# Elastic Constant Matrix: (Units=GPa)
#
#
# Indices 1 2 3 4 5 6 
#
# 1 94.9985 23.4213 44.5042 0.0000 -18.2034 0.0000
# 2 23.4213 29.4417 22.9058 0.0000 -8.9272 0.0000
# 3 44.5042 22.9058 81.3745 0.0000 1.1061 0.0000
# 4 0.0000 0.0000 0.0000 14.1955 0.0000 -2.4034
# 5 -18.2034 -8.9272 1.1061 0.0000 18.9899 0.0000
# 6 0.0000 0.0000 0.0000 -2.4034 0.0000 34.4749
#
#
#
# Elastic Compliance Matrix: (Units=1/GPa)
#
#
# Indices 1 2 3 4 5 6 
#
# 1 0.019285 -0.001811 -0.010286 0.000000 0.018235 0.000000
# 2 -0.001811 0.054236 -0.014611 0.000000 0.024612 0.000000
# 3 -0.010286 -0.014611 0.022272 0.000000 -0.018025 0.000000
# 4 0.000000 0.000000 0.000000 0.071286 0.000000 0.004970
# 5 0.018235 0.024612 -0.018025 0.000000 0.082759 0.000000
# 6 0.000000 0.000000 0.000000 0.004970 0.000000 0.029353
#
#
# Mechanical properties :
#
#
# Convention : Reuss Voigt Hill
#
# Bulk Modulus (GPa) = 23.59658 43.05304 33.32481
# Shear Modulus (GPa) = 14.42034 21.19761 17.80897
#
# Velocity S-wave (km/s) = 2.87612 3.48709 3.19624
# Velocity P-wave (km/s) = 4.95634 6.39609 5.72168
#
# Compressibility (1/GPa) = 0.04237902
#
# Stress axis : x y z
#
# Youngs Moduli (GPa) = 51.85250 18.43793 44.89959
#
# Poissons Ratio (x) = 0.03338 0.46182
# Poissons Ratio (y) = 0.09389 0.65603
# Poissons Ratio (z) = 0.53333 0.26940
#
# Static dielectric constant tensor:
#      x y z
#    x 3.225790 0.000000 -0.084860 
#    y 0.000000 3.202710 0.000000 
#    z -0.084860 0.000000 2.752050 
# 
# 
# High freq. dielectric constant tensor:
#      x y z
#    x 1.669770 0.000000 0.001030 
#    y 0.000000 1.667270 0.000000 
#    z 0.001030 0.000000 1.651200 
# 
# From -- ./inp_files/55388.got.cif
#   From: 2010.06.25/outbox.cif.g09.slc.cpg/sg10_28_cif.got.tgz:55388.got - 2010.06.27 22:07:45.
