data_PCOD8059607
_publ_section_title
;
Structure prediction by ZEFSAII (Michael W. Deem and Ramdas Pophale) SiO2 
 PCOD8059607
Probable space group: P 2/M
;
_chemical_formula_sum "Si O2"
_cell_formula_units_Z 32
_cell_length_a 14.520346
_cell_length_b 9.342141
_cell_length_c 13.987958
_cell_angle_alpha 90.000000
_cell_angle_beta 73.141985
_cell_angle_gamma 90.000000
_cell_volume 1815.940425
_symmetry_space_group_name_H-M "P 2/M"
_symmetry_group_IT_number 10
_symmetry_cell_setting 'monoclinic'
loop_
_space_group_symop_operation_xyz
x,y,z
-x,y,-z
-x,-y,-z
x,-y,z
loop_
_atom_site_type_symbol
_atom_site_label
_atom_site_fract_x
_atom_site_fract_y
_atom_site_fract_z
Si Si1 0.896784 0.836755 0.488997
Si Si2 0.106031 0.841542 0.007587
Si Si3 0.626497 0.169915 0.876533
Si Si4 0.258832 0.168270 0.804241
Si Si5 0.416238 0.169924 0.900874
Si Si6 0.152746 0.665342 0.683086
Si Si7 0.940220 0.663981 0.801810
Si Si8 0.812529 0.836230 0.711002
O O1 0.861989 0.733646 0.415938
O O2 0.814588 0.825059 0.595604
O O3 0.000000 0.788380 0.500000
O O4 0.904608 0.000000 0.448469
O O5 0.113598 0.730147 0.091071
O O6 0.136947 0.000000 0.035020
O O7 0.175480 0.790835 0.903131
O O8 0.000000 0.846655 0.000000
O O9 0.525479 0.228951 0.863741
O O10 0.714170 0.229135 0.785470
O O11 0.625102 0.000000 0.871004
O O12 0.635554 0.220980 0.984575
O O13 0.358190 0.220880 0.824187
O O14 0.239490 0.255336 0.712704
O O15 0.259871 0.000000 0.779409
O O16 0.416506 0.000000 0.903000
O O17 0.180695 0.500000 0.661148
O O18 0.055085 0.682113 0.773919
O O19 0.909689 0.500000 0.803410
O O20 0.903896 0.746542 0.719430
O O21 0.826138 0.000000 0.739868
#
# Coordination Sequence:
#
# PCOD8059607 Si02
#       8
#     4   4   4   4   4   4   4   4
#     4  10  20  34  52  73  96 126 166 210 252 293
#     4  10  19  30  46  68  95 129 165 199 234 281
#     4   8  14  27  49  78 106 126 154 199 248 294
#     4  10  19  32  51  73  99 133 170 203 242 292
#     4   8  14  26  48  78 106 129 155 195 245 293
#     4  11  23  35  48  68  98 135 169 203 246 294
#     4  11  22  32  45  68 100 134 165 199 241 292
#     4  10  19  32  53  75  97 126 162 205 250 295
#
# _framework density 17.621722999999999
#
# number of rings (size 3 to 8) (size 9 to 14) (size 15 to 20)
#    0.000    2.250    2.500    2.250    0.000    4.500 
#    0.000    0.000    0.000    1.500    0.000    7.875 
#    0.000    0.000    0.000    0.000    0.000    0.000 
#
# Total GULP energy -396686.838747 kJ/mol
# GULP energy per Si atom -12396.463711 kJ/mol
# Density = 1.758162 g / cm^3
# Si number density = 17.621723 Si / 1000 Ang^3
#
#
#
# Elastic Constant Matrix: (Units=GPa)
#
#
# Indices 1 2 3 4 5 6 
#
# 1 91.2037 31.7764 41.5226 0.0000 18.4563 0.0000
# 2 31.7764 73.1500 42.7520 0.0000 17.1933 0.0000
# 3 41.5226 42.7520 86.5255 0.0000 15.9871 0.0000
# 4 0.0000 0.0000 0.0000 7.5599 0.0000 -1.7264
# 5 18.4563 17.1933 15.9871 0.0000 32.3367 0.0000
# 6 0.0000 0.0000 0.0000 -1.7264 0.0000 5.4808
#
#
#
# Elastic Compliance Matrix: (Units=1/GPa)
#
#
# Indices 1 2 3 4 5 6 
#
# 1 0.015137 -0.002420 -0.005183 0.000000 -0.004790 0.000000
# 2 -0.002420 0.020759 -0.008046 0.000000 -0.005678 0.000000
# 3 -0.005183 -0.008046 0.018360 0.000000 -0.001841 0.000000
# 4 0.000000 0.000000 0.000000 0.142529 0.000000 0.044894
# 5 -0.004790 -0.005678 -0.001841 0.000000 0.037588 0.000000
# 6 0.000000 0.000000 0.000000 0.044894 0.000000 0.196596
#
#
# Mechanical properties :
#
#
# Convention : Reuss Voigt Hill
#
# Bulk Modulus (GPa) = 43.56027 53.66456 48.61242
# Shear Modulus (GPa) = 10.64010 18.06403 14.35207
#
# Velocity S-wave (km/s) = 2.45991 3.20519 2.85696
# Velocity P-wave (km/s) = 5.73075 6.64962 6.20721
#
# Compressibility (1/GPa) = 0.02295670
#
# Stress axis : x y z
#
# Youngs Moduli (GPa) = 66.06431 48.17139 54.46509
#
# Poissons Ratio (x) = 0.11659 0.28229
# Poissons Ratio (y) = 0.15990 0.43825
# Poissons Ratio (z) = 0.34241 0.38761
#
# Static dielectric constant tensor:
#      x y z
#    x 3.505230 0.000000 0.005230 
#    y 0.000000 3.004680 0.000000 
#    z 0.005230 0.000000 3.222270 
# 
# 
# High freq. dielectric constant tensor:
#      x y z
#    x 1.671430 0.000000 0.008080 
#    y 0.000000 1.649890 0.000000 
#    z 0.008080 0.000000 1.671190 
# 
# From -- ./inp_files/66026.got.cif
#   From: 2010.06.25/outbox.cif.g09.slc.cpg/sg10_34_cif.got.tgz:66026.got - 2010.06.27 22:07:45.
