data_PCOD8059302
_publ_section_title
;
Structure prediction by ZEFSAII (Michael W. Deem and Ramdas Pophale) SiO2 
 PCOD8059302
Probable space group: P 2/M
;
_chemical_formula_sum "Si O2"
_cell_formula_units_Z 32
_cell_length_a 30.290472
_cell_length_b 8.729783
_cell_length_c 15.863927
_cell_angle_alpha 90.000000
_cell_angle_beta 150.093854
_cell_angle_gamma 90.000000
_cell_volume 2091.489451
_symmetry_space_group_name_H-M "P 2/M"
_symmetry_group_IT_number 10
_symmetry_cell_setting 'monoclinic'
loop_
_space_group_symop_operation_xyz
x,y,z
-x,y,-z
-x,-y,-z
x,-y,z
loop_
_atom_site_type_symbol
_atom_site_label
_atom_site_fract_x
_atom_site_fract_y
_atom_site_fract_z
Si Si1 0.629091 0.179691 0.235575
Si Si2 0.994255 0.319216 0.898824
Si Si3 0.184776 0.675912 0.194927
Si Si4 0.404476 0.672188 0.300030
Si Si5 0.522809 0.319268 0.912974
Si Si6 0.661042 0.178072 0.650591
Si Si7 0.477084 0.179351 0.264215
Si Si8 0.802745 0.323877 0.584256
O O1 0.569310 0.238642 0.214069
O O2 0.730951 0.213948 0.423630
O O3 0.614594 0.000000 0.199862
O O4 0.601332 0.265194 0.104177
O O5 0.995001 0.500000 0.913098
O O6 0.898280 0.275320 0.700605
O O7 0.000000 0.240357 0.000000
O O8 0.084683 0.275638 0.998550
O O9 0.205465 0.500000 0.205417
O O10 0.251748 0.785438 0.257708
O O11 0.194000 0.700266 0.310049
O O12 0.500000 0.678981 0.500000
O O13 0.377148 0.500000 0.230556
O O14 0.334479 0.737413 0.251716
O O15 0.405935 0.774860 0.218114
O O16 0.510417 0.500000 0.899854
O O17 0.548269 0.272611 0.860926
O O18 0.575528 0.230079 0.455381
O O19 0.655034 0.000000 0.660139
O O20 0.470756 0.000000 0.235296
O O21 0.779531 0.500000 0.524816
#
# Coordination Sequence:
#
# PCOD8059302 Si02
#       8
#     4   4   4   4   4   4   4   4
#     4  11  21  32  44  61  86 112 140 177 219 252
#     4   7  12  24  41  60  81 107 140 176 210 244
#     4   9  16  26  42  62  84 112 145 178 209 246
#     4   9  17  29  44  61  81 108 143 177 206 243
#     4  11  21  33  47  62  81 109 146 180 210 246
#     4  10  19  28  40  60  87 116 142 172 211 252
#     4  10  19  31  45  62  86 113 140 172 214 255
#     4   9  16  28  45  62  82 111 146 178 210 251
#
# _framework density 15.300101
#
# number of rings (size 3 to 8) (size 9 to 14) (size 15 to 20)
#    0.000    2.500    0.000    6.375    0.000    5.500 
#    0.000    0.625    0.000    2.250    0.000    0.000 
#    0.000    1.000    0.000   10.750    0.000    4.750 
#
# Total GULP energy -396618.327870 kJ/mol
# GULP energy per Si atom -12394.322746 kJ/mol
# Density = 1.526528 g / cm^3
# Si number density = 15.300101 Si / 1000 Ang^3
#
#
#
# Elastic Constant Matrix: (Units=GPa)
#
#
# Indices 1 2 3 4 5 6 
#
# 1 69.0351 20.5612 31.4349 0.0000 -1.3735 0.0000
# 2 20.5612 58.3683 18.0752 0.0000 -1.1209 0.0000
# 3 31.4349 18.0752 64.2803 0.0000 9.6110 0.0000
# 4 0.0000 0.0000 0.0000 17.0190 0.0000 -2.9917
# 5 -1.3735 -1.1209 9.6110 0.0000 20.6473 0.0000
# 6 0.0000 0.0000 0.0000 -2.9917 0.0000 22.9879
#
#
#
# Elastic Compliance Matrix: (Units=1/GPa)
#
#
# Indices 1 2 3 4 5 6 
#
# 1 0.020146 -0.004032 -0.009550 0.000000 0.005567 0.000000
# 2 -0.004032 0.019846 -0.004009 0.000000 0.002675 0.000000
# 3 -0.009550 -0.004009 0.023089 0.000000 -0.011601 0.000000
# 4 0.000000 0.000000 0.000000 0.060133 0.000000 0.007826
# 5 0.005567 0.002675 -0.011601 0.000000 0.054348 0.000000
# 6 0.000000 0.000000 0.000000 0.007826 0.000000 0.044520
#
#
# Mechanical properties :
#
#
# Convention : Reuss Voigt Hill
#
# Bulk Modulus (GPa) = 35.84477 36.86959 36.35718
# Shear Modulus (GPa) = 18.75726 20.23832 19.49779
#
# Velocity S-wave (km/s) = 3.50516 3.64092 3.57369
# Velocity P-wave (km/s) = 6.31350 6.46722 6.39082
#
# Compressibility (1/GPa) = 0.02789807
#
# Stress axis : x y z
#
# Youngs Moduli (GPa) = 49.63804 50.38858 43.31076
#
# Poissons Ratio (x) = 0.20318 0.41363
# Poissons Ratio (y) = 0.20015 0.17362
# Poissons Ratio (z) = 0.47406 0.20199
#
# Static dielectric constant tensor:
#      x y z
#    x 2.913990 0.000000 0.149060 
#    y 0.000000 2.882010 0.000000 
#    z 0.149060 0.000000 2.861880 
# 
# 
# High freq. dielectric constant tensor:
#      x y z
#    x 1.570500 0.000000 0.010030 
#    y 0.000000 1.588720 0.000000 
#    z 0.010030 0.000000 1.556380 
# 
# From -- ./inp_files/72566.got.cif
#   From: 2010.06.25/outbox.cif.g09.slc.cpg/sg10_37_cif.got.tgz:72566.got - 2010.06.27 22:07:45.
