data_PCOD8059483
_publ_section_title
;
Structure prediction by ZEFSAII (Michael W. Deem and Ramdas Pophale) SiO2 
 PCOD8059483
Probable space group: P 2/M
;
_chemical_formula_sum "Si O2"
_cell_formula_units_Z 32
_cell_length_a 26.463328
_cell_length_b 17.658408
_cell_length_c 26.973631
_cell_angle_alpha 90.000000
_cell_angle_beta 11.162413
_cell_angle_gamma 90.000000
_cell_volume 2440.170107
_symmetry_space_group_name_H-M "P 2/M"
_symmetry_group_IT_number 10
_symmetry_cell_setting 'monoclinic'
loop_
_space_group_symop_operation_xyz
x,y,z
-x,y,-z
-x,-y,-z
x,-y,z
loop_
_atom_site_type_symbol
_atom_site_label
_atom_site_fract_x
_atom_site_fract_y
_atom_site_fract_z
Si Si1 0.897526 0.839750 0.000008
Si Si2 0.559524 0.915789 0.499991
Si Si3 0.211063 0.910093 0.000027
Si Si4 0.772039 0.910812 0.500019
Si Si5 0.060035 0.675765 0.999999
Si Si6 0.885223 0.090439 0.500001
Si Si7 0.559582 0.584178 0.499999
Si Si8 0.442916 0.909740 0.999999
O O1 0.673694 0.872816 0.249723
O O2 0.839059 0.860391 0.000001
O O3 0.906126 0.750517 0.000016
O O4 0.173127 0.872811 0.750294
O O5 0.500000 0.920566 0.500000
O O6 0.583380 0.000000 0.499978
O O7 0.490408 0.884586 0.752059
O O8 0.198704 0.000000 0.000034
O O9 0.994440 0.884578 0.248017
O O10 0.828446 0.876061 0.500005
O O11 0.777544 0.000000 0.499984
O O12 0.829105 0.628615 0.247818
O O13 0.324731 0.628609 0.752192
O O14 0.000000 0.694867 0.000000
O O15 0.664342 0.121144 0.749854
O O16 0.884607 0.000000 0.500005
O O17 0.164052 0.121143 0.250144
O O18 0.500000 0.576286 0.500000
O O19 0.583874 0.500000 0.499989
O O20 0.443361 0.000000 1.000000
O O21 0.500000 0.878342 0.000000
#
# Coordination Sequence:
#
# PCOD8059483 Si02
#       8
#     4   4   4   4   4   4   4   4
#     4  12  22  33  46  61  80  99 122 156 194 227
#     4  11  22  34  46  58  74  99 128 154 184 227
#     4  10  19  30  42  54  69  91 122 158 191 221
#     4   9  17  28  40  52  64  84 118 155 187 217
#     4  10  19  30  45  64  83 101 119 142 176 219
#     4   9  15  23  34  46  62  83 107 138 173 211
#     4   9  17  30  47  65  83 101 119 137 161 204
#     4   9  15  21  30  46  66  85 103 126 165 219
#
# _framework density 13.11384
#
# number of rings (size 3 to 8) (size 9 to 14) (size 15 to 20)
#    0.000    2.125    0.000    5.250    0.000    9.000 
#    0.000    0.000    0.000    0.000    0.000    0.000 
#    0.000    0.000    0.000    0.000    0.000    0.000 
#
# Total GULP energy -396792.372515 kJ/mol
# GULP energy per Si atom -12399.761641 kJ/mol
# Density = 1.308399 g / cm^3
# Si number density = 13.113840 Si / 1000 Ang^3
#
#
#
# Elastic Constant Matrix: (Units=GPa)
#
#
# Indices 1 2 3 4 5 6 
#
# 1 92.0462 28.8693 49.2064 0.0000 0.7473 0.0000
# 2 28.8693 73.4049 42.9098 0.0000 -0.5651 0.0000
# 3 49.2064 42.9098 145.1317 0.0000 -2.8344 0.0000
# 4 0.0000 0.0000 0.0000 29.9738 0.0000 -0.4807
# 5 0.7473 -0.5651 -2.8344 0.0000 12.9021 0.0000
# 6 0.0000 0.0000 0.0000 -0.4807 0.0000 17.5215
#
#
#
# Elastic Compliance Matrix: (Units=1/GPa)
#
#
# Indices 1 2 3 4 5 6 
#
# 1 0.013932 -0.003278 -0.003789 0.000000 -0.001783 0.000000
# 2 -0.003278 0.017242 -0.003985 0.000000 0.000070 0.000000
# 3 -0.003789 -0.003985 0.009395 0.000000 0.002109 0.000000
# 4 0.000000 0.000000 0.000000 0.033377 0.000000 0.000916
# 5 -0.001783 0.000070 0.002109 0.000000 0.078077 0.000000
# 6 0.000000 0.000000 0.000000 0.000916 0.000000 0.057098
#
#
# Mechanical properties :
#
#
# Convention : Reuss Voigt Hill
#
# Bulk Modulus (GPa) = 54.15884 61.39486 57.77685
# Shear Modulus (GPa) = 21.06320 24.71929 22.89125
#
# Velocity S-wave (km/s) = 4.01207 4.34634 4.18255
# Velocity P-wave (km/s) = 7.92786 8.49153 8.21453
#
# Compressibility (1/GPa) = 0.01846421
#
# Stress axis : x y z
#
# Youngs Moduli (GPa) = 71.77485 57.99655 106.44524
#
# Poissons Ratio (x) = 0.19012 0.40336
# Poissons Ratio (y) = 0.23528 0.42420
# Poissons Ratio (z) = 0.27198 0.23112
#
# Static dielectric constant tensor:
#      x y z
#    x 2.647940 0.000000 -0.036060 
#    y 0.000000 2.353660 0.000000 
#    z -0.036060 0.000000 3.519610 
# 
# 
# High freq. dielectric constant tensor:
#      x y z
#    x 1.485010 0.000000 -0.001740 
#    y 0.000000 1.440280 0.000000 
#    z -0.001740 0.000000 1.527560 
# 
# From -- ./inp_files/59711.got.cif
#   From: 2010.06.25/outbox.cif.g09.slc.cpg/sg10_30_cif.got.tgz:59711.got - 2010.06.27 22:07:45.
