data_PCOD8059935
_publ_section_title
;
Structure prediction by ZEFSAII (Michael W. Deem and Ramdas Pophale) SiO2 
 PCOD8059935
Probable space group: P 2/M
;
_chemical_formula_sum "Si O2"
_cell_formula_units_Z 28
_cell_length_a 31.325850
_cell_length_b 8.549180
_cell_length_c 31.331662
_cell_angle_alpha 90.000000
_cell_angle_beta 170.509306
_cell_angle_gamma 90.000000
_cell_volume 1383.560824
_symmetry_space_group_name_H-M "P 2/M"
_symmetry_group_IT_number 10
_symmetry_cell_setting 'monoclinic'
loop_
_space_group_symop_operation_xyz
x,y,z
-x,y,-z
-x,-y,-z
x,-y,z
loop_
_atom_site_type_symbol
_atom_site_label
_atom_site_fract_x
_atom_site_fract_y
_atom_site_fract_z
Si Si1 0.484599 0.180713 0.576324
Si Si2 0.994834 0.318070 0.945513
Si Si3 0.737540 0.813569 0.262123
Si Si4 0.310914 0.186930 0.689481
Si Si5 0.874160 0.681290 0.112192
Si Si6 0.401501 0.682080 0.585317
Si Si7 0.164935 0.183903 0.834068
O O1 0.727471 0.283051 0.801001
O O2 0.427426 0.213777 0.569124
O O3 0.553845 0.000000 0.638283
O O4 0.230689 0.219932 0.298833
O O5 0.931837 0.500000 0.876771
O O6 0.000000 0.271761 0.000000
O O7 0.712988 0.749260 0.285967
O O8 0.000000 0.748603 0.500000
O O9 0.737443 0.000000 0.262219
O O10 0.500000 0.748596 0.000000
O O11 0.074460 0.255162 0.428476
O O12 0.311217 0.000000 0.689403
O O13 0.571646 0.255222 0.925455
O O14 0.871702 0.500000 0.122106
O O15 0.862062 0.780326 0.142998
O O16 0.132039 0.727591 0.341330
O O17 0.630525 0.727415 0.843138
O O18 0.410945 0.500000 0.581805
O O19 0.168277 0.000000 0.831028
#
# Coordination Sequence:
#
# PCOD8059935 Si02
#       7
#     4   4   4   4   4   4   4
#     4  12  25  40  63  95 126 155 194 249 301 344
#     4  11  24  43  66  90 121 165 208 241 285 351
#     4   9  15  23  37  58  88 125 160 197 243 298
#     4   9  17  28  42  65  96 129 164 201 252 313
#     4  10  21  36  55  78 103 136 181 226 264 315
#     4  10  21  38  58  79 108 146 183 223 274 333
#     4  10  19  31  48  69  98 132 162 204 261 316
#
# _framework density 20.237635000000001
#
# number of rings (size 3 to 8) (size 9 to 14) (size 15 to 20)
#    0.000    1.857    0.000    4.714    0.000    8.571 
#    0.000    0.000    0.000    0.000    0.000    0.000 
#    0.000   11.429    0.000    0.000    0.000    0.000 
#
# Total GULP energy -347327.916184 kJ/mol
# GULP energy per Si atom -12404.568435 kJ/mol
# Density = 2.019157 g / cm^3
# Si number density = 20.237635 Si / 1000 Ang^3
#
#
#
# Elastic Constant Matrix: (Units=GPa)
#
#
# Indices 1 2 3 4 5 6 
#
# 1 215.9956 17.3971 135.1496 0.0000 6.0639 0.0000
# 2 17.3971 26.8742 11.6188 0.0000 -4.1461 0.0000
# 3 135.1496 11.6188 236.2062 0.0000 8.5782 0.0000
# 4 0.0000 0.0000 0.0000 -25.4626 0.0000 23.9793
# 5 6.0639 -4.1461 8.5782 0.0000 39.9182 0.0000
# 6 0.0000 0.0000 0.0000 23.9793 0.0000 -11.3375
#
#
#
# Elastic Compliance Matrix: (Units=1/GPa)
#
#
# Indices 1 2 3 4 5 6 
#
# 1 0.007461 -0.003150 -0.004093 0.000000 -0.000581 0.000000
# 2 -0.003150 0.040126 -0.000343 0.000000 0.004720 0.000000
# 3 -0.004093 -0.000343 0.006623 0.000000 -0.000837 0.000000
# 4 0.000000 0.000000 0.000000 0.039596 0.000000 0.083748
# 5 -0.000581 0.004720 -0.000837 0.000000 0.025810 0.000000
# 6 0.000000 0.000000 0.000000 0.083748 0.000000 0.088929
#
#
# Mechanical properties :
#
#
# Convention : Reuss Voigt Hill
#
# Bulk Modulus (GPa) = 25.61594 89.71188 57.66391
# Shear Modulus (GPa) = 21.12136 21.61766 21.36951
#
# Velocity S-wave (km/s) = 3.23409 3.27186 3.25303
# Velocity P-wave (km/s) = 5.16051 7.66152 6.53184
#
# Compressibility (1/GPa) = 0.03903819
#
# Stress axis : x y z
#
# Youngs Moduli (GPa) = 134.03905 24.92154 150.99965
#
# Poissons Ratio (x) = 0.07850 0.61799
# Poissons Ratio (y) = 0.42220 0.05179
# Poissons Ratio (z) = 0.54857 0.00855
#
# Static dielectric constant tensor:
#      x y z
#    x 3.745730 0.000000 0.007060 
#    y 0.000000 3.232040 0.000000 
#    z 0.007060 0.000000 3.935950 
# 
# 
# High freq. dielectric constant tensor:
#      x y z
#    x 1.807320 0.000000 0.000260 
#    y 0.000000 1.749360 0.000000 
#    z 0.000260 0.000000 1.813460 
# 
# From -- ./inp_files/95943.got.cif
#   From: 2010.06.25/outbox.cif.g09.slc.cpg/sg10_48_cif.got.tgz:95943.got - 2010.06.27 22:07:45.
