data_PCOD8059856
_publ_section_title
;
Structure prediction by ZEFSAII (Michael W. Deem and Ramdas Pophale) SiO2 
 PCOD8059856
Probable space group: P 2/M
;
_chemical_formula_sum "Si O2"
_cell_formula_units_Z 32
_cell_length_a 14.458345
_cell_length_b 8.769123
_cell_length_c 32.896899
_cell_angle_alpha 90.000000
_cell_angle_beta 151.313970
_cell_angle_gamma 90.000000
_cell_volume 2002.071778
_symmetry_space_group_name_H-M "P 2/M"
_symmetry_group_IT_number 10
_symmetry_cell_setting 'monoclinic'
loop_
_space_group_symop_operation_xyz
x,y,z
-x,y,-z
-x,-y,-z
x,-y,z
loop_
_atom_site_type_symbol
_atom_site_label
_atom_site_fract_x
_atom_site_fract_y
_atom_site_fract_z
Si Si1 0.963960 0.317481 0.181945
Si Si2 0.618328 0.680232 0.506074
Si Si3 0.962307 0.820362 0.337947
Si Si4 0.610826 0.666420 0.000702
Si Si5 0.755515 0.682431 0.182790
Si Si6 0.392005 0.318493 0.339758
Si Si7 0.090065 0.680752 0.597939
Si Si8 0.713838 0.680345 0.405974
O O1 0.958601 0.500000 0.177058
O O2 0.902215 0.268103 0.203492
O O3 0.176317 0.250683 0.254809
O O4 0.814201 0.249512 0.090012
O O5 0.500000 0.730192 0.500000
O O6 0.648899 0.500000 0.516065
O O7 0.826840 0.754033 0.587912
O O8 0.500840 0.740745 0.421859
O O9 0.870621 0.766869 0.345102
O O10 0.818174 0.761728 0.248075
O O11 0.973977 0.000000 0.341133
O O12 0.659987 0.500000 0.001643
O O13 0.461655 0.745368 0.911618
O O14 0.500000 0.645299 0.000000
O O15 0.755168 0.500000 0.187498
O O16 0.380979 0.500000 0.337078
O O17 0.510049 0.261102 0.345466
O O18 0.092074 0.500000 0.606477
O O19 0.885171 0.737485 0.501305
O O20 0.254029 0.731595 0.628361
O O21 0.723041 0.500000 0.410851
#
# Coordination Sequence:
#
# PCOD8059856 Si02
#       8
#     4   4   4   4   4   4   4   4
#     4   8  13  22  41  70  94 109 135 179 220 255
#     4  10  19  31  47  64  86 121 157 178 200 250
#     4  12  23  31  41  62  91 120 148 184 224 253
#     4   7  11  21  39  63  88 111 138 176 218 252
#     4   9  16  28  45  63  87 120 152 177 206 255
#     4   9  14  22  40  67  91 108 136 176 217 258
#     4   9  16  30  48  62  80 109 148 185 220 265
#     4   8  14  25  45  66  82 106 141 186 226 257
#
# _framework density 15.983442999999999
#
# number of rings (size 3 to 8) (size 9 to 14) (size 15 to 20)
#    0.000    3.000    1.250    4.125    0.000    2.250 
#    0.000    1.250    0.000    3.375    0.000    0.875 
#    0.000    7.000    0.000    0.000    0.000    0.000 
#
# Total GULP energy -396430.313517 kJ/mol
# GULP energy per Si atom -12388.447297 kJ/mol
# Density = 1.594706 g / cm^3
# Si number density = 15.983443 Si / 1000 Ang^3
#
#
#
# Elastic Constant Matrix: (Units=GPa)
#
#
# Indices 1 2 3 4 5 6 
#
# 1 119.4891 16.7565 69.1860 0.0000 -7.0874 0.0000
# 2 16.7565 16.6616 14.0655 0.0000 -2.7947 0.0000
# 3 69.1860 14.0655 132.2618 0.0000 -2.1004 0.0000
# 4 0.0000 0.0000 0.0000 0.5168 0.0000 2.5081
# 5 -7.0874 -2.7947 -2.1004 0.0000 14.1081 0.0000
# 6 0.0000 0.0000 0.0000 2.5081 0.0000 2.6891
#
#
#
# Elastic Compliance Matrix: (Units=1/GPa)
#
#
# Indices 1 2 3 4 5 6 
#
# 1 0.013148 -0.007430 -0.006020 0.000000 0.004237 0.000000
# 2 -0.007430 0.072245 -0.003637 0.000000 0.010037 0.000000
# 3 -0.006020 -0.003637 0.011063 0.000000 -0.002098 0.000000
# 4 0.000000 0.000000 0.000000 -0.548687 0.000000 0.511764
# 5 0.004237 0.010037 -0.002098 0.000000 0.074686 0.000000
# 6 0.000000 0.000000 0.000000 0.511764 0.000000 -0.105452
#
#
# Mechanical properties :
#
#
# Convention : Reuss Voigt Hill
#
# Bulk Modulus (GPa) = 16.05611 52.04762 34.05186
# Shear Modulus (GPa) = -11.68056 14.68976 1.50460
#
# Velocity S-wave (km/s) = -2.70625 3.03489 0.97128
# Velocity P-wave (km/s) = 0.54976 6.70186 4.75485
#
# Compressibility (1/GPa) = 0.06228159
#
# Stress axis : x y z
#
# Youngs Moduli (GPa) = 76.05672 13.84187 90.38786
#
# Poissons Ratio (x) = 0.10285 0.54416
# Poissons Ratio (y) = 0.56511 0.32873
# Poissons Ratio (z) = 0.45788 0.05034
#
# Static dielectric constant tensor:
#      x y z
#    x 3.226920 0.000000 0.118920 
#    y 0.000000 2.529850 0.000000 
#    z 0.118920 0.000000 3.357020 
# 
# 
# High freq. dielectric constant tensor:
#      x y z
#    x 1.601420 0.000000 0.001440 
#    y 0.000000 1.562050 0.000000 
#    z 0.001440 0.000000 1.611630 
# 
# From -- ./inp_files/65994.got.cif
#   From: 2010.06.25/outbox.cif.g09.slc.cpg/sg10_33_cif.got.tgz:65994.got - 2010.06.27 22:07:45.
