data_PCOD8059826
_publ_section_title
;
Structure prediction by ZEFSAII (Michael W. Deem and Ramdas Pophale) SiO2 
 PCOD8059826
Probable space group: P 2/M
;
_chemical_formula_sum "Si O2"
_cell_formula_units_Z 32
_cell_length_a 28.474397
_cell_length_b 8.993371
_cell_length_c 20.585658
_cell_angle_alpha 90.000000
_cell_angle_beta 22.817957
_cell_angle_gamma 90.000000
_cell_volume 2044.347073
_symmetry_space_group_name_H-M "P 2/M"
_symmetry_group_IT_number 10
_symmetry_cell_setting 'monoclinic'
loop_
_space_group_symop_operation_xyz
x,y,z
-x,y,-z
-x,-y,-z
x,-y,z
loop_
_atom_site_type_symbol
_atom_site_label
_atom_site_fract_x
_atom_site_fract_y
_atom_site_fract_z
Si Si1 0.545077 0.323923 0.712940
Si Si2 0.324047 0.676372 0.182849
Si Si3 0.860579 0.675112 0.687457
Si Si4 0.608788 0.665042 0.494870
Si Si5 0.356733 0.833454 0.672316
Si Si6 0.322407 0.333067 0.841051
Si Si7 0.291524 0.176909 0.010216
Si Si8 0.581745 0.324409 0.806375
O O1 0.515060 0.500000 0.748434
O O2 0.628395 0.279924 0.544520
O O3 0.418808 0.237795 0.873903
O O4 0.617041 0.279403 0.687395
O O5 0.321164 0.500000 0.185811
O O6 0.209567 0.734227 0.287630
O O7 0.323792 0.734424 0.258839
O O8 0.446921 0.736440 0.992860
O O9 0.838782 0.500000 0.726868
O O10 0.000000 0.713598 0.500000
O O11 0.814951 0.764583 0.808039
O O12 0.661847 0.500000 0.417251
O O13 0.675371 0.770862 0.358392
O O14 0.465933 0.664585 0.665702
O O15 0.500000 0.828307 0.500000
O O16 0.289230 0.737970 0.813599
O O17 0.306758 0.000000 0.739996
O O18 0.269664 0.500000 0.910824
O O19 0.263592 0.235773 0.973255
O O20 0.294340 0.000000 0.005547
O O21 0.577158 0.500000 0.818238
#
# Coordination Sequence:
#
# PCOD8059826 Si02
#       8
#     4   4   4   4   4   4   4   4
#     4   9  15  25  40  56  76 103 135 166 197 234
#     4   8  13  22  39  62  79  95 127 167 206 238
#     4  10  19  31  46  60  77 103 135 169 203 243
#     4   8  14  21  31  48  70  98 129 159 189 226
#     4   9  15  22  32  48  71  98 128 160 193 230
#     4   9  16  26  39  51  68  96 131 167 196 229
#     4  11  20  28  39  56  78 101 129 166 204 242
#     4   8  12  20  39  61  79  98 126 169 204 233
#
# _framework density 15.652920999999999
#
# number of rings (size 3 to 8) (size 9 to 14) (size 15 to 20)
#    0.000    3.000    1.250    3.375    0.000    4.750 
#    0.000    0.000    0.000    1.500    0.000    0.000 
#    0.000    0.000    0.000    1.125    0.000   26.625 
#
# Total GULP energy -396462.384751 kJ/mol
# GULP energy per Si atom -12389.449523 kJ/mol
# Density = 1.561729 g / cm^3
# Si number density = 15.652921 Si / 1000 Ang^3
#
#
#
# Elastic Constant Matrix: (Units=GPa)
#
#
# Indices 1 2 3 4 5 6 
#
# 1 157.0896 43.1797 46.7845 0.0000 29.0293 0.0000
# 2 43.1797 75.4126 23.5358 0.0000 15.5197 0.0000
# 3 46.7845 23.5358 38.7546 0.0000 5.7470 0.0000
# 4 0.0000 0.0000 0.0000 10.5594 0.0000 6.8888
# 5 29.0293 15.5197 5.7470 0.0000 22.2846 0.0000
# 6 0.0000 0.0000 0.0000 6.8888 0.0000 9.8588
#
#
#
# Elastic Compliance Matrix: (Units=1/GPa)
#
#
# Indices 1 2 3 4 5 6 
#
# 1 0.012864 -0.000560 -0.013269 0.000000 -0.012945 0.000000
# 2 -0.000560 0.018418 -0.009062 0.000000 -0.009760 0.000000
# 3 -0.013269 -0.009062 0.045569 0.000000 0.011844 0.000000
# 4 0.000000 0.000000 0.000000 0.174039 0.000000 -0.121609
# 5 -0.012945 -0.009760 0.011844 0.000000 0.065480 0.000000
# 6 0.000000 0.000000 0.000000 -0.121609 0.000000 0.186406
#
#
# Mechanical properties :
#
#
# Convention : Reuss Voigt Hill
#
# Bulk Modulus (GPa) = 32.18727 55.36188 43.77457
# Shear Modulus (GPa) = 8.94593 19.05769 14.00181
#
# Velocity S-wave (km/s) = 2.39324 3.49308 2.99409
# Velocity P-wave (km/s) = 5.31456 7.19124 6.32292
#
# Compressibility (1/GPa) = 0.03106819
#
# Stress axis : x y z
#
# Youngs Moduli (GPa) = 77.73721 54.29538 21.94485
#
# Poissons Ratio (x) = 0.03042 0.29119
# Poissons Ratio (y) = 0.04355 0.19885
# Poissons Ratio (z) = 1.03152 0.49200
#
# Static dielectric constant tensor:
#      x y z
#    x 3.537720 0.000000 0.256340 
#    y 0.000000 2.833820 0.000000 
#    z 0.256340 0.000000 2.466230 
# 
# 
# High freq. dielectric constant tensor:
#      x y z
#    x 1.616300 0.000000 0.034090 
#    y 0.000000 1.581660 0.000000 
#    z 0.034090 0.000000 1.524730 
# 
# From -- ./inp_files/86811.got.cif
#   From: 2010.06.25/outbox.cif.g09.slc.cpg/sg10_44_cif.got.tgz:86811.got - 2010.06.27 22:07:45.
