data_PCOD8059076
_publ_section_title
;
Structure prediction by ZEFSAII (Michael W. Deem and Ramdas Pophale) SiO2 
 PCOD8059076
Probable space group: P 2/M
;
_chemical_formula_sum "Si O2"
_cell_formula_units_Z 24
_cell_length_a 22.919094
_cell_length_b 9.130480
_cell_length_c 10.907934
_cell_angle_alpha 90.000000
_cell_angle_beta 147.882037
_cell_angle_gamma 90.000000
_cell_volume 1213.587022
_symmetry_space_group_name_H-M "P 2/M"
_symmetry_group_IT_number 10
_symmetry_cell_setting 'monoclinic'
loop_
_space_group_symop_operation_xyz
x,y,z
-x,y,-z
-x,-y,-z
x,-y,z
loop_
_atom_site_type_symbol
_atom_site_label
_atom_site_fract_x
_atom_site_fract_y
_atom_site_fract_z
Si Si1 0.712063 0.670072 0.120479
Si Si2 0.034956 0.671998 0.424181
Si Si3 0.305704 0.834631 0.402274
Si Si4 0.624561 0.835435 0.741048
Si Si5 0.522359 0.162785 0.899329
Si Si6 0.064912 0.825008 0.993037
O O1 0.689094 0.500000 0.088734
O O2 0.837710 0.708059 0.370844
O O3 0.683142 0.723017 0.934009
O O4 0.633864 0.748272 0.079323
O O5 0.008964 0.500000 0.366550
O O6 0.000000 0.725485 0.500000
O O7 0.975053 0.754717 0.205958
O O8 0.304193 0.828389 0.253829
O O9 0.416317 0.755762 0.649262
O O10 0.312554 0.000000 0.464804
O O11 0.189668 0.768243 0.239843
O O12 0.500000 0.783493 0.500000
O O13 0.624948 0.000000 0.796225
O O14 0.537735 0.000000 0.868919
O O15 0.500000 0.150644 0.000000
O O16 0.059978 0.000000 0.967236
O O17 0.000000 0.774733 0.000000
#
# Coordination Sequence:
#
# PCOD8059076 Si02
#       6
#     4   4   4   4   4   4
#     4  11  23  37  57  86 119 149 189 242 288 340
#     4  10  23  43  62  83 119 163 204 244 292 353
#     4   9  18  35  56  84 116 144 183 237 289 340
#     4  10  18  33  57  82 112 148 186 228 281 345
#     4  10  21  37  60  84 112 154 193 230 286 349
#     4  10  22  38  61  91 119 149 195 253 299 346
#
# _framework density 19.776085999999999
#
# number of rings (size 3 to 8) (size 9 to 14) (size 15 to 20)
#    0.000    2.000    1.667    1.500    2.333    2.667 
#    0.000    0.833    0.000    0.000    0.000    0.000 
#    0.000    0.000    0.000    0.000    0.000    0.000 
#
# Total GULP energy -297444.085964 kJ/mol
# GULP energy per Si atom -12393.503582 kJ/mol
# Density = 1.973107 g / cm^3
# Si number density = 19.776086 Si / 1000 Ang^3
#
#
#
# Elastic Constant Matrix: (Units=GPa)
#
#
# Indices 1 2 3 4 5 6 
#
# 1 128.8805 32.1695 48.9569 0.0000 8.7399 0.0000
# 2 32.1695 50.7445 44.0388 0.0000 11.3194 0.0000
# 3 48.9569 44.0388 102.6700 0.0000 15.9436 0.0000
# 4 0.0000 0.0000 0.0000 308.1482 0.0000 -451.3051
# 5 8.7399 11.3194 15.9436 0.0000 36.3108 0.0000
# 6 0.0000 0.0000 0.0000 -451.3051 0.0000 730.6304
#
#
#
# Elastic Compliance Matrix: (Units=1/GPa)
#
#
# Indices 1 2 3 4 5 6 
#
# 1 0.009841 -0.003469 -0.003225 0.000000 0.000129 0.000000
# 2 -0.003469 0.033211 -0.011926 0.000000 -0.004281 0.000000
# 3 -0.003225 -0.011926 0.016844 0.000000 -0.002902 0.000000
# 4 0.000000 0.000000 0.000000 0.034036 0.000000 0.021024
# 5 0.000129 -0.004281 -0.002902 0.000000 0.030118 0.000000
# 6 0.000000 0.000000 0.000000 0.021024 0.000000 0.014355
#
#
# Mechanical properties :
#
#
# Convention : Reuss Voigt Hill
#
# Bulk Modulus (GPa) = 44.13822 59.18060 51.65941
# Shear Modulus (GPa) = 27.29290 225.49320 126.39305
#
# Velocity S-wave (km/s) = 3.71899 10.68975 8.00318
# Velocity P-wave (km/s) = 6.38817 13.50375 10.56314
#
# Compressibility (1/GPa) = 0.02265610
#
# Stress axis : x y z
#
# Youngs Moduli (GPa) = 101.61338 30.11031 59.36876
#
# Poissons Ratio (x) = 0.10445 0.19144
# Poissons Ratio (y) = 0.35250 0.70806
# Poissons Ratio (z) = 0.32767 0.35911
#
# Static dielectric constant tensor:
#      x y z
#    x 3.711580 0.000000 0.229590 
#    y 0.000000 3.355000 0.000000 
#    z 0.229590 0.000000 3.904240 
# 
# 
# High freq. dielectric constant tensor:
#      x y z
#    x 1.787420 0.000000 0.009110 
#    y 0.000000 1.734490 0.000000 
#    z 0.009110 0.000000 1.782300 
# 
# From -- ./inp_files/56544.got.cif
#   From: 2010.06.25/outbox.cif.g09.slc.cpg/sg10_29_cif.got.tgz:56544.got - 2010.06.27 22:07:45.
