data_PCOD8059345
_publ_section_title
;
Structure prediction by ZEFSAII (Michael W. Deem and Ramdas Pophale) SiO2 
 PCOD8059345
Probable space group: P 2/M
;
_chemical_formula_sum "Si O2"
_cell_formula_units_Z 30
_cell_length_a 31.424842
_cell_length_b 12.374957
_cell_length_c 32.278573
_cell_angle_alpha 90.000000
_cell_angle_beta 9.264649
_cell_angle_gamma 90.000000
_cell_volume 2020.892774
_symmetry_space_group_name_H-M "P 2/M"
_symmetry_group_IT_number 10
_symmetry_cell_setting 'monoclinic'
loop_
_space_group_symop_operation_xyz
x,y,z
-x,y,-z
-x,-y,-z
x,-y,z
loop_
_atom_site_type_symbol
_atom_site_label
_atom_site_fract_x
_atom_site_fract_y
_atom_site_fract_z
Si Si1 0.793632 0.734024 0.735456
Si Si2 0.790193 0.871210 0.403268
Si Si3 0.072393 0.128872 0.975869
Si Si4 0.081937 0.128451 0.306022
Si Si5 0.507457 0.128360 0.830848
Si Si6 0.207803 0.500000 0.264066
Si Si7 0.363225 0.871140 0.878924
Si Si8 0.645475 0.871138 0.451508
O O1 0.846860 0.825706 0.717714
O O2 0.829493 0.615365 0.723502
O O3 0.000000 0.749535 0.500000
O O4 0.500000 0.749534 0.000000
O O5 0.576531 0.826774 0.641215
O O6 0.717807 0.826455 0.427397
O O7 0.789689 0.000000 0.403436
O O8 0.076710 0.826774 0.141036
O O9 0.858878 0.173099 0.213726
O O10 0.072025 0.000000 0.975992
O O11 0.358932 0.173099 0.713671
O O12 0.000000 0.173363 0.000000
O O13 0.795124 0.170982 0.567634
O O14 0.087911 0.000000 0.304030
O O15 0.293145 0.170982 0.069612
O O16 0.435396 0.174880 0.854867
O O17 0.505071 0.000000 0.831643
O O18 0.000000 0.500000 0.500000
O O19 0.500000 0.500000 0.000000
O O20 0.363784 0.000000 0.878738
O O21 0.645738 0.000000 0.451421
#
# Coordination Sequence:
#
# PCOD8059345 Si02
#       8
#     4   4   4   4   4   2   4   4
#     4  10  19  31  46  62  80 101 125 152 180 210
#     4   9  15  21  30  43  55  69  92 124 159 189
#     4   9  15  21  27  33  43  62  84 106 141 191
#     4  10  19  29  41  58  79 101 123 147 176 209
#     4   9  17  28  39  52  72  96 119 141 166 204
#     4   8  16  30  46  62  78  98 124 152 180 208
#     4   9  15  23  34  45  58  78 102 125 153 191
#     4   9  15  21  27  36  49  61  80 114 149 183
#
# _framework density 14.844923
#
# number of rings (size 3 to 8) (size 9 to 14) (size 15 to 20)
#    0.000    2.800    0.000    2.800    0.000    8.533 
#    0.000    0.000    0.000    0.000    0.000    0.000 
#    0.000    0.000    0.000    0.000    0.000    0.000 
#
# Total GULP energy -371843.031078 kJ/mol
# GULP energy per Si atom -12394.767703 kJ/mol
# Density = 1.481114 g / cm^3
# Si number density = 14.844923 Si / 1000 Ang^3
#
#
#
# Elastic Constant Matrix: (Units=GPa)
#
#
# Indices 1 2 3 4 5 6 
#
# 1 140.4595 18.5407 78.4619 0.0000 -0.0083 0.0000
# 2 18.5407 14.4556 13.1844 0.0000 0.0116 0.0000
# 3 78.4619 13.1844 162.8399 0.0000 -0.0395 0.0000
# 4 0.0000 0.0000 0.0000 6.4834 0.0000 -0.0130
# 5 -0.0083 0.0116 -0.0395 0.0000 32.9644 0.0000
# 6 0.0000 0.0000 0.0000 -0.0130 0.0000 0.4403
#
#
#
# Elastic Compliance Matrix: (Units=1/GPa)
#
#
# Indices 1 2 3 4 5 6 
#
# 1 0.010922 -0.009943 -0.004458 0.000000 0.000001 0.000000
# 2 -0.009943 0.083745 -0.001990 0.000000 -0.000034 0.000000
# 3 -0.004458 -0.001990 0.008450 0.000000 0.000010 0.000000
# 4 0.000000 0.000000 0.000000 0.154249 0.000000 0.004556
# 5 0.000001 -0.000034 0.000010 0.000000 0.030336 0.000000
# 6 0.000000 0.000000 0.000000 0.004556 0.000000 2.271459
#
#
# Mechanical properties :
#
#
# Convention : Reuss Voigt Hill
#
# Bulk Modulus (GPa) = 14.21741 59.79211 37.00476
# Shear Modulus (GPa) = 1.91176 21.81548 11.86362
#
# Velocity S-wave (km/s) = 1.13605 3.83764 2.83003
# Velocity P-wave (km/s) = 3.36436 7.74609 5.97163
#
# Compressibility (1/GPa) = 0.07033629
#
# Stress axis : x y z
#
# Youngs Moduli (GPa) = 91.55837 11.94108 118.34463
#
# Poissons Ratio (x) = 0.11873 0.52753
# Poissons Ratio (y) = 0.91036 0.23545
# Poissons Ratio (z) = 0.40813 0.02376
#
# Static dielectric constant tensor:
#      x y z
#    x 2.976050 0.000000 0.000390 
#    y 0.000000 2.309440 0.000000 
#    z 0.000390 0.000000 2.790060 
# 
# 
# High freq. dielectric constant tensor:
#      x y z
#    x 1.575130 0.000000 -0.000050 
#    y 0.000000 1.471730 0.000000 
#    z -0.000050 0.000000 1.597570 
# 
# From -- ./inp_files/13189.got.cif
#   From: 2010.06.25/outbox.cif.g09.slc.cpg/sg10_7_cif.got.tgz:13189.got - 2010.06.27 22:07:45.
