data_PCOD8059338
_publ_section_title
;
Structure prediction by ZEFSAII (Michael W. Deem and Ramdas Pophale) SiO2 
 PCOD8059338
Probable space group: P 2/M
;
_chemical_formula_sum "Si O2"
_cell_formula_units_Z 32
_cell_length_a 17.869431
_cell_length_b 13.020329
_cell_length_c 8.890381
_cell_angle_alpha 90.000000
_cell_angle_beta 104.666192
_cell_angle_gamma 90.000000
_cell_volume 2001.091339
_symmetry_space_group_name_H-M "P 2/M"
_symmetry_group_IT_number 10
_symmetry_cell_setting 'monoclinic'
loop_
_space_group_symop_operation_xyz
x,y,z
-x,y,-z
-x,-y,-z
x,-y,z
loop_
_atom_site_type_symbol
_atom_site_label
_atom_site_fract_x
_atom_site_fract_y
_atom_site_fract_z
Si Si1 0.374505 0.221666 0.117871
Si Si2 0.765711 0.881968 0.452775
Si Si3 0.501423 0.885528 0.338271
Si Si4 0.924377 0.878592 0.042934
Si Si5 0.498915 0.385779 0.821158
Si Si6 0.765346 0.118233 0.808597
Si Si7 0.924703 0.878721 0.379722
Si Si8 0.627218 0.772716 0.237901
O O1 0.423544 0.125557 0.202212
O O2 0.425203 0.321889 0.195530
O O3 0.291556 0.205513 0.153101
O O4 0.362168 0.221696 0.934494
O O5 0.762839 0.874256 0.629270
O O6 0.849977 0.849344 0.438696
O O7 0.709414 0.794571 0.356443
O O8 0.746030 0.000000 0.391823
O O9 0.500000 0.824566 0.500000
O O10 0.572055 0.862099 0.265257
O O11 0.513726 0.000000 0.392550
O O12 0.917528 0.832541 0.207859
O O13 0.933017 0.000000 0.056701
O O14 0.849492 0.848342 0.908669
O O15 0.000000 0.831446 0.000000
O O16 0.502340 0.500000 0.752535
O O17 0.417040 0.332472 0.732994
O O18 0.500000 0.390474 0.000000
O O19 0.746328 0.000000 0.849931
O O20 0.000000 0.831144 0.500000
O O21 0.934102 0.000000 0.373935
#
# Coordination Sequence:
#
# PCOD8059338 Si02
#       8
#     4   4   4   4   4   4   4   4
#     4  10  19  29  44  64  82 105 139 177 214 252
#     4  10  19  29  41  59  87 121 150 177 211 249
#     4  10  19  29  40  55  80 113 141 166 202 248
#     4   9  16  26  40  58  82 114 151 185 213 244
#     4   8  16  32  50  65  82 105 135 174 220 266
#     4  10  19  29  41  59  87 121 150 177 211 249
#     4   9  16  26  40  58  82 114 151 185 213 244
#     4  10  19  29  44  64  82 105 139 177 214 252
#
# _framework density 15.991273
#
# number of rings (size 3 to 8) (size 9 to 14) (size 15 to 20)
#    0.000    2.500    0.000    4.125    0.000    8.500 
#    0.000    0.000    0.000   13.500    0.000    0.000 
#    0.000    1.000    0.000    2.750    0.000    4.000 
#
# Total GULP energy -396419.870893 kJ/mol
# GULP energy per Si atom -12388.120965 kJ/mol
# Density = 1.595488 g / cm^3
# Si number density = 15.991273 Si / 1000 Ang^3
#
#
#
# Elastic Constant Matrix: (Units=GPa)
#
#
# Indices 1 2 3 4 5 6 
#
# 1 133.3290 43.4555 45.4587 0.0000 5.4695 0.0000
# 2 43.4555 62.2288 23.5126 0.0000 -0.7686 0.0000
# 3 45.4587 23.5126 82.8844 0.0000 3.3166 0.0000
# 4 0.0000 0.0000 0.0000 9.7634 0.0000 0.9726
# 5 5.4695 -0.7686 3.3166 0.0000 29.4130 0.0000
# 6 0.0000 0.0000 0.0000 0.9726 0.0000 13.1355
#
#
#
# Elastic Compliance Matrix: (Units=1/GPa)
#
#
# Indices 1 2 3 4 5 6 
#
# 1 0.011005 -0.006107 -0.004234 0.000000 -0.001729 0.000000
# 2 -0.006107 0.021420 -0.002808 0.000000 0.002012 0.000000
# 3 -0.004234 -0.002808 0.015224 0.000000 -0.001003 0.000000
# 4 0.000000 0.000000 0.000000 0.103184 0.000000 -0.007640
# 5 -0.001729 0.002012 -0.001003 0.000000 0.034486 0.000000
# 6 0.000000 0.000000 0.000000 -0.007640 0.000000 0.076695
#
#
# Mechanical properties :
#
#
# Convention : Reuss Voigt Hill
#
# Bulk Modulus (GPa) = 46.83468 55.92173 51.37821
# Shear Modulus (GPa) = 16.92456 21.53008 19.22732
#
# Velocity S-wave (km/s) = 3.25678 3.67326 3.47127
# Velocity P-wave (km/s) = 6.59495 7.28262 6.94730
#
# Compressibility (1/GPa) = 0.02135170
#
# Stress axis : x y z
#
# Youngs Moduli (GPa) = 90.86644 46.68594 65.68576
#
# Poissons Ratio (x) = 0.28509 0.27814
# Poissons Ratio (y) = 0.55488 0.18442
# Poissons Ratio (z) = 0.38477 0.13108
#
# Static dielectric constant tensor:
#      x y z
#    x 3.188560 0.000000 -0.022040 
#    y 0.000000 2.792140 0.000000 
#    z -0.022040 0.000000 3.061850 
# 
# 
# High freq. dielectric constant tensor:
#      x y z
#    x 1.622920 0.000000 -0.002870 
#    y 0.000000 1.546360 0.000000 
#    z -0.002870 0.000000 1.628090 
# 
# From -- ./inp_files/32572.got.cif
#   From: 2010.06.25/outbox.cif.g09.slc.cpg/sg10_17_cif.got.tgz:32572.got - 2010.06.27 22:07:45.
