data_PCOD8059811
_publ_section_title
;
Structure prediction by ZEFSAII (Michael W. Deem and Ramdas Pophale) SiO2 
 PCOD8059811
Probable space group: P 2/M
;
_chemical_formula_sum "Si O2"
_cell_formula_units_Z 32
_cell_length_a 17.849208
_cell_length_b 13.693952
_cell_length_c 24.682620
_cell_angle_alpha 90.000000
_cell_angle_beta 162.014062
_cell_angle_gamma 90.000000
_cell_volume 1862.915651
_symmetry_space_group_name_H-M "P 2/M"
_symmetry_group_IT_number 10
_symmetry_cell_setting 'monoclinic'
loop_
_space_group_symop_operation_xyz
x,y,z
-x,y,-z
-x,-y,-z
x,-y,z
loop_
_atom_site_type_symbol
_atom_site_label
_atom_site_fract_x
_atom_site_fract_y
_atom_site_fract_z
Si Si1 0.568386 0.297725 0.486858
Si Si2 0.836196 0.890623 0.653596
Si Si3 0.324189 0.890102 0.570776
Si Si4 0.898255 0.392247 0.863890
Si Si5 0.810067 0.215927 0.911671
Si Si6 0.031814 0.393383 0.832688
Si Si7 0.770566 0.113457 0.374835
Si Si8 0.254481 0.199284 0.008261
O O1 0.500000 0.327772 0.500000
O O2 0.618561 0.181762 0.520395
O O3 0.348948 0.328442 0.295532
O O4 0.817563 0.356615 0.644689
O O5 0.868586 0.881734 0.610546
O O6 0.089272 0.866731 0.856075
O O7 0.756067 0.000000 0.614509
O O8 0.537905 0.811407 0.707168
O O9 0.184515 0.867394 0.530520
O O10 0.436929 0.000000 0.651259
O O11 0.879781 0.500000 0.877719
O O12 0.924325 0.404157 0.818234
O O13 0.130043 0.333467 0.048716
O O14 0.844995 0.183019 0.998616
O O15 0.000000 0.164503 0.000000
O O16 0.128971 0.500000 0.879850
O O17 0.242949 0.312062 0.980546
O O18 0.000000 0.156165 0.500000
O O19 0.735429 0.000000 0.337213
O O20 0.530759 0.168867 0.190699
#
# Coordination Sequence:
#
# PCOD8059811 Si02
#       8
#     4   4   4   4   4   4   4   4
#     4   9  16  26  39  60  89 122 159 193 226 265
#     4  10  19  31  46  64  90 119 149 190 230 262
#     4   9  19  33  47  66  93 123 151 183 224 269
#     4   9  16  26  41  60  83 115 157 200 232 259
#     4  10  19  31  44  62  91 125 158 187 223 268
#     4   8  14  25  42  63  88 118 149 186 231 271
#     4   9  17  32  53  73  94 120 146 175 221 278
#     4   9  18  31  49  70  91 117 154 193 223 263
#
# _framework density 17.177375000000001
#
# number of rings (size 3 to 8) (size 9 to 14) (size 15 to 20)
#    0.000    2.875    0.000    2.250    0.000    2.750 
#    0.000    2.500    0.000    4.125    0.000    0.000 
#    0.000    4.000    0.000    0.000    0.000    0.000 
#
# Total GULP energy -396448.075619 kJ/mol
# GULP energy per Si atom -12389.002363 kJ/mol
# Density = 1.713828 g / cm^3
# Si number density = 17.177375 Si / 1000 Ang^3
#
#
#
# Elastic Constant Matrix: (Units=GPa)
#
#
# Indices 1 2 3 4 5 6 
#
# 1 68.8142 31.4629 46.8705 0.0000 10.5560 0.0000
# 2 31.4629 112.0806 54.2554 0.0000 4.9213 0.0000
# 3 46.8705 54.2554 102.7489 0.0000 -1.7369 0.0000
# 4 0.0000 0.0000 0.0000 15.8945 0.0000 4.2326
# 5 10.5560 4.9213 -1.7369 0.0000 24.9856 0.0000
# 6 0.0000 0.0000 0.0000 4.2326 0.0000 8.9199
#
#
#
# Elastic Compliance Matrix: (Units=1/GPa)
#
#
# Indices 1 2 3 4 5 6 
#
# 1 0.023769 -0.001175 -0.010400 0.000000 -0.010533 0.000000
# 2 -0.001175 0.012243 -0.005968 0.000000 -0.002330 0.000000
# 3 -0.010400 -0.005968 0.017743 0.000000 0.006803 0.000000
# 4 0.000000 0.000000 0.000000 0.072014 0.000000 -0.034172
# 5 -0.010533 -0.002330 0.006803 0.000000 0.045405 0.000000
# 6 0.000000 0.000000 0.000000 -0.034172 0.000000 0.128324
#
#
# Mechanical properties :
#
#
# Convention : Reuss Voigt Hill
#
# Bulk Modulus (GPa) = 53.56740 60.98014 57.27377
# Shear Modulus (GPa) = 14.67106 20.03035 17.35071
#
# Velocity S-wave (km/s) = 2.92566 3.41851 3.18164
# Velocity P-wave (km/s) = 6.53186 7.15255 6.84924
#
# Compressibility (1/GPa) = 0.01866807
#
# Stress axis : x y z
#
# Youngs Moduli (GPa) = 42.07246 81.67620 56.36068
#
# Poissons Ratio (x) = 0.09601 0.58614
# Poissons Ratio (y) = 0.04946 0.33637
# Poissons Ratio (z) = 0.43754 0.48746
#
# Static dielectric constant tensor:
#      x y z
#    x 3.087280 0.000000 -0.273590 
#    y 0.000000 3.448610 0.000000 
#    z -0.273590 0.000000 3.160220 
# 
# 
# High freq. dielectric constant tensor:
#      x y z
#    x 1.628610 0.000000 -0.035800 
#    y 0.000000 1.664080 0.000000 
#    z -0.035800 0.000000 1.654140 
# 
# From -- ./inp_files/90263.got.cif
#   From: 2010.06.25/outbox.cif.g09.slc.cpg/sg10_46_cif.got.tgz:90263.got - 2010.06.27 22:07:45.
