data_PCOD8059741
_publ_section_title
;
Structure prediction by ZEFSAII (Michael W. Deem and Ramdas Pophale) SiO2 
 PCOD8059741
Probable space group: P 2/M
;
_chemical_formula_sum "Si O2"
_cell_formula_units_Z 24
_cell_length_a 8.880521
_cell_length_b 29.349982
_cell_length_c 8.141846
_cell_angle_alpha 90.000000
_cell_angle_beta 34.564383
_cell_angle_gamma 90.000000
_cell_volume 1203.944334
_symmetry_space_group_name_H-M "P 2/M"
_symmetry_group_IT_number 10
_symmetry_cell_setting 'monoclinic'
loop_
_space_group_symop_operation_xyz
x,y,z
-x,y,-z
-x,-y,-z
x,-y,z
loop_
_atom_site_type_symbol
_atom_site_label
_atom_site_fract_x
_atom_site_fract_y
_atom_site_fract_z
Si Si1 0.780327 0.146290 0.835028
Si Si2 0.724783 0.379568 0.666120
Si Si3 0.559332 0.288887 0.638826
Si Si4 0.779148 0.951943 0.836157
Si Si5 0.784907 0.552401 0.322897
Si Si6 0.061447 0.764303 0.134682
O O1 0.789590 0.096764 0.922309
O O2 0.852672 0.184644 0.900494
O O3 0.000000 0.147264 0.500000
O O4 0.500000 0.155486 0.000000
O O5 0.615279 0.338643 0.655363
O O6 0.794581 0.421932 0.486986
O O7 0.000000 0.364006 0.500000
O O8 0.500000 0.393896 0.000000
O O9 0.500000 0.293096 0.500000
O O10 0.801296 0.254167 0.462038
O O11 0.302638 0.269453 0.962866
O O12 0.000000 0.951060 0.500000
O O13 0.812599 0.000000 0.910195
O O14 0.500000 0.953802 0.000000
O O15 0.500000 0.558829 0.500000
O O16 0.851926 0.500000 0.301320
O O17 0.000000 0.572255 0.000000
O O18 0.000000 0.763680 0.000000
#
# Coordination Sequence:
#
# PCOD8059741 Si02
#       6
#     4   4   4   4   4   4
#     4  10  19  30  49  74  98 129 167 212 262 309
#     4  12  25  38  59  91 120 145 180 235 289 319
#     4  10  22  39  56  74 104 147 185 214 258 327
#     4   8  14  25  41  64  93 123 159 202 249 305
#     4  10  22  42  66  88 115 156 196 224 263 330
#     4  10  21  36  53  74 102 138 177 218 263 314
#
# _framework density 19.934477000000001
#
# number of rings (size 3 to 8) (size 9 to 14) (size 15 to 20)
#    0.000    2.000    0.000    3.500    0.000    6.667 
#    0.000    0.000    0.000    0.500    0.000    0.000 
#    0.000   17.333    0.000    0.000    0.000    2.667 
#
# Total GULP energy -297394.995485 kJ/mol
# GULP energy per Si atom -12391.458145 kJ/mol
# Density = 1.988911 g / cm^3
# Si number density = 19.934477 Si / 1000 Ang^3
#
#
#
# Elastic Constant Matrix: (Units=GPa)
#
#
# Indices 1 2 3 4 5 6 
#
# 1 40.9282 42.4351 40.0092 0.0000 -14.8740 0.0000
# 2 42.4351 137.6569 38.9384 0.0000 -2.7934 0.0000
# 3 40.0092 38.9384 144.9171 0.0000 -20.4998 0.0000
# 4 0.0000 0.0000 0.0000 36.2380 0.0000 -13.6860
# 5 -14.8740 -2.7934 -20.4998 0.0000 27.5571 0.0000
# 6 0.0000 0.0000 0.0000 -13.6860 0.0000 33.2867
#
#
#
# Elastic Compliance Matrix: (Units=1/GPa)
#
#
# Indices 1 2 3 4 5 6 
#
# 1 0.055516 -0.014306 -0.008326 0.000000 0.022321 0.000000
# 2 -0.014306 0.011567 -0.000095 0.000000 -0.006620 0.000000
# 3 -0.008326 -0.000095 0.009597 0.000000 0.002636 0.000000
# 4 0.000000 0.000000 0.000000 0.032668 0.000000 0.013432
# 5 0.022321 -0.006620 0.002636 0.000000 0.049626 0.000000
# 6 0.000000 0.000000 0.000000 0.013432 0.000000 0.035565
#
#
# Mechanical properties :
#
#
# Convention : Reuss Voigt Hill
#
# Bulk Modulus (GPa) = 32.02241 62.91862 47.47051
# Shear Modulus (GPa) = 19.96793 32.89100 26.42947
#
# Velocity S-wave (km/s) = 3.16836 4.06637 3.64513
# Velocity P-wave (km/s) = 5.42986 7.32655 6.44833
#
# Compressibility (1/GPa) = 0.03122813
#
# Stress axis : x y z
#
# Youngs Moduli (GPa) = 18.01273 86.45330 104.19446
#
# Poissons Ratio (x) = 1.23679 0.86749
# Poissons Ratio (y) = 0.25769 0.00987
# Poissons Ratio (z) = 0.14997 0.00819
#
# Static dielectric constant tensor:
#      x y z
#    x 3.257370 0.000000 -0.303940 
#    y 0.000000 4.297240 0.000000 
#    z -0.303940 0.000000 3.992620 
# 
# 
# High freq. dielectric constant tensor:
#      x y z
#    x 1.741270 0.000000 -0.028170 
#    y 0.000000 1.799290 0.000000 
#    z -0.028170 0.000000 1.797190 
# 
# From -- ./inp_files/20886.got.cif
#   From: 2010.06.25/outbox.cif.g09.slc.cpg/sg10_11_cif.got.tgz:20886.got - 2010.06.27 22:07:45.
