data_PCOD8059292
_publ_section_title
;
Structure prediction by ZEFSAII (Michael W. Deem and Ramdas Pophale) SiO2 
 PCOD8059292
Probable space group: P 2/M
;
_chemical_formula_sum "Si O2"
_cell_formula_units_Z 22
_cell_length_a 22.380792
_cell_length_b 10.731516
_cell_length_c 5.149519
_cell_angle_alpha 90.000000
_cell_angle_beta 110.314130
_cell_angle_gamma 90.000000
_cell_volume 1159.885105
_symmetry_space_group_name_H-M "P 2/M"
_symmetry_group_IT_number 10
_symmetry_cell_setting 'monoclinic'
loop_
_space_group_symop_operation_xyz
x,y,z
-x,y,-z
-x,-y,-z
x,-y,z
loop_
_atom_site_type_symbol
_atom_site_label
_atom_site_fract_x
_atom_site_fract_y
_atom_site_fract_z
Si Si1 0.140424 0.357932 0.216923
Si Si2 0.072392 0.350988 0.614170
Si Si3 0.276716 0.733589 0.383670
Si Si4 0.362226 0.728897 0.013475
Si Si5 0.283803 0.000000 0.486385
Si Si6 0.456536 0.500000 0.184627
Si Si7 0.638580 0.000000 0.896540
O O1 0.118414 0.500000 0.186197
O O2 0.110806 0.294356 0.427696
O O3 0.217108 0.356749 0.326818
O O4 0.108627 0.294006 0.918084
O O5 0.074998 0.500000 0.619730
O O6 0.000000 0.302850 0.500000
O O7 0.308412 0.711967 0.151931
O O8 0.246613 0.873223 0.362617
O O9 0.329754 0.710808 0.684160
O O10 0.414959 0.624488 0.126537
O O11 0.395916 0.867160 0.089927
O O12 0.345534 0.000000 0.385921
O O13 0.300470 0.000000 0.817375
O O14 0.500000 0.500000 0.500000
O O15 0.500000 0.500000 0.000000
#
# Coordination Sequence:
#
# PCOD8059292 Si02
#       7
#     4   4   4   4   2   2   2
#     4  10  19  27  44  73 101 122 165 211 246 312
#     4   9  17  30  43  61  95 139 170 202 247 294
#     4  10  19  33  53  80 103 131 167 209 268 300
#     4  10  21  36  58  75 107 138 168 213 260 305
#     4   8  16  30  50  73 103 130 162 206 251 318
#     4  12  26  42  56  80 110 144 177 202 247 312
#     4   8  16  34  54  79  96 132 175 206 249 302
#
# _framework density 18.967396000000001
#
# number of rings (size 3 to 8) (size 9 to 14) (size 15 to 20)
#    0.000    2.364    0.000    2.727    2.545    2.182 
#    0.000    0.909    0.000    0.000    0.000    3.818 
#    0.000    0.000    0.000    0.000    0.000    0.000 
#
# Total GULP energy -272593.225693 kJ/mol
# GULP energy per Si atom -12390.601168 kJ/mol
# Density = 1.892423 g / cm^3
# Si number density = 18.967396 Si / 1000 Ang^3
#
#
#
# Elastic Constant Matrix: (Units=GPa)
#
#
# Indices 1 2 3 4 5 6 
#
# 1 94.7451 35.8230 39.2746 0.0000 -9.8127 0.0000
# 2 35.8230 76.0225 27.3428 0.0000 5.5948 0.0000
# 3 39.2746 27.3428 127.2028 0.0000 -11.2523 0.0000
# 4 0.0000 0.0000 0.0000 14.1570 0.0000 -6.4265
# 5 -9.8127 5.5948 -11.2523 0.0000 36.1190 0.0000
# 6 0.0000 0.0000 0.0000 -6.4265 0.0000 3.2666
#
#
#
# Elastic Compliance Matrix: (Units=1/GPa)
#
#
# Indices 1 2 3 4 5 6 
#
# 1 0.014428 -0.006088 -0.002793 0.000000 0.003993 0.000000
# 2 -0.006088 0.017207 -0.002263 0.000000 -0.005024 0.000000
# 3 -0.002793 -0.002263 0.009434 0.000000 0.002531 0.000000
# 4 0.000000 0.000000 0.000000 0.660585 0.000000 1.299599
# 5 0.003993 -0.005024 0.002531 0.000000 0.030338 0.000000
# 6 0.000000 0.000000 0.000000 1.299599 0.000000 2.862887
#
#
# Mechanical properties :
#
#
# Convention : Reuss Voigt Hill
#
# Bulk Modulus (GPa) = 53.24766 55.87234 54.56000
# Shear Modulus (GPa) = 1.37991 23.74386 12.56189
#
# Velocity S-wave (km/s) = 0.85387 3.54195 2.57629
# Velocity P-wave (km/s) = 5.39503 6.80061 6.13818
#
# Compressibility (1/GPa) = 0.01878017
#
# Stress axis : x y z
#
# Youngs Moduli (GPa) = 69.31124 58.11745 105.99764
#
# Poissons Ratio (x) = 0.35381 0.29603
# Poissons Ratio (y) = 0.42196 0.23991
# Poissons Ratio (z) = 0.19357 0.13154
#
# Static dielectric constant tensor:
#      x y z
#    x 3.236510 0.000000 -0.307350 
#    y 0.000000 3.563490 0.000000 
#    z -0.307350 0.000000 3.742850 
# 
# 
# High freq. dielectric constant tensor:
#      x y z
#    x 1.710960 0.000000 -0.025770 
#    y 0.000000 1.713110 0.000000 
#    z -0.025770 0.000000 1.756730 
# 
# From -- ./inp_files/11024.got.cif
#   From: 2010.06.25/outbox.cif.g09.slc.cpg/sg10_6_cif.got.tgz:11024.got - 2010.06.27 22:07:45.
