data_PCOD8059584
_publ_section_title
;
Structure prediction by ZEFSAII (Michael W. Deem and Ramdas Pophale) SiO2 
 PCOD8059584
Probable space group: P 2/M
;
_chemical_formula_sum "Si O2"
_cell_formula_units_Z 32
_cell_length_a 27.482629
_cell_length_b 9.632919
_cell_length_c 15.648440
_cell_angle_alpha 90.000000
_cell_angle_beta 152.056033
_cell_angle_gamma 90.000000
_cell_volume 1941.318498
_symmetry_space_group_name_H-M "P 2/M"
_symmetry_group_IT_number 10
_symmetry_cell_setting 'monoclinic'
loop_
_space_group_symop_operation_xyz
x,y,z
-x,y,-z
-x,-y,-z
x,-y,z
loop_
_atom_site_type_symbol
_atom_site_label
_atom_site_fract_x
_atom_site_fract_y
_atom_site_fract_z
Si Si1 0.848513 0.659674 0.931739
Si Si2 0.918296 0.339806 0.677843
Si Si3 0.412445 0.835424 0.049421
Si Si4 0.251323 0.161574 0.664174
Si Si5 0.547981 0.835632 0.702074
Si Si6 0.802466 0.341114 0.668636
Si Si7 0.661098 0.164281 0.708755
Si Si8 0.633476 0.160385 0.331088
O O1 0.818226 0.500000 0.902009
O O2 0.855504 0.688822 0.841543
O O3 0.766159 0.757754 0.849251
O O4 0.960649 0.694915 0.145337
O O5 0.895329 0.500000 0.621839
O O6 0.854370 0.247588 0.511126
O O7 0.884943 0.303091 0.722912
O O8 0.416303 0.772260 0.151377
O O9 0.514744 0.790238 0.155796
O O10 0.407634 0.000000 0.046118
O O11 0.310061 0.783417 0.840363
O O12 0.330046 0.189230 0.708415
O O13 0.221715 0.000000 0.624582
O O14 0.431236 0.786186 0.497804
O O15 0.629471 0.790771 0.755808
O O16 0.544494 0.000000 0.701252
O O17 0.766466 0.500000 0.604645
O O18 0.701059 0.246172 0.503508
O O19 0.680027 0.000000 0.731572
O O20 0.645968 0.000000 0.375862
#
# Coordination Sequence:
#
# PCOD8059584 Si02
#       8
#     4   4   4   4   4   4   4   4
#     4  10  19  30  46  66  87 114 147 179 216 261
#     4   9  18  32  46  60  85 120 150 177 213 256
#     4   9  15  25  44  66  89 118 147 174 211 259
#     4   9  17  28  43  65  90 115 147 184 214 245
#     4   8  15  28  46  68  92 117 142 170 211 263
#     4   9  17  29  44  63  88 117 147 176 208 255
#     4   9  17  30  48  69  91 113 141 177 215 257
#     4   9  16  26  42  66  93 117 142 175 215 255
#
# _framework density 16.483643000000001
#
# number of rings (size 3 to 8) (size 9 to 14) (size 15 to 20)
#    0.000    3.000    0.000    2.250    0.000    5.000 
#    0.000    1.875    0.000    9.750    0.000    5.250 
#    0.000    0.000    0.000    0.000    0.000    0.000 
#
# Total GULP energy -396701.825223 kJ/mol
# GULP energy per Si atom -12396.932038 kJ/mol
# Density = 1.644613 g / cm^3
# Si number density = 16.483643 Si / 1000 Ang^3
#
#
#
# Elastic Constant Matrix: (Units=GPa)
#
#
# Indices 1 2 3 4 5 6 
#
# 1 78.5172 33.5264 64.9870 0.0000 1.5719 0.0000
# 2 33.5264 46.5917 52.5671 0.0000 5.2909 0.0000
# 3 64.9870 52.5671 142.5804 0.0000 -1.4463 0.0000
# 4 0.0000 0.0000 0.0000 16.7197 0.0000 1.1968
# 5 1.5719 5.2909 -1.4463 0.0000 27.1048 0.0000
# 6 0.0000 0.0000 0.0000 1.1968 0.0000 18.4306
#
#
#
# Elastic Compliance Matrix: (Units=1/GPa)
#
#
# Indices 1 2 3 4 5 6 
#
# 1 0.021963 -0.007688 -0.007177 0.000000 -0.000156 0.000000
# 2 -0.007688 0.041214 -0.011774 0.000000 -0.008227 0.000000
# 3 -0.007177 -0.011774 0.014661 0.000000 0.003497 0.000000
# 4 0.000000 0.000000 0.000000 0.060089 0.000000 -0.003902
# 5 -0.000156 -0.008227 0.003497 0.000000 0.038695 0.000000
# 6 0.000000 0.000000 0.000000 -0.003902 0.000000 0.054511
#
#
# Mechanical properties :
#
#
# Convention : Reuss Voigt Hill
#
# Bulk Modulus (GPa) = 40.71946 63.31671 52.01808
# Shear Modulus (GPa) = 17.08828 20.22495 18.65662
#
# Velocity S-wave (km/s) = 3.22325 3.50661 3.36791
# Velocity P-wave (km/s) = 6.21361 7.40880 6.83737
#
# Compressibility (1/GPa) = 0.02455828
#
# Stress axis : x y z
#
# Youngs Moduli (GPa) = 45.53196 24.26380 68.20632
#
# Poissons Ratio (x) = 0.18654 0.48955
# Poissons Ratio (y) = 0.35006 0.80307
# Poissons Ratio (z) = 0.32680 0.28568
#
# Static dielectric constant tensor:
#      x y z
#    x 3.132990 0.000000 -0.173430 
#    y 0.000000 2.891930 0.000000 
#    z -0.173430 0.000000 3.284070 
# 
# 
# High freq. dielectric constant tensor:
#      x y z
#    x 1.618660 0.000000 -0.002500 
#    y 0.000000 1.606700 0.000000 
#    z -0.002500 0.000000 1.634780 
# 
# From -- ./inp_files/56795.got.cif
#   From: 2010.06.25/outbox.cif.g09.slc.cpg/sg10_29_cif.got.tgz:56795.got - 2010.06.27 22:07:45.
