data_PCOD8059378
_publ_section_title
;
Structure prediction by ZEFSAII (Michael W. Deem and Ramdas Pophale) SiO2 
 PCOD8059378
Probable space group: P 2/M
;
_chemical_formula_sum "Si O2"
_cell_formula_units_Z 32
_cell_length_a 8.996989
_cell_length_b 13.034942
_cell_length_c 28.842347
_cell_angle_alpha 90.000000
_cell_angle_beta 141.577013
_cell_angle_gamma 90.000000
_cell_volume 2102.091283
_symmetry_space_group_name_H-M "P 2/M"
_symmetry_group_IT_number 10
_symmetry_cell_setting 'monoclinic'
loop_
_space_group_symop_operation_xyz
x,y,z
-x,y,-z
-x,-y,-z
x,-y,z
loop_
_atom_site_type_symbol
_atom_site_label
_atom_site_fract_x
_atom_site_fract_y
_atom_site_fract_z
Si Si1 0.994300 0.211692 0.360900
Si Si2 0.135301 0.880848 0.222898
Si Si3 0.400017 0.878024 0.927290
Si Si4 0.153444 0.882603 0.494832
Si Si5 0.332971 0.194175 0.364859
Si Si6 0.513463 0.880796 0.776262
Si Si7 0.265364 0.878185 0.072659
Si Si8 0.698074 0.384626 0.588119
O O1 0.091358 0.179369 0.434150
O O2 0.141239 0.152078 0.356076
O O3 0.054546 0.333573 0.370670
O O4 0.715159 0.190181 0.288053
O O5 0.225620 0.812809 0.287468
O O6 0.302618 0.861811 0.219973
O O7 0.871669 0.841696 0.145490
O O8 0.133969 0.000000 0.237292
O O9 0.559994 0.834131 0.924358
O O10 0.413478 0.000000 0.931532
O O11 0.500000 0.832983 0.000000
O O12 0.431958 0.874909 0.574856
O O13 0.000000 0.837523 0.500000
O O14 0.081469 0.000000 0.468684
O O15 0.393545 0.314053 0.391175
O O16 0.637949 0.843485 0.853823
O O17 0.435574 0.000000 0.759845
O O18 0.255626 0.000000 0.067456
O O19 0.000000 0.832736 0.000000
O O20 0.500000 0.383159 0.500000
O O21 0.749345 0.500000 0.617826
#
# Coordination Sequence:
#
# PCOD8059378 Si02
#       8
#     4   4   4   4   4   4   4   4
#     4  10  19  32  47  70  84 120 153 193 227 276
#     4  10  19  29  42  64  98 133 158 188 227 268
#     4   9  16  26  40  59  87 128 171 199 222 257
#     4  11  21  31  43  64  98 130 153 181 219 267
#     4  10  19  32  47  70  84 120 153 193 227 276
#     4  10  19  29  42  64  98 133 158 188 227 268
#     4   9  16  26  40  59  87 128 171 199 222 257
#     4   9  18  36  56  70  86 112 150 200 254 288
#
# _framework density 15.222935
#
# number of rings (size 3 to 8) (size 9 to 14) (size 15 to 20)
#    0.750    1.500    1.250    3.375    0.000    8.500 
#    0.000    0.000    0.000    3.750    0.000    0.000 
#    0.000    1.000    0.000    0.000    0.000    0.000 
#
# Total GULP energy -396660.157565 kJ/mol
# GULP energy per Si atom -12395.629924 kJ/mol
# Density = 1.518829 g / cm^3
# Si number density = 15.222935 Si / 1000 Ang^3
#
#
#
# Elastic Constant Matrix: (Units=GPa)
#
#
# Indices 1 2 3 4 5 6 
#
# 1 113.2308 20.0575 53.6131 0.0000 -1.5000 0.0000
# 2 20.0575 48.8976 23.0446 0.0000 -2.3084 0.0000
# 3 53.6131 23.0446 123.8940 0.0000 -1.5467 0.0000
# 4 0.0000 0.0000 0.0000 7.9513 0.0000 -1.2030
# 5 -1.5000 -2.3084 -1.5467 0.0000 37.9465 0.0000
# 6 0.0000 0.0000 0.0000 -1.2030 0.0000 2.3130
#
#
#
# Elastic Compliance Matrix: (Units=1/GPa)
#
#
# Indices 1 2 3 4 5 6 
#
# 1 0.011396 -0.002571 -0.004452 0.000000 0.000113 0.000000
# 2 -0.002571 0.023050 -0.003160 0.000000 0.001172 0.000000
# 3 -0.004452 -0.003160 0.010587 0.000000 0.000063 0.000000
# 4 0.000000 0.000000 0.000000 0.136506 0.000000 0.070994
# 5 0.000113 0.001172 0.000063 0.000000 0.026431 0.000000
# 6 0.000000 0.000000 0.000000 0.070994 0.000000 0.469258
#
#
# Mechanical properties :
#
#
# Convention : Reuss Voigt Hill
#
# Bulk Modulus (GPa) = 40.54081 53.27254 46.90668
# Shear Modulus (GPa) = 7.08400 22.26265 14.67332
#
# Velocity S-wave (km/s) = 2.15954 3.82834 3.10804
# Velocity P-wave (km/s) = 5.73649 7.39002 6.61513
#
# Compressibility (1/GPa) = 0.02466650
#
# Stress axis : x y z
#
# Youngs Moduli (GPa) = 87.74688 43.38345 94.45991
#
# Poissons Ratio (x) = 0.11155 0.42053
# Poissons Ratio (y) = 0.22562 0.29850
# Poissons Ratio (z) = 0.39064 0.13710
#
# Static dielectric constant tensor:
#      x y z
#    x 3.090770 0.000000 0.064280 
#    y 0.000000 2.500070 0.000000 
#    z 0.064280 0.000000 3.150220 
# 
# 
# High freq. dielectric constant tensor:
#      x y z
#    x 1.595910 0.000000 -0.001480 
#    y 0.000000 1.515940 0.000000 
#    z -0.001480 0.000000 1.596250 
# 
# From -- ./inp_files/92328.got.cif
#   From: 2010.06.25/outbox.cif.g09.slc.cpg/sg10_47_cif.got.tgz:92328.got - 2010.06.27 22:07:45.
