data_PCOD8059735
_publ_section_title
;
Structure prediction by ZEFSAII (Michael W. Deem and Ramdas Pophale) SiO2 
 PCOD8059735
Probable space group: P 2/M
;
_chemical_formula_sum "Si O2"
_cell_formula_units_Z 32
_cell_length_a 17.325945
_cell_length_b 18.053533
_cell_length_c 13.523640
_cell_angle_alpha 90.000000
_cell_angle_beta 25.082255
_cell_angle_gamma 90.000000
_cell_volume 1793.228189
_symmetry_space_group_name_H-M "P 2/M"
_symmetry_group_IT_number 10
_symmetry_cell_setting 'monoclinic'
loop_
_space_group_symop_operation_xyz
x,y,z
-x,y,-z
-x,-y,-z
x,-y,z
loop_
_atom_site_type_symbol
_atom_site_label
_atom_site_fract_x
_atom_site_fract_y
_atom_site_fract_z
Si Si1 0.560801 0.228080 0.317595
Si Si2 0.897205 0.583701 0.716937
Si Si3 0.511348 0.416298 0.874509
Si Si4 0.679198 0.283674 0.574307
Si Si5 0.932701 0.283674 0.813794
Si Si6 0.009649 0.141982 0.372070
Si Si7 0.623874 0.082106 0.128367
Si Si8 0.608634 0.141982 0.773085
O O1 0.500000 0.230190 0.500000
O O2 0.410185 0.271472 0.428558
O O3 0.578610 0.142645 0.264160
O O4 0.751064 0.271474 0.087677
O O5 0.960720 0.500000 0.667540
O O6 0.945871 0.634363 0.753552
O O7 0.000000 0.612533 0.500000
O O8 0.683758 0.588207 0.948725
O O9 0.588981 0.500000 0.782761
O O10 0.645297 0.365636 0.655279
O O11 0.500000 0.387469 0.000000
O O12 0.593154 0.226109 0.752316
O O13 0.895900 0.271529 0.312304
O O14 0.938627 0.226110 0.715900
O O15 0.818057 0.117599 0.545833
O O16 0.000000 0.136032 0.500000
O O17 0.167752 0.088633 0.149326
O O18 0.484824 0.088632 0.198098
O O19 0.599110 0.000000 0.202665
O O20 0.500000 0.136028 0.000000
#
# Coordination Sequence:
#
# PCOD8059735 Si02
#       8
#     4   4   4   4   4   4   4   4
#     4  10  22  41  61  80 102 131 181 237 278 320
#     4  10  19  30  48  80 119 154 183 213 257 314
#     4  10  19  30  48  80 119 154 183 213 257 314
#     4  10  20  34  56  79 106 142 181 228 271 315
#     4  10  20  34  56  79 106 142 181 228 271 315
#     4  10  19  32  50  77 109 145 181 211 252 313
#     4  10  22  37  54  79 109 140 173 213 268 326
#     4  10  19  32  50  77 109 145 181 211 252 313
#
# _framework density 17.844911
#
# number of rings (size 3 to 8) (size 9 to 14) (size 15 to 20)
#    0.000    2.000    2.500    1.500    0.000    5.250 
#    0.000    0.000    0.000    1.500    0.000    8.750 
#    0.000    0.000    0.000    0.000    0.000    0.000 
#
# Total GULP energy -396841.884952 kJ/mol
# GULP energy per Si atom -12401.308905 kJ/mol
# Density = 1.780430 g / cm^3
# Si number density = 17.844911 Si / 1000 Ang^3
#
#
#
# Elastic Constant Matrix: (Units=GPa)
#
#
# Indices 1 2 3 4 5 6 
#
# 1 101.9832 42.4705 65.8519 0.0000 -0.2727 0.0000
# 2 42.4705 98.4787 41.4312 0.0000 6.2832 0.0000
# 3 65.8519 41.4312 102.5707 0.0000 -3.3014 0.0000
# 4 0.0000 0.0000 0.0000 15.2066 0.0000 0.1506
# 5 -0.2727 6.2832 -3.3014 0.0000 36.4082 0.0000
# 6 0.0000 0.0000 0.0000 0.1506 0.0000 15.2331
#
#
#
# Elastic Compliance Matrix: (Units=1/GPa)
#
#
# Indices 1 2 3 4 5 6 
#
# 1 0.017662 -0.003412 -0.009967 0.000000 -0.000183 0.000000
# 2 -0.003412 0.013137 -0.003199 0.000000 -0.002583 0.000000
# 3 -0.009967 -0.003199 0.017507 0.000000 0.002065 0.000000
# 4 0.000000 0.000000 0.000000 0.065767 0.000000 -0.000650
# 5 -0.000183 -0.002583 0.002065 0.000000 0.028098 0.000000
# 6 0.000000 0.000000 0.000000 -0.000650 0.000000 0.065653
#
#
# Mechanical properties :
#
#
# Convention : Reuss Voigt Hill
#
# Bulk Modulus (GPa) = 66.00740 66.94885 66.47812
# Shear Modulus (GPa) = 20.32290 23.58818 21.95554
#
# Velocity S-wave (km/s) = 3.37836 3.63966 3.51144
# Velocity P-wave (km/s) = 7.23101 7.43380 7.33311
#
# Compressibility (1/GPa) = 0.01514982
#
# Stress axis : x y z
#
# Youngs Moduli (GPa) = 56.62008 76.12358 57.12131
#
# Poissons Ratio (x) = 0.25974 0.56931
# Poissons Ratio (y) = 0.19319 0.18272
# Poissons Ratio (z) = 0.56431 0.24350
#
# Static dielectric constant tensor:
#      x y z
#    x 3.153640 0.000000 -0.295020 
#    y 0.000000 3.314890 0.000000 
#    z -0.295020 0.000000 3.202210 
# 
# 
# High freq. dielectric constant tensor:
#      x y z
#    x 1.677940 0.000000 -0.032030 
#    y 0.000000 1.688240 0.000000 
#    z -0.032030 0.000000 1.683220 
# 
# From -- ./inp_files/51936.got.cif
#   From: 2010.06.25/outbox.cif.g09.slc.cpg/sg10_26_cif.got.tgz:51936.got - 2010.06.27 22:07:45.
