data_PCOD8059260
_publ_section_title
;
Structure prediction by ZEFSAII (Michael W. Deem and Ramdas Pophale) SiO2 
 PCOD8059260
Probable space group: P 2/M
;
_chemical_formula_sum "Si O2"
_cell_formula_units_Z 20
_cell_length_a 14.584802
_cell_length_b 11.320353
_cell_length_c 11.754149
_cell_angle_alpha 90.000000
_cell_angle_beta 150.709333
_cell_angle_gamma 90.000000
_cell_volume 949.454167
_symmetry_space_group_name_H-M "P 2/M"
_symmetry_group_IT_number 10
_symmetry_cell_setting 'monoclinic'
loop_
_space_group_symop_operation_xyz
x,y,z
-x,y,-z
-x,-y,-z
x,-y,z
loop_
_atom_site_type_symbol
_atom_site_label
_atom_site_fract_x
_atom_site_fract_y
_atom_site_fract_z
Si Si1 0.586338 0.500000 0.912918
Si Si2 0.002116 0.500000 0.367314
Si Si3 0.500000 0.305317 0.000000
Si Si4 0.980915 0.864757 0.818145
Si Si5 0.719681 0.247208 0.706359
Si Si6 0.654017 0.500000 0.571782
Si Si7 0.118427 0.751251 0.514140
O O1 0.571051 0.383883 0.972463
O O2 0.435428 0.500000 0.650108
O O3 0.796115 0.500000 0.088117
O O4 0.000000 0.500000 0.500000
O O5 0.111514 0.619082 0.449880
O O6 0.333189 0.221026 0.777569
O O7 0.787645 0.837195 0.676842
O O8 0.953375 0.845328 0.654433
O O9 0.035938 0.000000 0.898655
O O10 0.153520 0.783125 0.046876
O O11 0.500000 0.229321 0.500000
O O12 0.769993 0.379879 0.717773
O O13 0.500000 0.500000 0.500000
O O14 0.000000 0.762186 0.500000
#
# Coordination Sequence:
#
# PCOD8059260 Si02
#       7
#     2   2   2   4   4   2   4
#     4  11  19  33  58  88 133 160 200 238 306 395
#     4  10  18  36  58  92 123 169 201 242 322 389
#     4  11  20  36  61  88 124 168 203 245 306 386
#     4  11  26  44  65  91 122 171 230 263 301 368
#     4  10  23  44  68  95 126 163 205 266 325 377
#     4  10  23  35  61 103 129 154 195 251 323 399
#     4  11  23  38  61  94 128 164 206 257 319 374
#
# _framework density 21.064734000000001
#
# number of rings (size 3 to 8) (size 9 to 14) (size 15 to 20)
#    0.000    1.400    4.000    3.000    5.600    6.000 
#    0.000    0.500    0.000    0.000    0.000    0.000 
#    0.000    0.000    0.000    0.000    0.000    0.000 
#
# Total GULP energy -247933.591254 kJ/mol
# GULP energy per Si atom -12396.679563 kJ/mol
# Density = 2.101679 g / cm^3
# Si number density = 21.064734 Si / 1000 Ang^3
#
#
#
# Elastic Constant Matrix: (Units=GPa)
#
#
# Indices 1 2 3 4 5 6 
#
# 1 80.9731 16.9993 53.0977 0.0000 -5.6315 0.0000
# 2 16.9993 101.6664 60.6098 0.0000 -11.3993 0.0000
# 3 53.0977 60.6098 166.2517 0.0000 0.9553 0.0000
# 4 0.0000 0.0000 0.0000 22.7055 0.0000 -1.5140
# 5 -5.6315 -11.3993 0.9553 0.0000 44.0905 0.0000
# 6 0.0000 0.0000 0.0000 -1.5140 0.0000 18.2944
#
#
#
# Elastic Compliance Matrix: (Units=1/GPa)
#
#
# Indices 1 2 3 4 5 6 
#
# 1 0.015870 0.000818 -0.005380 0.000000 0.002355 0.000000
# 2 0.000818 0.013124 -0.005067 0.000000 0.003607 0.000000
# 3 -0.005380 -0.005067 0.009593 0.000000 -0.002205 0.000000
# 4 0.000000 0.000000 0.000000 0.044287 0.000000 0.003665
# 5 0.002355 0.003607 -0.002205 0.000000 0.023962 0.000000
# 6 0.000000 0.000000 0.000000 0.003665 0.000000 0.054965
#
#
# Mechanical properties :
#
#
# Convention : Reuss Voigt Hill
#
# Bulk Modulus (GPa) = 51.73428 67.81165 59.77297
# Shear Modulus (GPa) = 26.66641 31.56373 29.11507
#
# Velocity S-wave (km/s) = 3.56185 3.87514 3.72179
# Velocity P-wave (km/s) = 6.44427 7.23078 6.84883
#
# Compressibility (1/GPa) = 0.01932954
#
# Stress axis : x y z
#
# Youngs Moduli (GPa) = 63.01214 76.19407 104.24073
#
# Poissons Ratio (x) = -0.06233 0.56085
# Poissons Ratio (y) = -0.05155 0.52816
# Poissons Ratio (z) = 0.33903 0.38605
#
# Static dielectric constant tensor:
#      x y z
#    x 3.739830 0.000000 0.001250 
#    y 0.000000 4.427420 0.000000 
#    z 0.001250 0.000000 3.936870 
# 
# 
# High freq. dielectric constant tensor:
#      x y z
#    x 1.822900 0.000000 -0.001710 
#    y 0.000000 1.799880 0.000000 
#    z -0.001710 0.000000 1.832900 
# 
# From -- ./inp_files/51159.got.cif
#   From: 2010.06.25/outbox.cif.g09.slc.cpg/sg10_26_cif.got.tgz:51159.got - 2010.06.27 22:07:45.
