data_PCOD8059981
_publ_section_title
;
Structure prediction by ZEFSAII (Michael W. Deem and Ramdas Pophale) SiO2 
 PCOD8059981
Probable space group: P 2/M
;
_chemical_formula_sum "Si O2"
_cell_formula_units_Z 32
_cell_length_a 22.829485
_cell_length_b 9.319423
_cell_length_c 20.772634
_cell_angle_alpha 90.000000
_cell_angle_beta 155.642563
_cell_angle_gamma 90.000000
_cell_volume 1822.739651
_symmetry_space_group_name_H-M "P 2/M"
_symmetry_group_IT_number 10
_symmetry_cell_setting 'monoclinic'
loop_
_space_group_symop_operation_xyz
x,y,z
-x,y,-z
-x,-y,-z
x,-y,z
loop_
_atom_site_type_symbol
_atom_site_label
_atom_site_fract_x
_atom_site_fract_y
_atom_site_fract_z
Si Si1 0.221540 0.665972 0.763875
Si Si2 0.662112 0.331259 0.674954
Si Si3 0.556831 0.334015 0.906100
Si Si4 0.750011 0.667245 0.355347
Si Si5 0.080105 0.342384 0.147344
Si Si6 0.246185 0.165841 0.982489
Si Si7 0.979239 0.831995 0.350831
Si Si8 0.835973 0.830412 0.956152
O O1 0.177618 0.500000 0.726639
O O2 0.261414 0.706059 0.731289
O O3 0.088097 0.760169 0.653012
O O4 0.357280 0.704258 0.943212
O O5 0.500000 0.284273 0.500000
O O6 0.672876 0.500000 0.702489
O O7 0.756879 0.296669 0.705819
O O8 0.722240 0.241774 0.795035
O O9 0.570978 0.500000 0.903815
O O10 0.395518 0.288645 0.756105
O O11 0.615197 0.249769 0.902788
O O12 0.784538 0.500000 0.399378
O O13 0.867995 0.762394 0.508498
O O14 0.077910 0.500000 0.178493
O O15 0.000000 0.352258 0.000000
O O16 0.997318 0.227885 0.108517
O O17 0.112600 0.204558 0.803985
O O18 0.284076 0.000000 0.015804
O O19 0.210604 0.211934 0.019010
O O20 0.994068 0.000000 0.377955
O O21 0.838107 0.000000 0.946348
#
# Coordination Sequence:
#
# PCOD8059981 Si02
#       8
#     4   4   4   4   4   4   4   4
#     4   9  17  31  50  70  94 123 154 195 247 295
#     4   9  18  33  52  76 107 134 154 187 237 283
#     4   9  18  32  51  72  93 123 162 199 238 291
#     4  10  19  31  48  72  98 120 150 198 252 296
#     4   8  15  29  49  73  99 127 158 190 228 273
#     4   9  20  37  51  66  93 129 165 200 238 278
#     4  10  20  33  48  67  94 127 162 198 237 285
#     4  10  19  32  52  74  96 127 166 201 233 275
#
# _framework density 17.555992
#
# number of rings (size 3 to 8) (size 9 to 14) (size 15 to 20)
#    0.000    2.750    0.000    2.250    0.000    8.000 
#    0.000    1.250    0.000    9.750    0.000    0.000 
#    0.000    0.000    0.000    0.000    0.000    0.000 
#
# Total GULP energy -396773.683176 kJ/mol
# GULP energy per Si atom -12399.177599 kJ/mol
# Density = 1.751603 g / cm^3
# Si number density = 17.555992 Si / 1000 Ang^3
#
#
#
# Elastic Constant Matrix: (Units=GPa)
#
#
# Indices 1 2 3 4 5 6 
#
# 1 122.8561 63.0914 62.1441 0.0000 19.9140 0.0000
# 2 63.0914 77.4213 57.0904 0.0000 12.8253 0.0000
# 3 62.1441 57.0904 116.5554 0.0000 32.5155 0.0000
# 4 0.0000 0.0000 0.0000 6.8254 0.0000 -3.7466
# 5 19.9140 12.8253 32.5155 0.0000 24.0238 0.0000
# 6 0.0000 0.0000 0.0000 -3.7466 0.0000 25.6779
#
#
#
# Elastic Compliance Matrix: (Units=1/GPa)
#
#
# Indices 1 2 3 4 5 6 
#
# 1 0.014989 -0.010190 -0.001690 0.000000 -0.004697 0.000000
# 2 -0.010190 0.027414 -0.010071 0.000000 0.007442 0.000000
# 3 -0.001690 -0.010071 0.020119 0.000000 -0.020454 0.000000
# 4 0.000000 0.000000 0.000000 0.159268 0.000000 0.023238
# 5 -0.004697 0.007442 -0.020454 0.000000 0.069230 0.000000
# 6 0.000000 0.000000 0.000000 0.023238 0.000000 0.042335
#
#
# Mechanical properties :
#
#
# Convention : Reuss Voigt Hill
#
# Bulk Modulus (GPa) = 53.70465 75.72053 64.71259
# Shear Modulus (GPa) = 13.03908 20.27254 16.65581
#
# Velocity S-wave (km/s) = 2.72823 3.40183 3.08348
# Velocity P-wave (km/s) = 6.37034 7.65862 7.04399
#
# Compressibility (1/GPa) = 0.01862036
#
# Stress axis : x y z
#
# Youngs Moduli (GPa) = 66.71570 36.47794 49.70349
#
# Poissons Ratio (x) = 0.37173 0.08399
# Poissons Ratio (y) = 0.67986 0.50054
# Poissons Ratio (z) = 0.11274 0.36735
#
# Static dielectric constant tensor:
#      x y z
#    x 3.231850 0.000000 0.271760 
#    y 0.000000 3.250610 0.000000 
#    z 0.271760 0.000000 3.413820 
# 
# 
# High freq. dielectric constant tensor:
#      x y z
#    x 1.664560 0.000000 0.017610 
#    y 0.000000 1.677030 0.000000 
#    z 0.017610 0.000000 1.674490 
# 
# From -- ./inp_files/90631.got.cif
#   From: 2010.06.25/outbox.cif.g09.slc.cpg/sg10_46_cif.got.tgz:90631.got - 2010.06.27 22:07:45.
