data_PCOD8059629
_publ_section_title
;
Structure prediction by ZEFSAII (Michael W. Deem and Ramdas Pophale) SiO2 
 PCOD8059629
Probable space group: P 2/M
;
_chemical_formula_sum "Si O2"
_cell_formula_units_Z 32
_cell_length_a 28.241171
_cell_length_b 14.639498
_cell_length_c 10.410882
_cell_angle_alpha 90.000000
_cell_angle_beta 25.525840
_cell_angle_gamma 90.000000
_cell_volume 1854.774679
_symmetry_space_group_name_H-M "P 2/M"
_symmetry_group_IT_number 10
_symmetry_cell_setting 'monoclinic'
loop_
_space_group_symop_operation_xyz
x,y,z
-x,y,-z
-x,-y,-z
x,-y,z
loop_
_atom_site_type_symbol
_atom_site_label
_atom_site_fract_x
_atom_site_fract_y
_atom_site_fract_z
Si Si1 0.079073 0.898994 0.127468
Si Si2 0.170591 0.101089 0.170483
Si Si3 0.594318 0.605796 0.165073
Si Si4 0.123632 0.605254 0.191029
Si Si5 0.985545 0.748368 0.894249
Si Si6 0.181475 0.394886 0.758495
Si Si7 0.787005 0.279006 0.805160
Si Si8 0.415893 0.392988 0.101945
O O1 0.164098 0.876342 0.034439
O O2 0.091390 0.821258 0.990803
O O3 0.953881 0.897478 0.478287
O O4 0.106484 0.000000 0.005005
O O5 0.242360 0.176780 0.071073
O O6 0.222012 0.000000 0.068060
O O7 0.500000 0.623984 0.500000
O O8 0.635124 0.500000 0.073524
O O9 0.691953 0.677453 0.951107
O O10 0.549278 0.626642 0.131292
O O11 0.120544 0.500000 0.239947
O O12 0.200109 0.656925 0.103306
O O13 0.000000 0.646377 0.500000
O O14 0.176280 0.619951 0.923686
O O15 0.102297 0.726326 0.546765
O O16 0.919198 0.654227 0.064736
O O17 0.000000 0.789260 0.000000
O O18 0.168927 0.500000 0.751804
O O19 0.295077 0.353084 0.426799
O O20 0.411385 0.500000 0.140188
O O21 0.500000 0.348633 0.000000
#
# Coordination Sequence:
#
# PCOD8059629 Si02
#       8
#     4   4   4   4   4   4   4   4
#     4   8  15  29  46  67  97 127 159 199 240 288
#     4   8  15  28  49  72  94 125 160 198 246 295
#     4  10  22  37  52  74 102 131 170 214 256 298
#     4  10  19  30  46  72 101 132 166 198 242 298
#     4  11  21  30  44  69 100 135 166 198 244 302
#     4  10  20  32  47  69  99 130 168 206 242 295
#     4  11  20  31  51  71 102 131 161 205 252 300
#     4   9  19  36  54  69  93 133 174 211 251 294
#
# _framework density 17.252769000000001
#
# number of rings (size 3 to 8) (size 9 to 14) (size 15 to 20)
#    0.000    2.375    1.250    2.625    3.500    1.000 
#    0.000    0.000    0.000    0.375    0.000    0.000 
#    0.000    1.000    0.000    0.000    0.000    0.000 
#
# Total GULP energy -396663.178487 kJ/mol
# GULP energy per Si atom -12395.724328 kJ/mol
# Density = 1.721350 g / cm^3
# Si number density = 17.252769 Si / 1000 Ang^3
#
#
#
# Elastic Constant Matrix: (Units=GPa)
#
#
# Indices 1 2 3 4 5 6 
#
# 1 101.9230 52.8968 34.9591 0.0000 3.9877 0.0000
# 2 52.8968 83.8131 28.5464 0.0000 -3.3300 0.0000
# 3 34.9591 28.5464 76.2365 0.0000 8.2116 0.0000
# 4 0.0000 0.0000 0.0000 5.7047 0.0000 -2.8313
# 5 3.9877 -3.3300 8.2116 0.0000 24.2381 0.0000
# 6 0.0000 0.0000 0.0000 -2.8313 0.0000 18.3499
#
#
#
# Elastic Compliance Matrix: (Units=1/GPa)
#
#
# Indices 1 2 3 4 5 6 
#
# 1 0.015719 -0.008781 -0.003645 0.000000 -0.002558 0.000000
# 2 -0.008781 0.018917 -0.003625 0.000000 0.005272 0.000000
# 3 -0.003645 -0.003625 0.016746 0.000000 -0.005572 0.000000
# 4 0.000000 0.000000 0.000000 0.189831 0.000000 0.029290
# 5 -0.002558 0.005272 -0.005572 0.000000 0.044290 0.000000
# 6 0.000000 0.000000 0.000000 0.029290 0.000000 0.059015
#
#
# Mechanical properties :
#
#
# Convention : Reuss Voigt Hill
#
# Bulk Modulus (GPa) = 51.86346 54.97523 53.41934
# Shear Modulus (GPa) = 13.05330 19.36323 16.20826
#
# Velocity S-wave (km/s) = 2.75360 3.35375 3.06838
# Velocity P-wave (km/s) = 6.34318 6.85059 6.60176
#
# Compressibility (1/GPa) = 0.01928140
#
# Stress axis : x y z
#
# Youngs Moduli (GPa) = 63.61916 52.86225 59.71671
#
# Poissons Ratio (x) = 0.46417 0.21764
# Poissons Ratio (y) = 0.55862 0.21646
# Poissons Ratio (z) = 0.23186 0.19161
#
# Static dielectric constant tensor:
#      x y z
#    x 3.282570 0.000000 0.152920 
#    y 0.000000 3.405010 0.000000 
#    z 0.152920 0.000000 3.023830 
# 
# 
# High freq. dielectric constant tensor:
#      x y z
#    x 1.664730 0.000000 0.017770 
#    y 0.000000 1.652380 0.000000 
#    z 0.017770 0.000000 1.634110 
# 
# From -- ./inp_files/36334.got.cif
#   From: 2010.06.25/outbox.cif.g09.slc.cpg/sg10_19_cif.got.tgz:36334.got - 2010.06.27 22:07:45.
