data_PCOD8059766
_publ_section_title
;
Structure prediction by ZEFSAII (Michael W. Deem and Ramdas Pophale) SiO2 
 PCOD8059766
Probable space group: P 2/M
;
_chemical_formula_sum "Si O2"
_cell_formula_units_Z 32
_cell_length_a 10.562359
_cell_length_b 9.540486
_cell_length_c 14.983897
_cell_angle_alpha 90.000000
_cell_angle_beta 95.260929
_cell_angle_gamma 90.000000
_cell_volume 1503.567235
_symmetry_space_group_name_H-M "P 2/M"
_symmetry_group_IT_number 10
_symmetry_cell_setting 'monoclinic'
loop_
_space_group_symop_operation_xyz
x,y,z
-x,y,-z
-x,-y,-z
x,-y,z
loop_
_atom_site_type_symbol
_atom_site_label
_atom_site_fract_x
_atom_site_fract_y
_atom_site_fract_z
Si Si1 0.281072 0.347448 0.430208
Si Si2 0.712417 0.841860 0.725569
Si Si3 0.453785 0.841725 0.774347
Si Si4 0.995965 0.345452 0.400602
Si Si5 0.099327 0.660759 0.929703
Si Si6 0.003394 0.164401 0.762247
Si Si7 0.607971 0.161451 0.433640
Si Si8 0.615014 0.338658 0.068294
O O1 0.348375 0.500000 0.443266
O O2 0.344657 0.252633 0.357719
O O3 0.140915 0.370287 0.383575
O O4 0.279114 0.265667 0.525895
O O5 0.607601 0.827060 0.797549
O O6 0.853451 0.806265 0.768960
O O7 0.709887 0.000000 0.686766
O O8 0.421648 0.801746 0.670270
O O9 0.381171 0.740932 0.837225
O O10 0.409849 0.000000 0.792288
O O11 0.926655 0.500000 0.394101
O O12 0.941633 0.234450 0.325307
O O13 0.000000 0.280366 0.500000
O O14 0.074639 0.500000 0.898098
O O15 0.246770 0.679006 0.970343
O O16 0.078751 0.765322 0.847102
O O17 0.000000 0.703372 0.000000
O O18 0.034484 0.000000 0.760380
O O19 0.500000 0.200747 0.500000
O O20 0.648084 0.000000 0.446042
O O21 0.586670 0.500000 0.087910
O O22 0.500000 0.277941 0.000000
#
# Coordination Sequence:
#
# PCOD8059766 Si02
#       8
#     4   4   4   4   4   4   4   4
#     4  10  19  30  49  79 112 149 201 253 292 342
#     4   9  18  35  55  81 119 159 197 241 300 357
#     4  10  21  37  60  87 118 161 204 244 305 368
#     4   9  19  36  55  78 114 161 203 244 300 359
#     4  10  23  44  68  92 122 162 201 243 306 376
#     4  10  21  36  60  91 121 153 200 257 302 355
#     4  10  19  34  53  75 114 163 201 240 292 357
#     4  10  24  45  66  93 125 155 195 252 310 363
#
# _framework density 21.282720000000001
#
# number of rings (size 3 to 8) (size 9 to 14) (size 15 to 20)
#    0.000    2.250    1.250    0.750    1.750    4.500 
#    0.000    3.750    0.000    0.000    0.000    0.000 
#    0.000    0.000    0.000    0.000    0.000    0.000 
#
# Total GULP energy -396493.635748 kJ/mol
# GULP energy per Si atom -12390.426117 kJ/mol
# Density = 2.123428 g / cm^3
# Si number density = 21.282720 Si / 1000 Ang^3
#
#
#
# Elastic Constant Matrix: (Units=GPa)
#
#
# Indices 1 2 3 4 5 6 
#
# 1 69.4101 29.0836 36.0383 0.0000 2.1215 0.0000
# 2 29.0836 101.3850 62.9510 0.0000 8.5162 0.0000
# 3 36.0383 62.9510 117.6948 0.0000 0.2984 0.0000
# 4 0.0000 0.0000 0.0000 31.1739 0.0000 2.2493
# 5 2.1215 8.5162 0.2984 0.0000 28.6251 0.0000
# 6 0.0000 0.0000 0.0000 2.2493 0.0000 23.0609
#
#
#
# Elastic Compliance Matrix: (Units=1/GPa)
#
#
# Indices 1 2 3 4 5 6 
#
# 1 0.017565 -0.002480 -0.004051 0.000000 -0.000522 0.000000
# 2 -0.002480 0.015670 -0.007611 0.000000 -0.004399 0.000000
# 3 -0.004051 -0.007611 0.013802 0.000000 0.002421 0.000000
# 4 0.000000 0.000000 0.000000 0.032305 0.000000 -0.003151
# 5 -0.000522 -0.004399 0.002421 0.000000 0.036256 0.000000
# 6 0.000000 0.000000 0.000000 -0.003151 0.000000 0.043671
#
#
# Mechanical properties :
#
#
# Convention : Reuss Voigt Hill
#
# Bulk Modulus (GPa) = 53.32235 60.51509 56.91872
# Shear Modulus (GPa) = 25.79928 27.26645 26.53287
#
# Velocity S-wave (km/s) = 3.48547 3.58320 3.53467
# Velocity P-wave (km/s) = 6.42703 6.75387 6.59247
#
# Compressibility (1/GPa) = 0.01875386
#
# Stress axis : x y z
#
# Youngs Moduli (GPa) = 56.93018 63.81664 72.45546
#
# Poissons Ratio (x) = 0.15825 0.29351
# Poissons Ratio (y) = 0.14118 0.55145
# Poissons Ratio (z) = 0.23062 0.48570
#
# Static dielectric constant tensor:
#      x y z
#    x 3.964640 0.000000 0.024280 
#    y 0.000000 4.028060 0.000000 
#    z 0.024280 0.000000 3.552440 
# 
# 
# High freq. dielectric constant tensor:
#      x y z
#    x 1.831680 0.000000 0.000910 
#    y 0.000000 1.835160 0.000000 
#    z 0.000910 0.000000 1.812650 
# 
# From -- ./inp_files/63827.got.cif
#   From: 2010.06.25/outbox.cif.g09.slc.cpg/sg10_32_cif.got.tgz:63827.got - 2010.06.27 22:07:45.
