data_PCOD8059750
_publ_section_title
;
Structure prediction by ZEFSAII (Michael W. Deem and Ramdas Pophale) SiO2 
 PCOD8059750
Probable space group: P 2/M
;
_chemical_formula_sum "Si O2"
_cell_formula_units_Z 32
_cell_length_a 24.391477
_cell_length_b 8.682925
_cell_length_c 24.330575
_cell_angle_alpha 90.000000
_cell_angle_beta 18.537683
_cell_angle_gamma 90.000000
_cell_volume 1638.270836
_symmetry_space_group_name_H-M "P 2/M"
_symmetry_group_IT_number 10
_symmetry_cell_setting 'monoclinic'
loop_
_space_group_symop_operation_xyz
x,y,z
-x,y,-z
-x,-y,-z
x,-y,z
loop_
_atom_site_type_symbol
_atom_site_label
_atom_site_fract_x
_atom_site_fract_y
_atom_site_fract_z
Si Si1 0.137768 0.682102 0.118320
Si Si2 0.064992 0.816969 0.069921
Si Si3 0.720034 0.183098 0.341990
Si Si4 0.514937 0.680325 0.157946
Si Si5 0.590023 0.319054 0.967952
Si Si6 0.342504 0.816910 0.720449
Si Si7 0.865572 0.320178 0.469447
Si Si8 0.949689 0.178937 0.609308
O O1 0.138897 0.500000 0.108500
O O2 0.324567 0.747958 0.959826
O O3 0.088947 0.762635 0.108641
O O4 0.993975 0.731980 0.299329
O O5 0.883365 0.750117 0.219902
O O6 0.064070 0.000000 0.068828
O O7 0.220680 0.750368 0.884358
O O8 0.727268 0.242335 0.272169
O O9 0.540606 0.239180 0.540734
O O10 0.726241 0.000000 0.336122
O O11 0.550869 0.500000 0.118781
O O12 0.332113 0.715872 0.360980
O O13 0.510413 0.748724 0.100144
O O14 0.560188 0.500000 0.993835
O O15 0.790719 0.283064 0.778225
O O16 0.500000 0.241242 0.000000
O O17 0.336428 0.000000 0.726806
O O18 0.887911 0.500000 0.462040
O O19 0.897480 0.222671 0.494346
O O20 0.000000 0.224786 0.500000
O O21 0.902621 0.000000 0.658573
#
# Coordination Sequence:
#
# PCOD8059750 Si02
#       8
#     4   4   4   4   4   4   4   4
#     4  10  21  37  53  74 106 140 174 216 264 316
#     4  10  19  30  49  76 102 132 175 217 255 306
#     4   8  14  26  46  73 104 134 168 216 261 303
#     4   9  18  35  57  80 100 127 174 224 264 305
#     4  10  19  34  58  84 106 133 177 223 258 308
#     4   8  14  26  46  73 103 134 169 213 265 304
#     4  10  20  38  62  78  97 135 181 225 261 303
#     4  11  23  36  52  80 117 143 165 206 267 330
#
# _framework density 19.532791
#
# number of rings (size 3 to 8) (size 9 to 14) (size 15 to 20)
#    0.000    2.500    1.250    2.250    0.000    5.250 
#    0.000    1.250    0.000    1.500    0.000    1.750 
#    0.000    0.000    0.000    0.000    0.000    0.000 
#
# Total GULP energy -396683.690451 kJ/mol
# GULP energy per Si atom -12396.365327 kJ/mol
# Density = 1.948833 g / cm^3
# Si number density = 19.532791 Si / 1000 Ang^3
#
#
#
# Elastic Constant Matrix: (Units=GPa)
#
#
# Indices 1 2 3 4 5 6 
#
# 1 149.7123 16.8740 86.8221 0.0000 -4.3638 0.0000
# 2 16.8740 6.9736 12.3384 0.0000 2.4622 0.0000
# 3 86.8221 12.3384 161.4485 0.0000 -7.9833 0.0000
# 4 0.0000 0.0000 0.0000 -0.7798 0.0000 -9.0570
# 5 -4.3638 2.4622 -7.9833 0.0000 30.0636 0.0000
# 6 0.0000 0.0000 0.0000 -9.0570 0.0000 15.2911
#
#
#
# Elastic Compliance Matrix: (Units=1/GPa)
#
#
# Indices 1 2 3 4 5 6 
#
# 1 0.011814 -0.021190 -0.004624 0.000000 0.002222 0.000000
# 2 -0.021190 0.213064 -0.005981 0.000000 -0.022114 0.000000
# 3 -0.004624 -0.005981 0.009250 0.000000 0.002275 0.000000
# 4 0.000000 0.000000 0.000000 -0.162750 0.000000 -0.096398
# 5 0.002222 -0.022114 0.002275 0.000000 0.036001 0.000000
# 6 0.000000 0.000000 0.000000 -0.096398 0.000000 0.008300
#
#
# Mechanical properties :
#
#
# Convention : Reuss Voigt Hill
#
# Bulk Modulus (GPa) = 5.86382 61.13373 33.49877
# Shear Modulus (GPa) = 21.17613 22.38830 21.78221
#
# Velocity S-wave (km/s) = 3.29619 3.38922 3.34303
# Velocity P-wave (km/s) = 4.18271 6.83240 5.66466
#
# Compressibility (1/GPa) = 0.17053732
#
# Stress axis : x y z
#
# Youngs Moduli (GPa) = 84.64404 4.69343 108.10654
#
# Poissons Ratio (x) = 0.09946 0.49988
# Poissons Ratio (y) = 1.79364 0.64658
# Poissons Ratio (z) = 0.39139 0.02807
#
# Static dielectric constant tensor:
#      x y z
#    x 3.678960 0.000000 -0.077000 
#    y 0.000000 3.006330 0.000000 
#    z -0.077000 0.000000 3.872880 
# 
# 
# High freq. dielectric constant tensor:
#      x y z
#    x 1.761450 0.000000 -0.005000 
#    y 0.000000 1.705690 0.000000 
#    z -0.005000 0.000000 1.776620 
# 
# From -- ./inp_files/90584.got.cif
#   From: 2010.06.25/outbox.cif.g09.slc.cpg/sg10_46_cif.got.tgz:90584.got - 2010.06.27 22:07:45.
