data_PCOD8059608
_publ_section_title
;
Structure prediction by ZEFSAII (Michael W. Deem and Ramdas Pophale) SiO2 
 PCOD8059608
Probable space group: P 2/M
;
_chemical_formula_sum "Si O2"
_cell_formula_units_Z 24
_cell_length_a 19.556727
_cell_length_b 8.820193
_cell_length_c 19.556670
_cell_angle_alpha 90.000000
_cell_angle_beta 157.314105
_cell_angle_gamma 90.000000
_cell_volume 1301.053254
_symmetry_space_group_name_H-M "P 2/M"
_symmetry_group_IT_number 10
_symmetry_cell_setting 'monoclinic'
loop_
_space_group_symop_operation_xyz
x,y,z
-x,y,-z
-x,-y,-z
x,-y,z
loop_
_atom_site_type_symbol
_atom_site_label
_atom_site_fract_x
_atom_site_fract_y
_atom_site_fract_z
Si Si1 0.018184 0.680241 0.593542
Si Si2 0.154128 0.180172 0.231992
Si Si3 0.593539 0.319759 0.018181
Si Si4 0.337198 0.680069 0.662794
Si Si5 0.587058 0.180596 0.412935
Si Si6 0.231983 0.180174 0.154117
O O1 0.015102 0.500000 0.587191
O O2 0.000000 0.745419 0.500000
O O3 0.854347 0.738354 0.487925
O O4 0.202943 0.737989 0.797062
O O5 0.264420 0.243817 0.397753
O O6 0.238625 0.239431 0.238623
O O7 0.161589 0.000000 0.238816
O O8 0.950237 0.235833 0.049776
O O9 0.587191 0.500000 0.015102
O O10 0.487919 0.261648 0.854341
O O11 0.500000 0.254579 0.000000
O O12 0.340702 0.500000 0.659296
O O13 0.374679 0.753783 0.625312
O O14 0.397740 0.243812 0.264401
O O15 0.588848 0.000000 0.411151
O O16 0.238807 0.000000 0.161577
#
# Coordination Sequence:
#
# PCOD8059608 Si02
#       6
#     4   4   4   4   4   4
#     4   9  15  26  46  69  88 109 146 194 231 259
#     4   8  14  26  46  70  91 115 154 197 226 253
#     4   9  15  26  46  69  88 109 146 194 231 259
#     4  10  20  31  45  69  96 120 148 186 231 273
#     4  10  19  30  46  68  96 124 150 182 226 275
#     4   8  14  26  46  70  91 115 154 197 226 253
#
# _framework density 18.446593
#
# number of rings (size 3 to 8) (size 9 to 14) (size 15 to 20)
#    0.000    3.000    1.667    1.500    0.000    3.333 
#    0.000    0.000    0.000    3.000    0.000    2.333 
#    0.000    0.000    0.000    0.000    0.000    0.000 
#
# Total GULP energy -297465.490623 kJ/mol
# GULP energy per Si atom -12394.395443 kJ/mol
# Density = 1.840461 g / cm^3
# Si number density = 18.446593 Si / 1000 Ang^3
#
#
#
# Elastic Constant Matrix: (Units=GPa)
#
#
# Indices 1 2 3 4 5 6 
#
# 1 181.0351 16.2896 122.7433 0.0000 -1.1075 0.0000
# 2 16.2896 7.4807 15.1845 0.0000 -0.3205 0.0000
# 3 122.7433 15.1845 199.5831 0.0000 6.4862 0.0000
# 4 0.0000 0.0000 0.0000 7.7447 0.0000 -5.1953
# 5 -1.1075 -0.3205 6.4862 0.0000 29.3978 0.0000
# 6 0.0000 0.0000 0.0000 -5.1953 0.0000 25.7444
#
#
#
# Elastic Compliance Matrix: (Units=1/GPa)
#
#
# Indices 1 2 3 4 5 6 
#
# 1 0.010277 -0.011103 -0.005524 0.000000 0.001485 0.000000
# 2 -0.011103 0.170656 -0.006247 0.000000 0.002820 0.000000
# 3 -0.005524 -0.006247 0.008956 0.000000 -0.002252 0.000000
# 4 0.000000 0.000000 0.000000 0.149337 0.000000 0.030137
# 5 0.001485 0.002820 -0.002252 0.000000 0.034600 0.000000
# 6 0.000000 0.000000 0.000000 0.030137 0.000000 0.044925
#
#
# Mechanical properties :
#
#
# Convention : Reuss Voigt Hill
#
# Bulk Modulus (GPa) = 6.93764 77.39263 42.16514
# Shear Modulus (GPa) = 9.75522 28.16947 18.96235
#
# Velocity S-wave (km/s) = 2.30214 3.91203 3.20966
# Velocity P-wave (km/s) = 3.29174 7.90262 6.05338
#
# Compressibility (1/GPa) = 0.14414116
#
# Stress axis : x y z
#
# Youngs Moduli (GPa) = 97.30223 5.85975 111.65445
#
# Poissons Ratio (x) = 0.06506 0.61678
# Poissons Ratio (y) = 1.08033 0.69752
# Poissons Ratio (z) = 0.53750 0.03661
#
# Static dielectric constant tensor:
#      x y z
#    x 3.493170 0.000000 0.126850 
#    y 0.000000 2.641970 0.000000 
#    z 0.126850 0.000000 3.932650 
# 
# 
# High freq. dielectric constant tensor:
#      x y z
#    x 1.718230 0.000000 0.005230 
#    y 0.000000 1.636160 0.000000 
#    z 0.005230 0.000000 1.736330 
# 
# From -- ./inp_files/67254.got.cif
#   From: 2010.06.25/outbox.cif.g09.slc.cpg/sg10_34_cif.got.tgz:67254.got - 2010.06.27 22:07:45.
