data_PCOD8059258
_publ_section_title
;
Structure prediction by ZEFSAII (Michael W. Deem and Ramdas Pophale) SiO2 
 PCOD8059258
Probable space group: P 2/M
;
_chemical_formula_sum "Si O2"
_cell_formula_units_Z 24
_cell_length_a 17.915114
_cell_length_b 16.547982
_cell_length_c 12.379062
_cell_angle_alpha 90.000000
_cell_angle_beta 19.791238
_cell_angle_gamma 90.000000
_cell_volume 1242.600867
_symmetry_space_group_name_H-M "P 2/M"
_symmetry_group_IT_number 10
_symmetry_cell_setting 'monoclinic'
loop_
_space_group_symop_operation_xyz
x,y,z
-x,y,-z
-x,-y,-z
x,-y,z
loop_
_atom_site_type_symbol
_atom_site_label
_atom_site_fract_x
_atom_site_fract_y
_atom_site_fract_z
Si Si1 0.500243 0.705981 0.192373
Si Si2 0.820518 0.590645 0.651669
Si Si3 0.442658 0.913320 0.454504
Si Si4 0.070223 0.274808 0.661208
Si Si5 0.313171 0.257296 0.663175
Si Si6 0.836874 0.164807 0.809399
O O1 0.314866 0.747204 0.369081
O O2 0.394928 0.685660 0.453639
O O3 0.589316 0.625516 0.012596
O O4 0.708487 0.764619 0.920660
O O5 0.774380 0.500000 0.673269
O O6 0.920312 0.642021 0.417418
O O7 0.000000 0.591058 0.500000
O O8 0.500000 0.921490 0.500000
O O9 0.287385 0.834570 0.649217
O O10 0.337255 0.000000 0.559812
O O11 0.670286 0.902304 0.078856
O O12 0.973574 0.201219 0.723632
O O13 0.915716 0.288774 0.976946
O O14 0.500000 0.256147 0.500000
O O15 0.000000 0.124480 0.500000
#
# Coordination Sequence:
#
# PCOD8059258 Si02
#       6
#     4   4   4   4   4   4
#     4  11  21  34  57  83 110 145 189 230 274 332
#     4  11  22  39  60  83 116 150 182 229 283 329
#     4   9  17  32  57  83 110 149 188 231 281 333
#     4  12  20  35  57  83 112 145 188 233 273 329
#     4  10  18  36  58  81 112 144 186 236 272 332
#     4  11  20  35  54  82 113 148 188 233 276 328
#
# _framework density 19.314328
#
# number of rings (size 3 to 8) (size 9 to 14) (size 15 to 20)
#    0.000    1.333    8.333    1.000    0.000    1.667 
#    0.000    0.833    0.000   17.000    0.000    5.833 
#    0.000    0.000    0.000    0.000    0.000    0.000 
#
# Total GULP energy -297466.971694 kJ/mol
# GULP energy per Si atom -12394.457154 kJ/mol
# Density = 1.927037 g / cm^3
# Si number density = 19.314328 Si / 1000 Ang^3
#
#
#
# Elastic Constant Matrix: (Units=GPa)
#
#
# Indices 1 2 3 4 5 6 
#
# 1 50.9367 18.0675 26.6925 0.0000 -1.9730 0.0000
# 2 18.0675 88.6995 40.9411 0.0000 20.5686 0.0000
# 3 26.6925 40.9411 129.0349 0.0000 31.2297 0.0000
# 4 0.0000 0.0000 0.0000 25.6664 0.0000 7.6906
# 5 -1.9730 20.5686 31.2297 0.0000 50.6295 0.0000
# 6 0.0000 0.0000 0.0000 7.6906 0.0000 12.7802
#
#
#
# Elastic Compliance Matrix: (Units=1/GPa)
#
#
# Indices 1 2 3 4 5 6 
#
# 1 0.023869 -0.003817 -0.005086 0.000000 0.005618 0.000000
# 2 -0.003817 0.014296 -0.002709 0.000000 -0.004285 0.000000
# 3 -0.005086 -0.002709 0.011100 0.000000 -0.005945 0.000000
# 4 0.000000 0.000000 0.000000 0.047532 0.000000 -0.028603
# 5 0.005618 -0.004285 -0.005945 0.000000 0.025378 0.000000
# 6 0.000000 0.000000 0.000000 -0.028603 0.000000 0.095458
#
#
# Mechanical properties :
#
#
# Convention : Reuss Voigt Hill
#
# Bulk Modulus (GPa) = 38.40201 48.89703 43.64952
# Shear Modulus (GPa) = 20.03697 30.01320 25.02508
#
# Velocity S-wave (km/s) = 3.22439 3.94627 3.60345
# Velocity P-wave (km/s) = 5.81275 6.79231 6.32153
#
# Compressibility (1/GPa) = 0.02604030
#
# Stress axis : x y z
#
# Youngs Moduli (GPa) = 41.89499 69.95104 90.08769
#
# Poissons Ratio (x) = 0.26701 0.45821
# Poissons Ratio (y) = 0.15992 0.24405
# Poissons Ratio (z) = 0.21309 0.18950
#
# Static dielectric constant tensor:
#      x y z
#    x 3.596790 0.000000 0.173560 
#    y 0.000000 3.663890 0.000000 
#    z 0.173560 0.000000 3.817600 
# 
# 
# High freq. dielectric constant tensor:
#      x y z
#    x 1.751130 0.000000 0.013870 
#    y 0.000000 1.714360 0.000000 
#    z 0.013870 0.000000 1.764800 
# 
# From -- ./inp_files/54173.got.cif
#   From: 2010.06.25/outbox.cif.g09.slc.cpg/sg10_28_cif.got.tgz:54173.got - 2010.06.27 22:07:45.
