data_PCOD8059829
_publ_section_title
;
Structure prediction by ZEFSAII (Michael W. Deem and Ramdas Pophale) SiO2 
 PCOD8059829
Probable space group: P 2/M
;
_chemical_formula_sum "Si O2"
_cell_formula_units_Z 32
_cell_length_a 22.463235
_cell_length_b 13.667483
_cell_length_c 22.193616
_cell_angle_alpha 90.000000
_cell_angle_beta 161.551024
_cell_angle_gamma 90.000000
_cell_volume 2156.292899
_symmetry_space_group_name_H-M "P 2/M"
_symmetry_group_IT_number 10
_symmetry_cell_setting 'monoclinic'
loop_
_space_group_symop_operation_xyz
x,y,z
-x,y,-z
-x,-y,-z
x,-y,z
loop_
_atom_site_type_symbol
_atom_site_label
_atom_site_fract_x
_atom_site_fract_y
_atom_site_fract_z
Si Si1 0.218597 0.606602 0.222850
Si Si2 0.315956 0.274511 0.203070
Si Si3 0.855345 0.616186 0.191427
Si Si4 0.730720 0.615849 0.394213
Si Si5 0.525935 0.616701 0.958113
Si Si6 0.565982 0.110884 0.495538
Si Si7 0.921653 0.216924 0.857643
Si Si8 0.600704 0.615015 0.838052
O O1 0.303641 0.500000 0.322980
O O2 0.330007 0.648266 0.271851
O O3 0.222087 0.688405 0.279006
O O4 0.000000 0.592574 0.000000
O O5 0.449072 0.181139 0.339717
O O6 0.382264 0.327890 0.207259
O O7 0.101007 0.236713 0.987617
O O8 0.864512 0.500000 0.202315
O O9 0.062896 0.662670 0.398044
O O10 0.724031 0.653099 0.120359
O O11 0.767890 0.647962 0.043461
O O12 0.745701 0.500000 0.404832
O O13 0.642750 0.654604 0.246890
O O14 0.598141 0.644322 0.322932
O O15 0.523108 0.500000 0.957706
O O16 0.500000 0.661319 0.000000
O O17 0.500000 0.129563 0.500000
O O18 0.791794 0.129677 0.708092
O O19 0.527640 0.000000 0.438205
O O20 0.000000 0.193483 0.000000
O O21 0.611797 0.500000 0.835402
#
# Coordination Sequence:
#
# PCOD8059829 Si02
#       8
#     4   4   4   4   4   4   4   4
#     4   8  14  26  42  59  82 106 124 151 193 238
#     4  10  19  31  46  64  82 103 133 165 202 250
#     4   8  14  24  36  50  73 107 141 174 210 240
#     4   8  14  24  36  52  76 107 142 174 205 240
#     4   8  13  20  31  50  74 101 139 184 219 241
#     4  11  21  34  50  65  81 100 126 164 209 255
#     4   9  18  32  45  65  83 101 128 157 195 250
#     4   9  17  28  42  59  81 108 139 173 204 242
#
# _framework density 14.840284
#
# number of rings (size 3 to 8) (size 9 to 14) (size 15 to 20)
#    0.000    3.375    2.500    1.875    0.000    2.750 
#    0.000    4.375    0.000    0.000    0.000    0.000 
#    0.000    0.000    0.000    0.000    0.000   10.000 
#
# Total GULP energy -396470.930262 kJ/mol
# GULP energy per Si atom -12389.716571 kJ/mol
# Density = 1.480651 g / cm^3
# Si number density = 14.840284 Si / 1000 Ang^3
#
#
#
# Elastic Constant Matrix: (Units=GPa)
#
#
# Indices 1 2 3 4 5 6 
#
# 1 94.1193 33.7351 45.8622 0.0000 1.3194 0.0000
# 2 33.7351 53.3848 31.9539 0.0000 -2.4456 0.0000
# 3 45.8622 31.9539 100.8117 0.0000 13.0509 0.0000
# 4 0.0000 0.0000 0.0000 4.3767 0.0000 -3.2949
# 5 1.3194 -2.4456 13.0509 0.0000 14.1806 0.0000
# 6 0.0000 0.0000 0.0000 -3.2949 0.0000 3.4125
#
#
#
# Elastic Compliance Matrix: (Units=1/GPa)
#
#
# Indices 1 2 3 4 5 6 
#
# 1 0.015508 -0.006534 -0.005280 0.000000 0.002290 0.000000
# 2 -0.006534 0.027886 -0.007456 0.000000 0.012279 0.000000
# 3 -0.005280 -0.007456 0.016788 0.000000 -0.016245 0.000000
# 4 0.000000 0.000000 0.000000 0.836552 0.000000 0.807723
# 5 0.002290 0.012279 -0.016245 0.000000 0.087374 0.000000
# 6 0.000000 0.000000 0.000000 0.807723 0.000000 1.072926
#
#
# Mechanical properties :
#
#
# Convention : Reuss Voigt Hill
#
# Bulk Modulus (GPa) = 46.20846 52.37980 49.29413
# Shear Modulus (GPa) = 2.37779 13.51162 7.94471
#
# Velocity S-wave (km/s) = 1.26718 3.02067 2.31627
# Velocity P-wave (km/s) = 5.77458 6.89480 6.35940
#
# Compressibility (1/GPa) = 0.02164106
#
# Stress axis : x y z
#
# Youngs Moduli (GPa) = 64.48408 35.85969 59.56650
#
# Poissons Ratio (x) = 0.23432 0.31452
# Poissons Ratio (y) = 0.42136 0.44413
# Poissons Ratio (z) = 0.34049 0.26737
#
# Static dielectric constant tensor:
#      x y z
#    x 2.777870 0.000000 0.167040 
#    y 0.000000 2.727950 0.000000 
#    z 0.167040 0.000000 3.204940 
# 
# 
# High freq. dielectric constant tensor:
#      x y z
#    x 1.546440 0.000000 0.015480 
#    y 0.000000 1.511380 0.000000 
#    z 0.015480 0.000000 1.578830 
# 
# From -- ./inp_files/86357.got.cif
#   From: 2010.06.25/outbox.cif.g09.slc.cpg/sg10_44_cif.got.tgz:86357.got - 2010.06.27 22:07:45.
