data_PCOD8059946
_publ_section_title
;
Structure prediction by ZEFSAII (Michael W. Deem and Ramdas Pophale) SiO2 
 PCOD8059946
Probable space group: P 2/M
;
_chemical_formula_sum "Si O2"
_cell_formula_units_Z 32
_cell_length_a 28.595164
_cell_length_b 9.358589
_cell_length_c 14.594318
_cell_angle_alpha 90.000000
_cell_angle_beta 151.903923
_cell_angle_gamma 90.000000
_cell_volume 1839.343911
_symmetry_space_group_name_H-M "P 2/M"
_symmetry_group_IT_number 10
_symmetry_cell_setting 'monoclinic'
loop_
_space_group_symop_operation_xyz
x,y,z
-x,y,-z
-x,-y,-z
x,-y,z
loop_
_atom_site_type_symbol
_atom_site_label
_atom_site_fract_x
_atom_site_fract_y
_atom_site_fract_z
Si Si1 0.407282 0.668730 0.727022
Si Si2 0.823059 0.336550 0.007227
Si Si3 0.996347 0.169478 0.600680
Si Si4 0.500529 0.840772 0.392694
Si Si5 0.807027 0.663094 0.319232
Si Si6 0.672173 0.334260 0.600193
Si Si7 0.315993 0.341510 0.069124
Si Si8 0.372584 0.669910 0.867987
O O1 0.412550 0.500000 0.744865
O O2 0.335317 0.715828 0.519114
O O3 0.362710 0.726277 0.746031
O O4 0.520849 0.724251 0.907862
O O5 0.861225 0.500000 0.085118
O O6 0.908216 0.225785 0.179742
O O7 0.782636 0.309706 0.833358
O O8 0.728248 0.307311 0.907892
O O9 0.000000 0.215296 0.500000
O O10 0.903271 0.237611 0.492778
O O11 0.991565 0.000000 0.601952
O O12 0.500000 0.842250 0.500000
O O13 0.595400 0.755225 0.525473
O O14 0.400034 0.768176 0.183413
O O15 0.504514 0.000000 0.358800
O O16 0.833790 0.500000 0.393884
O O17 0.720048 0.728948 0.233352
O O18 0.774013 0.668801 0.157163
O O19 0.642438 0.500000 0.557198
O O20 0.363374 0.500000 0.149485
O O21 0.368948 0.500000 0.868213
#
# Coordination Sequence:
#
# PCOD8059946 Si02
#       8
#     4   4   4   4   4   4   4   4
#     4   8  14  27  49  77 107 130 158 199 244 293
#     4  10  20  33  50  71  95 127 166 206 246 291
#     4  11  23  36  51  71  98 132 168 207 253 300
#     4  11  22  31  42  65 100 137 167 198 236 286
#     4  10  19  32  53  76  99 127 164 207 251 296
#     4  10  19  32  51  72  97 132 169 204 244 293
#     4  10  19  31  48  70  96 128 164 201 242 291
#     4   8  14  26  48  79 106 129 157 199 249 291
#
# _framework density 17.397507999999998
#
# number of rings (size 3 to 8) (size 9 to 14) (size 15 to 20)
#    0.000    2.250    2.500    2.250    0.000    4.500 
#    0.000    0.000    0.000    1.500    0.000    7.875 
#    0.000    0.000    0.000    0.000    0.000    0.000 
#
# Total GULP energy -396642.546690 kJ/mol
# GULP energy per Si atom -12395.079584 kJ/mol
# Density = 1.735791 g / cm^3
# Si number density = 17.397508 Si / 1000 Ang^3
#
#
#
# Elastic Constant Matrix: (Units=GPa)
#
#
# Indices 1 2 3 4 5 6 
#
# 1 81.4669 24.9181 46.3550 0.0000 -6.4941 0.0000
# 2 24.9181 60.1922 45.5626 0.0000 3.7891 0.0000
# 3 46.3550 45.5626 107.2485 0.0000 -6.7971 0.0000
# 4 0.0000 0.0000 0.0000 2.9484 0.0000 -6.9609
# 5 -6.4941 3.7891 -6.7971 0.0000 27.2480 0.0000
# 6 0.0000 0.0000 0.0000 -6.9609 0.0000 2.1037
#
#
#
# Elastic Compliance Matrix: (Units=1/GPa)
#
#
# Indices 1 2 3 4 5 6 
#
# 1 0.016665 -0.002599 -0.005917 0.000000 0.002857 0.000000
# 2 -0.002599 0.025933 -0.010325 0.000000 -0.006801 0.000000
# 3 -0.005917 -0.010325 0.016531 0.000000 0.004149 0.000000
# 4 0.000000 0.000000 0.000000 -0.049790 0.000000 -0.164750
# 5 0.002857 -0.006801 0.004149 0.000000 0.039362 0.000000
# 6 0.000000 0.000000 0.000000 -0.164750 0.000000 -0.069783
#
#
# Mechanical properties :
#
#
# Convention : Reuss Voigt Hill
#
# Bulk Modulus (GPa) = 46.62958 53.61990 50.12474
# Shear Modulus (GPa) = 210.53462 15.26481 112.89972
#
# Velocity S-wave (km/s) = 11.01258 2.96533 8.06443
# Velocity P-wave (km/s) = 13.73183 6.52776 10.75116
#
# Compressibility (1/GPa) = 0.02144561
#
# Stress axis : x y z
#
# Youngs Moduli (GPa) = 60.00662 38.56094 60.49241
#
# Poissons Ratio (x) = 0.10024 0.35796
# Poissons Ratio (y) = 0.15598 0.62456
# Poissons Ratio (z) = 0.35509 0.39813
#
# Static dielectric constant tensor:
#      x y z
#    x 3.363110 0.000000 -0.175040 
#    y 0.000000 3.061140 0.000000 
#    z -0.175040 0.000000 3.236790 
# 
# 
# High freq. dielectric constant tensor:
#      x y z
#    x 1.656080 0.000000 -0.009330 
#    y 0.000000 1.643670 0.000000 
#    z -0.009330 0.000000 1.667220 
# 
# From -- ./inp_files/72209.got.cif
#   From: 2010.06.25/outbox.cif.g09.slc.cpg/sg10_37_cif.got.tgz:72209.got - 2010.06.27 22:07:45.
