data_PCOD8059707
_publ_section_title
;
Structure prediction by ZEFSAII (Michael W. Deem and Ramdas Pophale) SiO2 
 PCOD8059707
Probable space group: P 2/M
;
_chemical_formula_sum "Si O2"
_cell_formula_units_Z 32
_cell_length_a 25.423242
_cell_length_b 9.454889
_cell_length_c 16.907952
_cell_angle_alpha 90.000000
_cell_angle_beta 154.056367
_cell_angle_gamma 90.000000
_cell_volume 1778.047002
_symmetry_space_group_name_H-M "P 2/M"
_symmetry_group_IT_number 10
_symmetry_cell_setting 'monoclinic'
loop_
_space_group_symop_operation_xyz
x,y,z
-x,y,-z
-x,-y,-z
x,-y,z
loop_
_atom_site_type_symbol
_atom_site_label
_atom_site_fract_x
_atom_site_fract_y
_atom_site_fract_z
Si Si1 0.450923 0.337797 0.021010
Si Si2 0.447731 0.837088 0.552714
Si Si3 0.991590 0.842377 0.400724
Si Si4 0.174732 0.662034 0.450480
Si Si5 0.741953 0.843576 0.299084
Si Si6 0.630821 0.338445 0.403766
Si Si7 0.912138 0.666757 0.150636
Si Si8 0.312668 0.164130 0.208722
O O1 0.411718 0.500000 0.977514
O O2 0.334386 0.237540 0.871585
O O3 0.500000 0.306583 0.000000
O O4 0.544629 0.293945 0.215069
O O5 0.396773 0.752215 0.557229
O O6 0.584995 0.794713 0.717037
O O7 0.363012 0.806813 0.363769
O O8 0.443322 0.000000 0.570227
O O9 0.917028 0.736012 0.244401
O O10 0.000000 0.778255 0.500000
O O11 0.124274 0.856881 0.549135
O O12 0.931395 0.000000 0.319846
O O13 0.194726 0.500000 0.504694
O O14 0.257268 0.756105 0.618779
O O15 0.230260 0.684159 0.437507
O O16 0.033233 0.700016 0.263757
O O17 0.687914 0.000000 0.241223
O O18 0.608989 0.500000 0.398263
O O19 0.891122 0.500000 0.131582
O O20 0.802126 0.735933 0.955483
O O21 0.275709 0.000000 0.148860
#
# Coordination Sequence:
#
# PCOD8059707 Si02
#       8
#     4   4   4   4   4   4   4   4
#     4  10  19  33  50  68  99 143 177 204 254 316
#     4   9  20  38  59  81 104 137 173 214 267 319
#     4   9  19  35  51  70 103 143 176 211 262 313
#     4   9  18  35  52  71 106 145 173 205 259 318
#     4  10  19  30  48  73  98 131 178 223 255 293
#     4  10  20  34  54  78 106 141 178 217 264 314
#     4  10  20  33  56  83 104 135 180 222 258 306
#     4   9  19  39  61  78 105 140 173 210 267 329
#
# _framework density 17.997274999999998
#
# number of rings (size 3 to 8) (size 9 to 14) (size 15 to 20)
#    0.000    2.500    1.250    1.500    0.000    4.500 
#    0.000    5.625    0.000    3.750    0.000    0.000 
#    0.000    0.000    0.000    0.000    0.000    0.000 
#
# Total GULP energy -396667.400313 kJ/mol
# GULP energy per Si atom -12395.856260 kJ/mol
# Density = 1.795631 g / cm^3
# Si number density = 17.997275 Si / 1000 Ang^3
#
#
#
# Elastic Constant Matrix: (Units=GPa)
#
#
# Indices 1 2 3 4 5 6 
#
# 1 106.4849 52.0419 44.1237 0.0000 -12.0186 0.0000
# 2 52.0419 95.8251 61.8395 0.0000 -0.2647 0.0000
# 3 44.1237 61.8395 97.3731 0.0000 4.7889 0.0000
# 4 0.0000 0.0000 0.0000 36.7140 0.0000 -1.7508
# 5 -12.0186 -0.2647 4.7889 0.0000 17.7847 0.0000
# 6 0.0000 0.0000 0.0000 -1.7508 0.0000 30.4675
#
#
#
# Elastic Compliance Matrix: (Units=1/GPa)
#
#
# Indices 1 2 3 4 5 6 
#
# 1 0.014954 -0.005708 -0.003693 0.000000 0.011015 0.000000
# 2 -0.005708 0.020058 -0.010111 0.000000 -0.000836 0.000000
# 3 -0.003693 -0.010111 0.018743 0.000000 -0.007693 0.000000
# 4 0.000000 0.000000 0.000000 0.027312 0.000000 0.001569
# 5 0.011015 -0.000836 -0.007693 0.000000 0.065731 0.000000
# 6 0.000000 0.000000 0.000000 0.001569 0.000000 0.032912
#
#
# Mechanical properties :
#
#
# Convention : Reuss Voigt Hill
#
# Bulk Modulus (GPa) = 67.88210 68.41037 68.14623
# Shear Modulus (GPa) = 22.35681 26.43842 24.39761
#
# Velocity S-wave (km/s) = 3.52836 3.83694 3.68588
# Velocity P-wave (km/s) = 7.37556 7.59760 7.48740
#
# Compressibility (1/GPa) = 0.01473142
#
# Stress axis : x y z
#
# Youngs Moduli (GPa) = 66.87128 49.85490 53.35319
#
# Poissons Ratio (x) = 0.28455 0.19705
# Poissons Ratio (y) = 0.38168 0.53946
# Poissons Ratio (z) = 0.24697 0.50409
#
# Static dielectric constant tensor:
#      x y z
#    x 3.367260 0.000000 0.088300 
#    y 0.000000 3.529780 0.000000 
#    z 0.088300 0.000000 3.279450 
# 
# 
# High freq. dielectric constant tensor:
#      x y z
#    x 1.688260 0.000000 0.009510 
#    y 0.000000 1.700250 0.000000 
#    z 0.009510 0.000000 1.687630 
# 
# From -- ./inp_files/71659.got.cif
#   From: 2010.06.25/outbox.cif.g09.slc.cpg/sg10_36_cif.got.tgz:71659.got - 2010.06.27 22:07:45.
