data_PCOD8059365
_publ_section_title
;
Structure prediction by ZEFSAII (Michael W. Deem and Ramdas Pophale) SiO2 
 PCOD8059365
Probable space group: P 2/M
;
_chemical_formula_sum "Si O2"
_cell_formula_units_Z 32
_cell_length_a 15.910549
_cell_length_b 8.765415
_cell_length_c 30.429071
_cell_angle_alpha 90.000000
_cell_angle_beta 29.505442
_cell_angle_gamma 90.000000
_cell_volume 2090.056689
_symmetry_space_group_name_H-M "P 2/M"
_symmetry_group_IT_number 10
_symmetry_cell_setting 'monoclinic'
loop_
_space_group_symop_operation_xyz
x,y,z
-x,y,-z
-x,-y,-z
x,-y,z
loop_
_atom_site_type_symbol
_atom_site_label
_atom_site_fract_x
_atom_site_fract_y
_atom_site_fract_z
Si Si1 0.191739 0.320520 0.318627
Si Si2 0.091985 0.320117 0.019982
Si Si3 0.230430 0.177811 0.871681
Si Si4 0.665604 0.821592 0.832876
Si Si5 0.876490 0.332066 0.514884
Si Si6 0.619237 0.824450 0.687478
Si Si7 0.702167 0.671311 0.904635
Si Si8 0.272271 0.178522 0.018230
O O1 0.211527 0.500000 0.301131
O O2 0.235795 0.227787 0.255311
O O3 0.320180 0.276495 0.299228
O O4 0.995370 0.277163 0.420252
O O5 0.108333 0.500000 0.006023
O O6 0.150698 0.273011 0.041541
O O7 0.895881 0.269954 0.102738
O O8 0.211746 0.235882 0.930093
O O9 0.421423 0.208201 0.768254
O O10 0.183334 0.000000 0.891589
O O11 0.755452 0.740313 0.833425
O O12 0.683770 0.000000 0.832097
O O13 0.467239 0.775675 0.918890
O O14 0.800101 0.500000 0.539928
O O15 0.721303 0.217582 0.596232
O O16 0.000000 0.341672 0.500000
O O17 0.652288 0.000000 0.684392
O O18 0.774332 0.500000 0.875683
O O19 0.778285 0.773766 0.909253
O O20 0.500000 0.673641 0.000000
O O21 0.239970 0.000000 0.026546
#
# Coordination Sequence:
#
# PCOD8059365 Si02
#       8
#     4   4   4   4   4   4   4   4
#     4  10  19  29  42  61  86 115 144 175 211 250
#     4  11  21  31  45  64  83 109 146 181 213 249
#     4  10  20  33  45  60  85 113 141 177 219 254
#     4  10  19  29  43  63  86 114 145 175 210 251
#     4   8  16  29  42  58  82 111 140 172 211 250
#     4  10  19  29  44  63  82 110 145 177 212 254
#     4   9  17  29  44  62  84 110 141 176 210 247
#     4  10  19  31  45  61  85 115 144 175 213 253
#
# _framework density 15.310589999999999
#
# number of rings (size 3 to 8) (size 9 to 14) (size 15 to 20)
#    0.000    2.250    0.000    5.625    0.000   10.750 
#    0.000    0.000    0.000    0.000    0.000    0.000 
#    0.000    1.000    0.000   10.500    0.000    5.750 
#
# Total GULP energy -396776.630494 kJ/mol
# GULP energy per Si atom -12399.269703 kJ/mol
# Density = 1.527574 g / cm^3
# Si number density = 15.310590 Si / 1000 Ang^3
#
#
#
# Elastic Constant Matrix: (Units=GPa)
#
#
# Indices 1 2 3 4 5 6 
#
# 1 71.5260 19.7698 28.4351 0.0000 7.4573 0.0000
# 2 19.7698 59.4880 23.6358 0.0000 -3.4183 0.0000
# 3 28.4351 23.6358 79.4093 0.0000 3.2015 0.0000
# 4 0.0000 0.0000 0.0000 24.1005 0.0000 4.1457
# 5 7.4573 -3.4183 3.2015 0.0000 18.1882 0.0000
# 6 0.0000 0.0000 0.0000 4.1457 0.0000 25.7988
#
#
#
# Elastic Compliance Matrix: (Units=1/GPa)
#
#
# Indices 1 2 3 4 5 6 
#
# 1 0.017878 -0.004464 -0.004778 0.000000 -0.007328 0.000000
# 2 -0.004464 0.020572 -0.004788 0.000000 0.006540 0.000000
# 3 -0.004778 -0.004788 0.015798 0.000000 -0.001722 0.000000
# 4 0.000000 0.000000 0.000000 0.042672 0.000000 -0.006857
# 5 -0.007328 0.006540 -0.001722 0.000000 0.059518 0.000000
# 6 0.000000 0.000000 0.000000 -0.006857 0.000000 0.039863
#
#
# Mechanical properties :
#
#
# Convention : Reuss Voigt Hill
#
# Bulk Modulus (GPa) = 38.18511 39.34496 38.76504
# Shear Modulus (GPa) = 21.45076 22.85634 22.15355
#
# Velocity S-wave (km/s) = 3.74711 3.86793 3.80800
# Velocity P-wave (km/s) = 6.61177 6.76029 6.68644
#
# Compressibility (1/GPa) = 0.02618822
#
# Stress axis : x y z
#
# Youngs Moduli (GPa) = 55.93380 48.60974 63.29765
#
# Poissons Ratio (x) = 0.21701 0.30241
# Poissons Ratio (y) = 0.24971 0.30308
# Poissons Ratio (z) = 0.26723 0.23275
#
# Static dielectric constant tensor:
#      x y z
#    x 2.781580 0.000000 0.145720 
#    y 0.000000 3.075990 0.000000 
#    z 0.145720 0.000000 2.997860 
# 
# 
# High freq. dielectric constant tensor:
#      x y z
#    x 1.558980 0.000000 0.013370 
#    y 0.000000 1.605610 0.000000 
#    z 0.013370 0.000000 1.566330 
# 
# From -- ./inp_files/95257.got.cif
#   From: 2010.06.25/outbox.cif.g09.slc.cpg/sg10_48_cif.got.tgz:95257.got - 2010.06.27 22:07:45.
