data_PCOD8059808
_publ_section_title
;
Structure prediction by ZEFSAII (Michael W. Deem and Ramdas Pophale) SiO2 
 PCOD8059808
Probable space group: P 2/M
;
_chemical_formula_sum "Si O2"
_cell_formula_units_Z 32
_cell_length_a 28.944369
_cell_length_b 8.936400
_cell_length_c 19.502241
_cell_angle_alpha 90.000000
_cell_angle_beta 156.403368
_cell_angle_gamma 90.000000
_cell_volume 2019.256782
_symmetry_space_group_name_H-M "P 2/M"
_symmetry_group_IT_number 10
_symmetry_cell_setting 'monoclinic'
loop_
_space_group_symop_operation_xyz
x,y,z
-x,y,-z
-x,-y,-z
x,-y,z
loop_
_atom_site_type_symbol
_atom_site_label
_atom_site_fract_x
_atom_site_fract_y
_atom_site_fract_z
Si Si1 0.842347 0.326303 0.406133
Si Si2 0.563831 0.330637 0.877005
Si Si3 0.061966 0.175160 0.746069
Si Si4 0.836935 0.666611 0.242419
Si Si5 0.416596 0.678477 0.945507
Si Si6 0.390115 0.334798 0.399290
Si Si7 0.474049 0.175305 0.308512
Si Si8 0.738907 0.677262 0.905416
O O1 0.848451 0.500000 0.434628
O O2 0.880060 0.302846 0.378217
O O3 0.930702 0.233890 0.573627
O O4 0.713530 0.261945 0.243596
O O5 0.518940 0.500000 0.805601
O O6 0.534289 0.270910 0.913433
O O7 0.502305 0.224625 0.737618
O O8 0.700215 0.323839 0.053702
O O9 0.110967 0.211005 0.737390
O O10 0.065775 0.000000 0.764479
O O11 0.137415 0.255913 0.907052
O O12 0.876618 0.500000 0.272869
O O13 0.411755 0.500000 0.938289
O O14 0.500000 0.743173 0.000000
O O15 0.500000 0.342424 0.500000
O O16 0.365871 0.500000 0.397061
O O17 0.413905 0.220703 0.493804
O O18 0.284594 0.282283 0.206724
O O19 0.358958 0.255619 0.178433
O O20 0.455132 0.000000 0.287491
O O21 0.737402 0.500000 0.915020
#
# Coordination Sequence:
#
# PCOD8059808 Si02
#       8
#     4   4   4   4   4   4   4   4
#     4   9  18  31  46  63  83 113 146 179 220 263
#     4   9  16  27  45  65  87 117 147 181 221 261
#     4  12  22  28  39  61  88 117 148 185 217 250
#     4   9  17  29  43  57  80 117 152 178 211 256
#     4   8  15  30  52  73  87 106 145 190 225 258
#     4   8  16  29  43  57  77 112 151 183 216 255
#     4  11  19  26  40  63  89 115 146 184 217 254
#     4  10  19  31  44  57  80 117 155 185 217 257
#
# _framework density 15.847414000000001
#
# number of rings (size 3 to 8) (size 9 to 14) (size 15 to 20)
#    0.000    2.500    1.250    5.250    0.000    4.750 
#    0.000    1.875    0.000    1.500    0.000    0.000 
#    0.000    1.000    0.000   11.500    0.000    3.250 
#
# Total GULP energy -396671.615465 kJ/mol
# GULP energy per Si atom -12395.987983 kJ/mol
# Density = 1.581134 g / cm^3
# Si number density = 15.847414 Si / 1000 Ang^3
#
#
#
# Elastic Constant Matrix: (Units=GPa)
#
#
# Indices 1 2 3 4 5 6 
#
# 1 71.0826 33.9048 46.6776 0.0000 -15.0092 0.0000
# 2 33.9048 86.9423 44.2294 0.0000 -16.4939 0.0000
# 3 46.6776 44.2294 94.8923 0.0000 -28.0440 0.0000
# 4 0.0000 0.0000 0.0000 13.5009 0.0000 -3.2119
# 5 -15.0092 -16.4939 -28.0440 0.0000 24.4837 0.0000
# 6 0.0000 0.0000 0.0000 -3.2119 0.0000 4.3569
#
#
#
# Elastic Compliance Matrix: (Units=1/GPa)
#
#
# Indices 1 2 3 4 5 6 
#
# 1 0.021798 -0.003951 -0.008645 0.000000 0.000799 0.000000
# 2 -0.003951 0.015959 -0.004586 0.000000 0.003076 0.000000
# 3 -0.008645 -0.004586 0.021843 0.000000 0.016630 0.000000
# 4 0.000000 0.000000 0.000000 0.089823 0.000000 0.066218
# 5 0.000799 0.003076 0.016630 0.000000 0.062455 0.000000
# 6 0.000000 0.000000 0.000000 0.066218 0.000000 0.278339
#
#
# Mechanical properties :
#
#
# Convention : Reuss Voigt Hill
#
# Bulk Modulus (GPa) = 39.62443 55.83790 47.73116
# Shear Modulus (GPa) = 9.38099 17.00865 13.19482
#
# Velocity S-wave (km/s) = 2.43566 3.27964 2.88864
# Velocity P-wave (km/s) = 5.74177 7.04646 6.42731
#
# Compressibility (1/GPa) = 0.02523696
#
# Stress axis : x y z
#
# Youngs Moduli (GPa) = 45.87529 62.65941 45.78153
#
# Poissons Ratio (x) = 0.24758 0.39576
# Poissons Ratio (y) = 0.18127 0.20995
# Poissons Ratio (z) = 0.39657 0.28735
#
# Static dielectric constant tensor:
#      x y z
#    x 2.977080 0.000000 -0.351230 
#    y 0.000000 2.845350 0.000000 
#    z -0.351230 0.000000 3.200030 
# 
# 
# High freq. dielectric constant tensor:
#      x y z
#    x 1.565640 0.000000 -0.033840 
#    y 0.000000 1.595530 0.000000 
#    z -0.033840 0.000000 1.600880 
# 
# From -- ./inp_files/87202.got.cif
#   From: 2010.06.25/outbox.cif.g09.slc.cpg/sg10_44_cif.got.tgz:87202.got - 2010.06.27 22:07:45.
