data_PCOD8059281
_publ_section_title
;
Structure prediction by ZEFSAII (Michael W. Deem and Ramdas Pophale) SiO2 
 PCOD8059281
Probable space group: P 2/M
;
_chemical_formula_sum "Si O2"
_cell_formula_units_Z 26
_cell_length_a 9.545373
_cell_length_b 21.971194
_cell_length_c 9.045454
_cell_angle_alpha 90.000000
_cell_angle_beta 44.457126
_cell_angle_gamma 90.000000
_cell_volume 1328.641408
_symmetry_space_group_name_H-M "P 2/M"
_symmetry_group_IT_number 10
_symmetry_cell_setting 'monoclinic'
loop_
_space_group_symop_operation_xyz
x,y,z
-x,y,-z
-x,-y,-z
x,-y,z
loop_
_atom_site_type_symbol
_atom_site_label
_atom_site_fract_x
_atom_site_fract_y
_atom_site_fract_z
Si Si1 0.388384 0.337191 0.433351
Si Si2 0.054165 0.646568 0.299629
Si Si3 0.912810 0.069813 0.833955
Si Si4 0.320757 0.751373 0.233253
Si Si5 0.309070 0.069576 0.718805
Si Si6 0.000000 0.153732 0.500000
Si Si7 0.393371 0.570264 0.924718
O O1 0.500000 0.319571 0.500000
O O2 0.430351 0.285238 0.281165
O O3 0.149220 0.340647 0.638028
O O4 0.477136 0.400537 0.304357
O O5 0.177212 0.708347 0.241212
O O6 0.176499 0.601161 0.102687
O O7 0.000000 0.616097 0.500000
O O8 0.908867 0.112189 0.695980
O O9 0.130729 0.073700 0.738715
O O10 0.863498 0.000000 0.827012
O O11 0.753308 0.096471 0.073905
O O12 0.187406 0.804524 0.406848
O O13 0.500000 0.778785 0.000000
O O14 0.500000 0.103300 0.500000
O O15 0.365792 0.000000 0.708288
O O16 0.365233 0.500000 0.906669
O O17 0.500000 0.581228 0.000000
#
# Coordination Sequence:
#
# PCOD8059281 Si02
#       7
#     4   4   4   4   4   2   4
#     4  11  22  39  62  88 120 157 196 252 306 347
#     4  10  18  38  63  82 113 158 199 239 287 352
#     4   9  19  35  57  88 121 153 191 245 306 362
#     4  11  21  42  62  79 114 161 208 246 294 360
#     4   8  15  33  60  82 115 159 192 225 290 368
#     4  12  23  36  60  88 117 154 204 254 304 358
#     4  11  21  36  63  95 121 155 200 240 296 371
#
# _framework density 19.568861999999999
#
# number of rings (size 3 to 8) (size 9 to 14) (size 15 to 20)
#    0.000    1.846    6.923    1.154    0.000    3.077 
#    0.000    4.615    0.000    4.615    0.000    0.000 
#    0.000    0.000    0.000    0.000    0.000    0.000 
#
# Total GULP energy -322264.306588 kJ/mol
# GULP energy per Si atom -12394.781023 kJ/mol
# Density = 1.952432 g / cm^3
# Si number density = 19.568862 Si / 1000 Ang^3
#
#
#
# Elastic Constant Matrix: (Units=GPa)
#
#
# Indices 1 2 3 4 5 6 
#
# 1 98.9478 25.6554 40.9166 0.0000 -0.6628 0.0000
# 2 25.6554 74.1166 38.9508 0.0000 4.0465 0.0000
# 3 40.9166 38.9508 129.6767 0.0000 -15.0466 0.0000
# 4 0.0000 0.0000 0.0000 -194.9154 0.0000 -14.9958
# 5 -0.6628 4.0465 -15.0466 0.0000 27.1841 0.0000
# 6 0.0000 0.0000 0.0000 -14.9958 0.0000 10.8217
#
#
#
# Elastic Compliance Matrix: (Units=1/GPa)
#
#
# Indices 1 2 3 4 5 6 
#
# 1 0.012053 -0.002427 -0.003204 0.000000 -0.001118 0.000000
# 2 -0.002427 0.017286 -0.005057 0.000000 -0.005431 0.000000
# 3 -0.003204 -0.005057 0.011028 0.000000 0.006778 0.000000
# 4 0.000000 0.000000 0.000000 -0.004636 0.000000 -0.006424
# 5 -0.001118 -0.005431 0.006778 0.000000 0.041319 0.000000
# 6 0.000000 0.000000 0.000000 -0.006424 0.000000 0.083505
#
#
# Mechanical properties :
#
#
# Convention : Reuss Voigt Hill
#
# Bulk Modulus (GPa) = 52.65442 57.08742 54.87092
# Shear Modulus (GPa) = 26.55887 -18.23405 4.16241
#
# Velocity S-wave (km/s) = 3.68802 -3.05583 1.46003
# Velocity P-wave (km/s) = 6.71572 4.09696 5.56265
#
# Compressibility (1/GPa) = 0.01899176
#
# Stress axis : x y z
#
# Youngs Moduli (GPa) = 82.96677 57.84875 90.68087
#
# Poissons Ratio (x) = 0.14043 0.29051
# Poissons Ratio (y) = 0.20140 0.45853
# Poissons Ratio (z) = 0.26580 0.29252
#
# Static dielectric constant tensor:
#      x y z
#    x 3.523500 0.000000 -0.279220 
#    y 0.000000 3.410930 0.000000 
#    z -0.279220 0.000000 3.949060 
# 
# 
# High freq. dielectric constant tensor:
#      x y z
#    x 1.736860 0.000000 -0.016850 
#    y 0.000000 1.736310 0.000000 
#    z -0.016850 0.000000 1.780220 
# 
# From -- ./inp_files/20441.got.cif
#   From: 2010.06.25/outbox.cif.g09.slc.cpg/sg10_11_cif.got.tgz:20441.got - 2010.06.27 22:07:45.
