data_PCOD8059758
_publ_section_title
;
Structure prediction by ZEFSAII (Michael W. Deem and Ramdas Pophale) SiO2 
 PCOD8059758
Probable space group: P 2/M
;
_chemical_formula_sum "Si O2"
_cell_formula_units_Z 24
_cell_length_a 12.621670
_cell_length_b 9.135569
_cell_length_c 23.924640
_cell_angle_alpha 90.000000
_cell_angle_beta 26.579401
_cell_angle_gamma 90.000000
_cell_volume 1234.327214
_symmetry_space_group_name_H-M "P 2/M"
_symmetry_group_IT_number 10
_symmetry_cell_setting 'monoclinic'
loop_
_space_group_symop_operation_xyz
x,y,z
-x,y,-z
-x,-y,-z
x,-y,z
loop_
_atom_site_type_symbol
_atom_site_label
_atom_site_fract_x
_atom_site_fract_y
_atom_site_fract_z
Si Si1 0.003704 0.669916 0.436405
Si Si2 0.165949 0.326993 0.700602
Si Si3 0.098634 0.827245 0.084998
Si Si4 0.534598 0.668488 0.164151
Si Si5 0.766689 0.840378 0.146346
Si Si6 0.681952 0.673593 0.491122
O O1 0.943012 0.500000 0.472843
O O2 0.255754 0.690570 0.287241
O O3 0.000000 0.744192 0.500000
O O4 0.805791 0.740844 0.488458
O O5 0.129083 0.500000 0.724398
O O6 0.172601 0.277799 0.632750
O O7 0.410942 0.275225 0.614354
O O8 0.945439 0.243804 0.833521
O O9 0.859823 0.787767 0.162787
O O10 0.139423 0.000000 0.070434
O O11 0.331833 0.759397 0.946572
O O12 0.611285 0.500000 0.123378
O O13 0.594110 0.722774 0.199160
O O14 0.640495 0.000000 0.209385
O O15 0.000000 0.858266 0.000000
O O16 0.691490 0.500000 0.488805
#
# Coordination Sequence:
#
# PCOD8059758 Si02
#       6
#     4   4   4   4   4   4
#     4   9  18  31  49  76 109 137 161 201 259 310
#     4   9  17  31  56  81 100 129 171 216 252 295
#     4  10  20  33  50  72 103 139 168 208 262 303
#     4  10  19  30  49  77 102 132 173 211 247 300
#     4   8  16  30  45  64  98 137 163 198 253 297
#     4   8  16  32  51  76 108 134 162 209 263 300
#
# _framework density 19.44379
#
# number of rings (size 3 to 8) (size 9 to 14) (size 15 to 20)
#    0.000    3.000    0.000    3.000    2.333    3.667 
#    0.000    2.500    0.000   11.000    0.000    0.000 
#    0.000    0.000    0.000    0.000    0.000    0.000 
#
# Total GULP energy -297418.495366 kJ/mol
# GULP energy per Si atom -12392.437307 kJ/mol
# Density = 1.939954 g / cm^3
# Si number density = 19.443790 Si / 1000 Ang^3
#
#
#
# Elastic Constant Matrix: (Units=GPa)
#
#
# Indices 1 2 3 4 5 6 
#
# 1 115.2129 18.5897 40.4733 0.0000 7.4845 0.0000
# 2 18.5897 60.0165 29.4664 0.0000 6.4704 0.0000
# 3 40.4733 29.4664 68.6182 0.0000 18.9507 0.0000
# 4 0.0000 0.0000 0.0000 -0.0623 0.0000 -4.6829
# 5 7.4845 6.4704 18.9507 0.0000 31.4916 0.0000
# 6 0.0000 0.0000 0.0000 -4.6829 0.0000 7.9845
#
#
#
# Elastic Compliance Matrix: (Units=1/GPa)
#
#
# Indices 1 2 3 4 5 6 
#
# 1 0.011013 -0.000227 -0.006822 0.000000 0.001535 0.000000
# 2 -0.000227 0.021166 -0.009317 0.000000 0.001312 0.000000
# 3 -0.006822 -0.009317 0.025932 0.000000 -0.012069 0.000000
# 4 0.000000 0.000000 0.000000 -0.356025 0.000000 -0.208809
# 5 0.001535 0.001312 -0.012069 0.000000 0.038383 0.000000
# 6 0.000000 0.000000 0.000000 -0.208809 0.000000 0.002777
#
#
# Mechanical properties :
#
#
# Convention : Reuss Voigt Hill
#
# Bulk Modulus (GPa) = 39.40606 46.76740 43.08673
# Shear Modulus (GPa) = -23.19510 18.23730 -2.47890
#
# Velocity S-wave (km/s) = -3.45763 3.06592 -1.13034
# Velocity P-wave (km/s) = 2.09054 6.05293 4.52815
#
# Compressibility (1/GPa) = 0.02537680
#
# Stress axis : x y z
#
# Youngs Moduli (GPa) = 90.80076 47.24652 38.56297
#
# Poissons Ratio (x) = 0.01073 0.26308
# Poissons Ratio (y) = 0.02063 0.35931
# Poissons Ratio (z) = 0.61946 0.44021
#
# Static dielectric constant tensor:
#      x y z
#    x 4.038350 0.000000 0.082830 
#    y 0.000000 3.220510 0.000000 
#    z 0.082830 0.000000 3.337300 
# 
# 
# High freq. dielectric constant tensor:
#      x y z
#    x 1.748160 0.000000 0.014370 
#    y 0.000000 1.721000 0.000000 
#    z 0.014370 0.000000 1.749560 
# 
# From -- ./inp_files/88606.got.cif
#   From: 2010.06.25/outbox.cif.g09.slc.cpg/sg10_45_cif.got.tgz:88606.got - 2010.06.27 22:07:45.
