data_PCOD8059433
_publ_section_title
;
Structure prediction by ZEFSAII (Michael W. Deem and Ramdas Pophale) SiO2 
 PCOD8059433
Probable space group: P 2/M
;
_chemical_formula_sum "Si O2"
_cell_formula_units_Z 32
_cell_length_a 14.326079
_cell_length_b 9.829594
_cell_length_c 19.485930
_cell_angle_alpha 90.000000
_cell_angle_beta 141.396434
_cell_angle_gamma 90.000000
_cell_volume 1712.058894
_symmetry_space_group_name_H-M "P 2/M"
_symmetry_group_IT_number 10
_symmetry_cell_setting 'monoclinic'
loop_
_space_group_symop_operation_xyz
x,y,z
-x,y,-z
-x,-y,-z
x,-y,z
loop_
_atom_site_type_symbol
_atom_site_label
_atom_site_fract_x
_atom_site_fract_y
_atom_site_fract_z
Si Si1 0.085561 0.842762 0.312587
Si Si2 0.638508 0.159443 0.619293
Si Si3 0.131323 0.351878 0.024661
Si Si4 0.231820 0.656334 0.667760
Si Si5 0.501903 0.151010 0.167861
Si Si6 0.078781 0.657205 0.439210
Si Si7 0.353008 0.847789 0.220423
Si Si8 0.170049 0.844196 0.933499
O O1 0.201264 0.792729 0.319493
O O2 0.115939 0.752603 0.396612
O O3 0.912782 0.825581 0.187274
O O4 0.114551 0.000000 0.348922
O O5 0.500000 0.229324 0.500000
O O6 0.605704 0.197123 0.679338
O O7 0.632164 0.000000 0.605406
O O8 0.193111 0.500000 0.035083
O O9 0.248976 0.270490 0.135760
O O10 0.081423 0.258821 0.932135
O O11 0.000000 0.381917 0.000000
O O12 0.281511 0.500000 0.700029
O O13 0.367295 0.745106 0.776171
O O14 0.190466 0.694780 0.565653
O O15 0.090527 0.683819 0.634823
O O16 0.487770 0.151179 0.242813
O O17 0.548204 0.000000 0.169703
O O18 0.347434 0.192606 0.038960
O O19 0.099794 0.500000 0.430041
O O20 0.279515 0.000000 0.179019
O O21 0.150071 0.000000 0.947919
#
# Coordination Sequence:
#
# PCOD8059433 Si02
#       8
#     4   4   4   4   4   4   4   4
#     4  10  20  34  56  80 105 140 179 216 259 313
#     4   9  18  31  49  75 106 139 176 215 257 309
#     4  10  19  29  45  70  97 130 175 224 262 294
#     4   9  19  37  58  78 104 137 175 213 261 323
#     4   9  18  31  53  81 107 134 173 226 267 298
#     4   9  20  38  57  78 105 139 173 213 264 318
#     4   9  18  32  49  71 101 139 174 210 258 309
#     4   9  19  35  51  74 105 140 178 212 258 319
#
# _framework density 18.690944999999999
#
# number of rings (size 3 to 8) (size 9 to 14) (size 15 to 20)
#    0.000    2.750    0.000    2.625    1.750    5.500 
#    0.000    2.500    0.000    4.500    0.000    0.000 
#    0.000    0.000    0.000    0.000    0.000    0.000 
#
# Total GULP energy -396419.420535 kJ/mol
# GULP energy per Si atom -12388.106892 kJ/mol
# Density = 1.864840 g / cm^3
# Si number density = 18.690945 Si / 1000 Ang^3
#
#
#
# Elastic Constant Matrix: (Units=GPa)
#
#
# Indices 1 2 3 4 5 6 
#
# 1 33.6933 11.9323 14.1691 0.0000 2.8348 0.0000
# 2 11.9323 80.9764 24.6959 0.0000 6.7588 0.0000
# 3 14.1691 24.6959 65.9154 0.0000 3.8525 0.0000
# 4 0.0000 0.0000 0.0000 20.7717 0.0000 0.6140
# 5 2.8348 6.7588 3.8525 0.0000 26.3752 0.0000
# 6 0.0000 0.0000 0.0000 0.6140 0.0000 26.8820
#
#
#
# Elastic Compliance Matrix: (Units=1/GPa)
#
#
# Indices 1 2 3 4 5 6 
#
# 1 0.033393 -0.002938 -0.005962 0.000000 -0.001965 0.000000
# 2 -0.002938 0.014414 -0.004611 0.000000 -0.002704 0.000000
# 3 -0.005962 -0.004611 0.018229 0.000000 -0.000840 0.000000
# 4 0.000000 0.000000 0.000000 0.048175 0.000000 -0.001100
# 5 -0.001965 -0.002704 -0.000840 0.000000 0.038941 0.000000
# 6 0.000000 0.000000 0.000000 -0.001100 0.000000 0.037225
#
#
# Mechanical properties :
#
#
# Convention : Reuss Voigt Hill
#
# Bulk Modulus (GPa) = 25.63218 31.35328 28.49273
# Shear Modulus (GPa) = 21.70099 23.45830 22.57964
#
# Velocity S-wave (km/s) = 3.41110 3.54653 3.47948
# Velocity P-wave (km/s) = 5.40903 5.79495 5.60532
#
# Compressibility (1/GPa) = 0.03901346
#
# Stress axis : x y z
#
# Youngs Moduli (GPa) = 29.94662 69.37635 54.85701
#
# Poissons Ratio (x) = 0.20384 0.32708
# Poissons Ratio (y) = 0.08799 0.25293
# Poissons Ratio (z) = 0.17855 0.31988
#
# Static dielectric constant tensor:
#      x y z
#    x 2.929780 0.000000 -0.056810 
#    y 0.000000 3.519010 0.000000 
#    z -0.056810 0.000000 3.500700 
# 
# 
# High freq. dielectric constant tensor:
#      x y z
#    x 1.703750 0.000000 -0.000080 
#    y 0.000000 1.717140 0.000000 
#    z -0.000080 0.000000 1.722500 
# 
# From -- ./inp_files/84744.got.cif
#   From: 2010.06.25/outbox.cif.g09.slc.cpg/sg10_43_cif.got.tgz:84744.got - 2010.06.27 22:07:45.
