data_PCOD8059418
_publ_section_title
;
Structure prediction by ZEFSAII (Michael W. Deem and Ramdas Pophale) SiO2 
 PCOD8059418
Probable space group: P 2/M
;
_chemical_formula_sum "Si O2"
_cell_formula_units_Z 28
_cell_length_a 11.332050
_cell_length_b 8.927849
_cell_length_c 21.504249
_cell_angle_alpha 90.000000
_cell_angle_beta 49.013525
_cell_angle_gamma 90.000000
_cell_volume 1642.285118
_symmetry_space_group_name_H-M "P 2/M"
_symmetry_group_IT_number 10
_symmetry_cell_setting 'monoclinic'
loop_
_space_group_symop_operation_xyz
x,y,z
-x,y,-z
-x,-y,-z
x,-y,z
loop_
_atom_site_type_symbol
_atom_site_label
_atom_site_fract_x
_atom_site_fract_y
_atom_site_fract_z
Si Si1 0.473043 0.325639 0.260155
Si Si2 0.780639 0.326792 0.559573
Si Si3 0.671186 0.676485 0.923086
Si Si4 0.782288 0.827396 0.127147
Si Si5 0.265556 0.172648 0.227955
Si Si6 0.870265 0.172730 0.957608
Si Si7 0.987023 0.172356 0.590748
O O1 0.459646 0.500000 0.247683
O O2 0.395125 0.294028 0.355025
O O3 0.652537 0.276678 0.203620
O O4 0.390879 0.233076 0.233831
O O5 0.803569 0.500000 0.535630
O O6 0.889490 0.279106 0.579247
O O7 0.832424 0.230545 0.480022
O O8 0.667552 0.500000 0.918510
O O9 0.725970 0.740702 0.838893
O O10 0.794096 0.721978 0.932900
O O11 0.500000 0.739298 0.000000
O O12 0.946449 0.789182 0.102707
O O13 0.738823 0.000000 0.153121
O O14 0.790304 0.792648 0.051147
O O15 0.086880 0.191690 0.315142
O O16 0.306102 0.000000 0.202204
O O17 0.844776 0.000000 0.948080
O O18 0.974820 0.000000 0.573905
#
# Coordination Sequence:
#
# PCOD8059418 Si02
#       7
#     4   4   4   4   4   4   4
#     4  10  19  29  44  70 100 126 155 191 231 277
#     4   9  16  25  39  61  91 124 151 181 227 276
#     4  11  23  35  48  70  97 124 156 192 230 274
#     4   9  18  33  52  71  92 121 156 193 232 274
#     4  10  20  32  47  67  93 127 161 193 232 276
#     4   9  19  35  52  70  92 121 158 194 230 274
#     4   9  16  26  41  62  87 117 155 192 225 268
#
# _framework density 17.049415
#
# number of rings (size 3 to 8) (size 9 to 14) (size 15 to 20)
#    0.000    2.429    0.000    4.714    0.000    8.000 
#    0.000    1.429    0.000    0.000    0.000    1.000 
#    0.000    8.000    0.000    0.000    0.000    0.000 
#
# Total GULP energy -347031.122752 kJ/mol
# GULP energy per Si atom -12393.968670 kJ/mol
# Density = 1.701061 g / cm^3
# Si number density = 17.049415 Si / 1000 Ang^3
#
#
#
# Elastic Constant Matrix: (Units=GPa)
#
#
# Indices 1 2 3 4 5 6 
#
# 1 59.0338 28.2884 44.5563 0.0000 -4.2169 0.0000
# 2 28.2884 63.1086 52.0581 0.0000 -4.8670 0.0000
# 3 44.5563 52.0581 135.8491 0.0000 -15.6755 0.0000
# 4 0.0000 0.0000 0.0000 26.2814 0.0000 -16.0613
# 5 -4.2169 -4.8670 -15.6755 0.0000 22.1845 0.0000
# 6 0.0000 0.0000 0.0000 -16.0613 0.0000 -9.1336
#
#
#
# Elastic Compliance Matrix: (Units=1/GPa)
#
#
# Indices 1 2 3 4 5 6 
#
# 1 0.024104 -0.006243 -0.005599 0.000000 -0.000744 0.000000
# 2 -0.006243 0.024821 -0.007591 0.000000 -0.001105 0.000000
# 3 -0.005599 -0.007591 0.012838 0.000000 0.006342 0.000000
# 4 0.000000 0.000000 0.000000 0.018340 0.000000 -0.032251
# 5 -0.000744 -0.001105 0.006342 0.000000 0.049174 0.000000
# 6 0.000000 0.000000 0.000000 -0.032251 0.000000 -0.052773
#
#
# Mechanical properties :
#
#
# Convention : Reuss Voigt Hill
#
# Bulk Modulus (GPa) = 43.67616 56.42192 50.04904
# Shear Modulus (GPa) = 40.64906 16.73905 28.69405
#
# Velocity S-wave (km/s) = 4.88811 3.13676 4.10688
# Velocity P-wave (km/s) = 7.58493 6.80324 7.20470
#
# Compressibility (1/GPa) = 0.02289579
#
# Stress axis : x y z
#
# Youngs Moduli (GPa) = 41.48685 40.28817 77.89138
#
# Poissons Ratio (x) = 0.25153 0.43612
# Poissons Ratio (y) = 0.25902 0.59131
# Poissons Ratio (z) = 0.23229 0.30585
#
# Static dielectric constant tensor:
#      x y z
#    x 2.799460 0.000000 -0.308220 
#    y 0.000000 3.222280 0.000000 
#    z -0.308220 0.000000 3.844830 
# 
# 
# High freq. dielectric constant tensor:
#      x y z
#    x 1.602600 0.000000 -0.020600 
#    y 0.000000 1.669800 0.000000 
#    z -0.020600 0.000000 1.675690 
# 
# From -- ./inp_files/83318.got.cif
#   From: 2010.06.25/outbox.cif.g09.slc.cpg/sg10_42_cif.got.tgz:83318.got - 2010.06.27 22:07:45.
