data_PCOD8059558
_publ_section_title
;
Structure prediction by ZEFSAII (Michael W. Deem and Ramdas Pophale) SiO2 
 PCOD8059558
Probable space group: P 2/M
;
_chemical_formula_sum "Si O2"
_cell_formula_units_Z 24
_cell_length_a 23.817839
_cell_length_b 13.170826
_cell_length_c 12.655980
_cell_angle_alpha 90.000000
_cell_angle_beta 19.784571
_cell_angle_gamma 90.000000
_cell_volume 1343.847496
_symmetry_space_group_name_H-M "P 2/M"
_symmetry_group_IT_number 10
_symmetry_cell_setting 'monoclinic'
loop_
_space_group_symop_operation_xyz
x,y,z
-x,y,-z
-x,-y,-z
x,-y,z
loop_
_atom_site_type_symbol
_atom_site_label
_atom_site_fract_x
_atom_site_fract_y
_atom_site_fract_z
Si Si1 0.829660 0.114158 0.840680
Si Si2 0.592768 0.235766 0.134911
Si Si3 0.815832 0.386564 0.868336
Si Si4 0.373214 0.115241 0.131018
Si Si5 0.995768 0.884759 0.131018
Si Si6 0.772321 0.764234 0.134911
O O1 0.000000 0.173144 0.500000
O O2 0.876468 0.000000 0.747064
O O3 0.671449 0.136881 0.049220
O O4 0.779330 0.136881 0.049220
O O5 0.406478 0.255937 0.500000
O O6 0.702227 0.331182 0.980987
O O7 0.596901 0.207378 0.004225
O O8 0.745015 0.500000 0.009969
O O9 0.000000 0.391883 0.500000
O O10 0.816786 0.331182 0.980987
O O11 0.188742 0.125049 0.500000
O O12 0.402511 0.000000 0.034132
O O13 0.500000 0.136731 0.000000
O O14 0.063357 0.000000 0.034132
O O15 0.000000 0.863269 0.000000
O O16 0.101125 0.792622 0.995776
#
# Coordination Sequence:
#
# PCOD8059558 Si02
#       6
#     4   4   4   4   4   4
#     4  10  19  30  45  67  98 134 169 207 250 297
#     4  11  21  32  50  75 103 134 168 209 256 308
#     4  10  21  38  59  79 100 130 169 215 266 315
#     4  10  20  34  52  75 106 143 180 215 250 295
#     4  10  20  34  52  75 106 143 180 215 250 295
#     4  11  21  32  50  75 103 134 168 209 256 308
#
# _framework density 17.859169999999999
#
# number of rings (size 3 to 8) (size 9 to 14) (size 15 to 20)
#    0.000    1.667    0.000    8.000    0.000    8.667 
#    0.000    0.000    0.000    1.000    0.000    0.000 
#    0.000    0.000    0.000    0.000    0.000    0.000 
#
# Total GULP energy -297315.682884 kJ/mol
# GULP energy per Si atom -12388.153454 kJ/mol
# Density = 1.781852 g / cm^3
# Si number density = 17.859170 Si / 1000 Ang^3
#
#
#
# Elastic Constant Matrix: (Units=GPa)
#
#
# Indices 1 2 3 4 5 6 
#
# 1 118.6569 61.6708 49.3850 0.0000 1.7837 0.0000
# 2 61.6708 120.9217 37.6274 0.0000 2.0819 0.0000
# 3 49.3850 37.6274 111.5132 0.0000 -1.1648 0.0000
# 4 0.0000 0.0000 0.0000 15.3025 0.0000 0.4139
# 5 1.7837 2.0819 -1.1648 0.0000 24.5910 0.0000
# 6 0.0000 0.0000 0.0000 0.4139 0.0000 20.0831
#
#
#
# Elastic Compliance Matrix: (Units=1/GPa)
#
#
# Indices 1 2 3 4 5 6 
#
# 1 0.012820 -0.005316 -0.003891 0.000000 -0.000664 0.000000
# 2 -0.005316 0.011466 -0.001521 0.000000 -0.000657 0.000000
# 3 -0.003891 -0.001521 0.011214 0.000000 0.000942 0.000000
# 4 0.000000 0.000000 0.000000 0.065385 0.000000 -0.001348
# 5 -0.000664 -0.000657 0.000942 0.000000 0.040814 0.000000
# 6 0.000000 0.000000 0.000000 -0.001348 0.000000 0.049821
#
#
# Mechanical properties :
#
#
# Convention : Reuss Voigt Hill
#
# Bulk Modulus (GPa) = 71.20890 72.05091 71.62990
# Shear Modulus (GPa) = 22.97195 25.48922 24.23058
#
# Velocity S-wave (km/s) = 3.59037 3.78197 3.68742
# Velocity P-wave (km/s) = 7.55954 7.71379 7.63706
#
# Compressibility (1/GPa) = 0.01404319
#
# Stress axis : x y z
#
# Youngs Moduli (GPa) = 78.00352 87.21572 89.17626
#
# Poissons Ratio (x) = 0.46365 0.34695
# Poissons Ratio (y) = 0.41468 0.13567
# Poissons Ratio (z) = 0.30348 0.13269
#
# Static dielectric constant tensor:
#      x y z
#    x 3.414770 0.000000 0.003040 
#    y 0.000000 3.334400 0.000000 
#    z 0.003040 0.000000 3.379650 
# 
# 
# High freq. dielectric constant tensor:
#      x y z
#    x 1.688400 0.000000 -0.001940 
#    y 0.000000 1.665790 0.000000 
#    z -0.001940 0.000000 1.710770 
# 
# From -- ./inp_files/24574.got.cif
#   From: 2010.06.25/outbox.cif.g09.slc.cpg/sg10_13_cif.got.tgz:24574.got - 2010.06.27 22:07:45.
