data_PCOD8059410
_publ_section_title
;
Structure prediction by ZEFSAII (Michael W. Deem and Ramdas Pophale) SiO2 
 PCOD8059410
Probable space group: P 2/M
;
_chemical_formula_sum "Si O2"
_cell_formula_units_Z 32
_cell_length_a 15.994298
_cell_length_b 9.175233
_cell_length_c 16.673258
_cell_angle_alpha 90.000000
_cell_angle_beta 51.206935
_cell_angle_gamma 90.000000
_cell_volume 1907.088503
_symmetry_space_group_name_H-M "P 2/M"
_symmetry_group_IT_number 10
_symmetry_cell_setting 'monoclinic'
loop_
_space_group_symop_operation_xyz
x,y,z
-x,y,-z
-x,-y,-z
x,-y,z
loop_
_atom_site_type_symbol
_atom_site_label
_atom_site_fract_x
_atom_site_fract_y
_atom_site_fract_z
Si Si1 0.930901 0.161383 0.120889
Si Si2 0.926592 0.667812 0.709651
Si Si3 0.150214 0.827135 0.564951
Si Si4 0.125063 0.839051 0.405048
Si Si5 0.891007 0.333106 0.906533
Si Si6 0.567090 0.670718 0.349859
Si Si7 0.757758 0.329204 0.135528
Si Si8 0.658142 0.672873 0.463686
O O1 0.824764 0.251447 0.165145
O O2 0.000537 0.241774 0.146431
O O3 0.900274 0.000000 0.170518
O O4 0.000000 0.150634 0.000000
O O5 0.954470 0.500000 0.675424
O O6 0.035825 0.756893 0.653452
O O7 0.852597 0.728152 0.681519
O O8 0.857887 0.684560 0.833369
O O9 0.184196 0.791858 0.451958
O O10 0.237619 0.759723 0.571215
O O11 0.140837 0.000000 0.583657
O O12 0.000000 0.840642 0.500000
O O13 0.162828 0.000000 0.355291
O O14 0.918795 0.500000 0.910373
O O15 0.794173 0.280107 0.023908
O O16 0.558049 0.500000 0.366792
O O17 0.633181 0.712428 0.228885
O O18 0.631965 0.725233 0.389113
O O19 0.444123 0.726023 0.420560
O O20 0.775942 0.500000 0.136152
O O21 0.680352 0.500000 0.457494
#
# Coordination Sequence:
#
# PCOD8059410 Si02
#       8
#     4   4   4   4   4   4   4   4
#     4   9  17  27  38  56  83 113 147 184 213 243
#     4  10  19  29  44  67  92 117 148 183 216 254
#     4  10  20  32  46  66  91 119 146 175 220 270
#     4   8  16  31  46  62  88 117 143 174 218 269
#     4   9  18  29  41  61  87 116 149 180 211 256
#     4   8  16  30  48  66  87 115 147 186 226 257
#     4   9  16  29  46  60  82 118 151 178 216 261
#     4   9  17  31  48  68  89 111 147 189 222 258
#
# _framework density 16.779503999999999
#
# number of rings (size 3 to 8) (size 9 to 14) (size 15 to 20)
#    0.000    3.000    0.000    2.625    1.750    5.250 
#    0.000    1.875    0.000    0.000    0.000    0.875 
#    0.000    7.000    0.000    0.000    0.000    0.000 
#
# Total GULP energy -396470.875875 kJ/mol
# GULP energy per Si atom -12389.714871 kJ/mol
# Density = 1.674131 g / cm^3
# Si number density = 16.779504 Si / 1000 Ang^3
#
#
#
# Elastic Constant Matrix: (Units=GPa)
#
#
# Indices 1 2 3 4 5 6 
#
# 1 38.6670 14.8635 15.8197 0.0000 7.9261 0.0000
# 2 14.8635 59.9308 27.0773 0.0000 5.2931 0.0000
# 3 15.8197 27.0773 84.7646 0.0000 6.0116 0.0000
# 4 0.0000 0.0000 0.0000 10.0715 0.0000 5.6207
# 5 7.9261 5.2931 6.0116 0.0000 22.4857 0.0000
# 6 0.0000 0.0000 0.0000 5.6207 0.0000 13.5156
#
#
#
# Elastic Compliance Matrix: (Units=1/GPa)
#
#
# Indices 1 2 3 4 5 6 
#
# 1 0.031152 -0.005381 -0.003472 0.000000 -0.008786 0.000000
# 2 -0.005381 0.020628 -0.005479 0.000000 -0.001494 0.000000
# 3 -0.003472 -0.005479 0.014288 0.000000 -0.001306 0.000000
# 4 0.000000 0.000000 0.000000 0.129299 0.000000 -0.053771
# 5 -0.008786 -0.001494 -0.001306 0.000000 0.048271 0.000000
# 6 0.000000 0.000000 0.000000 -0.053771 0.000000 0.096350
#
#
# Mechanical properties :
#
#
# Convention : Reuss Voigt Hill
#
# Bulk Modulus (GPa) = 26.73551 33.20927 29.97239
# Shear Modulus (GPa) = 13.11920 17.58800 15.35360
#
# Velocity S-wave (km/s) = 2.79921 3.24108 3.02821
# Velocity P-wave (km/s) = 5.13959 5.81727 5.48890
#
# Compressibility (1/GPa) = 0.03740344
#
# Stress axis : x y z
#
# Youngs Moduli (GPa) = 32.10087 48.47763 69.98770
#
# Poissons Ratio (x) = 0.26088 0.24298
# Poissons Ratio (y) = 0.17275 0.38347
# Poissons Ratio (z) = 0.11144 0.26562
#
# Static dielectric constant tensor:
#      x y z
#    x 3.051930 0.000000 0.150530 
#    y 0.000000 3.177290 0.000000 
#    z 0.150530 0.000000 3.323270 
# 
# 
# High freq. dielectric constant tensor:
#      x y z
#    x 1.607690 0.000000 0.016900 
#    y 0.000000 1.640870 0.000000 
#    z 0.016900 0.000000 1.641290 
# 
# From -- ./inp_files/78522.got.cif
#   From: 2010.06.25/outbox.cif.g09.slc.cpg/sg10_40_cif.got.tgz:78522.got - 2010.06.27 22:07:45.
