data_PCOD8059578
_publ_section_title
;
Structure prediction by ZEFSAII (Michael W. Deem and Ramdas Pophale) SiO2 
 PCOD8059578
Probable space group: P 2/M
;
_chemical_formula_sum "Si O2"
_cell_formula_units_Z 32
_cell_length_a 13.363677
_cell_length_b 8.848144
_cell_length_c 34.585805
_cell_angle_alpha 90.000000
_cell_angle_beta 24.301055
_cell_angle_gamma 90.000000
_cell_volume 1682.979184
_symmetry_space_group_name_H-M "P 2/M"
_symmetry_group_IT_number 10
_symmetry_cell_setting 'monoclinic'
loop_
_space_group_symop_operation_xyz
x,y,z
-x,y,-z
-x,-y,-z
x,-y,z
loop_
_atom_site_type_symbol
_atom_site_label
_atom_site_fract_x
_atom_site_fract_y
_atom_site_fract_z
Si Si1 0.567933 0.675926 0.243824
Si Si2 0.726721 0.178023 0.586185
Si Si3 0.221924 0.168153 0.568471
Si Si4 0.018997 0.675798 0.037228
Si Si5 0.063800 0.326893 0.700697
Si Si6 0.495363 0.673096 0.409006
Si Si7 0.443989 0.672794 0.147496
Si Si8 0.695900 0.832506 0.727052
O O1 0.588498 0.500000 0.246091
O O2 0.485630 0.757443 0.311832
O O3 0.363443 0.708309 0.284097
O O4 0.819635 0.744266 0.137179
O O5 0.639508 0.220589 0.574011
O O6 0.000000 0.240585 0.500000
O O7 0.731074 0.000000 0.589146
O O8 0.166738 0.218563 0.631334
O O9 0.400162 0.287278 0.485433
O O10 0.983466 0.163467 0.626533
O O11 0.337452 0.000000 0.529184
O O12 0.956027 0.500000 0.055711
O O13 0.283048 0.704332 0.964094
O O14 0.000000 0.744549 0.000000
O O15 0.104694 0.500000 0.673218
O O16 0.210585 0.299009 0.689477
O O17 0.770555 0.296964 0.808602
O O18 0.439745 0.500000 0.417639
O O19 0.428888 0.500000 0.167813
O O20 0.413467 0.784766 0.193731
O O21 0.595586 0.000000 0.751737
#
# Coordination Sequence:
#
# PCOD8059578 Si02
#       8
#     4   4   4   4   4   4   4   4
#     4  11  21  34  55  80 107 141 181 221 264 315
#     4  11  25  43  59  77 104 139 180 223 267 316
#     4  10  20  32  49  75 107 143 179 215 264 319
#     4   9  16  29  52  83 112 139 175 216 261 316
#     4   9  19  33  52  78 106 138 176 220 264 312
#     4  11  22  36  54  77 103 133 178 226 267 314
#     4   9  16  31  52  74 106 143 173 207 259 313
#     4  10  19  30  45  72 109 142 175 214 256 311
#
# _framework density 19.0139
#
# number of rings (size 3 to 8) (size 9 to 14) (size 15 to 20)
#    0.000    2.000    1.250    3.000    0.000    8.000 
#    0.000    1.875    0.000    0.750    0.000    5.250 
#    0.000    0.000    0.000    0.000    0.000    0.000 
#
# Total GULP energy -396479.015309 kJ/mol
# GULP energy per Si atom -12389.969228 kJ/mol
# Density = 1.897062 g / cm^3
# Si number density = 19.013900 Si / 1000 Ang^3
#
#
#
# Elastic Constant Matrix: (Units=GPa)
#
#
# Indices 1 2 3 4 5 6 
#
# 1 95.2225 20.0740 46.5014 0.0000 -25.1268 0.0000
# 2 20.0740 55.3138 26.0796 0.0000 -4.0279 0.0000
# 3 46.5014 26.0796 105.7273 0.0000 -7.0404 0.0000
# 4 0.0000 0.0000 0.0000 15.0299 0.0000 4.7849
# 5 -25.1268 -4.0279 -7.0404 0.0000 19.9822 0.0000
# 6 0.0000 0.0000 0.0000 4.7849 0.0000 15.3041
#
#
#
# Elastic Compliance Matrix: (Units=1/GPa)
#
#
# Indices 1 2 3 4 5 6 
#
# 1 0.020344 -0.002518 -0.006817 0.000000 0.022673 0.000000
# 2 -0.002518 0.020883 -0.004070 0.000000 -0.000391 0.000000
# 3 -0.006817 -0.004070 0.013143 0.000000 -0.004762 0.000000
# 4 0.000000 0.000000 0.000000 0.073888 0.000000 -0.023102
# 5 0.022673 -0.000391 -0.004762 0.000000 0.076798 0.000000
# 6 0.000000 0.000000 0.000000 -0.023102 0.000000 0.072565
#
#
# Mechanical properties :
#
#
# Convention : Reuss Voigt Hill
#
# Bulk Modulus (GPa) = 36.28306 49.06374 42.67340
# Shear Modulus (GPa) = 15.94295 20.97050 18.45673
#
# Velocity S-wave (km/s) = 2.89881 3.32460 3.11898
# Velocity P-wave (km/s) = 5.50708 6.37161 5.95506
#
# Compressibility (1/GPa) = 0.02756107
#
# Stress axis : x y z
#
# Youngs Moduli (GPa) = 49.15369 47.88628 76.08403
#
# Poissons Ratio (x) = 0.12058 0.51867
# Poissons Ratio (y) = 0.12377 0.30963
# Poissons Ratio (z) = 0.33508 0.19488
#
# Static dielectric constant tensor:
#      x y z
#    x 3.549770 0.000000 -0.406590 
#    y 0.000000 3.437360 0.000000 
#    z -0.406590 0.000000 3.641460 
# 
# 
# High freq. dielectric constant tensor:
#      x y z
#    x 1.725480 0.000000 -0.032360 
#    y 0.000000 1.732060 0.000000 
#    z -0.032360 0.000000 1.725780 
# 
# From -- ./inp_files/95000.got.cif
#   From: 2010.06.25/outbox.cif.g09.slc.cpg/sg10_48_cif.got.tgz:95000.got - 2010.06.27 22:07:45.
