data_PCOD8059546
_publ_section_title
;
Structure prediction by ZEFSAII (Michael W. Deem and Ramdas Pophale) SiO2 
 PCOD8059546
Probable space group: P 2/M
;
_chemical_formula_sum "Si O2"
_cell_formula_units_Z 32
_cell_length_a 14.543809
_cell_length_b 9.175450
_cell_length_c 19.869180
_cell_angle_alpha 90.000000
_cell_angle_beta 135.527299
_cell_angle_gamma 90.000000
_cell_volume 1857.533322
_symmetry_space_group_name_H-M "P 2/M"
_symmetry_group_IT_number 10
_symmetry_cell_setting 'monoclinic'
loop_
_space_group_symop_operation_xyz
x,y,z
-x,y,-z
-x,-y,-z
x,-y,z
loop_
_atom_site_type_symbol
_atom_site_label
_atom_site_fract_x
_atom_site_fract_y
_atom_site_fract_z
Si Si1 0.624797 0.836457 0.326752
Si Si2 0.378440 0.335215 0.182404
Si Si3 0.878192 0.667638 0.485621
Si Si4 0.097564 0.327072 0.994128
Si Si5 0.875079 0.825441 0.621779
Si Si6 0.343138 0.662401 0.322815
Si Si7 0.585749 0.160439 0.464687
Si Si8 0.941449 0.672121 0.783250
O O1 0.502126 0.762467 0.223828
O O2 0.754770 0.740411 0.383228
O O3 0.591437 0.842331 0.387463
O O4 0.646869 0.000000 0.310058
O O5 0.401907 0.500000 0.168996
O O6 0.365232 0.333769 0.255289
O O7 0.245394 0.267666 0.081045
O O8 0.843931 0.500000 0.485638
O O9 0.916636 0.755327 0.572892
O O10 0.000000 0.677448 0.500000
O O11 0.099039 0.500000 0.004225
O O12 0.049691 0.282262 0.894773
O O13 0.000000 0.261023 0.000000
O O14 0.725558 0.774464 0.562466
O O15 0.969516 0.761110 0.729183
O O16 0.885652 0.000000 0.621586
O O17 0.354647 0.500000 0.357169
O O18 0.456388 0.752249 0.421143
O O19 0.198875 0.724364 0.261559
O O20 0.568331 0.000000 0.485020
O O21 0.946063 0.500000 0.771299
#
# Coordination Sequence:
#
# PCOD8059546 Si02
#       8
#     4   4   4   4   4   4   4   4
#     4   9  17  29  46  71 102 131 157 189 235 291
#     4   9  15  26  46  68  93 128 170 214 250 281
#     4  10  20  35  57  82 102 120 149 191 236 288
#     4   9  15  27  47  69  93 126 174 222 257 285
#     4  10  21  35  48  66  96 131 160 191 236 293
#     4   9  16  25  41  64  87 119 163 207 244 277
#     4   8  16  29  42  57  84 123 161 194 230 276
#     4  10  19  30  45  66  93 126 168 214 250 283
#
# _framework density 17.227148
#
# number of rings (size 3 to 8) (size 9 to 14) (size 15 to 20)
#    0.000    2.750    1.250    1.875    0.000    5.500 
#    0.000    3.125    0.000    0.750    0.000    0.875 
#    0.000    7.000    0.000    0.000    0.000    0.000 
#
# Total GULP energy -396667.963834 kJ/mol
# GULP energy per Si atom -12395.873870 kJ/mol
# Density = 1.718794 g / cm^3
# Si number density = 17.227148 Si / 1000 Ang^3
#
#
#
# Elastic Constant Matrix: (Units=GPa)
#
#
# Indices 1 2 3 4 5 6 
#
# 1 48.7200 28.6697 32.6029 0.0000 9.8325 0.0000
# 2 28.6697 83.5026 49.0349 0.0000 6.4340 0.0000
# 3 32.6029 49.0349 125.4842 0.0000 9.1625 0.0000
# 4 0.0000 0.0000 0.0000 15.3137 0.0000 -2.9942
# 5 9.8325 6.4340 9.1625 0.0000 18.5142 0.0000
# 6 0.0000 0.0000 0.0000 -2.9942 0.0000 5.7877
#
#
#
# Elastic Compliance Matrix: (Units=1/GPa)
#
#
# Indices 1 2 3 4 5 6 
#
# 1 0.029641 -0.006838 -0.004205 0.000000 -0.011284 0.000000
# 2 -0.006838 0.017231 -0.004964 0.000000 0.000100 0.000000
# 3 -0.004205 -0.004964 0.011114 0.000000 -0.001542 0.000000
# 4 0.000000 0.000000 0.000000 0.072649 0.000000 0.037584
# 5 -0.011284 0.000100 -0.001542 0.000000 0.060734 0.000000
# 6 0.000000 0.000000 0.000000 0.037584 0.000000 0.192224
#
#
# Mechanical properties :
#
#
# Convention : Reuss Voigt Hill
#
# Bulk Modulus (GPa) = 38.50395 53.14688 45.82541
# Shear Modulus (GPa) = 11.78514 17.74975 14.76745
#
# Velocity S-wave (km/s) = 2.61837 3.21337 2.93101
# Velocity P-wave (km/s) = 5.61609 6.68470 6.17356
#
# Compressibility (1/GPa) = 0.02597136
#
# Stress axis : x y z
#
# Youngs Moduli (GPa) = 33.73732 58.03631 89.97680
#
# Poissons Ratio (x) = 0.39685 0.37837
# Poissons Ratio (y) = 0.23070 0.44663
# Poissons Ratio (z) = 0.14187 0.28808
#
# Static dielectric constant tensor:
#      x y z
#    x 2.839610 0.000000 0.147460 
#    y 0.000000 3.273400 0.000000 
#    z 0.147460 0.000000 3.385630 
# 
# 
# High freq. dielectric constant tensor:
#      x y z
#    x 1.625140 0.000000 0.008490 
#    y 0.000000 1.655960 0.000000 
#    z 0.008490 0.000000 1.663180 
# 
# From -- ./inp_files/66213.got.cif
#   From: 2010.06.25/outbox.cif.g09.slc.cpg/sg10_34_cif.got.tgz:66213.got - 2010.06.27 22:07:45.
