data_PCOD8059767
_publ_section_title
;
Structure prediction by ZEFSAII (Michael W. Deem and Ramdas Pophale) SiO2 
 PCOD8059767
Probable space group: P 2/M
;
_chemical_formula_sum "Si O2"
_cell_formula_units_Z 32
_cell_length_a 12.464966
_cell_length_b 9.029725
_cell_length_c 29.320805
_cell_angle_alpha 90.000000
_cell_angle_beta 30.517795
_cell_angle_gamma 90.000000
_cell_volume 1675.866009
_symmetry_space_group_name_H-M "P 2/M"
_symmetry_group_IT_number 10
_symmetry_cell_setting 'monoclinic'
loop_
_space_group_symop_operation_xyz
x,y,z
-x,y,-z
-x,-y,-z
x,-y,z
loop_
_atom_site_type_symbol
_atom_site_label
_atom_site_fract_x
_atom_site_fract_y
_atom_site_fract_z
Si Si1 0.554375 0.662507 0.726458
Si Si2 0.149473 0.677306 0.825204
Si Si3 0.300508 0.824998 0.505908
Si Si4 0.997484 0.171435 0.696571
Si Si5 0.249551 0.172427 0.693325
Si Si6 0.565283 0.668020 0.829591
Si Si7 0.873708 0.176133 0.999949
Si Si8 0.949141 0.156309 0.568770
O O1 0.553977 0.500000 0.705654
O O2 0.345407 0.738699 0.783387
O O3 0.570785 0.662766 0.773877
O O4 0.755901 0.738503 0.632859
O O5 0.121835 0.500000 0.835125
O O6 0.175134 0.735294 0.764407
O O7 0.956663 0.750525 0.922920
O O8 0.533210 0.761467 0.408573
O O9 0.194268 0.772797 0.592618
O O10 0.143320 0.767641 0.523920
O O11 0.328129 0.000000 0.496722
O O12 0.785234 0.265055 0.766860
O O13 0.064951 0.192622 0.724016
O O14 0.948579 0.000000 0.703399
O O15 0.277396 0.000000 0.696702
O O16 0.537669 0.500000 0.858973
O O17 0.368835 0.772624 0.912852
O O18 0.885137 0.000000 0.992165
O O19 0.000000 0.228963 0.000000
O O20 0.000000 0.109804 0.500000
O O21 0.892203 0.000000 0.615431
#
# Coordination Sequence:
#
# PCOD8059767 Si02
#       8
#     4   4   4   4   4   4   4   4
#     4  10  21  35  53  79 114 155 189 227 284 348
#     4  11  23  40  60  85 121 158 193 237 294 357
#     4   9  17  32  55  84 116 153 198 245 294 341
#     4  10  20  37  61  87 117 156 203 250 291 339
#     4  10  21  38  60  86 117 155 202 251 295 341
#     4  11  22  38  60  87 120 153 189 234 288 349
#     4  11  23  39  64  94 119 148 190 239 291 350
#     4  10  19  30  49  79 114 151 193 241 287 339
#
# _framework density 19.094605999999999
#
# number of rings (size 3 to 8) (size 9 to 14) (size 15 to 20)
#    0.000    1.750    2.500    2.250    0.000    5.250 
#    0.000    1.875    0.000    5.250    0.000    0.000 
#    0.000    0.000    0.000    0.000    0.000    0.000 
#
# Total GULP energy -396481.505474 kJ/mol
# GULP energy per Si atom -12390.047046 kJ/mol
# Density = 1.905115 g / cm^3
# Si number density = 19.094606 Si / 1000 Ang^3
#
#
#
# Elastic Constant Matrix: (Units=GPa)
#
#
# Indices 1 2 3 4 5 6 
#
# 1 106.8342 41.8211 45.2024 0.0000 8.8415 0.0000
# 2 41.8211 67.7039 49.2277 0.0000 -1.5853 0.0000
# 3 45.2024 49.2277 125.0665 0.0000 2.3278 0.0000
# 4 0.0000 0.0000 0.0000 29.5285 0.0000 0.6315
# 5 8.8415 -1.5853 2.3278 0.0000 23.1038 0.0000
# 6 0.0000 0.0000 0.0000 0.6315 0.0000 26.6795
#
#
#
# Elastic Compliance Matrix: (Units=1/GPa)
#
#
# Indices 1 2 3 4 5 6 
#
# 1 0.013365 -0.006924 -0.002005 0.000000 -0.005388 0.000000
# 2 -0.006924 0.024396 -0.007194 0.000000 0.005049 0.000000
# 3 -0.002005 -0.007194 0.011569 0.000000 -0.000892 0.000000
# 4 0.000000 0.000000 0.000000 0.033883 0.000000 -0.000802
# 5 -0.005388 0.005049 -0.000892 0.000000 0.045781 0.000000
# 6 0.000000 0.000000 0.000000 -0.000802 0.000000 0.037501
#
#
# Mechanical properties :
#
#
# Convention : Reuss Voigt Hill
#
# Bulk Modulus (GPa) = 58.53447 63.56745 61.05096
# Shear Modulus (GPa) = 24.45766 26.75259 25.60513
#
# Velocity S-wave (km/s) = 3.58280 3.74713 3.66589
# Velocity P-wave (km/s) = 6.91642 7.21695 7.06828
#
# Compressibility (1/GPa) = 0.01708395
#
# Stress axis : x y z
#
# Youngs Moduli (GPa) = 74.82296 40.98982 86.44076
#
# Poissons Ratio (x) = 0.28382 0.17329
# Poissons Ratio (y) = 0.51808 0.62186
# Poissons Ratio (z) = 0.15000 0.29489
#
# Static dielectric constant tensor:
#      x y z
#    x 3.478650 0.000000 -0.050960 
#    y 0.000000 3.542450 0.000000 
#    z -0.050960 0.000000 3.496010 
# 
# 
# High freq. dielectric constant tensor:
#      x y z
#    x 1.743240 0.000000 -0.004030 
#    y 0.000000 1.727660 0.000000 
#    z -0.004030 0.000000 1.744030 
# 
# From -- ./inp_files/94976.got.cif
#   From: 2010.06.25/outbox.cif.g09.slc.cpg/sg10_48_cif.got.tgz:94976.got - 2010.06.27 22:07:45.
