data_PCOD8059153
_publ_section_title
;
Structure prediction by ZEFSAII (Michael W. Deem and Ramdas Pophale) SiO2 
 PCOD8059153
Probable space group: P 2/M
;
_chemical_formula_sum "Si O2"
_cell_formula_units_Z 28
_cell_length_a 18.931281
_cell_length_b 9.244573
_cell_length_c 14.002903
_cell_angle_alpha 90.000000
_cell_angle_beta 35.717412
_cell_angle_gamma 90.000000
_cell_volume 1430.672017
_symmetry_space_group_name_H-M "P 2/M"
_symmetry_group_IT_number 10
_symmetry_cell_setting 'monoclinic'
loop_
_space_group_symop_operation_xyz
x,y,z
-x,y,-z
-x,-y,-z
x,-y,z
loop_
_atom_site_type_symbol
_atom_site_label
_atom_site_fract_x
_atom_site_fract_y
_atom_site_fract_z
Si Si1 0.618641 0.332144 0.606717
Si Si2 0.582883 0.660354 0.316741
Si Si3 0.816151 0.169562 0.080084
Si Si4 0.988414 0.661014 0.776069
Si Si5 0.893332 0.329348 0.548376
Si Si6 0.376101 0.327193 0.185477
Si Si7 0.833188 0.337028 0.247272
O O1 0.654133 0.500000 0.577102
O O2 0.488193 0.308675 0.703148
O O3 0.621037 0.264268 0.709796
O O4 0.718359 0.263324 0.426462
O O5 0.500000 0.664233 0.500000
O O6 0.642960 0.500000 0.243965
O O7 0.676791 0.788770 0.225098
O O8 0.871106 0.240800 0.115394
O O9 0.834217 0.000000 0.066185
O O10 0.878455 0.229132 0.914697
O O11 0.939080 0.500000 0.805947
O O12 0.072540 0.715491 0.597175
O O13 0.058778 0.658121 0.797551
O O14 0.892457 0.500000 0.562938
O O15 0.753145 0.275510 0.721053
O O16 0.000000 0.263482 0.500000
O O17 0.380266 0.500000 0.180767
O O18 0.500000 0.267596 0.000000
O O19 0.803049 0.500000 0.243727
#
# Coordination Sequence:
#
# PCOD8059153 Si02
#       7
#     4   4   4   4   4   4   4
#     4   9  16  29  51  76 103 139 179 218 262 321
#     4  10  19  34  56  77 102 140 186 227 267 325
#     4  12  25  36  50  78 116 147 182 231 282 331
#     4  10  20  35  57  80 109 148 190 228 269 325
#     4   9  17  30  51  82 117 147 178 226 283 335
#     4   9  16  27  46  77 113 143 173 220 282 335
#     4  10  18  34  57  78 104 144 191 228 264 317
#
# _framework density 19.571221999999999
#
# number of rings (size 3 to 8) (size 9 to 14) (size 15 to 20)
#    0.000    2.143    2.857    1.714    0.000    3.714 
#    0.000    4.286    0.000    0.429    0.000    0.000 
#    0.000    2.857    0.000    0.000    0.000    0.000 
#
# Total GULP energy -346930.479650 kJ/mol
# GULP energy per Si atom -12390.374273 kJ/mol
# Density = 1.952668 g / cm^3
# Si number density = 19.571222 Si / 1000 Ang^3
#
#
#
# Elastic Constant Matrix: (Units=GPa)
#
#
# Indices 1 2 3 4 5 6 
#
# 1 103.6667 15.1304 42.5515 0.0000 -9.8860 0.0000
# 2 15.1304 62.6586 34.5367 0.0000 1.3838 0.0000
# 3 42.5515 34.5367 127.8642 0.0000 -1.6005 0.0000
# 4 0.0000 0.0000 0.0000 5.3721 0.0000 -1.9219
# 5 -9.8860 1.3838 -1.6005 0.0000 24.0223 0.0000
# 6 0.0000 0.0000 0.0000 -1.9219 0.0000 -1.8480
#
#
#
# Elastic Compliance Matrix: (Units=1/GPa)
#
#
# Indices 1 2 3 4 5 6 
#
# 1 0.011695 -0.000955 -0.003576 0.000000 0.004630 0.000000
# 2 -0.000955 0.018878 -0.004804 0.000000 -0.001801 0.000000
# 3 -0.003576 -0.004804 0.010302 0.000000 -0.000509 0.000000
# 4 0.000000 0.000000 0.000000 0.135668 0.000000 -0.141096
# 5 0.004630 -0.001801 -0.000509 0.000000 0.043603 0.000000
# 6 0.000000 0.000000 0.000000 -0.141096 0.000000 -0.394385
#
#
# Mechanical properties :
#
#
# Convention : Reuss Voigt Hill
#
# Bulk Modulus (GPa) = 45.03497 53.18076 49.10787
# Shear Modulus (GPa) = -33.74546 18.97401 -7.38572
#
# Velocity S-wave (km/s) = -4.15690 3.11703 -1.94473
# Velocity P-wave (km/s) = 0.14496 6.33928 4.48372
#
# Compressibility (1/GPa) = 0.02220496
#
# Stress axis : x y z
#
# Youngs Moduli (GPa) = 85.50635 52.97280 97.06913
#
# Poissons Ratio (x) = 0.05060 0.34712
# Poissons Ratio (y) = 0.08168 0.46628
# Poissons Ratio (z) = 0.30577 0.25446
#
# Static dielectric constant tensor:
#      x y z
#    x 3.704080 0.000000 -0.044060 
#    y 0.000000 2.960250 0.000000 
#    z -0.044060 0.000000 3.830230 
# 
# 
# High freq. dielectric constant tensor:
#      x y z
#    x 1.766990 0.000000 -0.005870 
#    y 0.000000 1.683050 0.000000 
#    z -0.005870 0.000000 1.773230 
# 
# From -- ./inp_files/70177.got.cif
#   From: 2010.06.25/outbox.cif.g09.slc.cpg/sg10_36_cif.got.tgz:70177.got - 2010.06.27 22:07:45.
