data_PCOD8059789
_publ_section_title
;
Structure prediction by ZEFSAII (Michael W. Deem and Ramdas Pophale) SiO2 
 PCOD8059789
Probable space group: P 2/M
;
_chemical_formula_sum "Si O2"
_cell_formula_units_Z 28
_cell_length_a 11.161302
_cell_length_b 9.279112
_cell_length_c 14.328736
_cell_angle_alpha 90.000000
_cell_angle_beta 78.540768
_cell_angle_gamma 90.000000
_cell_volume 1454.402523
_symmetry_space_group_name_H-M "P 2/M"
_symmetry_group_IT_number 10
_symmetry_cell_setting 'monoclinic'
loop_
_space_group_symop_operation_xyz
x,y,z
-x,y,-z
-x,-y,-z
x,-y,z
loop_
_atom_site_type_symbol
_atom_site_label
_atom_site_fract_x
_atom_site_fract_y
_atom_site_fract_z
Si Si1 0.032483 0.334180 0.389465
Si Si2 0.234810 0.665678 0.874417
Si Si3 0.700676 0.334628 0.609176
Si Si4 0.877347 0.840858 0.958669
Si Si5 0.047028 0.829746 0.773947
Si Si6 0.638707 0.839589 0.446683
Si Si7 0.437879 0.335800 0.709165
O O1 0.995205 0.500000 0.377096
O O2 0.177574 0.310823 0.348935
O O3 0.959122 0.232883 0.329529
O O4 0.000000 0.289337 0.500000
O O5 0.192135 0.500000 0.882378
O O6 0.219723 0.729824 0.981285
O O7 0.377348 0.679993 0.821187
O O8 0.155087 0.752255 0.812281
O O9 0.689320 0.500000 0.579437
O O10 0.716644 0.243016 0.512417
O O11 0.580630 0.287095 0.687618
O O12 0.817991 0.000000 0.969812
O O13 0.917636 0.798814 0.847169
O O14 0.000000 0.839214 0.000000
O O15 0.074033 0.000000 0.766438
O O16 0.500000 0.843936 0.500000
O O17 0.645244 0.758493 0.347367
O O18 0.692641 0.000000 0.425841
O O19 0.429118 0.500000 0.675391
#
# Coordination Sequence:
#
# PCOD8059789 Si02
#       7
#     4   4   4   4   4   4   4
#     4  10  22  37  53  74  99 131 174 217 247 285
#     4  10  19  30  51  81 106 128 164 209 249 298
#     4   9  18  34  51  66  95 135 168 203 251 297
#     4   8  16  32  51  73 102 132 162 200 252 306
#     4  10  21  36  53  74 103 137 167 201 252 306
#     4   9  17  28  44  68  95 125 164 205 242 287
#     4   9  18  31  48  71  99 132 164 199 250 303
#
# _framework density 19.251892999999999
#
# number of rings (size 3 to 8) (size 9 to 14) (size 15 to 20)
#    0.000    2.714    0.000    2.143    2.000    6.857 
#    0.000    0.000    0.000    0.857    0.000    6.000 
#    0.000    0.000    0.000    0.000    0.000    0.000 
#
# Total GULP energy -347041.524298 kJ/mol
# GULP energy per Si atom -12394.340154 kJ/mol
# Density = 1.920807 g / cm^3
# Si number density = 19.251893 Si / 1000 Ang^3
#
#
#
# Elastic Constant Matrix: (Units=GPa)
#
#
# Indices 1 2 3 4 5 6 
#
# 1 37.7611 19.2557 14.9722 0.0000 -10.2617 0.0000
# 2 19.2557 92.0945 38.1367 0.0000 -6.0498 0.0000
# 3 14.9722 38.1367 96.2205 0.0000 -16.5061 0.0000
# 4 0.0000 0.0000 0.0000 28.9871 0.0000 -0.6256
# 5 -10.2617 -6.0498 -16.5061 0.0000 25.8015 0.0000
# 6 0.0000 0.0000 0.0000 -0.6256 0.0000 7.8794
#
#
#
# Elastic Compliance Matrix: (Units=1/GPa)
#
#
# Indices 1 2 3 4 5 6 
#
# 1 0.032796 -0.005746 -0.000920 0.000000 0.011107 0.000000
# 2 -0.005746 0.013999 -0.005036 0.000000 -0.002225 0.000000
# 3 -0.000920 -0.005036 0.013779 0.000000 0.007268 0.000000
# 4 0.000000 0.000000 0.000000 0.034557 0.000000 0.002744
# 5 0.011107 -0.002225 0.007268 0.000000 0.047303 0.000000
# 6 0.000000 0.000000 0.000000 0.002744 0.000000 0.127131
#
#
# Mechanical properties :
#
#
# Convention : Reuss Voigt Hill
#
# Bulk Modulus (GPa) = 26.90442 41.20060 34.05251
# Shear Modulus (GPa) = 16.37411 22.78104 19.57757
#
# Velocity S-wave (km/s) = 2.91953 3.44367 3.19237
# Velocity P-wave (km/s) = 5.03688 6.10402 5.59595
#
# Compressibility (1/GPa) = 0.03716861
#
# Stress axis : x y z
#
# Youngs Moduli (GPa) = 30.49162 71.43264 72.57552
#
# Poissons Ratio (x) = 0.41049 0.06678
# Poissons Ratio (y) = 0.17522 0.36549
# Poissons Ratio (z) = 0.02806 0.35974
#
# Static dielectric constant tensor:
#      x y z
#    x 3.265670 0.000000 -0.330930 
#    y 0.000000 3.645440 0.000000 
#    z -0.330930 0.000000 3.721820 
# 
# 
# High freq. dielectric constant tensor:
#      x y z
#    x 1.712670 0.000000 -0.031010 
#    y 0.000000 1.752400 0.000000 
#    z -0.031010 0.000000 1.743230 
# 
# From -- ./inp_files/63387.got.cif
#   From: 2010.06.25/outbox.cif.g09.slc.cpg/sg10_32_cif.got.tgz:63387.got - 2010.06.27 22:07:45.
