data_PCOD8059490
_publ_section_title
;
Structure prediction by ZEFSAII (Michael W. Deem and Ramdas Pophale) SiO2 
 PCOD8059490
Probable space group: P 2/M
;
_chemical_formula_sum "Si O2"
_cell_formula_units_Z 32
_cell_length_a 9.180443
_cell_length_b 14.119984
_cell_length_c 21.102747
_cell_angle_alpha 90.000000
_cell_angle_beta 142.201018
_cell_angle_gamma 90.000000
_cell_volume 1676.569290
_symmetry_space_group_name_H-M "P 2/M"
_symmetry_group_IT_number 10
_symmetry_cell_setting 'monoclinic'
loop_
_space_group_symop_operation_xyz
x,y,z
-x,y,-z
-x,-y,-z
x,-y,z
loop_
_atom_site_type_symbol
_atom_site_label
_atom_site_fract_x
_atom_site_fract_y
_atom_site_fract_z
Si Si1 0.664925 0.893717 0.648920
Si Si2 0.103568 0.394460 0.472630
Si Si3 0.833221 0.268859 0.292820
Si Si4 0.843667 0.893529 0.567334
Si Si5 0.921209 0.607563 0.074676
Si Si6 0.616709 0.391986 0.846464
Si Si7 0.997053 0.732159 0.784675
Si Si8 0.404067 0.605333 0.403837
O O1 0.756618 0.890036 0.609131
O O2 0.385531 0.861565 0.554425
O O3 0.840542 0.825113 0.749279
O O4 0.688218 0.000000 0.684416
O O5 0.997726 0.500000 0.433197
O O6 0.031185 0.345013 0.381670
O O7 0.000000 0.342950 0.500000
O O8 0.387475 0.394940 0.576674
O O9 0.582016 0.310242 0.230725
O O10 0.921449 0.172526 0.359131
O O11 0.826789 0.251572 0.214559
O O12 0.919194 0.000000 0.574248
O O13 0.902504 0.500000 0.095455
O O14 0.185832 0.624809 0.139128
O O15 0.863039 0.688343 0.107280
O O16 0.728669 0.621580 0.954024
O O17 0.515901 0.500000 0.806227
O O18 0.819450 0.651097 0.703938
O O19 0.500000 0.659055 0.500000
O O20 0.326567 0.500000 0.397394
#
# Coordination Sequence:
#
# PCOD8059490 Si02
#       8
#     4   4   4   4   4   4   4   4
#     4   8  15  28  48  74 104 136 167 202 244 296
#     4  10  21  32  42  64  99 135 167 195 232 291
#     4  11  20  31  51  77 100 127 167 213 253 291
#     4   8  15  29  49  73 103 136 167 201 247 299
#     4   9  20  38  55  73  97 132 172 208 251 304
#     4   9  20  38  55  71  99 134 170 208 249 305
#     4  11  20  29  52  79 100 126 168 212 253 294
#     4  10  19  30  42  64 102 134 156 193 241 289
#
# _framework density 19.086594999999999
#
# number of rings (size 3 to 8) (size 9 to 14) (size 15 to 20)
#    0.000    2.500    1.250    3.000    3.500    2.000 
#    0.000    1.250    0.000    1.875    0.000    5.250 
#    0.000    0.000    0.000    0.000    0.000    0.000 
#
# Total GULP energy -396433.385725 kJ/mol
# GULP energy per Si atom -12388.543304 kJ/mol
# Density = 1.904315 g / cm^3
# Si number density = 19.086595 Si / 1000 Ang^3
#
#
#
# Elastic Constant Matrix: (Units=GPa)
#
#
# Indices 1 2 3 4 5 6 
#
# 1 35.2810 11.0173 -2.0340 0.0000 2.9074 0.0000
# 2 11.0173 90.6593 21.2486 0.0000 6.5472 0.0000
# 3 -2.0340 21.2486 30.4040 0.0000 6.5928 0.0000
# 4 0.0000 0.0000 0.0000 25.3470 0.0000 4.9916
# 5 2.9074 6.5472 6.5928 0.0000 30.2832 0.0000
# 6 0.0000 0.0000 0.0000 4.9916 0.0000 -22.6502
#
#
#
# Elastic Compliance Matrix: (Units=1/GPa)
#
#
# Indices 1 2 3 4 5 6 
#
# 1 0.030502 -0.004923 0.006177 0.000000 -0.003209 0.000000
# 2 -0.004923 0.014008 -0.010039 0.000000 -0.000370 0.000000
# 3 0.006177 -0.010039 0.041958 0.000000 -0.007557 0.000000
# 4 0.000000 0.000000 0.000000 0.037811 0.000000 0.008333
# 5 -0.003209 -0.000370 -0.007557 0.000000 0.035055 0.000000
# 6 0.000000 0.000000 0.000000 0.008333 0.000000 -0.042313
#
#
# Mechanical properties :
#
#
# Convention : Reuss Voigt Hill
#
# Bulk Modulus (GPa) = 14.51417 24.08977 19.30197
# Shear Modulus (GPa) = 31.73456 15.00351 23.36904
#
# Velocity S-wave (km/s) = 4.08200 2.80675 3.50289
# Velocity P-wave (km/s) = 5.46240 4.81170 5.14734
#
# Compressibility (1/GPa) = 0.06889817
#
# Stress axis : x y z
#
# Youngs Moduli (GPa) = 32.78523 71.38678 23.83319
#
# Poissons Ratio (x) = 0.35141 -0.14721
# Poissons Ratio (y) = 0.16139 0.23926
# Poissons Ratio (z) = -0.20250 0.71665
#
# Static dielectric constant tensor:
#      x y z
#    x 3.481830 0.000000 -0.090610 
#    y 0.000000 3.675630 0.000000 
#    z -0.090610 0.000000 3.367560 
# 
# 
# High freq. dielectric constant tensor:
#      x y z
#    x 1.720310 0.000000 0.004060 
#    y 0.000000 1.729090 0.000000 
#    z 0.004060 0.000000 1.717300 
# 
# From -- ./inp_files/82839.got.cif
#   From: 2010.06.25/outbox.cif.g09.slc.cpg/sg10_42_cif.got.tgz:82839.got - 2010.06.27 22:07:45.
