data_PCOD8059803
_publ_section_title
;
Structure prediction by ZEFSAII (Michael W. Deem and Ramdas Pophale) SiO2 
 PCOD8059803
Probable space group: P 2/M
;
_chemical_formula_sum "Si O2"
_cell_formula_units_Z 30
_cell_length_a 25.804395
_cell_length_b 13.848382
_cell_length_c 10.006053
_cell_angle_alpha 90.000000
_cell_angle_beta 152.340396
_cell_angle_gamma 90.000000
_cell_volume 1659.881943
_symmetry_space_group_name_H-M "P 2/M"
_symmetry_group_IT_number 10
_symmetry_cell_setting 'monoclinic'
loop_
_space_group_symop_operation_xyz
x,y,z
-x,y,-z
-x,-y,-z
x,-y,z
loop_
_atom_site_type_symbol
_atom_site_label
_atom_site_fract_x
_atom_site_fract_y
_atom_site_fract_z
Si Si1 0.621678 0.608943 0.119341
Si Si2 0.000000 0.822971 0.000000
Si Si3 0.626204 0.887290 0.301126
Si Si4 0.957628 0.107160 0.188732
Si Si5 0.746604 0.795780 0.810839
Si Si6 0.366128 0.609728 0.539538
Si Si7 0.790729 0.111701 0.181765
Si Si8 0.762152 0.780455 0.384895
O O1 0.655421 0.500000 0.160415
O O2 0.642506 0.629317 0.322863
O O3 0.701450 0.679083 0.216862
O O4 0.493604 0.627522 0.786244
O O5 0.107784 0.758270 0.284533
O O6 0.969690 0.890294 0.056083
O O7 0.663662 0.862650 0.536248
O O8 0.705562 0.832988 0.379935
O O9 0.635428 0.000000 0.293483
O O10 0.500000 0.849531 0.000000
O O11 0.076300 0.124489 0.529879
O O12 0.912226 0.000000 0.121910
O O13 0.873207 0.187956 0.049579
O O14 0.715408 0.682829 0.724677
O O15 0.732377 0.827279 0.931569
O O16 0.329781 0.500000 0.422508
O O17 0.747487 0.151842 0.223432
O O18 0.755958 0.000000 0.092521
#
# Coordination Sequence:
#
# PCOD8059803 Si02
#       8
#     4   2   4   4   4   4   4   4
#     4   9  17  34  59  83 106 136 181 236 286 328
#     4  10  19  30  53  84 112 142 181 234 285 328
#     4  11  22  34  53  80 108 142 188 234 274 324
#     4  10  19  32  53  80 110 145 189 230 273 327
#     4  12  20  34  57  79 109 148 188 230 274 330
#     4   9  18  33  57  85 106 133 182 239 285 327
#     4  10  23  37  52  78 116 155 188 224 273 335
#     4  11  20  36  55  80 114 146 184 228 287 327
#
# _framework density 18.073575000000002
#
# number of rings (size 3 to 8) (size 9 to 14) (size 15 to 20)
#    0.000    1.733    2.667    3.800    0.000    2.133 
#    0.000    3.667    0.000   11.200    0.000    0.000 
#    0.000    0.000    0.000    0.000    0.000    0.000 
#
# Total GULP energy -372020.282291 kJ/mol
# GULP energy per Si atom -12400.676076 kJ/mol
# Density = 1.803244 g / cm^3
# Si number density = 18.073575 Si / 1000 Ang^3
#
#
#
# Elastic Constant Matrix: (Units=GPa)
#
#
# Indices 1 2 3 4 5 6 
#
# 1 64.1671 41.6763 42.0892 0.0000 0.2153 0.0000
# 2 41.6763 133.5085 56.2416 0.0000 7.5492 0.0000
# 3 42.0892 56.2416 87.8258 0.0000 -1.9987 0.0000
# 4 0.0000 0.0000 0.0000 32.3167 0.0000 1.8060
# 5 0.2153 7.5492 -1.9987 0.0000 29.9934 0.0000
# 6 0.0000 0.0000 0.0000 1.8060 0.0000 27.5661
#
#
#
# Elastic Compliance Matrix: (Units=1/GPa)
#
#
# Indices 1 2 3 4 5 6 
#
# 1 0.023939 -0.003627 -0.009147 0.000000 0.000132 0.000000
# 2 -0.003627 0.011088 -0.005433 0.000000 -0.003127 0.000000
# 3 -0.009147 -0.005433 0.019311 0.000000 0.002720 0.000000
# 4 0.000000 0.000000 0.000000 0.031057 0.000000 -0.002035
# 5 0.000132 -0.003127 0.002720 0.000000 0.034308 0.000000
# 6 0.000000 0.000000 0.000000 -0.002035 0.000000 0.036410
#
#
# Mechanical properties :
#
#
# Convention : Reuss Voigt Hill
#
# Bulk Modulus (GPa) = 55.79246 62.83505 59.31375
# Shear Modulus (GPa) = 25.18850 27.67486 26.43168
#
# Velocity S-wave (km/s) = 3.73723 3.91734 3.82835
# Velocity P-wave (km/s) = 7.03983 7.43656 7.24091
#
# Compressibility (1/GPa) = 0.01792357
#
# Stress axis : x y z
#
# Youngs Moduli (GPa) = 41.77206 90.18644 51.78391
#
# Poissons Ratio (x) = 0.32713 0.47366
# Poissons Ratio (y) = 0.15152 0.28137
# Poissons Ratio (z) = 0.38208 0.49002
#
# Static dielectric constant tensor:
#      x y z
#    x 3.217110 0.000000 0.074180 
#    y 0.000000 3.350320 0.000000 
#    z 0.074180 0.000000 3.432570 
# 
# 
# High freq. dielectric constant tensor:
#      x y z
#    x 1.687810 0.000000 0.003130 
#    y 0.000000 1.691780 0.000000 
#    z 0.003130 0.000000 1.698430 
# 
# From -- ./inp_files/36321.got.cif
#   From: 2010.06.25/outbox.cif.g09.slc.cpg/sg10_19_cif.got.tgz:36321.got - 2010.06.27 22:07:45.
