data_PCOD8059391
_publ_section_title
;
Structure prediction by ZEFSAII (Michael W. Deem and Ramdas Pophale) SiO2 
 PCOD8059391
Probable space group: P 2/M
;
_chemical_formula_sum "Si O2"
_cell_formula_units_Z 32
_cell_length_a 16.274270
_cell_length_b 9.211728
_cell_length_c 13.971882
_cell_angle_alpha 90.000000
_cell_angle_beta 66.419433
_cell_angle_gamma 90.000000
_cell_volume 1919.681913
_symmetry_space_group_name_H-M "P 2/M"
_symmetry_group_IT_number 10
_symmetry_cell_setting 'monoclinic'
loop_
_space_group_symop_operation_xyz
x,y,z
-x,y,-z
-x,-y,-z
x,-y,z
loop_
_atom_site_type_symbol
_atom_site_label
_atom_site_fract_x
_atom_site_fract_y
_atom_site_fract_z
Si Si1 0.949572 0.661113 0.122480
Si Si2 0.709566 0.672179 0.441149
Si Si3 0.360304 0.833992 0.709602
Si Si4 0.803692 0.834949 0.093729
Si Si5 0.474639 0.339973 0.400992
Si Si6 0.083639 0.671567 0.335096
Si Si7 0.104257 0.829079 0.142411
Si Si8 0.116472 0.671432 0.530837
O O1 0.935045 0.500000 0.174711
O O2 0.854239 0.735170 0.147516
O O3 0.007017 0.760799 0.166120
O O4 0.000000 0.645747 0.000000
O O5 0.712151 0.500000 0.420030
O O6 0.692342 0.751430 0.349426
O O7 0.629726 0.708055 0.554682
O O8 0.802198 0.733039 0.442726
O O9 0.302014 0.820708 0.834374
O O10 0.458800 0.768642 0.685605
O O11 0.372404 0.000000 0.672491
O O12 0.837576 0.000000 0.092642
O O13 0.824529 0.788678 0.974476
O O14 0.500000 0.341812 0.500000
O O15 0.487367 0.500000 0.350140
O O16 0.094670 0.500000 0.314459
O O17 0.136729 0.756315 0.226420
O O18 0.125454 0.723763 0.416535
O O19 0.978838 0.718698 0.381146
O O20 0.094214 0.000000 0.160103
O O21 0.122002 0.500000 0.526401
#
# Coordination Sequence:
#
# PCOD8059391 Si02
#       8
#     4   4   4   4   4   4   4   4
#     4   9  17  28  42  60  81 109 149 188 213 246
#     4   9  17  30  47  66  89 120 149 174 219 273
#     4  10  19  29  43  65  92 119 149 182 216 256
#     4   9  19  32  42  59  89 122 150 177 218 268
#     4   8  15  28  44  63  88 116 146 177 216 268
#     4   9  17  31  49  68  88 113 150 188 221 258
#     4  10  19  31  45  60  87 122 148 179 224 263
#     4   8  16  31  49  67  89 115 144 184 227 264
#
# _framework density 16.669426999999999
#
# number of rings (size 3 to 8) (size 9 to 14) (size 15 to 20)
#    0.000    3.000    0.000    2.625    1.750    5.250 
#    0.000    1.875    0.000    0.000    0.000    0.875 
#    0.000    7.000    0.000    0.000    0.000    0.000 
#
# Total GULP energy -396577.905927 kJ/mol
# GULP energy per Si atom -12393.059560 kJ/mol
# Density = 1.663149 g / cm^3
# Si number density = 16.669427 Si / 1000 Ang^3
#
#
#
# Elastic Constant Matrix: (Units=GPa)
#
#
# Indices 1 2 3 4 5 6 
#
# 1 56.4364 17.3477 22.8544 0.0000 -8.9134 0.0000
# 2 17.3477 68.3007 37.2599 0.0000 -4.8327 0.0000
# 3 22.8544 37.2599 85.3395 0.0000 -5.3008 0.0000
# 4 0.0000 0.0000 0.0000 24.0915 0.0000 -2.1030
# 5 -8.9134 -4.8327 -5.3008 0.0000 21.4039 0.0000
# 6 0.0000 0.0000 0.0000 -2.1030 0.0000 14.8961
#
#
#
# Elastic Compliance Matrix: (Units=1/GPa)
#
#
# Indices 1 2 3 4 5 6 
#
# 1 0.021349 -0.002672 -0.004099 0.000000 0.007272 0.000000
# 2 -0.002672 0.019665 -0.007783 0.000000 0.001400 0.000000
# 3 -0.004099 -0.007783 0.016249 0.000000 0.000560 0.000000
# 4 0.000000 0.000000 0.000000 0.042026 0.000000 0.005933
# 5 0.007272 0.001400 0.000560 0.000000 0.050204 0.000000
# 6 0.000000 0.000000 0.000000 0.005933 0.000000 0.067969
#
#
# Mechanical properties :
#
#
# Convention : Reuss Voigt Hill
#
# Bulk Modulus (GPa) = 35.51897 40.55562 38.03730
# Shear Modulus (GPa) = 19.53471 20.91926 20.22698
#
# Velocity S-wave (km/s) = 3.42700 3.54637 3.48719
# Velocity P-wave (km/s) = 6.08385 6.41491 6.25157
#
# Compressibility (1/GPa) = 0.02815397
#
# Stress axis : x y z
#
# Youngs Moduli (GPa) = 46.84104 50.85228 61.54326
#
# Poissons Ratio (x) = 0.13586 0.25228
# Poissons Ratio (y) = 0.12514 0.47901
# Poissons Ratio (z) = 0.19201 0.39580
#
# Static dielectric constant tensor:
#      x y z
#    x 3.318000 0.000000 -0.155600 
#    y 0.000000 3.100730 0.000000 
#    z -0.155600 0.000000 3.101960 
# 
# 
# High freq. dielectric constant tensor:
#      x y z
#    x 1.610130 0.000000 -0.017060 
#    y 0.000000 1.635400 0.000000 
#    z -0.017060 0.000000 1.631060 
# 
# From -- ./inp_files/68212.got.cif
#   From: 2010.06.25/outbox.cif.g09.slc.cpg/sg10_35_cif.got.tgz:68212.got - 2010.06.27 22:07:45.
