data_PCOD8059683
_publ_section_title
;
Structure prediction by ZEFSAII (Michael W. Deem and Ramdas Pophale) SiO2 
 PCOD8059683
Probable space group: P 2/M
;
_chemical_formula_sum "Si O2"
_cell_formula_units_Z 28
_cell_length_a 5.108562
_cell_length_b 23.253471
_cell_length_c 13.522271
_cell_angle_alpha 90.000000
_cell_angle_beta 78.764756
_cell_angle_gamma 90.000000
_cell_volume 1575.550271
_symmetry_space_group_name_H-M "P 2/M"
_symmetry_group_IT_number 10
_symmetry_cell_setting 'monoclinic'
loop_
_space_group_symop_operation_xyz
x,y,z
-x,y,-z
-x,-y,-z
x,-y,z
loop_
_atom_site_type_symbol
_atom_site_label
_atom_site_fract_x
_atom_site_fract_y
_atom_site_fract_z
Si Si1 0.634703 0.384074 0.883034
Si Si2 0.176826 0.433514 0.785238
Si Si3 0.213601 0.267401 0.066170
Si Si4 0.780469 0.431624 0.442012
Si Si5 0.535664 0.931911 0.387774
Si Si6 0.209282 0.140668 0.068200
Si Si7 0.094359 0.931935 0.265790
O O1 0.408419 0.396476 0.819284
O O2 0.754575 0.319464 0.857505
O O3 0.886051 0.426867 0.856368
O O4 0.500000 0.390758 0.000000
O O5 0.262208 0.500000 0.785828
O O6 0.158251 0.411636 0.673851
O O7 0.132853 0.204885 0.115501
O O8 0.500000 0.256585 0.000000
O O9 0.000000 0.287936 0.000000
O O10 0.500000 0.406685 0.500000
O O11 0.781836 0.500000 0.447178
O O12 0.000000 0.405705 0.500000
O O13 0.500000 0.905320 0.500000
O O14 0.286678 0.912811 0.340410
O O15 0.803144 0.908505 0.316340
O O16 0.557958 0.000000 0.395081
O O17 0.193178 0.096301 0.158141
O O18 0.500000 0.137063 0.000000
O O19 0.000000 0.122239 0.000000
O O20 0.100196 0.000000 0.249024
#
# Coordination Sequence:
#
# PCOD8059683 Si02
#       7
#     4   4   4   4   4   4   4
#     4  11  21  34  50  70 100 133 163 196 233 282
#     4  11  22  33  49  76 103 128 159 192 241 300
#     4   9  18  34  52  68  89 125 173 210 230 263
#     4   9  17  31  49  68  93 123 156 195 231 269
#     4   9  17  30  47  68  97 131 167 205 239 280
#     4  10  20  33  50  72  99 129 163 202 239 283
#     4  10  19  30  47  74 103 130 161 196 247 303
#
# _framework density 17.771567000000001
#
# number of rings (size 3 to 8) (size 9 to 14) (size 15 to 20)
#    0.000    2.143    0.000    4.714    0.000    6.286 
#    0.000    0.000    0.000    0.000    0.000   10.000 
#    0.000    0.000    0.000    0.000    0.000    0.000 
#
# Total GULP energy -347102.414381 kJ/mol
# GULP energy per Si atom -12396.514799 kJ/mol
# Density = 1.773112 g / cm^3
# Si number density = 17.771567 Si / 1000 Ang^3
#
#
#
# Elastic Constant Matrix: (Units=GPa)
#
#
# Indices 1 2 3 4 5 6 
#
# 1 119.8305 30.6041 38.9428 0.0000 8.9113 0.0000
# 2 30.6041 51.8736 47.2276 0.0000 10.3175 0.0000
# 3 38.9428 47.2276 103.4509 0.0000 9.0220 0.0000
# 4 0.0000 0.0000 0.0000 1.7090 0.0000 4.2207
# 5 8.9113 10.3175 9.0220 0.0000 34.9022 0.0000
# 6 0.0000 0.0000 0.0000 4.2207 0.0000 19.3260
#
#
#
# Elastic Compliance Matrix: (Units=1/GPa)
#
#
# Indices 1 2 3 4 5 6 
#
# 1 0.010051 -0.004072 -0.001848 0.000000 -0.000885 0.000000
# 2 -0.004072 0.035911 -0.014350 0.000000 -0.005867 0.000000
# 3 -0.001848 -0.014350 0.016882 0.000000 0.000350 0.000000
# 4 0.000000 0.000000 0.000000 1.270194 0.000000 -0.277401
# 5 -0.000885 -0.005867 0.000350 0.000000 0.030521 0.000000
# 6 0.000000 0.000000 0.000000 -0.277401 0.000000 0.112326
#
#
# Mechanical properties :
#
#
# Convention : Reuss Voigt Hill
#
# Bulk Modulus (GPa) = 44.83001 56.52268 50.67634
# Shear Modulus (GPa) = 3.28114 21.74615 12.51364
#
# Velocity S-wave (km/s) = 1.36026 3.50186 2.65644
# Velocity P-wave (km/s) = 5.26759 6.94441 6.16329
#
# Compressibility (1/GPa) = 0.02230649
#
# Stress axis : x y z
#
# Youngs Moduli (GPa) = 99.48950 27.84627 59.23296
#
# Poissons Ratio (x) = 0.11339 0.10944
# Poissons Ratio (y) = 0.40511 0.84999
# Poissons Ratio (z) = 0.18382 0.39959
#
# Static dielectric constant tensor:
#      x y z
#    x 3.560530 0.000000 0.039180 
#    y 0.000000 3.219810 0.000000 
#    z 0.039180 0.000000 3.249910 
# 
# 
# High freq. dielectric constant tensor:
#      x y z
#    x 1.715540 0.000000 0.004490 
#    y 0.000000 1.649300 0.000000 
#    z 0.004490 0.000000 1.674520 
# 
# From -- ./inp_files/39871.got.cif
#   From: 2010.06.25/outbox.cif.g09.slc.cpg/sg10_20_cif.got.tgz:39871.got - 2010.06.27 22:07:45.
