data_PCOD8059259
_publ_section_title
;
Structure prediction by ZEFSAII (Michael W. Deem and Ramdas Pophale) SiO2 
 PCOD8059259
Probable space group: P 2/M
;
_chemical_formula_sum "Si O2"
_cell_formula_units_Z 28
_cell_length_a 5.041349
_cell_length_b 20.085313
_cell_length_c 13.437780
_cell_angle_alpha 90.000000
_cell_angle_beta 101.776577
_cell_angle_gamma 90.000000
_cell_volume 1332.029390
_symmetry_space_group_name_H-M "P 2/M"
_symmetry_group_IT_number 10
_symmetry_cell_setting 'monoclinic'
loop_
_space_group_symop_operation_xyz
x,y,z
-x,y,-z
-x,-y,-z
x,-y,z
loop_
_atom_site_type_symbol
_atom_site_label
_atom_site_fract_x
_atom_site_fract_y
_atom_site_fract_z
Si Si1 0.010948 0.386685 0.113894
Si Si2 0.683957 0.214513 0.303693
Si Si3 0.995150 0.099969 0.889221
Si Si4 0.111213 0.759395 0.176389
Si Si5 0.578276 0.072585 0.239416
Si Si6 0.579220 0.575063 0.237076
Si Si7 0.287807 0.666228 0.566371
O O1 0.031971 0.307135 0.113547
O O2 0.261311 0.418340 0.191806
O O3 0.737667 0.408687 0.147850
O O4 0.000000 0.413017 0.000000
O O5 0.434115 0.238401 0.216409
O O6 0.665947 0.134000 0.318473
O O7 0.681678 0.254616 0.407556
O O8 0.964484 0.234821 0.272246
O O9 0.267028 0.078412 0.853719
O O10 0.986172 0.179715 0.899079
O O11 0.740783 0.074295 0.806542
O O12 0.000000 0.068827 0.000000
O O13 0.643018 0.000000 0.293471
O O14 0.640253 0.500000 0.277072
O O15 0.669485 0.625332 0.329697
O O16 0.500000 0.644039 0.500000
O O17 0.000000 0.648338 0.500000
#
# Coordination Sequence:
#
# PCOD8059259 Si02
#       7
#     4   4   4   4   4   4   4
#     4  12  23  40  67  92 127 173 213 249 298 359
#     4  10  20  38  61  85 120 151 196 254 300 355
#     4  10  20  31  49  79 115 153 205 254 288 344
#     4  10  18  36  58  84 118 158 202 251 300 341
#     4  10  21  34  53  78 113 162 195 235 307 361
#     4  12  27  45  63  93 133 163 201 258 307 364
#     4  12  24  42  71  95 118 156 206 254 321 380
#
# _framework density 21.020557
#
# number of rings (size 3 to 8) (size 9 to 14) (size 15 to 20)
#    0.000    1.143    2.857    3.857    0.000    4.000 
#    0.000    4.286    0.000    0.857    0.000    0.000 
#    0.000    0.000    0.000    0.000    0.000    0.000 
#
# Total GULP energy -347237.059760 kJ/mol
# GULP energy per Si atom -12401.323563 kJ/mol
# Density = 2.097271 g / cm^3
# Si number density = 21.020557 Si / 1000 Ang^3
#
#
#
# Elastic Constant Matrix: (Units=GPa)
#
#
# Indices 1 2 3 4 5 6 
#
# 1 91.6397 13.9657 14.1153 0.0000 -4.1249 0.0000
# 2 13.9657 139.7826 26.3232 0.0000 -1.9631 0.0000
# 3 14.1153 26.3232 77.7139 0.0000 -2.7863 0.0000
# 4 0.0000 0.0000 0.0000 -2.1477 0.0000 5.9480
# 5 -4.1249 -1.9631 -2.7863 0.0000 28.0570 0.0000
# 6 0.0000 0.0000 0.0000 5.9480 0.0000 5.8882
#
#
#
# Elastic Compliance Matrix: (Units=1/GPa)
#
#
# Indices 1 2 3 4 5 6 
#
# 1 0.011366 -0.000786 -0.001746 0.000000 0.001443 0.000000
# 2 -0.000786 0.007698 -0.002458 0.000000 0.000179 0.000000
# 3 -0.001746 -0.002458 0.014052 0.000000 0.000967 0.000000
# 4 0.000000 0.000000 0.000000 -0.122607 0.000000 0.123853
# 5 0.001443 0.000179 0.000967 0.000000 0.035962 0.000000
# 6 0.000000 0.000000 0.000000 0.123853 0.000000 0.044721
#
#
# Mechanical properties :
#
#
# Convention : Reuss Voigt Hill
#
# Bulk Modulus (GPa) = 43.22591 46.43829 44.83210
# Shear Modulus (GPa) = 562.73555 23.34165 293.03860
#
# Velocity S-wave (km/s) = 16.37951 3.33591 11.81983
# Velocity P-wave (km/s) = 19.45061 6.08092 14.41013
#
# Compressibility (1/GPa) = 0.02313427
#
# Stress axis : x y z
#
# Youngs Moduli (GPa) = 87.98113 129.90443 71.16322
#
# Poissons Ratio (x) = 0.10217 0.12427
# Poissons Ratio (y) = 0.06919 0.17493
# Poissons Ratio (z) = 0.15364 0.31933
#
# Static dielectric constant tensor:
#      x y z
#    x 3.920620 0.000000 -0.059330 
#    y 0.000000 4.202880 0.000000 
#    z -0.059330 0.000000 3.335540 
# 
# 
# High freq. dielectric constant tensor:
#      x y z
#    x 1.843120 0.000000 -0.002250 
#    y 0.000000 1.838950 0.000000 
#    z -0.002250 0.000000 1.777980 
# 
# From -- ./inp_files/39767.got.cif
#   From: 2010.06.25/outbox.cif.g09.slc.cpg/sg10_20_cif.got.tgz:39767.got - 2010.06.27 22:07:45.
