data_PCOD8059966
_publ_section_title
;
Structure prediction by ZEFSAII (Michael W. Deem and Ramdas Pophale) SiO2 
 PCOD8059966
Probable space group: P 2/M
;
_chemical_formula_sum "Si O2"
_cell_formula_units_Z 32
_cell_length_a 17.768578
_cell_length_b 8.963619
_cell_length_c 24.010266
_cell_angle_alpha 90.000000
_cell_angle_beta 30.467148
_cell_angle_gamma 90.000000
_cell_volume 1939.004820
_symmetry_space_group_name_H-M "P 2/M"
_symmetry_group_IT_number 10
_symmetry_cell_setting 'monoclinic'
loop_
_space_group_symop_operation_xyz
x,y,z
-x,y,-z
-x,-y,-z
x,-y,z
loop_
_atom_site_type_symbol
_atom_site_label
_atom_site_fract_x
_atom_site_fract_y
_atom_site_fract_z
Si Si1 0.436582 0.823509 0.980924
Si Si2 0.276096 0.675803 0.406949
Si Si3 0.402185 0.173294 0.430294
Si Si4 0.383979 0.176241 0.616633
Si Si5 0.150237 0.173632 0.682380
Si Si6 0.872372 0.323308 0.812687
Si Si7 0.952175 0.676301 0.639422
Si Si8 0.667597 0.675627 0.753705
O O1 0.543635 0.769410 0.863952
O O2 0.420772 0.000000 0.988956
O O3 0.500000 0.769260 0.000000
O O4 0.278280 0.750310 0.070054
O O5 0.267327 0.500000 0.418446
O O6 0.386256 0.736642 0.383549
O O7 0.339782 0.720451 0.306241
O O8 0.110889 0.744665 0.520310
O O9 0.561979 0.223468 0.355714
O O10 0.268443 0.209583 0.558270
O O11 0.402846 0.000000 0.414702
O O12 0.500000 0.250732 0.500000
O O13 0.219203 0.218127 0.699536
O O14 0.402155 0.000000 0.600961
O O15 0.005189 0.274206 0.768391
O O16 0.105769 0.000000 0.709118
O O17 0.854585 0.500000 0.825603
O O18 0.906694 0.261892 0.728936
O O19 0.965310 0.500000 0.633774
O O20 0.829048 0.724380 0.673259
O O21 0.640665 0.500000 0.780810
#
# Coordination Sequence:
#
# PCOD8059966 Si02
#       8
#     4   4   4   4   4   4   4   4
#     4  11  23  37  52  70  94 122 160 209 252 285
#     4  10  19  31  48  72 100 129 164 200 236 282
#     4   9  16  27  45  68  97 132 164 193 233 284
#     4   7  12  24  42  64  92 129 164 191 226 281
#     4   9  16  28  46  69  98 128 162 200 237 278
#     4  11  20  31  51  73  96 128 164 198 240 291
#     4   9  17  30  48  69  95 127 161 196 232 281
#     4  10  20  35  53  69  91 129 170 203 238 284
#
# _framework density 16.503311
#
# number of rings (size 3 to 8) (size 9 to 14) (size 15 to 20)
#    0.000    2.500    2.500    2.625    0.000    2.500 
#    0.000    1.250    0.000    3.750    0.000    0.875 
#    0.000    7.000    0.000    0.000    0.000    0.000 
#
# Total GULP energy -396598.446125 kJ/mol
# GULP energy per Si atom -12393.701441 kJ/mol
# Density = 1.646575 g / cm^3
# Si number density = 16.503311 Si / 1000 Ang^3
#
#
#
# Elastic Constant Matrix: (Units=GPa)
#
#
# Indices 1 2 3 4 5 6 
#
# 1 148.6171 32.8104 57.0356 0.0000 -6.1942 0.0000
# 2 32.8104 36.4108 30.7896 0.0000 -0.3028 0.0000
# 3 57.0356 30.7896 74.2935 0.0000 4.0780 0.0000
# 4 0.0000 0.0000 0.0000 19.6237 0.0000 -1.5448
# 5 -6.1942 -0.3028 4.0780 0.0000 18.0069 0.0000
# 6 0.0000 0.0000 0.0000 -1.5448 0.0000 25.6844
#
#
#
# Elastic Compliance Matrix: (Units=1/GPa)
#
#
# Indices 1 2 3 4 5 6 
#
# 1 0.010296 -0.003572 -0.006699 0.000000 0.004999 0.000000
# 2 -0.003572 0.043925 -0.015629 0.000000 0.003049 0.000000
# 3 -0.006699 -0.015629 0.025538 0.000000 -0.008351 0.000000
# 4 0.000000 0.000000 0.000000 0.051201 0.000000 0.003080
# 5 0.004999 0.003049 -0.008351 0.000000 0.059196 0.000000
# 6 0.000000 0.000000 0.000000 0.003080 0.000000 0.039119
#
#
# Mechanical properties :
#
#
# Convention : Reuss Voigt Hill
#
# Bulk Modulus (GPa) = 35.76524 55.62137 45.69331
# Shear Modulus (GPa) = 17.21792 21.90872 19.56332
#
# Velocity S-wave (km/s) = 3.23352 3.64749 3.44672
# Velocity P-wave (km/s) = 5.97156 7.17741 6.60207
#
# Compressibility (1/GPa) = 0.02796011
#
# Stress axis : x y z
#
# Youngs Moduli (GPa) = 97.12079 22.76623 39.15728
#
# Poissons Ratio (x) = 0.08133 0.26230
# Poissons Ratio (y) = 0.34695 0.61198
# Poissons Ratio (z) = 0.65057 0.35581
#
# Static dielectric constant tensor:
#      x y z
#    x 3.375990 0.000000 -0.126010 
#    y 0.000000 2.845450 0.000000 
#    z -0.126010 0.000000 2.900100 
# 
# 
# High freq. dielectric constant tensor:
#      x y z
#    x 1.644790 0.000000 -0.013000 
#    y 0.000000 1.613530 0.000000 
#    z -0.013000 0.000000 1.601930 
# 
# From -- ./inp_files/56476.got.cif
#   From: 2010.06.25/outbox.cif.g09.slc.cpg/sg10_29_cif.got.tgz:56476.got - 2010.06.27 22:07:45.
