data_PCOD8059705
_publ_section_title
;
Structure prediction by ZEFSAII (Michael W. Deem and Ramdas Pophale) SiO2 
 PCOD8059705
Probable space group: P 2/M
;
_chemical_formula_sum "Si O2"
_cell_formula_units_Z 32
_cell_length_a 23.733478
_cell_length_b 9.130092
_cell_length_c 17.782407
_cell_angle_alpha 90.000000
_cell_angle_beta 149.744747
_cell_angle_gamma 90.000000
_cell_volume 1941.471788
_symmetry_space_group_name_H-M "P 2/M"
_symmetry_group_IT_number 10
_symmetry_cell_setting 'monoclinic'
loop_
_space_group_symop_operation_xyz
x,y,z
-x,y,-z
-x,-y,-z
x,-y,z
loop_
_atom_site_type_symbol
_atom_site_label
_atom_site_fract_x
_atom_site_fract_y
_atom_site_fract_z
Si Si1 0.174553 0.673105 0.840810
Si Si2 0.921123 0.672449 0.586756
Si Si3 0.526264 0.827797 0.446315
Si Si4 0.078435 0.170119 0.265026
Si Si5 0.135209 0.671075 0.045366
Si Si6 0.878497 0.326437 0.377351
Si Si7 0.779258 0.169017 0.715513
Si Si8 0.674481 0.671083 0.853046
O O1 0.182600 0.500000 0.856358
O O2 0.200416 0.725599 0.783726
O O3 0.049855 0.718902 0.721680
O O4 0.265658 0.738617 0.003468
O O5 0.910688 0.500000 0.591577
O O6 0.873566 0.763787 0.601979
O O7 0.846789 0.717642 0.426677
O O8 0.500000 0.772181 0.500000
O O9 0.651044 0.779477 0.568264
O O10 0.443069 0.751657 0.291910
O O11 0.508500 0.000000 0.419117
O O12 0.173923 0.195815 0.313439
O O13 0.050409 0.000000 0.242489
O O14 0.966043 0.253596 0.114200
O O15 0.108899 0.500000 0.020721
O O16 0.147157 0.736508 0.142256
O O17 0.248315 0.702561 0.130103
O O18 0.886651 0.500000 0.383562
O O19 0.000000 0.260088 0.500000
O O20 0.789632 0.000000 0.752293
O O21 0.650632 0.500000 0.834583
#
# Coordination Sequence:
#
# PCOD8059705 Si02
#       8
#     4   4   4   4   4   4   4   4
#     4   8  13  25  43  68  98 123 149 184 229 278
#     4   9  15  27  46  69  95 123 157 189 222 272
#     4  10  20  35  53  67  85 119 161 200 235 276
#     4  11  22  33  47  67  96 130 159 189 230 279
#     4  11  21  33  50  72  96 122 155 194 232 274
#     4   7  11  20  41  67  91 122 153 181 219 274
#     4  10  22  38  50  65  90 124 163 198 234 277
#     4  10  19  30  48  73  98 121 149 191 236 277
#
# _framework density 16.482341000000002
#
# number of rings (size 3 to 8) (size 9 to 14) (size 15 to 20)
#    0.000    2.500    2.500    2.625    0.000    3.750 
#    0.000    0.000    0.000    4.125    0.000    0.875 
#    0.000    7.000    0.000    0.000    0.000    0.000 
#
# Total GULP energy -396570.053519 kJ/mol
# GULP energy per Si atom -12392.814172 kJ/mol
# Density = 1.644483 g / cm^3
# Si number density = 16.482341 Si / 1000 Ang^3
#
#
#
# Elastic Constant Matrix: (Units=GPa)
#
#
# Indices 1 2 3 4 5 6 
#
# 1 91.3478 39.4008 43.1017 0.0000 -26.6873 0.0000
# 2 39.4008 49.0497 25.3386 0.0000 -8.3914 0.0000
# 3 43.1017 25.3386 70.8358 0.0000 -24.9049 0.0000
# 4 0.0000 0.0000 0.0000 13.5541 0.0000 4.7035
# 5 -26.6873 -8.3914 -24.9049 0.0000 33.3050 0.0000
# 6 0.0000 0.0000 0.0000 4.7035 0.0000 15.5980
#
#
#
# Elastic Compliance Matrix: (Units=1/GPa)
#
#
# Indices 1 2 3 4 5 6 
#
# 1 0.022212 -0.013461 -0.004931 0.000000 0.010719 0.000000
# 2 -0.013461 0.033173 -0.006145 0.000000 -0.007023 0.000000
# 3 -0.004931 -0.006145 0.023582 0.000000 0.012135 0.000000
# 4 0.000000 0.000000 0.000000 0.082401 0.000000 -0.024847
# 5 0.010719 -0.007023 0.012135 0.000000 0.045919 0.000000
# 6 0.000000 0.000000 0.000000 -0.024847 0.000000 0.071603
#
#
# Mechanical properties :
#
#
# Convention : Reuss Voigt Hill
#
# Bulk Modulus (GPa) = 33.45323 47.43506 40.44414
# Shear Modulus (GPa) = 14.79599 19.38424 17.09011
#
# Velocity S-wave (km/s) = 2.99939 3.43309 3.22355
# Velocity P-wave (km/s) = 5.68644 6.67508 6.20049
#
# Compressibility (1/GPa) = 0.02989248
#
# Stress axis : x y z
#
# Youngs Moduli (GPa) = 45.02150 30.14474 42.40463
#
# Poissons Ratio (x) = 0.40577 0.20912
# Poissons Ratio (y) = 0.60603 0.26058
# Poissons Ratio (z) = 0.22202 0.18524
#
# Static dielectric constant tensor:
#      x y z
#    x 3.208390 0.000000 -0.378640 
#    y 0.000000 2.891190 0.000000 
#    z -0.378640 0.000000 3.217440 
# 
# 
# High freq. dielectric constant tensor:
#      x y z
#    x 1.622470 0.000000 -0.029190 
#    y 0.000000 1.612340 0.000000 
#    z -0.029190 0.000000 1.621410 
# 
# From -- ./inp_files/56437.got.cif
#   From: 2010.06.25/outbox.cif.g09.slc.cpg/sg10_29_cif.got.tgz:56437.got - 2010.06.27 22:07:45.
