data_PCOD8059535
_publ_section_title
;
Structure prediction by ZEFSAII (Michael W. Deem and Ramdas Pophale) SiO2 
 PCOD8059535
Probable space group: P 2/M
;
_chemical_formula_sum "Si O2"
_cell_formula_units_Z 22
_cell_length_a 15.253600
_cell_length_b 16.460640
_cell_length_c 13.672510
_cell_angle_alpha 90.000000
_cell_angle_beta 160.877582
_cell_angle_gamma 90.000000
_cell_volume 1124.591450
_symmetry_space_group_name_H-M "P 2/M"
_symmetry_group_IT_number 10
_symmetry_cell_setting 'monoclinic'
loop_
_space_group_symop_operation_xyz
x,y,z
-x,y,-z
-x,-y,-z
x,-y,z
loop_
_atom_site_type_symbol
_atom_site_label
_atom_site_fract_x
_atom_site_fract_y
_atom_site_fract_z
Si Si1 0.280945 0.000000 0.348642
Si Si2 0.501153 0.680191 0.617026
Si Si3 0.436856 0.907169 0.828586
Si Si4 0.149228 0.167294 0.260941
Si Si5 0.007881 0.591072 0.124853
Si Si6 0.871332 0.905221 0.138904
O O1 0.500000 0.000000 0.500000
O O2 0.311057 0.918175 0.443216
O O3 0.000000 0.000000 0.000000
O O4 0.500000 0.671971 0.500000
O O5 0.380996 0.766969 0.523043
O O6 0.312044 0.614229 0.472179
O O7 0.808396 0.656579 0.967690
O O8 0.125373 0.898668 0.478144
O O9 0.533141 0.000000 0.936907
O O10 0.500000 0.864908 0.000000
O O11 0.618121 0.870179 0.932135
O O12 0.915966 0.158771 0.096247
O O13 0.000000 0.182306 0.000000
O O14 0.937941 0.500000 0.086145
O O15 0.000000 0.598706 0.000000
O O16 0.835403 0.000000 0.063872
#
# Coordination Sequence:
#
# PCOD8059535 Si02
#       6
#     2   4   4   4   4   4
#     4  10  22  34  46  58  81 128 171 204 230 250
#     4  10  19  30  45  64  88 121 158 199 241 278
#     4   9  18  33  52  70  88 109 149 208 258 295
#     4  11  22  36  47  67  98 135 171 205 232 273
#     4   9  17  30  47  65  83 108 152 206 249 284
#     4  10  20  33  49  70  90 122 162 199 243 286
#
# _framework density 19.562660000000001
#
# number of rings (size 3 to 8) (size 9 to 14) (size 15 to 20)
#    0.000    2.182    0.909    3.273    0.000   11.636 
#    0.000    0.000    0.000    0.000    0.000    0.000 
#    0.000    0.000    0.000    0.000    0.000   63.636 
#
# Total GULP energy -272540.408587 kJ/mol
# GULP energy per Si atom -12388.200390 kJ/mol
# Density = 1.951813 g / cm^3
# Si number density = 19.562660 Si / 1000 Ang^3
#
#
#
# Elastic Constant Matrix: (Units=GPa)
#
#
# Indices 1 2 3 4 5 6 
#
# 1 77.2490 17.9555 13.1261 0.0000 13.8368 0.0000
# 2 17.9555 102.5379 15.8668 0.0000 19.0228 0.0000
# 3 13.1261 15.8668 51.3622 0.0000 30.8943 0.0000
# 4 0.0000 0.0000 0.0000 21.7945 0.0000 13.4096
# 5 13.8368 19.0228 30.8943 0.0000 34.2605 0.0000
# 6 0.0000 0.0000 0.0000 13.4096 0.0000 11.4539
#
#
#
# Elastic Compliance Matrix: (Units=1/GPa)
#
#
# Indices 1 2 3 4 5 6 
#
# 1 0.014187 -0.001591 -0.000479 0.000000 -0.004415 0.000000
# 2 -0.001591 0.011059 0.000649 0.000000 -0.006084 0.000000
# 3 -0.000479 0.000649 0.042596 0.000000 -0.038578 0.000000
# 4 0.000000 0.000000 0.000000 0.164060 0.000000 -0.192072
# 5 -0.004415 -0.006084 -0.038578 0.000000 0.069136 0.000000
# 6 0.000000 0.000000 0.000000 -0.192072 0.000000 0.312173
#
#
# Mechanical properties :
#
#
# Convention : Reuss Voigt Hill
#
# Bulk Modulus (GPa) = 15.38434 36.11620 25.75027
# Shear Modulus (GPa) = 7.84044 25.78184 16.81114
#
# Velocity S-wave (km/s) = 2.00414 3.63424 2.93464
# Velocity P-wave (km/s) = 3.63822 6.00934 4.96733
#
# Compressibility (1/GPa) = 0.06500117
#
# Stress axis : x y z
#
# Youngs Moduli (GPa) = 70.48657 90.42199 23.47649
#
# Poissons Ratio (x) = 0.14388 0.01124
# Poissons Ratio (y) = 0.11216 -0.01525
# Poissons Ratio (z) = 0.03374 -0.05873
#
# Static dielectric constant tensor:
#      x y z
#    x 3.439930 0.000000 0.457580 
#    y 0.000000 3.561430 0.000000 
#    z 0.457580 0.000000 3.848550 
# 
# 
# High freq. dielectric constant tensor:
#      x y z
#    x 1.712590 0.000000 0.041060 
#    y 0.000000 1.725740 0.000000 
#    z 0.041060 0.000000 1.780340 
# 
# From -- ./inp_files/67767.got.cif
#   From: 2010.06.25/outbox.cif.g09.slc.cpg/sg10_34_cif.got.tgz:67767.got - 2010.06.27 22:07:45.
