data_PCOD8059362
_publ_section_title
;
Structure prediction by ZEFSAII (Michael W. Deem and Ramdas Pophale) SiO2 
 PCOD8059362
Probable space group: P 2/M
;
_chemical_formula_sum "Si O2"
_cell_formula_units_Z 28
_cell_length_a 27.200637
_cell_length_b 13.901150
_cell_length_c 8.967685
_cell_angle_alpha 90.000000
_cell_angle_beta 145.509290
_cell_angle_gamma 90.000000
_cell_volume 1920.152406
_symmetry_space_group_name_H-M "P 2/M"
_symmetry_group_IT_number 10
_symmetry_cell_setting 'monoclinic'
loop_
_space_group_symop_operation_xyz
x,y,z
-x,y,-z
-x,-y,-z
x,-y,z
loop_
_atom_site_type_symbol
_atom_site_label
_atom_site_fract_x
_atom_site_fract_y
_atom_site_fract_z
Si Si1 0.240819 0.387947 0.927777
Si Si2 0.999999 0.110809 0.323574
Si Si3 0.759180 0.612053 0.723679
Si Si4 0.095893 0.735068 0.408347
Si Si5 0.904106 0.735068 0.928878
Si Si6 0.585145 0.614544 0.131074
Si Si7 0.585145 0.614543 0.794652
O O1 0.228307 0.500000 0.860995
O O2 0.159999 0.333271 0.656744
O O3 0.245541 0.367384 0.113853
O O4 0.329481 0.348464 0.077068
O O5 0.913912 0.161738 0.037969
O O6 0.000000 0.124853 0.500000
O O7 0.086086 0.161737 0.468402
O O8 0.999999 0.000000 0.276697
O O9 0.771692 0.500000 0.719457
O O10 0.670518 0.651537 0.429662
O O11 0.840001 0.666728 0.856746
O O12 0.999999 0.685639 0.167106
O O13 0.129640 0.751478 0.324100
O O14 0.582192 0.500000 0.125622
O O15 0.500000 0.656316 0.000000
O O16 0.586903 0.654113 0.967258
O O17 0.500000 0.656317 0.500000
O O18 0.582193 0.500000 0.785341
#
# Coordination Sequence:
#
# PCOD8059362 Si02
#       7
#     4   4   4   4   4   4   4
#     4  10  19  29  42  60  85 117 150 182 215 251
#     4   9  17  31  50  67  84 107 135 172 216 257
#     4  10  19  29  42  60  85 117 150 182 215 251
#     4   9  19  31  44  63  86 113 143 177 212 253
#     4   9  19  31  44  63  86 113 143 177 212 253
#     4   9  16  26  40  57  79 108 144 182 217 252
#     4   9  16  26  40  57  79 108 144 182 217 252
#
# _framework density 14.582176
#
# number of rings (size 3 to 8) (size 9 to 14) (size 15 to 20)
#    0.857    1.857    0.000    2.571    0.000    6.857 
#    0.000    2.857    0.000    0.000    0.000    0.000 
#    0.000    1.143    0.000    4.286    0.000    6.571 
#
# Total GULP energy -347013.110269 kJ/mol
# GULP energy per Si atom -12393.325367 kJ/mol
# Density = 1.454899 g / cm^3
# Si number density = 14.582176 Si / 1000 Ang^3
#
#
#
# Elastic Constant Matrix: (Units=GPa)
#
#
# Indices 1 2 3 4 5 6 
#
# 1 121.3499 48.5978 53.6944 0.0000 -3.0217 0.0000
# 2 48.5978 49.7293 45.9107 0.0000 -4.4066 0.0000
# 3 53.6944 45.9107 115.4285 0.0000 -6.6878 0.0000
# 4 0.0000 0.0000 0.0000 5.2424 0.0000 -8.6044
# 5 -3.0217 -4.4066 -6.6878 0.0000 26.8954 0.0000
# 6 0.0000 0.0000 0.0000 -8.6044 0.0000 10.4894
#
#
#
# Elastic Compliance Matrix: (Units=1/GPa)
#
#
# Indices 1 2 3 4 5 6 
#
# 1 0.013756 -0.011955 -0.001693 0.000000 -0.000834 0.000000
# 2 -0.011955 0.042283 -0.011093 0.000000 0.002826 0.000000
# 3 -0.001693 -0.011093 0.013947 0.000000 0.001460 0.000000
# 4 0.000000 0.000000 0.000000 -0.550746 0.000000 -0.451774
# 5 -0.000834 0.002826 0.001460 0.000000 0.037914 0.000000
# 6 0.000000 0.000000 0.000000 -0.451774 0.000000 -0.275254
#
#
# Mechanical properties :
#
#
# Convention : Reuss Voigt Hill
#
# Bulk Modulus (GPa) = 48.76496 64.76818 56.76657
# Shear Modulus (GPa) = -7.55534 17.74577 5.09521
#
# Velocity S-wave (km/s) = -2.27870 3.49226 1.87129
# Velocity P-wave (km/s) = 5.15663 7.79574 6.60925
#
# Compressibility (1/GPa) = 0.02050653
#
# Stress axis : x y z
#
# Youngs Moduli (GPa) = 72.69371 23.65007 71.69753
#
# Poissons Ratio (x) = 0.28273 0.12135
# Poissons Ratio (y) = 0.86903 0.79534
# Poissons Ratio (z) = 0.12304 0.26235
#
# Static dielectric constant tensor:
#      x y z
#    x 2.973380 0.000000 -0.084600 
#    y 0.000000 2.405640 0.000000 
#    z -0.084600 0.000000 2.921720 
# 
# 
# High freq. dielectric constant tensor:
#      x y z
#    x 1.573340 0.000000 -0.013460 
#    y 0.000000 1.499040 0.000000 
#    z -0.013460 0.000000 1.565130 
# 
# From -- ./inp_files/38265.got.cif
#   From: 2010.06.25/outbox.cif.g09.slc.cpg/sg10_20_cif.got.tgz:38265.got - 2010.06.27 22:07:45.
