data_PCOD8059038
_publ_section_title
;
Structure prediction by ZEFSAII (Michael W. Deem and Ramdas Pophale) SiO2 
 PCOD8059038
Probable space group: P 2/M
;
_chemical_formula_sum "Si O2"
_cell_formula_units_Z 32
_cell_length_a 23.732690
_cell_length_b 8.525643
_cell_length_c 14.604144
_cell_angle_alpha 90.000000
_cell_angle_beta 31.606080
_cell_angle_gamma 90.000000
_cell_volume 1548.619501
_symmetry_space_group_name_H-M "P 2/M"
_symmetry_group_IT_number 10
_symmetry_cell_setting 'monoclinic'
loop_
_space_group_symop_operation_xyz
x,y,z
-x,y,-z
-x,-y,-z
x,-y,z
loop_
_atom_site_type_symbol
_atom_site_label
_atom_site_fract_x
_atom_site_fract_y
_atom_site_fract_z
Si Si1 0.174823 0.687645 0.506984
Si Si2 0.606620 0.679987 0.406619
Si Si3 0.815836 0.820166 0.041327
Si Si4 0.742371 0.317991 0.961401
Si Si5 0.493157 0.317654 0.745524
Si Si6 0.007585 0.316233 0.886774
Si Si7 0.582678 0.687283 0.809303
Si Si8 0.100287 0.682117 0.415593
O O1 0.175117 0.500000 0.503973
O O2 0.108556 0.749910 0.687510
O O3 0.296828 0.752081 0.341671
O O4 0.119330 0.754399 0.490523
O O5 0.500000 0.724435 0.500000
O O6 0.639755 0.500000 0.340633
O O7 0.699414 0.795219 0.246599
O O8 0.584990 0.708888 0.543297
O O9 0.850083 0.000000 0.002473
O O10 0.813682 0.771448 0.937946
O O11 0.899343 0.715512 0.981326
O O12 0.741653 0.500000 0.990931
O O13 0.792253 0.292451 0.792244
O O14 0.621815 0.245757 0.125768
O O15 0.470288 0.500000 0.794136
O O16 0.538321 0.241864 0.775647
O O17 0.023655 0.500000 0.875518
O O18 0.000000 0.241130 0.000000
O O19 0.586023 0.500000 0.802948
O O20 0.500000 0.749071 0.000000
O O21 0.073495 0.500000 0.465788
O O22 0.000000 0.761369 0.500000
#
# Coordination Sequence:
#
# PCOD8059038 Si02
#       8
#     4   4   4   4   4   4   4   4
#     4   9  17  30  49  81 116 144 182 231 281 333
#     4  10  19  35  57  81 109 143 185 230 276 332
#     4  12  25  38  55  80 114 149 185 233 288 336
#     4  10  18  33  55  80 109 144 184 223 273 336
#     4   9  17  28  48  76 107 143 178 218 271 331
#     4  10  22  39  61  84 109 149 196 237 276 326
#     4   9  16  26  44  77 119 148 169 216 283 337
#     4   9  16  26  47  76 107 140 177 228 281 328
#
# _framework density 20.663565999999999
#
# number of rings (size 3 to 8) (size 9 to 14) (size 15 to 20)
#    0.000    2.250    1.250    2.625    1.750    5.500 
#    0.000    0.000    0.000    3.375    0.000    0.000 
#    0.000    2.500    0.000    0.000    0.000    0.000 
#
# Total GULP energy -396725.564933 kJ/mol
# GULP energy per Si atom -12397.673904 kJ/mol
# Density = 2.061653 g / cm^3
# Si number density = 20.663566 Si / 1000 Ang^3
#
#
#
# Elastic Constant Matrix: (Units=GPa)
#
#
# Indices 1 2 3 4 5 6 
#
# 1 164.5580 2.1924 64.9834 0.0000 11.6445 0.0000
# 2 2.1924 10.3254 10.7640 0.0000 -0.2780 0.0000
# 3 64.9834 10.7640 129.5525 0.0000 11.1184 0.0000
# 4 0.0000 0.0000 0.0000 5.9624 0.0000 -0.8555
# 5 11.6445 -0.2780 11.1184 0.0000 32.0744 0.0000
# 6 0.0000 0.0000 0.0000 -0.8555 0.0000 2.6455
#
#
#
# Elastic Compliance Matrix: (Units=1/GPa)
#
#
# Indices 1 2 3 4 5 6 
#
# 1 0.007702 0.002440 -0.003945 0.000000 -0.001407 0.000000
# 2 0.002440 0.107329 -0.010456 0.000000 0.003669 0.000000
# 3 -0.003945 -0.010456 0.010772 0.000000 -0.002392 0.000000
# 4 0.000000 0.000000 0.000000 0.175878 0.000000 0.056877
# 5 -0.001407 0.003669 -0.002392 0.000000 0.032550 0.000000
# 6 0.000000 0.000000 0.000000 0.056877 0.000000 0.396394
#
#
# Mechanical properties :
#
#
# Convention : Reuss Voigt Hill
#
# Bulk Modulus (GPa) = 9.81552 51.14617 30.48084
# Shear Modulus (GPa) = 6.34109 23.23620 14.78865
#
# Velocity S-wave (km/s) = 1.75368 3.35700 2.67814
# Velocity P-wave (km/s) = 2.97674 6.31122 4.93419
#
# Compressibility (1/GPa) = 0.10187947
#
# Stress axis : x y z
#
# Youngs Moduli (GPa) = 129.83792 9.31712 92.83455
#
# Poissons Ratio (x) = -0.02273 0.36625
# Poissons Ratio (y) = -0.31674 0.97069
# Poissons Ratio (z) = 0.51223 0.09742
#
# Static dielectric constant tensor:
#      x y z
#    x 4.004840 0.000000 0.080210 
#    y 0.000000 2.971500 0.000000 
#    z 0.080210 0.000000 3.945390 
# 
# 
# High freq. dielectric constant tensor:
#      x y z
#    x 1.823230 0.000000 0.005660 
#    y 0.000000 1.726930 0.000000 
#    z 0.005660 0.000000 1.823570 
# 
# From -- ./inp_files/71501.got.cif
#   From: 2010.06.25/outbox.cif.g09.slc.cpg/sg10_36_cif.got.tgz:71501.got - 2010.06.27 22:07:45.
