data_PCOD8059174
_publ_section_title
;
Structure prediction by ZEFSAII (Michael W. Deem and Ramdas Pophale) SiO2 
 PCOD8059174
Probable space group: P 2/M
;
_chemical_formula_sum "Si O2"
_cell_formula_units_Z 32
_cell_length_a 24.677041
_cell_length_b 8.999304
_cell_length_c 14.382668
_cell_angle_alpha 90.000000
_cell_angle_beta 150.463935
_cell_angle_gamma 90.000000
_cell_volume 1574.574110
_symmetry_space_group_name_H-M "P 2/M"
_symmetry_group_IT_number 10
_symmetry_cell_setting 'monoclinic'
loop_
_space_group_symop_operation_xyz
x,y,z
-x,y,-z
-x,-y,-z
x,-y,z
loop_
_atom_site_type_symbol
_atom_site_label
_atom_site_fract_x
_atom_site_fract_y
_atom_site_fract_z
Si Si1 0.473328 0.333411 0.056888
Si Si2 0.495427 0.827868 0.602372
Si Si3 0.883375 0.174070 0.369925
Si Si4 0.330677 0.322083 0.008912
Si Si5 0.955571 0.673539 0.033948
Si Si6 0.258242 0.173524 0.314565
Si Si7 0.714464 0.664401 0.466083
Si Si8 0.126814 0.670637 0.450302
O O1 0.433802 0.500000 0.971917
O O2 0.381251 0.262092 0.985971
O O3 0.584102 0.335092 0.281784
O O4 0.500000 0.245898 0.000000
O O5 0.500000 0.803791 0.500000
O O6 0.596113 0.737421 0.797225
O O7 0.377136 0.766187 0.459421
O O8 0.509175 0.000000 0.650843
O O9 0.883725 0.224471 0.477158
O O10 0.000000 0.215204 0.500000
O O11 0.858877 0.000000 0.328659
O O12 0.792436 0.258581 0.171679
O O13 0.329657 0.500000 0.011523
O O14 0.933515 0.500000 0.997273
O O15 0.840616 0.751615 0.890266
O O16 0.000000 0.730362 0.000000
O O17 0.039435 0.715738 0.240981
O O18 0.237961 0.215047 0.392076
O O19 0.250937 0.000000 0.287703
O O20 0.761367 0.500000 0.563397
O O21 0.753387 0.697868 0.418394
O O22 0.112947 0.500000 0.462136
#
# Coordination Sequence:
#
# PCOD8059174 Si02
#       8
#     4   4   4   4   4   4   4   4
#     4   9  17  30  54  87 119 153 190 234 297 362
#     4  10  23  43  63  86 125 171 207 246 304 368
#     4  11  26  46  65  86 121 167 205 247 307 366
#     4  11  22  39  67  96 121 154 203 259 303 351
#     4  10  20  37  60  86 121 163 203 248 308 369
#     4  11  22  35  56  86 120 159 204 250 297 356
#     4  10  18  34  58  84 122 159 192 241 305 366
#     4  10  21  38  64  93 120 158 207 256 302 356
#
# _framework density 20.322956999999999
#
# number of rings (size 3 to 8) (size 9 to 14) (size 15 to 20)
#    0.000    1.750    2.500    1.875    0.000    6.000 
#    0.000    3.750    0.000    1.875    0.000    0.000 
#    0.000    0.000    0.000    0.000    0.000    0.000 
#
# Total GULP energy -396727.751027 kJ/mol
# GULP energy per Si atom -12397.742220 kJ/mol
# Density = 2.027670 g / cm^3
# Si number density = 20.322957 Si / 1000 Ang^3
#
#
#
# Elastic Constant Matrix: (Units=GPa)
#
#
# Indices 1 2 3 4 5 6 
#
# 1 91.8854 35.6238 43.5890 0.0000 10.8570 0.0000
# 2 35.6238 62.6478 50.3868 0.0000 7.8293 0.0000
# 3 43.5890 50.3868 118.5971 0.0000 15.7074 0.0000
# 4 0.0000 0.0000 0.0000 34.6647 0.0000 -0.8708
# 5 10.8570 7.8293 15.7074 0.0000 31.2828 0.0000
# 6 0.0000 0.0000 0.0000 -0.8708 0.0000 26.8073
#
#
#
# Elastic Compliance Matrix: (Units=1/GPa)
#
#
# Indices 1 2 3 4 5 6 
#
# 1 0.014696 -0.006030 -0.002532 0.000000 -0.002320 0.000000
# 2 -0.006030 0.026749 -0.009147 0.000000 -0.000009 0.000000
# 3 -0.002532 -0.009147 0.013743 0.000000 -0.003732 0.000000
# 4 0.000000 0.000000 0.000000 0.028871 0.000000 0.000938
# 5 -0.002320 -0.000009 -0.003732 0.000000 0.034648 0.000000
# 6 0.000000 0.000000 0.000000 0.000938 0.000000 0.037334
#
#
# Mechanical properties :
#
#
# Convention : Reuss Voigt Hill
#
# Bulk Modulus (GPa) = 50.58272 59.14773 54.86523
# Shear Modulus (GPa) = 25.24602 28.11966 26.68284
#
# Velocity S-wave (km/s) = 3.52837 3.72377 3.62738
# Velocity P-wave (km/s) = 6.44536 6.90331 6.67826
#
# Compressibility (1/GPa) = 0.01976960
#
# Stress axis : x y z
#
# Youngs Moduli (GPa) = 68.04363 37.38415 72.76378
#
# Poissons Ratio (x) = 0.22544 0.18425
# Poissons Ratio (y) = 0.41033 0.66557
# Poissons Ratio (z) = 0.17230 0.34195
#
# Static dielectric constant tensor:
#      x y z
#    x 3.711360 0.000000 0.157650 
#    y 0.000000 3.436260 0.000000 
#    z 0.157650 0.000000 3.848280 
# 
# 
# High freq. dielectric constant tensor:
#      x y z
#    x 1.789260 0.000000 0.006680 
#    y 0.000000 1.766780 0.000000 
#    z 0.006680 0.000000 1.811200 
# 
# From -- ./inp_files/71600.got.cif
#   From: 2010.06.25/outbox.cif.g09.slc.cpg/sg10_36_cif.got.tgz:71600.got - 2010.06.27 22:07:45.
