data_PCOD8059570
_publ_section_title
;
Structure prediction by ZEFSAII (Michael W. Deem and Ramdas Pophale) SiO2 
 PCOD8059570
Probable space group: P 2/M
;
_chemical_formula_sum "Si O2"
_cell_formula_units_Z 28
_cell_length_a 9.872292
_cell_length_b 12.924960
_cell_length_c 17.608541
_cell_angle_alpha 90.000000
_cell_angle_beta 44.972481
_cell_angle_gamma 90.000000
_cell_volume 1587.986787
_symmetry_space_group_name_H-M "P 2/M"
_symmetry_group_IT_number 10
_symmetry_cell_setting 'monoclinic'
loop_
_space_group_symop_operation_xyz
x,y,z
-x,y,-z
-x,-y,-z
x,-y,z
loop_
_atom_site_type_symbol
_atom_site_label
_atom_site_fract_x
_atom_site_fract_y
_atom_site_fract_z
Si Si1 0.421338 0.381229 0.868831
Si Si2 0.151320 0.383007 0.254753
Si Si3 0.106875 0.749464 0.536273
Si Si4 0.440342 0.387320 0.445112
Si Si5 0.548893 0.882835 0.568789
Si Si6 0.934462 0.617738 0.886480
Si Si7 0.319203 0.713284 0.756662
O O1 0.399704 0.500000 0.848927
O O2 0.623662 0.363292 0.828413
O O3 0.405757 0.299609 0.806099
O O4 0.261923 0.353284 0.993966
O O5 0.100714 0.500000 0.304056
O O6 0.043577 0.291894 0.342460
O O7 0.092147 0.371031 0.191951
O O8 0.270304 0.662802 0.464356
O O9 0.225159 0.852531 0.512319
O O10 0.000000 0.768120 0.500000
O O11 0.500000 0.328105 0.500000
O O12 0.370749 0.500000 0.496267
O O13 0.622690 0.386577 0.317510
O O14 0.500000 0.871169 0.500000
O O15 0.407029 0.813960 0.678604
O O16 0.522581 0.000000 0.607248
O O17 0.994625 0.500000 0.884556
O O18 0.089160 0.703877 0.852400
#
# Coordination Sequence:
#
# PCOD8059570 Si02
#       7
#     4   4   4   4   4   4   4
#     4  10  20  32  47  72 106 140 171 203 239 281
#     4  10  19  31  47  70 105 145 175 198 231 282
#     4  11  21  32  50  77 105 131 166 209 256 307
#     4  10  19  30  45  69 103 139 170 200 239 294
#     4  10  22  40  58  75  97 126 163 209 262 320
#     4  10  19  31  49  73 102 138 176 206 234 279
#     4  11  19  31  51  73  96 124 164 208 252 295
#
# _framework density 17.632390000000001
#
# number of rings (size 3 to 8) (size 9 to 14) (size 15 to 20)
#    0.000    1.714    0.000    7.714    0.000    7.714 
#    0.000    0.000    0.000    1.714    0.000    0.000 
#    0.000    6.857    0.000    0.000    0.000    0.000 
#
# Total GULP energy -346890.377820 kJ/mol
# GULP energy per Si atom -12388.942065 kJ/mol
# Density = 1.759226 g / cm^3
# Si number density = 17.632390 Si / 1000 Ang^3
#
#
#
# Elastic Constant Matrix: (Units=GPa)
#
#
# Indices 1 2 3 4 5 6 
#
# 1 98.9147 28.3436 8.2773 0.0000 -6.6540 0.0000
# 2 28.3436 90.5525 27.4861 0.0000 -8.7402 0.0000
# 3 8.2773 27.4861 73.1432 0.0000 -12.4062 0.0000
# 4 0.0000 0.0000 0.0000 23.9789 0.0000 -1.2112
# 5 -6.6540 -8.7402 -12.4062 0.0000 32.1409 0.0000
# 6 0.0000 0.0000 0.0000 -1.2112 0.0000 20.0491
#
#
#
# Elastic Compliance Matrix: (Units=1/GPa)
#
#
# Indices 1 2 3 4 5 6 
#
# 1 0.011171 -0.003438 0.000280 0.000000 0.001486 0.000000
# 2 -0.003438 0.013610 -0.004514 0.000000 0.001247 0.000000
# 3 0.000280 -0.004514 0.016199 0.000000 0.005083 0.000000
# 4 0.000000 0.000000 0.000000 0.041831 0.000000 0.002527
# 5 0.001486 0.001247 0.005083 0.000000 0.033722 0.000000
# 6 0.000000 0.000000 0.000000 0.002527 0.000000 0.050030
#
#
# Mechanical properties :
#
#
# Convention : Reuss Voigt Hill
#
# Bulk Modulus (GPa) = 39.00850 43.42495 41.21672
# Shear Modulus (GPa) = 26.25325 28.46735 27.36030
#
# Velocity S-wave (km/s) = 3.86284 4.02243 3.94344
# Velocity P-wave (km/s) = 6.48588 6.80108 6.64535
#
# Compressibility (1/GPa) = 0.02563544
#
# Stress axis : x y z
#
# Youngs Moduli (GPa) = 89.51362 73.47536 61.73395
#
# Poissons Ratio (x) = 0.25263 -0.01728
# Poissons Ratio (y) = 0.30777 0.27866
# Poissons Ratio (z) = -0.02505 0.33166
#
# Static dielectric constant tensor:
#      x y z
#    x 3.374140 0.000000 -0.092240 
#    y 0.000000 3.183190 0.000000 
#    z -0.092240 0.000000 3.381970 
# 
# 
# High freq. dielectric constant tensor:
#      x y z
#    x 1.700100 0.000000 -0.002020 
#    y 0.000000 1.636440 0.000000 
#    z -0.002020 0.000000 1.686950 
# 
# From -- ./inp_files/51418.got.cif
#   From: 2010.06.25/outbox.cif.g09.slc.cpg/sg10_26_cif.got.tgz:51418.got - 2010.06.27 22:07:45.
