data_PCOD8059775
_publ_section_title
;
Structure prediction by ZEFSAII (Michael W. Deem and Ramdas Pophale) SiO2 
 PCOD8059775
Probable space group: P 2/M
;
_chemical_formula_sum "Si O2"
_cell_formula_units_Z 32
_cell_length_a 24.077306
_cell_length_b 9.454539
_cell_length_c 24.077272
_cell_angle_alpha 90.000000
_cell_angle_beta 18.577652
_cell_angle_gamma 90.000000
_cell_volume 1746.172480
_symmetry_space_group_name_H-M "P 2/M"
_symmetry_group_IT_number 10
_symmetry_cell_setting 'monoclinic'
loop_
_space_group_symop_operation_xyz
x,y,z
-x,y,-z
-x,-y,-z
x,-y,z
loop_
_atom_site_type_symbol
_atom_site_label
_atom_site_fract_x
_atom_site_fract_y
_atom_site_fract_z
Si Si1 0.640450 0.161078 0.524008
Si Si2 0.080301 0.337484 0.981078
Si Si3 0.372146 0.166665 0.872148
Si Si4 0.840252 0.667816 0.722587
Si Si5 0.024004 0.838921 0.140454
Si Si6 0.481077 0.337484 0.580301
Si Si7 0.429940 0.331049 0.929931
Si Si8 0.777420 0.332185 0.659738
O O1 0.524549 0.213521 0.685400
O O2 0.607155 0.251331 0.500672
O O3 0.845250 0.175726 0.345255
O O4 0.590133 0.000000 0.557742
O O5 0.024556 0.500000 0.041472
O O6 0.286287 0.317849 0.786288
O O7 0.000671 0.251331 0.107157
O O8 0.000000 0.278079 0.000000
O O9 0.400140 0.256973 0.900142
O O10 0.379065 0.000000 0.879067
O O11 0.185396 0.213518 0.024555
O O12 0.831246 0.500000 0.729921
O O13 0.768343 0.725538 0.731655
O O14 0.040882 0.717852 0.540893
O O15 0.720977 0.724294 0.885569
O O16 0.057739 0.000000 0.090137
O O17 0.500000 0.278077 0.500000
O O18 0.541469 0.500000 0.524559
O O19 0.426099 0.500000 0.926093
O O20 0.614444 0.275704 0.779006
O O21 0.770085 0.500000 0.668747
#
# Coordination Sequence:
#
# PCOD8059775 Si02
#       8
#     4   4   4   4   4   4   4   4
#     4  10  21  38  58  76  97 133 178 218 258 306
#     4  10  20  34  54  81 111 137 163 202 258 318
#     4  10  22  39  53  71 104 140 174 218 264 310
#     4   8  14  26  46  74 107 137 166 209 261 305
#     4  10  21  38  58  76  97 133 178 218 258 306
#     4  10  20  34  54  81 111 137 163 202 258 318
#     4  10  19  30  50  78 102 130 176 218 252 304
#     4   8  14  26  46  74 107 137 166 209 261 305
#
# _framework density 18.325794999999999
#
# number of rings (size 3 to 8) (size 9 to 14) (size 15 to 20)
#    0.000    2.500    1.250    1.875    0.000    5.500 
#    0.000    0.000    0.000    1.500    0.000    1.750 
#    0.000    0.000    0.000    0.000    0.000    0.000 
#
# Total GULP energy -396766.064930 kJ/mol
# GULP energy per Si atom -12398.939529 kJ/mol
# Density = 1.828409 g / cm^3
# Si number density = 18.325795 Si / 1000 Ang^3
#
#
#
# Elastic Constant Matrix: (Units=GPa)
#
#
# Indices 1 2 3 4 5 6 
#
# 1 146.8740 44.4295 84.4716 0.0000 1.9814 0.0000
# 2 44.4295 36.4580 32.9833 0.0000 2.0815 0.0000
# 3 84.4716 32.9833 142.3352 0.0000 -1.1660 0.0000
# 4 0.0000 0.0000 0.0000 -14.0279 0.0000 -3.0983
# 5 1.9814 2.0815 -1.1660 0.0000 26.3132 0.0000
# 6 0.0000 0.0000 0.0000 -3.0983 0.0000 -30.9126
#
#
#
# Elastic Compliance Matrix: (Units=1/GPa)
#
#
# Indices 1 2 3 4 5 6 
#
# 1 0.013282 -0.011430 -0.005237 0.000000 -0.000328 0.000000
# 2 -0.011430 0.044796 -0.003620 0.000000 -0.002843 0.000000
# 3 -0.005237 -0.003620 0.010982 0.000000 0.001167 0.000000
# 4 0.000000 0.000000 0.000000 -0.072901 0.000000 0.007307
# 5 -0.000328 -0.002843 0.001167 0.000000 0.038305 0.000000
# 6 0.000000 0.000000 0.000000 0.007307 0.000000 -0.033082
#
#
# Mechanical properties :
#
#
# Convention : Reuss Voigt Hill
#
# Bulk Modulus (GPa) = 35.10522 72.15954 53.63238
# Shear Modulus (GPa) = 97.17579 7.19340 52.18460
#
# Velocity S-wave (km/s) = 7.28985 1.98338 5.34208
# Velocity P-wave (km/s) = 9.48966 6.68629 8.20854
#
# Compressibility (1/GPa) = 0.02848579
#
# Stress axis : x y z
#
# Youngs Moduli (GPa) = 75.28744 22.32344 91.05842
#
# Poissons Ratio (x) = 0.25516 0.47684
# Poissons Ratio (y) = 0.86056 0.32966
# Poissons Ratio (z) = 0.39425 0.08082
#
# Static dielectric constant tensor:
#      x y z
#    x 3.312310 0.000000 -0.081450 
#    y 0.000000 3.031100 0.000000 
#    z -0.081450 0.000000 3.759800 
# 
# 
# High freq. dielectric constant tensor:
#      x y z
#    x 1.704310 0.000000 -0.004850 
#    y 0.000000 1.672330 0.000000 
#    z -0.004850 0.000000 1.730950 
# 
# From -- ./inp_files/90580.got.cif
#   From: 2010.06.25/outbox.cif.g09.slc.cpg/sg10_46_cif.got.tgz:90580.got - 2010.06.27 22:07:45.
