data_PCOD8059744
_publ_section_title
;
Structure prediction by ZEFSAII (Michael W. Deem and Ramdas Pophale) SiO2 
 PCOD8059744
Probable space group: P 2/M
;
_chemical_formula_sum "Si O2"
_cell_formula_units_Z 32
_cell_length_a 19.547709
_cell_length_b 8.986470
_cell_length_c 27.397806
_cell_angle_alpha 90.000000
_cell_angle_beta 158.696539
_cell_angle_gamma 90.000000
_cell_volume 1748.538321
_symmetry_space_group_name_H-M "P 2/M"
_symmetry_group_IT_number 10
_symmetry_cell_setting 'monoclinic'
loop_
_space_group_symop_operation_xyz
x,y,z
-x,y,-z
-x,-y,-z
x,-y,z
loop_
_atom_site_type_symbol
_atom_site_label
_atom_site_fract_x
_atom_site_fract_y
_atom_site_fract_z
Si Si1 0.291233 0.172790 0.373371
Si Si2 0.585350 0.174725 0.839421
Si Si3 0.702961 0.325404 0.422073
Si Si4 0.795918 0.332144 0.120802
Si Si5 0.059733 0.326639 0.593330
Si Si6 0.059225 0.667502 0.892682
Si Si7 0.443862 0.174300 0.852779
Si Si8 0.847694 0.826410 0.610865
O O1 0.500000 0.229601 0.500000
O O2 0.250214 0.204665 0.402596
O O3 0.148205 0.261379 0.243285
O O4 0.266824 0.000000 0.344687
O O5 0.474800 0.255599 0.723064
O O6 0.486229 0.214538 0.824728
O O7 0.588484 0.000000 0.831810
O O8 0.798712 0.235378 0.980224
O O9 0.669705 0.500000 0.405208
O O10 0.715657 0.251790 0.483474
O O11 0.892131 0.288866 0.518440
O O12 0.776584 0.500000 0.127948
O O13 0.869782 0.330270 0.115169
O O14 0.943442 0.244042 0.252616
O O15 0.593693 0.252273 0.988282
O O16 0.113256 0.500000 0.628266
O O17 0.238958 0.234168 0.730572
O O18 0.000000 0.272363 0.500000
O O19 0.051238 0.500000 0.907958
O O20 0.455820 0.000000 0.870163
O O21 0.865703 0.000000 0.611427
#
# Coordination Sequence:
#
# PCOD8059744 Si02
#       8
#     4   4   4   4   4   4   4   4
#     4   9  18  34  57  83 109 137 167 202 248 302
#     4  10  19  31  49  74 103 136 174 214 257 302
#     4  11  22  35  52  73 102 139 176 213 257 308
#     4   9  17  31  51  72  99 134 171 210 255 306
#     4  10  20  34  50  70  99 135 175 217 261 307
#     4   9  17  29  49  78 107 134 168 210 252 296
#     4  10  19  30  49  75 101 129 169 221 267 303
#     4  10  20  35  54  77 106 135 169 209 251 304
#
# _framework density 18.300999000000001
#
# number of rings (size 3 to 8) (size 9 to 14) (size 15 to 20)
#    0.000    2.250    1.250    2.250    0.000    6.000 
#    0.000    0.625    0.000    4.500    0.000    5.250 
#    0.000    0.000    0.000    0.000    0.000    0.000 
#
# Total GULP energy -396905.672755 kJ/mol
# GULP energy per Si atom -12403.302274 kJ/mol
# Density = 1.825935 g / cm^3
# Si number density = 18.300999 Si / 1000 Ang^3
#
#
#
# Elastic Constant Matrix: (Units=GPa)
#
#
# Indices 1 2 3 4 5 6 
#
# 1 34.1495 32.8389 41.2162 0.0000 3.0749 0.0000
# 2 32.8389 111.8981 78.6138 0.0000 0.7122 0.0000
# 3 41.2162 78.6138 159.0472 0.0000 7.6875 0.0000
# 4 0.0000 0.0000 0.0000 41.7683 0.0000 -0.7751
# 5 3.0749 0.7122 7.6875 0.0000 27.0680 0.0000
# 6 0.0000 0.0000 0.0000 -0.7751 0.0000 19.6938
#
#
#
# Elastic Compliance Matrix: (Units=1/GPa)
#
#
# Indices 1 2 3 4 5 6 
#
# 1 0.047074 -0.008155 -0.008030 0.000000 -0.002852 0.000000
# 2 -0.008155 0.015171 -0.005486 0.000000 0.002085 0.000000
# 3 -0.008030 -0.005486 0.011183 0.000000 -0.002119 0.000000
# 4 0.000000 0.000000 0.000000 0.023959 0.000000 0.000943
# 5 -0.002852 0.002085 -0.002119 0.000000 0.037815 0.000000
# 6 0.000000 0.000000 0.000000 0.000943 0.000000 0.050815
#
#
# Mechanical properties :
#
#
# Convention : Reuss Voigt Hill
#
# Bulk Modulus (GPa) = 33.23968 67.82585 50.53276
# Shear Modulus (GPa) = 20.88667 27.86774 24.37721
#
# Velocity S-wave (km/s) = 3.38196 3.90647 3.65364
# Velocity P-wave (km/s) = 5.78380 7.58215 6.74320
#
# Compressibility (1/GPa) = 0.03008452
#
# Stress axis : x y z
#
# Youngs Moduli (GPa) = 21.24325 65.91521 89.42493
#
# Poissons Ratio (x) = 0.53754 0.71810
# Poissons Ratio (y) = 0.17324 0.49060
# Poissons Ratio (z) = 0.17059 0.36162
#
# Static dielectric constant tensor:
#      x y z
#    x 2.985160 0.000000 0.036840 
#    y 0.000000 3.458600 0.000000 
#    z 0.036840 0.000000 3.507540 
# 
# 
# High freq. dielectric constant tensor:
#      x y z
#    x 1.660910 0.000000 0.001740 
#    y 0.000000 1.721770 0.000000 
#    z 0.001740 0.000000 1.722490 
# 
# From -- ./inp_files/49906.got.cif
#   From: 2010.06.25/outbox.cif.g09.slc.cpg/sg10_25_cif.got.tgz:49906.got - 2010.06.27 22:07:45.
