data_PCOD8059945
_publ_section_title
;
Structure prediction by ZEFSAII (Michael W. Deem and Ramdas Pophale) SiO2 
 PCOD8059945
Probable space group: P 2/M
;
_chemical_formula_sum "Si O2"
_cell_formula_units_Z 28
_cell_length_a 19.547488
_cell_length_b 9.086010
_cell_length_c 19.457115
_cell_angle_alpha 90.000000
_cell_angle_beta 30.372506
_cell_angle_gamma 90.000000
_cell_volume 1747.296877
_symmetry_space_group_name_H-M "P 2/M"
_symmetry_group_IT_number 10
_symmetry_cell_setting 'monoclinic'
loop_
_space_group_symop_operation_xyz
x,y,z
-x,y,-z
-x,-y,-z
x,-y,z
loop_
_atom_site_type_symbol
_atom_site_label
_atom_site_fract_x
_atom_site_fract_y
_atom_site_fract_z
Si Si1 0.979478 0.826714 0.231170
Si Si2 0.285134 0.672521 0.503601
Si Si3 0.260961 0.833674 0.049047
Si Si4 0.536910 0.673435 0.044928
Si Si5 0.905266 0.827234 0.142919
Si Si6 0.642385 0.328272 0.404826
Si Si7 0.544849 0.166851 0.758306
O O1 0.863569 0.742814 0.373957
O O2 0.973401 0.783663 0.156264
O O3 0.123679 0.771761 0.134871
O O4 0.958964 0.000000 0.259122
O O5 0.273544 0.500000 0.500069
O O6 0.348499 0.709314 0.522629
O O7 0.383511 0.742806 0.362958
O O8 0.238708 0.000000 0.095453
O O9 0.310325 0.731223 0.070051
O O10 0.381534 0.832347 0.887094
O O11 0.528740 0.500000 0.063304
O O12 0.430534 0.753681 0.188927
O O13 0.500000 0.719601 0.000000
O O14 0.759544 0.752777 0.261191
O O15 0.883374 0.000000 0.155278
O O16 0.000000 0.766870 0.000000
O O17 0.500000 0.268972 0.500000
O O18 0.659090 0.500000 0.376243
O O19 0.601107 0.000000 0.711739
#
# Coordination Sequence:
#
# PCOD8059945 Si02
#       7
#     4   4   4   4   4   4   4
#     4   9  17  32  49  67  96 129 161 198 242 289
#     4  10  19  31  48  70  96 127 163 202 243 288
#     4   8  17  30  47  71  96 126 161 195 233 282
#     4   9  17  30  50  75 102 128 156 194 237 282
#     4   9  18  31  48  69  93 123 160 203 244 284
#     4   9  19  34  48  65  93 127 162 200 244 291
#     4   9  18  31  49  73  97 126 160 194 236 283
#
# _framework density 16.024754000000001
#
# number of rings (size 3 to 8) (size 9 to 14) (size 15 to 20)
#    0.857    2.143    0.000    0.857    0.000    4.000 
#    0.000    1.429    0.000    0.857    0.000    6.000 
#    0.000    0.000    0.000    0.000    0.000    0.000 
#
# Total GULP energy -347017.928176 kJ/mol
# GULP energy per Si atom -12393.497435 kJ/mol
# Density = 1.598828 g / cm^3
# Si number density = 16.024754 Si / 1000 Ang^3
#
#
#
# Elastic Constant Matrix: (Units=GPa)
#
#
# Indices 1 2 3 4 5 6 
#
# 1 97.9575 42.3067 69.3504 0.0000 -11.6545 0.0000
# 2 42.3067 60.1072 47.0866 0.0000 -0.1600 0.0000
# 3 69.3504 47.0866 114.4740 0.0000 -4.5697 0.0000
# 4 0.0000 0.0000 0.0000 18.6348 0.0000 6.8355
# 5 -11.6545 -0.1600 -4.5697 0.0000 22.2587 0.0000
# 6 0.0000 0.0000 0.0000 6.8355 0.0000 16.2537
#
#
#
# Elastic Compliance Matrix: (Units=1/GPa)
#
#
# Indices 1 2 3 4 5 6 
#
# 1 0.021183 -0.007550 -0.009363 0.000000 0.009115 0.000000
# 2 -0.007550 0.027319 -0.006869 0.000000 -0.005167 0.000000
# 3 -0.009363 -0.006869 0.017177 0.000000 -0.001426 0.000000
# 4 0.000000 0.000000 0.000000 0.063451 0.000000 -0.026684
# 5 0.009115 -0.005167 -0.001426 0.000000 0.049369 0.000000
# 6 0.000000 0.000000 0.000000 -0.026684 0.000000 0.072747
#
#
# Mechanical properties :
#
#
# Convention : Reuss Voigt Hill
#
# Bulk Modulus (GPa) = 55.21060 65.55847 60.38454
# Shear Modulus (GPa) = 16.40164 19.01577 17.70871
#
# Velocity S-wave (km/s) = 3.20272 3.44852 3.32789
# Velocity P-wave (km/s) = 6.94296 7.54029 7.24778
#
# Compressibility (1/GPa) = 0.01811246
#
# Stress axis : x y z
#
# Youngs Moduli (GPa) = 47.20833 36.60511 58.21837
#
# Poissons Ratio (x) = 0.27638 0.54512
# Poissons Ratio (y) = 0.35643 0.39991
# Poissons Ratio (z) = 0.44203 0.25145
#
# Static dielectric constant tensor:
#      x y z
#    x 2.957580 0.000000 -0.065190 
#    y 0.000000 3.030220 0.000000 
#    z -0.065190 0.000000 2.979290 
# 
# 
# High freq. dielectric constant tensor:
#      x y z
#    x 1.598010 0.000000 -0.002580 
#    y 0.000000 1.622190 0.000000 
#    z -0.002580 0.000000 1.606350 
# 
# From -- ./inp_files/79847.got.cif
#   From: 2010.06.25/outbox.cif.g09.slc.cpg/sg10_40_cif.got.tgz:79847.got - 2010.06.27 22:07:45.
