data_PCOD8059472
_publ_section_title
;
Structure prediction by ZEFSAII (Michael W. Deem and Ramdas Pophale) SiO2 
 PCOD8059472
Probable space group: P 2/M
;
_chemical_formula_sum "Si O2"
_cell_formula_units_Z 28
_cell_length_a 15.343518
_cell_length_b 10.096557
_cell_length_c 20.933164
_cell_angle_alpha 90.000000
_cell_angle_beta 28.540625
_cell_angle_gamma 90.000000
_cell_volume 1549.396917
_symmetry_space_group_name_H-M "P 2/M"
_symmetry_group_IT_number 10
_symmetry_cell_setting 'monoclinic'
loop_
_space_group_symop_operation_xyz
x,y,z
-x,y,-z
-x,-y,-z
x,-y,z
loop_
_atom_site_type_symbol
_atom_site_label
_atom_site_fract_x
_atom_site_fract_y
_atom_site_fract_z
Si Si1 0.951715 0.152124 0.344740
Si Si2 0.764238 0.646105 0.375614
Si Si3 0.436870 0.843233 0.853024
Si Si4 0.642818 0.847141 0.956238
Si Si5 0.839680 0.842449 0.557065
Si Si6 0.646630 0.646270 0.314632
Si Si7 0.210253 0.154719 0.876897
O O1 0.166849 0.169346 0.201634
O O2 0.874019 0.238199 0.337879
O O3 0.882563 0.205336 0.457525
O O4 0.892438 0.000000 0.372273
O O5 0.845509 0.500000 0.339168
O O6 0.776562 0.671727 0.291822
O O7 0.558904 0.651745 0.530665
O O8 0.639536 0.787106 0.705636
O O9 0.282143 0.803613 0.900835
O O10 0.450767 0.000000 0.846260
O O11 0.370615 0.783652 0.963954
O O12 0.590242 0.000000 0.999003
O O13 0.500000 0.778004 0.000000
O O14 0.000000 0.786370 0.500000
O O15 0.842326 0.000000 0.558386
O O16 0.689859 0.500000 0.257829
O O17 0.670471 0.761794 0.248663
O O18 0.245528 0.000000 0.840983
O O19 0.000000 0.191634 0.000000
#
# Coordination Sequence:
#
# PCOD8059472 Si02
#       7
#     4   4   4   4   4   4   4
#     4  10  19  29  50  79 100 125 171 214 250 307
#     4   9  19  35  53  73  99 132 166 211 265 304
#     4   9  17  29  44  65 101 138 161 196 256 307
#     4   9  17  29  46  71 103 135 167 206 251 301
#     4   9  16  27  45  71 101 129 162 208 256 299
#     4   9  19  36  54  71  97 134 175 211 249 304
#     4  10  21  33  49  74 107 140 167 205 260 307
#
# _framework density 18.071548
#
# number of rings (size 3 to 8) (size 9 to 14) (size 15 to 20)
#    0.000    2.714    0.000    2.571    2.000    6.000 
#    0.000    1.429    0.000    0.857    0.000    2.000 
#    0.000    0.000    0.000    0.000    0.000    0.000 
#
# Total GULP energy -347034.336176 kJ/mol
# GULP energy per Si atom -12394.083435 kJ/mol
# Density = 1.803042 g / cm^3
# Si number density = 18.071548 Si / 1000 Ang^3
#
#
#
# Elastic Constant Matrix: (Units=GPa)
#
#
# Indices 1 2 3 4 5 6 
#
# 1 124.1176 30.1191 34.4023 0.0000 -1.8360 0.0000
# 2 30.1191 41.6548 6.9031 0.0000 2.9133 0.0000
# 3 34.4023 6.9031 64.4597 0.0000 9.9141 0.0000
# 4 0.0000 0.0000 0.0000 11.9419 0.0000 3.0604
# 5 -1.8360 2.9133 9.9141 0.0000 35.1249 0.0000
# 6 0.0000 0.0000 0.0000 3.0604 0.0000 12.2708
#
#
#
# Elastic Compliance Matrix: (Units=1/GPa)
#
#
# Indices 1 2 3 4 5 6 
#
# 1 0.011546 -0.007589 -0.005790 0.000000 0.002867 0.000000
# 2 -0.007589 0.029490 0.001390 0.000000 -0.003235 0.000000
# 3 -0.005790 0.001390 0.019360 0.000000 -0.005882 0.000000
# 4 0.000000 0.000000 0.000000 0.089457 0.000000 -0.022311
# 5 0.002867 -0.003235 -0.005882 0.000000 0.030548 0.000000
# 6 0.000000 0.000000 0.000000 -0.022311 0.000000 0.087059
#
#
# Mechanical properties :
#
#
# Convention : Reuss Voigt Hill
#
# Bulk Modulus (GPa) = 27.46025 41.45346 34.45686
# Shear Modulus (GPa) = 16.47019 22.45468 19.46244
#
# Velocity S-wave (km/s) = 3.02220 3.52880 3.28528
# Velocity P-wave (km/s) = 5.23512 6.29218 5.78783
#
# Compressibility (1/GPa) = 0.03641628
#
# Stress axis : x y z
#
# Youngs Moduli (GPa) = 86.61081 33.90938 51.65362
#
# Poissons Ratio (x) = 0.25735 0.29909
# Poissons Ratio (y) = 0.65732 -0.07179
# Poissons Ratio (z) = 0.50150 -0.04713
#
# Static dielectric constant tensor:
#      x y z
#    x 4.008680 0.000000 -0.086470 
#    y 0.000000 3.058100 0.000000 
#    z -0.086470 0.000000 3.411360 
# 
# 
# High freq. dielectric constant tensor:
#      x y z
#    x 1.713560 0.000000 0.001740 
#    y 0.000000 1.645380 0.000000 
#    z 0.001740 0.000000 1.702980 
# 
# From -- ./inp_files/67143.got.cif
#   From: 2010.06.25/outbox.cif.g09.slc.cpg/sg10_34_cif.got.tgz:67143.got - 2010.06.27 22:07:45.
