data_PCOD8059234
_publ_section_title
;
Structure prediction by ZEFSAII (Michael W. Deem and Ramdas Pophale) SiO2 
 PCOD8059234
Probable space group: P 2/M
;
_chemical_formula_sum "Si O2"
_cell_formula_units_Z 28
_cell_length_a 9.949406
_cell_length_b 8.588988
_cell_length_c 26.355992
_cell_angle_alpha 90.000000
_cell_angle_beta 140.715393
_cell_angle_gamma 90.000000
_cell_volume 1426.070086
_symmetry_space_group_name_H-M "P 2/M"
_symmetry_group_IT_number 10
_symmetry_cell_setting 'monoclinic'
loop_
_space_group_symop_operation_xyz
x,y,z
-x,y,-z
-x,-y,-z
x,-y,z
loop_
_atom_site_type_symbol
_atom_site_label
_atom_site_fract_x
_atom_site_fract_y
_atom_site_fract_z
Si Si1 0.490767 0.815085 0.244225
Si Si2 0.046606 0.185719 0.070018
Si Si3 0.095132 0.680800 0.681438
Si Si4 0.520328 0.178117 0.647238
Si Si5 0.006244 0.821395 0.760833
Si Si6 0.321980 0.185847 0.487663
Si Si7 0.737644 0.814888 0.066917
O O1 0.274226 0.750605 0.155695
O O2 0.520798 0.743465 0.309843
O O3 0.686876 0.766545 0.267385
O O4 0.474056 0.000000 0.242863
O O5 0.862794 0.248587 0.054115
O O6 0.047462 0.000000 0.069973
O O7 0.000000 0.250636 0.000000
O O8 0.118859 0.500000 0.677066
O O9 0.049944 0.708960 0.726969
O O10 0.907167 0.748345 0.592375
O O11 0.764681 0.194315 0.705566
O O12 0.382357 0.252207 0.561192
O O13 0.451292 0.000000 0.630781
O O14 0.145483 0.760005 0.848113
O O15 0.060856 0.000000 0.762141
O O16 0.500000 0.245128 0.500000
O O17 0.313634 0.000000 0.483904
O O18 0.733810 0.000000 0.063326
O O19 0.500000 0.746128 0.000000
#
# Coordination Sequence:
#
# PCOD8059234 Si02
#       7
#     4   4   4   4   4   4   4
#     4  10  20  37  59  83 114 152 191 230 278 334
#     4   9  17  29  50  86 122 145 174 225 284 333
#     4  12  26  39  53  81 118 152 192 235 280 335
#     4   9  17  33  60  87 109 140 187 236 277 334
#     4  10  18  35  60  85 113 149 191 233 281 332
#     4  10  19  36  62  87 111 141 185 236 288 341
#     4   9  17  28  50  89 124 142 172 230 288 333
#
# _framework density 19.634378000000002
#
# number of rings (size 3 to 8) (size 9 to 14) (size 15 to 20)
#    0.000    2.143    2.857    1.286    2.000    0.857 
#    0.000    4.286    0.000    0.857    0.000    0.000 
#    0.000    0.000    0.000    0.000    0.000    0.000 
#
# Total GULP energy -347148.613235 kJ/mol
# GULP energy per Si atom -12398.164758 kJ/mol
# Density = 1.958969 g / cm^3
# Si number density = 19.634378 Si / 1000 Ang^3
#
#
#
# Elastic Constant Matrix: (Units=GPa)
#
#
# Indices 1 2 3 4 5 6 
#
# 1 232.4608 -4.4928 128.2776 0.0000 -25.5906 0.0000
# 2 -4.4928 14.9438 9.1803 0.0000 -3.7508 0.0000
# 3 128.2776 9.1803 196.6491 0.0000 -20.1088 0.0000
# 4 0.0000 0.0000 0.0000 -1.4510 0.0000 -2.5223
# 5 -25.5906 -3.7508 -20.1088 0.0000 39.3619 0.0000
# 6 0.0000 0.0000 0.0000 -2.5223 0.0000 5.0023
#
#
#
# Elastic Compliance Matrix: (Units=1/GPa)
#
#
# Indices 1 2 3 4 5 6 
#
# 1 0.007380 0.005893 -0.004792 0.000000 0.002912 0.000000
# 2 0.005893 0.074620 -0.006551 0.000000 0.007595 0.000000
# 3 -0.004792 -0.006551 0.008583 0.000000 0.000645 0.000000
# 4 0.000000 0.000000 0.000000 -0.367267 0.000000 -0.185183
# 5 0.002912 0.007595 0.000645 0.000000 0.028352 0.000000
# 6 0.000000 0.000000 0.000000 -0.185183 0.000000 0.106533
#
#
# Mechanical properties :
#
#
# Convention : Reuss Voigt Hill
#
# Bulk Modulus (GPa) = 12.54952 78.88709 45.71830
# Shear Modulus (GPa) = -47.92130 29.32188 -9.29971
#
# Velocity S-wave (km/s) = -4.94569 3.86864 -2.17870
# Velocity P-wave (km/s) = 5.11934 7.76018 4.12388
#
# Compressibility (1/GPa) = 0.07968434
#
# Stress axis : x y z
#
# Youngs Moduli (GPa) = 135.49230 13.40119 116.51250
#
# Poissons Ratio (x) = -0.07898 0.55830
# Poissons Ratio (y) = -0.79852 0.76331
# Poissons Ratio (z) = 0.64925 0.08780
#
# Static dielectric constant tensor:
#      x y z
#    x 3.420680 0.000000 0.163720 
#    y 0.000000 2.960630 0.000000 
#    z 0.163720 0.000000 3.609920 
# 
# 
# High freq. dielectric constant tensor:
#      x y z
#    x 1.775330 0.000000 -0.006820 
#    y 0.000000 1.699830 0.000000 
#    z -0.006820 0.000000 1.783840 
# 
# From -- ./inp_files/37324.got.cif
#   From: 2010.06.25/outbox.cif.g09.slc.cpg/sg10_19_cif.got.tgz:37324.got - 2010.06.27 22:07:45.
