data_PCOD8059370
_publ_section_title
;
Structure prediction by ZEFSAII (Michael W. Deem and Ramdas Pophale) SiO2 
 PCOD8059370
Probable space group: P 2/M
;
_chemical_formula_sum "Si O2"
_cell_formula_units_Z 32
_cell_length_a 19.097476
_cell_length_b 8.996536
_cell_length_c 23.717787
_cell_angle_alpha 90.000000
_cell_angle_beta 28.510321
_cell_angle_gamma 90.000000
_cell_volume 1945.057369
_symmetry_space_group_name_H-M "P 2/M"
_symmetry_group_IT_number 10
_symmetry_cell_setting 'monoclinic'
loop_
_space_group_symop_operation_xyz
x,y,z
-x,y,-z
-x,-y,-z
x,-y,z
loop_
_atom_site_type_symbol
_atom_site_label
_atom_site_fract_x
_atom_site_fract_y
_atom_site_fract_z
Si Si1 0.118412 0.677724 0.846001
Si Si2 0.871099 0.166334 0.636784
Si Si3 0.343221 0.323804 0.591754
Si Si4 0.299705 0.676624 0.496391
Si Si5 0.493393 0.828118 0.737288
Si Si6 0.063951 0.335218 0.579030
Si Si7 0.173795 0.173531 0.922678
Si Si8 0.677045 0.334000 0.694224
O O1 0.106516 0.500000 0.859719
O O2 0.218006 0.728731 0.723235
O O3 0.191936 0.743747 0.850152
O O4 0.958517 0.749333 0.949508
O O5 0.730971 0.258614 0.714111
O O6 0.000000 0.171637 0.500000
O O7 0.930368 0.230680 0.654248
O O8 0.817473 0.000000 0.685892
O O9 0.500000 0.257246 0.500000
O O10 0.352684 0.500000 0.584035
O O11 0.303504 0.264786 0.557633
O O12 0.322020 0.500000 0.475673
O O13 0.432088 0.751560 0.369127
O O14 0.141256 0.721774 0.581944
O O15 0.319534 0.805021 0.856129
O O16 0.543736 0.757078 0.760858
O O17 0.538651 0.000000 0.705229
O O18 0.998797 0.500000 0.633235
O O19 0.189102 0.337460 0.443513
O O20 0.139858 0.000000 0.936249
O O21 0.622551 0.500000 0.746629
#
# Coordination Sequence:
#
# PCOD8059370 Si02
#       8
#     4   4   4   4   4   4   4   4
#     4  10  19  31  50  70  85 109 148 185 214 256
#     4   9  15  22  34  52  77 109 142 176 210 247
#     4   9  17  29  46  68  91 113 141 180 221 256
#     4   9  17  29  44  62  87 117 146 180 220 259
#     4  10  19  29  42  62  87 116 148 179 215 258
#     4   8  14  23  35  52  76 109 144 173 207 252
#     4  10  20  33  47  63  89 118 142 178 224 262
#     4   9  16  25  38  56  80 110 142 177 214 254
#
# _framework density 16.451957
#
# number of rings (size 3 to 8) (size 9 to 14) (size 15 to 20)
#    0.000    2.750    0.000    4.125    0.000    7.500 
#    0.000    1.250    0.000    3.375    0.000    0.000 
#    0.000    1.000    0.000   11.500    0.000    5.250 
#
# Total GULP energy -396690.494789 kJ/mol
# GULP energy per Si atom -12396.577962 kJ/mol
# Density = 1.641451 g / cm^3
# Si number density = 16.451957 Si / 1000 Ang^3
#
#
#
# Elastic Constant Matrix: (Units=GPa)
#
#
# Indices 1 2 3 4 5 6 
#
# 1 143.3401 53.8171 54.5915 0.0000 -20.7397 0.0000
# 2 53.8171 95.5166 36.2409 0.0000 -12.8798 0.0000
# 3 54.5915 36.2409 68.3359 0.0000 -7.7404 0.0000
# 4 0.0000 0.0000 0.0000 14.0989 0.0000 -10.2149
# 5 -20.7397 -12.8798 -7.7404 0.0000 19.6684 0.0000
# 6 0.0000 0.0000 0.0000 -10.2149 0.0000 23.2225
#
#
#
# Elastic Compliance Matrix: (Units=1/GPa)
#
#
# Indices 1 2 3 4 5 6 
#
# 1 0.011914 -0.002982 -0.007049 0.000000 0.007837 0.000000
# 2 -0.002982 0.014597 -0.004849 0.000000 0.004506 0.000000
# 3 -0.007049 -0.004849 0.022644 0.000000 -0.001697 0.000000
# 4 0.000000 0.000000 0.000000 0.104104 0.000000 0.045792
# 5 0.007837 0.004506 -0.001697 0.000000 0.061390 0.000000
# 6 0.000000 0.000000 0.000000 0.045792 0.000000 0.063204
#
#
# Mechanical properties :
#
#
# Convention : Reuss Voigt Hill
#
# Bulk Modulus (GPa) = 51.55630 66.27686 58.91658
# Shear Modulus (GPa) = 15.91959 22.23418 19.07688
#
# Velocity S-wave (km/s) = 3.11407 3.68021 3.40891
# Velocity P-wave (km/s) = 6.65848 7.64403 7.16821
#
# Compressibility (1/GPa) = 0.01939627
#
# Stress axis : x y z
#
# Youngs Moduli (GPa) = 83.93164 68.50860 44.16142
#
# Poissons Ratio (x) = 0.20427 0.31130
# Poissons Ratio (y) = 0.25026 0.21413
# Poissons Ratio (z) = 0.59165 0.33218
#
# Static dielectric constant tensor:
#      x y z
#    x 3.346260 0.000000 -0.183750 
#    y 0.000000 3.168550 0.000000 
#    z -0.183750 0.000000 2.729400 
# 
# 
# High freq. dielectric constant tensor:
#      x y z
#    x 1.639110 0.000000 -0.026460 
#    y 0.000000 1.636070 0.000000 
#    z -0.026460 0.000000 1.578870 
# 
# From -- ./inp_files/89941.got.cif
#   From: 2010.06.25/outbox.cif.g09.slc.cpg/sg10_45_cif.got.tgz:89941.got - 2010.06.27 22:07:45.
