data_PCOD8059612
_publ_section_title
;
Structure prediction by ZEFSAII (Michael W. Deem and Ramdas Pophale) SiO2 
 PCOD8059612
Probable space group: P 2/M
;
_chemical_formula_sum "Si O2"
_cell_formula_units_Z 24
_cell_length_a 22.643556
_cell_length_b 8.754619
_cell_length_c 21.479251
_cell_angle_alpha 90.000000
_cell_angle_beta 161.550021
_cell_angle_gamma 90.000000
_cell_volume 1347.543039
_symmetry_space_group_name_H-M "P 2/M"
_symmetry_group_IT_number 10
_symmetry_cell_setting 'monoclinic'
loop_
_space_group_symop_operation_xyz
x,y,z
-x,y,-z
-x,-y,-z
x,-y,z
loop_
_atom_site_type_symbol
_atom_site_label
_atom_site_fract_x
_atom_site_fract_y
_atom_site_fract_z
Si Si1 0.000009 0.818598 0.098723
Si Si2 0.712714 0.680788 0.042426
Si Si3 0.287256 0.319217 0.616971
Si Si4 0.292698 0.181974 0.292700
Si Si5 0.999981 0.319661 0.431185
Si Si6 0.999957 0.818724 0.238667
O O1 0.183908 0.761293 0.245696
O O2 0.000003 0.753042 0.168507
O O3 0.000000 0.000000 0.100786
O O4 0.816135 0.761264 0.877909
O O5 0.727295 0.500000 0.048253
O O6 0.815721 0.732295 0.209112
O O7 0.812643 0.758621 0.083935
O O8 0.499984 0.737294 0.833143
O O9 0.272695 0.500000 0.593621
O O10 0.187264 0.241327 0.458582
O O11 0.184324 0.267826 0.577741
O O12 0.500000 0.253237 0.500000
O O13 0.301466 0.000000 0.301463
O O14 0.999853 0.500000 0.438366
O O15 0.000000 0.243483 0.500000
O O16 0.999919 0.000000 0.240341
#
# Coordination Sequence:
#
# PCOD8059612 Si02
#       6
#     4   4   4   4   4   4
#     4   8  15  25  37  59  87 113 143 178 219 265
#     4   9  18  32  48  67  93 123 153 185 224 271
#     4   9  18  32  48  67  93 123 153 185 224 271
#     4   8  13  23  38  55  81 114 142 174 220 268
#     4   8  14  26  46  71  93 112 143 190 235 269
#     4  10  19  30  46  69  96 122 151 188 225 265
#
# _framework density 17.810192000000001
#
# number of rings (size 3 to 8) (size 9 to 14) (size 15 to 20)
#    0.000    3.333    0.000    2.500    0.000    2.667 
#    0.000    6.667    0.000    8.000    0.000   18.667 
#    0.000   16.000    0.000    0.000    0.000    0.000 
#
# Total GULP energy -297465.223936 kJ/mol
# GULP energy per Si atom -12394.384331 kJ/mol
# Density = 1.776966 g / cm^3
# Si number density = 17.810192 Si / 1000 Ang^3
#
#
#
# Elastic Constant Matrix: (Units=GPa)
#
#
# Indices 1 2 3 4 5 6 
#
# 1 185.9101 20.9220 109.7326 0.0000 -16.4096 0.0000
# 2 20.9220 19.0877 20.6016 0.0000 -0.0917 0.0000
# 3 109.7326 20.6016 186.1449 0.0000 16.7902 0.0000
# 4 0.0000 0.0000 0.0000 19.2404 0.0000 -5.0581
# 5 -16.4096 -0.0917 16.7902 0.0000 18.6616 0.0000
# 6 0.0000 0.0000 0.0000 -5.0581 0.0000 36.8725
#
#
#
# Elastic Compliance Matrix: (Units=1/GPa)
#
#
# Indices 1 2 3 4 5 6 
#
# 1 0.012683 -0.004424 -0.008697 0.000000 0.018956 0.000000
# 2 -0.004424 0.061836 -0.004257 0.000000 0.000244 0.000000
# 3 -0.008697 -0.004257 0.012692 0.000000 -0.019088 0.000000
# 4 0.000000 0.000000 0.000000 0.053918 0.000000 0.007396
# 5 0.018956 0.000244 -0.019088 0.000000 0.087429 0.000000
# 6 0.000000 0.000000 0.000000 0.007396 0.000000 0.028135
#
#
# Mechanical properties :
#
#
# Convention : Reuss Voigt Hill
#
# Bulk Modulus (GPa) = 19.06458 77.07278 48.06868
# Shear Modulus (GPa) = 16.18457 30.94734 23.56596
#
# Velocity S-wave (km/s) = 3.01778 4.17300 3.64149
# Velocity P-wave (km/s) = 4.78228 8.16009 6.68795
#
# Compressibility (1/GPa) = 0.05245330
#
# Stress axis : x y z
#
# Youngs Moduli (GPa) = 78.84292 16.17188 78.78986
#
# Poissons Ratio (x) = 0.07155 0.68524
# Poissons Ratio (y) = 0.34883 0.33545
# Poissons Ratio (z) = 0.68570 0.06885
#
# Static dielectric constant tensor:
#      x y z
#    x 3.634280 0.000000 -0.021670 
#    y 0.000000 2.783100 0.000000 
#    z -0.021670 0.000000 3.558700 
# 
# 
# High freq. dielectric constant tensor:
#      x y z
#    x 1.695620 0.000000 -0.000020 
#    y 0.000000 1.636810 0.000000 
#    z -0.000020 0.000000 1.695490 
# 
# From -- ./inp_files/86179.got.cif
#   From: 2010.06.25/outbox.cif.g09.slc.cpg/sg10_44_cif.got.tgz:86179.got - 2010.06.27 22:07:45.
