data_PCOD8059367
_publ_section_title
;
Structure prediction by ZEFSAII (Michael W. Deem and Ramdas Pophale) SiO2 
 PCOD8059367
Probable space group: P 2/M
;
_chemical_formula_sum "Si O2"
_cell_formula_units_Z 32
_cell_length_a 22.439504
_cell_length_b 8.889675
_cell_length_c 13.877298
_cell_angle_alpha 90.000000
_cell_angle_beta 132.991552
_cell_angle_gamma 90.000000
_cell_volume 2024.842369
_symmetry_space_group_name_H-M "P 2/M"
_symmetry_group_IT_number 10
_symmetry_cell_setting 'monoclinic'
loop_
_space_group_symop_operation_xyz
x,y,z
-x,y,-z
-x,-y,-z
x,-y,z
loop_
_atom_site_type_symbol
_atom_site_label
_atom_site_fract_x
_atom_site_fract_y
_atom_site_fract_z
Si Si1 0.020256 0.822308 0.295232
Si Si2 0.763961 0.674852 0.762514
Si Si3 0.591414 0.673435 0.515592
Si Si4 0.908021 0.834470 0.433341
Si Si5 0.140513 0.323549 0.802655
Si Si6 0.068393 0.325013 0.152407
Si Si7 0.558943 0.173031 0.679772
Si Si8 0.732076 0.826746 0.928809
O O1 0.086745 0.774884 0.450564
O O2 0.055535 0.772692 0.232749
O O3 0.933046 0.747278 0.217873
O O4 0.006456 0.000000 0.282946
O O5 0.765613 0.500000 0.795954
O O6 0.687710 0.705828 0.605643
O O7 0.844599 0.720342 0.794440
O O8 0.759141 0.774959 0.852637
O O9 0.570877 0.500000 0.475818
O O10 0.530138 0.771239 0.378785
O O11 0.576115 0.718823 0.609057
O O12 0.858735 0.722842 0.309283
O O13 0.000000 0.846530 0.500000
O O14 0.867008 0.000000 0.383107
O O15 0.132232 0.500000 0.801085
O O16 0.225263 0.271049 0.942104
O O17 0.063597 0.500000 0.174621
O O18 0.000000 0.281539 0.000000
O O19 0.634184 0.193550 0.836510
O O20 0.553407 0.000000 0.640639
O O21 0.757720 0.000000 0.968691
#
# Coordination Sequence:
#
# PCOD8059367 Si02
#       8
#     4   4   4   4   4   4   4   4
#     4  10  20  33  48  64  84 112 145 180 215 250
#     4   9  18  30  42  60  86 115 148 183 217 250
#     4   9  15  24  39  56  78 109 141 174 211 250
#     4   8  16  31  47  63  84 108 136 173 214 253
#     4  11  20  29  45  66  87 112 141 173 211 257
#     4  10  20  32  45  62  86 116 149 184 216 244
#     4   9  16  25  38  57  80 107 139 173 209 249
#     4  10  19  29  42  61  87 116 143 175 214 254
#
# _framework density 15.803699
#
# number of rings (size 3 to 8) (size 9 to 14) (size 15 to 20)
#    0.000    2.500    0.000    4.875    0.000    6.500 
#    0.000    0.000    0.000    0.000    0.000    0.000 
#    0.000    1.000    0.000   11.250    0.000    5.000 
#
# Total GULP energy -396559.691024 kJ/mol
# GULP energy per Si atom -12392.490345 kJ/mol
# Density = 1.576773 g / cm^3
# Si number density = 15.803699 Si / 1000 Ang^3
#
#
#
# Elastic Constant Matrix: (Units=GPa)
#
#
# Indices 1 2 3 4 5 6 
#
# 1 62.1533 29.7276 52.7772 0.0000 15.8156 0.0000
# 2 29.7276 77.2262 52.7536 0.0000 5.5212 0.0000
# 3 52.7772 52.7536 116.2187 0.0000 11.6639 0.0000
# 4 0.0000 0.0000 0.0000 23.1456 0.0000 3.6945
# 5 15.8156 5.5212 11.6639 0.0000 26.2952 0.0000
# 6 0.0000 0.0000 0.0000 3.6945 0.0000 17.9062
#
#
#
# Elastic Compliance Matrix: (Units=1/GPa)
#
#
# Indices 1 2 3 4 5 6 
#
# 1 0.030141 -0.003211 -0.010966 0.000000 -0.012590 0.000000
# 2 -0.003211 0.019111 -0.007334 0.000000 0.001172 0.000000
# 3 -0.010966 -0.007334 0.016847 0.000000 0.000663 0.000000
# 4 0.000000 0.000000 0.000000 0.044676 0.000000 -0.009218
# 5 -0.012590 0.001172 0.000663 0.000000 0.045062 0.000000
# 6 0.000000 0.000000 0.000000 -0.009218 0.000000 0.057749
#
#
# Mechanical properties :
#
#
# Convention : Reuss Voigt Hill
#
# Bulk Modulus (GPa) = 43.33582 58.45724 50.89653
# Shear Modulus (GPa) = 18.91777 21.49205 20.20491
#
# Velocity S-wave (km/s) = 3.46359 3.69173 3.57948
# Velocity P-wave (km/s) = 6.59364 7.43248 7.02559
#
# Compressibility (1/GPa) = 0.02307560
#
# Stress axis : x y z
#
# Youngs Moduli (GPa) = 33.17757 52.32465 59.35712
#
# Poissons Ratio (x) = 0.16802 0.65093
# Poissons Ratio (y) = 0.10654 0.43535
# Poissons Ratio (z) = 0.36384 0.38377
#
# Static dielectric constant tensor:
#      x y z
#    x 2.974750 0.000000 0.358850 
#    y 0.000000 3.067810 0.000000 
#    z 0.358850 0.000000 3.374540 
# 
# 
# High freq. dielectric constant tensor:
#      x y z
#    x 1.561490 0.000000 0.027970 
#    y 0.000000 1.618930 0.000000 
#    z 0.027970 0.000000 1.603530 
# 
# From -- ./inp_files/56449.got.cif
#   From: 2010.06.25/outbox.cif.g09.slc.cpg/sg10_29_cif.got.tgz:56449.got - 2010.06.27 22:07:45.
