data_PCOD8059525
_publ_section_title
;
Structure prediction by ZEFSAII (Michael W. Deem and Ramdas Pophale) SiO2 
 PCOD8059525
Probable space group: P 2/M
;
_chemical_formula_sum "Si O2"
_cell_formula_units_Z 28
_cell_length_a 23.666922
_cell_length_b 7.883148
_cell_length_c 19.375274
_cell_angle_alpha 90.000000
_cell_angle_beta 153.795891
_cell_angle_gamma 90.000000
_cell_volume 1596.206476
_symmetry_space_group_name_H-M "P 2/M"
_symmetry_group_IT_number 10
_symmetry_cell_setting 'monoclinic'
loop_
_space_group_symop_operation_xyz
x,y,z
-x,y,-z
-x,-y,-z
x,-y,z
loop_
_atom_site_type_symbol
_atom_site_label
_atom_site_fract_x
_atom_site_fract_y
_atom_site_fract_z
Si Si1 0.433497 0.699238 0.256026
Si Si2 0.612284 0.689125 0.945817
Si Si3 0.309844 0.311384 0.635084
Si Si4 0.718262 0.698897 0.549259
Si Si5 0.861912 0.195319 0.834719
Si Si6 0.633527 0.000000 0.058715
Si Si7 0.330480 0.000000 0.747079
Si Si8 0.367201 0.196044 0.327743
O O1 0.440378 0.500000 0.273891
O O2 0.362266 0.741581 0.105882
O O3 0.577944 0.774139 0.414019
O O4 0.352751 0.780769 0.229673
O O5 0.668023 0.500000 0.022988
O O6 0.461328 0.684224 0.791770
O O7 0.677336 0.830098 0.066123
O O8 0.264040 0.500000 0.608904
O O9 0.247535 0.262392 0.493109
O O10 0.269278 0.169586 0.646414
O O11 0.719421 0.500000 0.564053
O O12 0.824318 0.786441 0.713256
O O13 0.753027 0.281688 0.764176
O O14 0.873650 0.000000 0.868255
O O15 0.000000 0.283054 0.000000
O O16 0.481616 0.000000 0.900791
O O17 0.703083 0.000000 0.208832
O O18 0.500000 0.281143 0.500000
O O19 0.369077 0.000000 0.349996
#
# Coordination Sequence:
#
# PCOD8059525 Si02
#       8
#     4   4   4   4   4   2   2   4
#     4   9  17  28  44  64  85 111 148 194 235 266
#     4   8  15  26  37  56  83 113 145 181 228 271
#     4   8  15  26  38  57  82 108 146 191 224 261
#     4   9  17  29  45  63  83 112 151 191 232 273
#     4  10  21  34  45  62  91 122 150 187 238 282
#     4   9  16  24  36  56  82 116 150 180 217 273
#     4   9  16  24  36  58  80 113 154 179 221 269
#     4  10  19  30  44  67  87 111 153 195 231 266
#
# _framework density 17.541591
#
# number of rings (size 3 to 8) (size 9 to 14) (size 15 to 20)
#    0.000    3.000    1.429    1.714    2.000    1.714 
#    0.000    2.857    0.000    0.000    0.000    0.000 
#    0.000    0.000    0.000    2.571    0.000   12.571 
#
# Total GULP energy -347015.973713 kJ/mol
# GULP energy per Si atom -12393.427633 kJ/mol
# Density = 1.750167 g / cm^3
# Si number density = 17.541591 Si / 1000 Ang^3
#
#
#
# Elastic Constant Matrix: (Units=GPa)
#
#
# Indices 1 2 3 4 5 6 
#
# 1 92.4415 43.7626 61.9358 0.0000 -25.4831 0.0000
# 2 43.7626 72.0324 35.8846 0.0000 -19.1168 0.0000
# 3 61.9358 35.8846 75.7717 0.0000 -15.3979 0.0000
# 4 0.0000 0.0000 0.0000 13.9119 0.0000 -9.8904
# 5 -25.4831 -19.1168 -15.3979 0.0000 32.1663 0.0000
# 6 0.0000 0.0000 0.0000 -9.8904 0.0000 17.1925
#
#
#
# Elastic Compliance Matrix: (Units=1/GPa)
#
#
# Indices 1 2 3 4 5 6 
#
# 1 0.029062 -0.005311 -0.019056 0.000000 0.010745 0.000000
# 2 -0.005311 0.020882 -0.004299 0.000000 0.006145 0.000000
# 3 -0.019056 -0.004299 0.030157 0.000000 -0.003216 0.000000
# 4 0.000000 0.000000 0.000000 0.121621 0.000000 0.069965
# 5 0.010745 0.006145 -0.003216 0.000000 0.041713 0.000000
# 6 0.000000 0.000000 0.000000 0.069965 0.000000 0.098414
#
#
# Mechanical properties :
#
#
# Convention : Reuss Voigt Hill
#
# Bulk Modulus (GPa) = 43.92378 58.15682 51.04030
# Shear Modulus (GPa) = 12.29191 19.23164 15.76178
#
# Velocity S-wave (km/s) = 2.65000 3.31470 3.00081
# Velocity P-wave (km/s) = 5.87005 6.91920 6.41611
#
# Compressibility (1/GPa) = 0.02276671
#
# Stress axis : x y z
#
# Youngs Moduli (GPa) = 34.40948 47.88814 33.16015
#
# Poissons Ratio (x) = 0.25435 0.63191
# Poissons Ratio (y) = 0.18276 0.14257
# Poissons Ratio (z) = 0.65571 0.20589
#
# Static dielectric constant tensor:
#      x y z
#    x 3.229310 0.000000 -0.262290 
#    y 0.000000 3.311170 0.000000 
#    z -0.262290 0.000000 3.039100 
# 
# 
# High freq. dielectric constant tensor:
#      x y z
#    x 1.649830 0.000000 -0.041170 
#    y 0.000000 1.678310 0.000000 
#    z -0.041170 0.000000 1.628400 
# 
# From -- ./inp_files/79879.got.cif
#   From: 2010.06.25/outbox.cif.g09.slc.cpg/sg10_40_cif.got.tgz:79879.got - 2010.06.27 22:07:45.
