data_PCOD8059066
_publ_section_title
;
Structure prediction by ZEFSAII (Michael W. Deem and Ramdas Pophale) SiO2 
 PCOD8059066
Probable space group: P 2/M
;
_chemical_formula_sum "Si O2"
_cell_formula_units_Z 32
_cell_length_a 17.205265
_cell_length_b 8.976530
_cell_length_c 24.994256
_cell_angle_alpha 90.000000
_cell_angle_beta 152.497292
_cell_angle_gamma 90.000000
_cell_volume 1782.604895
_symmetry_space_group_name_H-M "P 2/M"
_symmetry_group_IT_number 10
_symmetry_cell_setting 'monoclinic'
loop_
_space_group_symop_operation_xyz
x,y,z
-x,y,-z
-x,-y,-z
x,-y,z
loop_
_atom_site_type_symbol
_atom_site_label
_atom_site_fract_x
_atom_site_fract_y
_atom_site_fract_z
Si Si1 0.414889 0.824682 0.811916
Si Si2 0.670039 0.676566 0.133310
Si Si3 0.006996 0.675766 0.283842
Si Si4 0.580940 0.176118 0.605341
Si Si5 0.077894 0.675153 0.207945
Si Si6 0.283117 0.332682 0.041763
Si Si7 0.416390 0.668546 0.708433
Si Si8 0.656897 0.323205 0.454360
O O1 0.314726 0.752496 0.799625
O O2 0.611778 0.772761 0.934882
O O3 0.333834 0.765647 0.706182
O O4 0.400342 0.000000 0.806052
O O5 0.675358 0.500000 0.144498
O O6 0.829080 0.737027 0.196522
O O7 0.500000 0.728103 0.000000
O O8 0.997225 0.500000 0.275271
O O9 0.045048 0.735912 0.247775
O O10 0.156724 0.727110 0.414498
O O11 0.500000 0.229637 0.500000
O O12 0.770723 0.234445 0.725696
O O13 0.478939 0.245886 0.591426
O O14 0.578573 0.000000 0.609230
O O15 0.121182 0.500000 0.233452
O O16 0.911150 0.715005 0.071441
O O17 0.288455 0.500000 0.020241
O O18 0.378752 0.329020 0.157803
O O19 0.347323 0.500000 0.670758
O O20 0.371420 0.735578 0.623299
O O21 0.631146 0.500000 0.442657
#
# Coordination Sequence:
#
# PCOD8059066 Si02
#       8
#     4   4   4   4   4   4   4   4
#     4  10  19  32  52  77 107 142 176 211 256 316
#     4  10  19  33  53  78 110 142 173 219 268 311
#     4   9  18  30  52  82 103 128 177 225 265 306
#     4  11  23  36  51  77 114 147 172 207 265 327
#     4  10  18  33  57  80 103 135 176 224 265 307
#     4   8  16  32  54  78 102 134 176 217 260 308
#     4   8  17  34  56  77 101 138 179 221 264 309
#     4  10  19  36  59  79 101 134 181 230 264 302
#
# _framework density 17.951256999999998
#
# number of rings (size 3 to 8) (size 9 to 14) (size 15 to 20)
#    0.750    1.750    1.250    1.875    0.000    3.750 
#    0.000    2.500    0.000    7.500    0.000    0.000 
#    0.000    0.000    0.000    0.000    0.000    0.000 
#
# Total GULP energy -396596.827836 kJ/mol
# GULP energy per Si atom -12393.650870 kJ/mol
# Density = 1.791040 g / cm^3
# Si number density = 17.951257 Si / 1000 Ang^3
#
#
#
# Elastic Constant Matrix: (Units=GPa)
#
#
# Indices 1 2 3 4 5 6 
#
# 1 114.7218 31.9166 51.2119 0.0000 1.4330 0.0000
# 2 31.9166 45.1773 17.8350 0.0000 1.2263 0.0000
# 3 51.2119 17.8350 101.9207 0.0000 3.5569 0.0000
# 4 0.0000 0.0000 0.0000 11.6764 0.0000 -4.0526
# 5 1.4330 1.2263 3.5569 0.0000 34.6827 0.0000
# 6 0.0000 0.0000 0.0000 -4.0526 0.0000 12.8878
#
#
#
# Elastic Compliance Matrix: (Units=1/GPa)
#
#
# Indices 1 2 3 4 5 6 
#
# 1 0.013081 -0.007144 -0.005332 0.000000 0.000259 0.000000
# 2 -0.007144 0.027685 -0.001236 0.000000 -0.000557 0.000000
# 3 -0.005332 -0.001236 0.012743 0.000000 -0.001043 0.000000
# 4 0.000000 0.000000 0.000000 0.096134 0.000000 0.030229
# 5 0.000259 -0.000557 -0.001043 0.000000 0.028949 0.000000
# 6 0.000000 0.000000 0.000000 0.030229 0.000000 0.087098
#
#
# Mechanical properties :
#
#
# Convention : Reuss Voigt Hill
#
# Bulk Modulus (GPa) = 38.33344 51.52742 44.93043
# Shear Modulus (GPa) = 16.56683 22.57315 19.56999
#
# Velocity S-wave (km/s) = 3.04119 3.54993 3.30536
# Velocity P-wave (km/s) = 5.80795 6.75048 6.29688
#
# Compressibility (1/GPa) = 0.02608688
#
# Stress axis : x y z
#
# Youngs Moduli (GPa) = 76.44669 36.12110 78.47312
#
# Poissons Ratio (x) = 0.25803 0.41840
# Poissons Ratio (y) = 0.54610 0.09697
# Poissons Ratio (z) = 0.40760 0.04463
#
# Static dielectric constant tensor:
#      x y z
#    x 3.241640 0.000000 -0.052180 
#    y 0.000000 3.023460 0.000000 
#    z -0.052180 0.000000 3.475410 
# 
# 
# High freq. dielectric constant tensor:
#      x y z
#    x 1.683100 0.000000 -0.002560 
#    y 0.000000 1.670850 0.000000 
#    z -0.002560 0.000000 1.691720 
# 
# From -- ./inp_files/89583.got.cif
#   From: 2010.06.25/outbox.cif.g09.slc.cpg/sg10_45_cif.got.tgz:89583.got - 2010.06.27 22:07:45.
