data_PCOD8059643
_publ_section_title
;
Structure prediction by ZEFSAII (Michael W. Deem and Ramdas Pophale) SiO2 
 PCOD8059643
Probable space group: P 2/M
;
_chemical_formula_sum "Si O2"
_cell_formula_units_Z 28
_cell_length_a 17.841906
_cell_length_b 21.644033
_cell_length_c 11.591290
_cell_angle_alpha 90.000000
_cell_angle_beta 161.119862
_cell_angle_gamma 90.000000
_cell_volume 1448.456759
_symmetry_space_group_name_H-M "P 2/M"
_symmetry_group_IT_number 10
_symmetry_cell_setting 'monoclinic'
loop_
_space_group_symop_operation_xyz
x,y,z
-x,y,-z
-x,-y,-z
x,-y,z
loop_
_atom_site_type_symbol
_atom_site_label
_atom_site_fract_x
_atom_site_fract_y
_atom_site_fract_z
Si Si1 0.313803 0.150650 0.627612
Si Si2 0.620907 0.500000 0.434607
Si Si3 0.873954 0.630957 0.059828
Si Si4 0.375425 0.930678 0.061396
Si Si5 0.497810 0.369043 0.683692
Si Si6 0.003466 0.930677 0.317490
Si Si7 0.186184 0.287402 0.372364
Si Si8 0.006491 0.500000 0.820200
O O1 0.415144 0.115925 0.662194
O O2 0.078936 0.115926 0.325982
O O3 0.252598 0.219398 0.505197
O O4 0.500000 0.150448 0.000000
O O5 0.464514 0.438414 0.213097
O O6 0.752305 0.500000 0.504615
O O7 0.802065 0.500000 0.802061
O O8 0.967350 0.561586 0.218759
O O9 0.083280 0.677337 0.334491
O O10 0.702122 0.629167 0.702119
O O11 0.739417 0.653926 0.978826
O O12 0.475363 0.000000 0.222353
O O13 0.196583 0.930759 0.696581
O O14 0.242369 0.909684 0.984729
O O15 0.419158 0.322661 0.670371
O O16 0.981363 0.000000 0.234369
O O17 0.000000 0.285346 0.000000
#
# Coordination Sequence:
#
# PCOD8059643 Si02
#       8
#     4   2   4   4   4   4   4   2
#     4  10  19  30  47  69  91 117 150 182 216 258
#     4   9  13  21  39  62  87 110 138 186 236 266
#     4   9  16  26  41  61  86 116 148 183 225 267
#     4   8  14  26  46  71  93 111 139 184 229 261
#     4   9  16  26  41  61  86 116 148 183 225 267
#     4   8  14  26  46  71  93 111 139 184 229 261
#     4  10  20  32  43  61  92 125 152 178 212 261
#     4   9  13  21  39  62  87 110 138 186 236 266
#
# _framework density 19.330918
#
# number of rings (size 3 to 8) (size 9 to 14) (size 15 to 20)
#    0.000    3.000    1.429    1.714    0.000    4.571 
#    0.000    0.000    0.000    1.714    0.000    4.000 
#    0.000    2.286    0.000    0.000    0.000    0.000 
#
# Total GULP energy -347011.649383 kJ/mol
# GULP energy per Si atom -12393.273192 kJ/mol
# Density = 1.928692 g / cm^3
# Si number density = 19.330918 Si / 1000 Ang^3
#
#
#
# Elastic Constant Matrix: (Units=GPa)
#
#
# Indices 1 2 3 4 5 6 
#
# 1 125.5525 89.1654 41.9001 0.0000 62.8732 0.0000
# 2 89.1654 174.2759 35.3622 0.0000 47.1766 0.0000
# 3 41.9001 35.3622 23.8334 0.0000 26.3214 0.0000
# 4 0.0000 0.0000 0.0000 25.3095 0.0000 -1.3259
# 5 62.8732 47.1766 26.3214 0.0000 38.0248 0.0000
# 6 0.0000 0.0000 0.0000 -1.3259 0.0000 23.8086
#
#
#
# Elastic Compliance Matrix: (Units=1/GPa)
#
#
# Indices 1 2 3 4 5 6 
#
# 1 0.050306 -0.005249 0.017064 0.000000 -0.088479 0.000000
# 2 -0.005249 0.009286 -0.005993 0.000000 0.001307 0.000000
# 3 0.017064 -0.005993 0.185966 0.000000 -0.149509 0.000000
# 4 0.000000 0.000000 0.000000 0.039626 0.000000 0.002207
# 5 -0.088479 0.001307 -0.149509 0.000000 0.274468 0.000000
# 6 0.000000 0.000000 0.000000 0.002207 0.000000 0.042125
#
#
# Mechanical properties :
#
#
# Convention : Reuss Voigt Hill
#
# Bulk Modulus (GPa) = 3.88799 72.94636 38.41718
# Shear Modulus (GPa) = 7.39790 27.91084 17.65437
#
# Velocity S-wave (km/s) = 1.95839 3.80392 3.02532
# Velocity P-wave (km/s) = 2.67009 7.55715 5.66745
#
# Compressibility (1/GPa) = 0.25720222
#
# Stress axis : x y z
#
# Youngs Moduli (GPa) = 19.87833 107.69007 5.37733
#
# Poissons Ratio (x) = 0.56530 -0.09176
# Poissons Ratio (y) = 0.10435 0.03222
# Poissons Ratio (z) = -0.33920 0.64534
#
# Static dielectric constant tensor:
#      x y z
#    x 3.705640 0.000000 0.579740 
#    y 0.000000 3.669220 0.000000 
#    z 0.579740 0.000000 3.044460 
# 
# 
# High freq. dielectric constant tensor:
#      x y z
#    x 1.747210 0.000000 0.046720 
#    y 0.000000 1.752330 0.000000 
#    z 0.046720 0.000000 1.693920 
# 
# From -- ./inp_files/54259.got.cif
#   From: 2010.06.25/outbox.cif.g09.slc.cpg/sg10_28_cif.got.tgz:54259.got - 2010.06.27 22:07:45.
