data_PCOD8059026
_publ_section_title
;
Structure prediction by ZEFSAII (Michael W. Deem and Ramdas Pophale) SiO2 
 PCOD8059026
Probable space group: P 2/M
;
_chemical_formula_sum "Si O2"
_cell_formula_units_Z 32
_cell_length_a 28.623773
_cell_length_b 9.067621
_cell_length_c 19.894189
_cell_angle_alpha 90.000000
_cell_angle_beta 159.670836
_cell_angle_gamma 90.000000
_cell_volume 1793.876510
_symmetry_space_group_name_H-M "P 2/M"
_symmetry_group_IT_number 10
_symmetry_cell_setting 'monoclinic'
loop_
_space_group_symop_operation_xyz
x,y,z
-x,y,-z
-x,-y,-z
x,-y,z
loop_
_atom_site_type_symbol
_atom_site_label
_atom_site_fract_x
_atom_site_fract_y
_atom_site_fract_z
Si Si1 0.598576 0.328292 0.473254
Si Si2 0.328094 0.173622 0.065402
Si Si3 0.650192 0.329094 0.186533
Si Si4 0.683924 0.331266 0.442676
Si Si5 0.646956 0.173872 0.671139
Si Si6 0.619667 0.330588 0.993708
Si Si7 0.855338 0.826330 0.062539
Si Si8 0.155200 0.174898 0.448768
O O1 0.571424 0.500000 0.449390
O O2 0.456781 0.249287 0.271902
O O3 0.691447 0.305036 0.532787
O O4 0.675481 0.256677 0.639690
O O5 0.300760 0.231767 0.953106
O O6 0.354431 0.000000 0.099633
O O7 0.199842 0.215380 0.938027
O O8 0.664485 0.500000 0.226201
O O9 0.754823 0.234586 0.369420
O O10 0.500000 0.274210 0.000000
O O11 0.682750 0.303551 0.151927
O O12 0.715480 0.500000 0.466534
O O13 0.537186 0.286855 0.216772
O O14 0.792578 0.228447 0.553153
O O15 0.500000 0.215627 0.500000
O O16 0.659701 0.000000 0.676232
O O17 0.756335 0.235770 0.871389
O O18 0.632862 0.500000 0.988675
O O19 0.004727 0.761625 0.255587
O O20 0.858808 0.000000 0.058664
O O21 0.158391 0.000000 0.455264
#
# Coordination Sequence:
#
# PCOD8059026 Si02
#       8
#     4   4   4   4   4   4   4   4
#     4  10  20  33  52  81 111 135 171 225 269 306
#     4  10  18  33  55  77 106 143 178 212 263 321
#     4  10  19  36  57  76 106 144 176 214 269 318
#     4   9  18  35  53  73 107 145 172 208 269 323
#     4  10  18  34  58  79 103 141 182 218 262 318
#     4   9  18  33  54  79 106 135 173 223 266 305
#     4   9  20  37  53  76 111 144 172 214 271 317
#     4  11  22  35  54  80 109 138 178 224 259 311
#
# _framework density 17.838463999999998
#
# number of rings (size 3 to 8) (size 9 to 14) (size 15 to 20)
#    0.000    2.250    2.500    1.875    0.000    3.500 
#    0.000    5.000    0.000    7.500    0.000    0.000 
#    0.000    0.000    0.000    0.000    0.000    0.000 
#
# Total GULP energy -396819.868075 kJ/mol
# GULP energy per Si atom -12400.620877 kJ/mol
# Density = 1.779786 g / cm^3
# Si number density = 17.838464 Si / 1000 Ang^3
#
#
#
# Elastic Constant Matrix: (Units=GPa)
#
#
# Indices 1 2 3 4 5 6 
#
# 1 137.3243 55.3413 68.8340 0.0000 0.5980 0.0000
# 2 55.3413 70.3189 41.9837 0.0000 3.3008 0.0000
# 3 68.8340 41.9837 108.2950 0.0000 6.2533 0.0000
# 4 0.0000 0.0000 0.0000 9.3101 0.0000 -9.3900
# 5 0.5980 3.3008 6.2533 0.0000 25.4645 0.0000
# 6 0.0000 0.0000 0.0000 -9.3900 0.0000 32.9451
#
#
#
# Elastic Compliance Matrix: (Units=1/GPa)
#
#
# Indices 1 2 3 4 5 6 
#
# 1 0.012855 -0.006848 -0.005630 0.000000 0.001968 0.000000
# 2 -0.006848 0.022163 -0.004141 0.000000 -0.001695 0.000000
# 3 -0.005630 -0.004141 0.014586 0.000000 -0.002913 0.000000
# 4 0.000000 0.000000 0.000000 0.150744 0.000000 0.042965
# 5 0.001968 -0.001695 -0.002913 0.000000 0.040159 0.000000
# 6 0.000000 0.000000 0.000000 0.042965 0.000000 0.042599
#
#
# Mechanical properties :
#
#
# Convention : Reuss Voigt Hill
#
# Bulk Modulus (GPa) = 61.10437 72.02845 66.56641
# Shear Modulus (GPa) = 15.53759 23.52923 19.53341
#
# Velocity S-wave (km/s) = 2.95450 3.63577 3.31269
# Velocity P-wave (km/s) = 6.77993 7.62174 7.21312
#
# Compressibility (1/GPa) = 0.01636544
#
# Stress axis : x y z
#
# Youngs Moduli (GPa) = 77.78966 45.12094 68.55885
#
# Poissons Ratio (x) = 0.30900 0.38596
# Poissons Ratio (y) = 0.53273 0.28392
# Poissons Ratio (z) = 0.43793 0.18686
#
# Static dielectric constant tensor:
#      x y z
#    x 3.528650 0.000000 -0.050770 
#    y 0.000000 3.189250 0.000000 
#    z -0.050770 0.000000 3.214870 
# 
# 
# High freq. dielectric constant tensor:
#      x y z
#    x 1.705300 0.000000 -0.010000 
#    y 0.000000 1.681170 0.000000 
#    z -0.010000 0.000000 1.662730 
# 
# From -- ./inp_files/87229.got.cif
#   From: 2010.06.25/outbox.cif.g09.slc.cpg/sg10_44_cif.got.tgz:87229.got - 2010.06.27 22:07:45.
