data_PCOD8059879
_publ_section_title
;
Structure prediction by ZEFSAII (Michael W. Deem and Ramdas Pophale) SiO2 
 PCOD8059879
Probable space group: P 2/M
;
_chemical_formula_sum "Si O2"
_cell_formula_units_Z 28
_cell_length_a 12.309466
_cell_length_b 8.755858
_cell_length_c 19.225343
_cell_angle_alpha 90.000000
_cell_angle_beta 48.977736
_cell_angle_gamma 90.000000
_cell_volume 1563.310071
_symmetry_space_group_name_H-M "P 2/M"
_symmetry_group_IT_number 10
_symmetry_cell_setting 'monoclinic'
loop_
_space_group_symop_operation_xyz
x,y,z
-x,y,-z
-x,-y,-z
x,-y,z
loop_
_atom_site_type_symbol
_atom_site_label
_atom_site_fract_x
_atom_site_fract_y
_atom_site_fract_z
Si Si1 0.565925 0.320170 0.318042
Si Si2 0.580259 0.679622 0.754308
Si Si3 0.392284 0.681494 0.104351
Si Si4 0.098245 0.318392 0.394487
Si Si5 0.367676 0.831619 0.504864
Si Si6 0.088042 0.180052 0.250847
Si Si7 0.179901 0.321077 0.691842
O O1 0.552967 0.500000 0.336338
O O2 0.549714 0.273249 0.243448
O O3 0.425315 0.243256 0.410371
O O4 0.717511 0.264300 0.287235
O O5 0.593030 0.500000 0.749930
O O6 0.544566 0.736168 0.847315
O O7 0.737287 0.739657 0.663264
O O8 0.374118 0.500000 0.108081
O O9 0.237364 0.755983 0.158604
O O10 0.500000 0.742302 0.000000
O O11 0.087313 0.500000 0.392638
O O12 0.043643 0.248833 0.344481
O O13 0.000000 0.259092 0.500000
O O14 0.500000 0.851445 0.500000
O O15 0.253024 0.717893 0.587313
O O16 0.299638 0.000000 0.519243
O O17 0.969786 0.229755 0.242870
O O18 0.096265 0.000000 0.253255
O O19 0.149468 0.500000 0.709606
#
# Coordination Sequence:
#
# PCOD8059879 Si02
#       7
#     4   4   4   4   4   4   4
#     4   9  17  29  47  70  97 134 173 209 246 293
#     4   8  15  29  49  76 102 124 161 207 252 299
#     4   9  18  36  61  82  99 124 161 206 257 313
#     4   9  18  32  50  72 100 137 172 206 251 298
#     4   9  17  28  41  62  94 132 172 209 245 283
#     4  11  22  34  50  75 104 132 167 209 257 304
#     4  10  19  31  47  67  96 135 179 213 243 289
#
# _framework density 17.910713999999999
#
# number of rings (size 3 to 8) (size 9 to 14) (size 15 to 20)
#    0.000    2.714    0.000    3.000    2.000    2.857 
#    0.000    2.857    0.000    0.857    0.000    6.000 
#    0.000    0.000    0.000    0.000    0.000    0.000 
#
# Total GULP energy -346981.033633 kJ/mol
# GULP energy per Si atom -12392.179773 kJ/mol
# Density = 1.786995 g / cm^3
# Si number density = 17.910714 Si / 1000 Ang^3
#
#
#
# Elastic Constant Matrix: (Units=GPa)
#
#
# Indices 1 2 3 4 5 6 
#
# 1 130.2390 23.6018 66.3740 0.0000 2.1128 0.0000
# 2 23.6018 47.1609 25.9687 0.0000 -1.6102 0.0000
# 3 66.3740 25.9687 126.1659 0.0000 5.7769 0.0000
# 4 0.0000 0.0000 0.0000 9.8171 0.0000 -2.0533
# 5 2.1128 -1.6102 5.7769 0.0000 17.7988 0.0000
# 6 0.0000 0.0000 0.0000 -2.0533 0.0000 14.1850
#
#
#
# Elastic Compliance Matrix: (Units=1/GPa)
#
#
# Indices 1 2 3 4 5 6 
#
# 1 0.010758 -0.002546 -0.005143 0.000000 0.000162 0.000000
# 2 -0.002546 0.024776 -0.003935 0.000000 0.003821 0.000000
# 3 -0.005143 -0.003935 0.011602 0.000000 -0.003511 0.000000
# 4 0.000000 0.000000 0.000000 0.105043 0.000000 0.015205
# 5 0.000162 0.003821 -0.003511 0.000000 0.057650 0.000000
# 6 0.000000 0.000000 0.000000 0.015205 0.000000 0.072698
#
#
# Mechanical properties :
#
#
# Convention : Reuss Voigt Hill
#
# Bulk Modulus (GPa) = 41.86290 59.49498 50.67894
# Shear Modulus (GPa) = 15.93691 20.86827 18.40259
#
# Velocity S-wave (km/s) = 2.98618 3.41710 3.20888
# Velocity P-wave (km/s) = 5.94252 6.98988 6.48737
#
# Compressibility (1/GPa) = 0.02388750
#
# Stress axis : x y z
#
# Youngs Moduli (GPa) = 92.95385 40.36240 86.18940
#
# Poissons Ratio (x) = 0.10278 0.44326
# Poissons Ratio (y) = 0.23671 0.33914
# Poissons Ratio (z) = 0.47805 0.15882
#
# Static dielectric constant tensor:
#      x y z
#    x 3.596770 0.000000 0.115190 
#    y 0.000000 3.201960 0.000000 
#    z 0.115190 0.000000 3.286440 
# 
# 
# High freq. dielectric constant tensor:
#      x y z
#    x 1.698030 0.000000 -0.000960 
#    y 0.000000 1.678690 0.000000 
#    z -0.000960 0.000000 1.657000 
# 
# From -- ./inp_files/83322.got.cif
#   From: 2010.06.25/outbox.cif.g09.slc.cpg/sg10_42_cif.got.tgz:83322.got - 2010.06.27 22:07:45.
