data_PCOD8059751
_publ_section_title
;
Structure prediction by ZEFSAII (Michael W. Deem and Ramdas Pophale) SiO2 
 PCOD8059751
Probable space group: P 2/M
;
_chemical_formula_sum "Si O2"
_cell_formula_units_Z 32
_cell_length_a 10.061331
_cell_length_b 9.124333
_cell_length_c 21.310749
_cell_angle_alpha 90.000000
_cell_angle_beta 111.625401
_cell_angle_gamma 90.000000
_cell_volume 1818.685299
_symmetry_space_group_name_H-M "P 2/M"
_symmetry_group_IT_number 10
_symmetry_cell_setting 'monoclinic'
loop_
_space_group_symop_operation_xyz
x,y,z
-x,y,-z
-x,-y,-z
x,-y,z
loop_
_atom_site_type_symbol
_atom_site_label
_atom_site_fract_x
_atom_site_fract_y
_atom_site_fract_z
Si Si1 0.259178 0.664463 0.807450
Si Si2 0.158599 0.828566 0.675545
Si Si3 0.048793 0.828357 0.939413
Si Si4 0.644665 0.170996 0.059777
Si Si5 0.664285 0.330499 0.540461
Si Si6 0.153643 0.172087 0.328290
Si Si7 0.058125 0.334817 0.194956
Si Si8 0.158767 0.330416 0.548842
O O1 0.315223 0.500000 0.805949
O O2 0.265017 0.752613 0.743476
O O3 0.359433 0.743084 0.875475
O O4 0.099421 0.664724 0.804842
O O5 0.200128 0.768092 0.615018
O O6 0.994159 0.789988 0.662170
O O7 0.187184 0.000000 0.683187
O O8 0.215938 0.787512 0.957695
O O9 0.945328 0.744762 0.872893
O O10 0.023894 0.000000 0.924684
O O11 0.000000 0.778730 0.000000
O O12 0.646154 0.000000 0.075958
O O13 0.500000 0.218145 0.000000
O O14 0.500000 0.299322 0.500000
O O15 0.696927 0.500000 0.561542
O O16 0.717011 0.234373 0.607954
O O17 0.741203 0.281208 0.490416
O O18 0.159634 0.247397 0.260857
O O19 0.173237 0.000000 0.322072
O O20 0.116510 0.500000 0.196848
O O21 0.178979 0.500000 0.570771
O O22 0.000000 0.295432 0.500000
#
# Coordination Sequence:
#
# PCOD8059751 Si02
#       8
#     4   4   4   4   4   4   4   4
#     4   9  17  29  47  72 100 129 163 203 245 288
#     4  10  19  30  49  76 103 128 161 208 252 289
#     4   9  17  30  49  73 100 128 159 198 243 288
#     4   9  17  30  49  72  99 130 162 196 238 290
#     4  10  21  36  53  73 100 133 165 200 245 297
#     4  10  19  31  50  75 101 129 164 206 248 292
#     4   9  17  29  48  73  99 127 163 205 245 287
#     4  10  19  32  52  76 100 128 163 202 245 292
#
# _framework density 17.595127000000002
#
# number of rings (size 3 to 8) (size 9 to 14) (size 15 to 20)
#    0.000    2.500    1.250    1.500    0.000    5.500 
#    0.000    0.000    2.750    0.000    0.000    0.000 
#    0.000    0.000    0.000    0.000    0.000    0.000 
#
# Total GULP energy -396840.342797 kJ/mol
# GULP energy per Si atom -12401.260712 kJ/mol
# Density = 1.755508 g / cm^3
# Si number density = 17.595127 Si / 1000 Ang^3
#
#
#
# Elastic Constant Matrix: (Units=GPa)
#
#
# Indices 1 2 3 4 5 6 
#
# 1 42.9003 22.0558 26.4140 0.0000 -12.1736 0.0000
# 2 22.0558 93.3358 75.3665 0.0000 -3.9522 0.0000
# 3 26.4140 75.3665 144.0248 0.0000 -16.9527 0.0000
# 4 0.0000 0.0000 0.0000 41.0412 0.0000 -0.8842
# 5 -12.1736 -3.9522 -16.9527 0.0000 19.1796 0.0000
# 6 0.0000 0.0000 0.0000 -0.8842 0.0000 17.6705
#
#
#
# Elastic Compliance Matrix: (Units=1/GPa)
#
#
# Indices 1 2 3 4 5 6 
#
# 1 0.032216 -0.006646 -0.000206 0.000000 0.018896 0.000000
# 2 -0.006646 0.020422 -0.010569 0.000000 -0.009352 0.000000
# 3 -0.000206 -0.010569 0.013661 0.000000 0.009766 0.000000
# 4 0.000000 0.000000 0.000000 0.024392 0.000000 0.001221
# 5 0.018896 -0.009352 0.009766 0.000000 0.070837 0.000000
# 6 0.000000 0.000000 0.000000 0.001221 0.000000 0.056652
#
#
# Mechanical properties :
#
#
# Convention : Reuss Voigt Hill
#
# Bulk Modulus (GPa) = 31.78926 58.65929 45.22427
# Shear Modulus (GPa) = 18.97468 26.00658 22.49063
#
# Velocity S-wave (km/s) = 3.28747 3.84872 3.57911
# Velocity P-wave (km/s) = 5.70230 7.29115 6.54512
#
# Compressibility (1/GPa) = 0.03145717
#
# Stress axis : x y z
#
# Youngs Moduli (GPa) = 31.04076 48.96565 73.20039
#
# Poissons Ratio (x) = 0.32542 0.01511
# Poissons Ratio (y) = 0.20629 0.77363
# Poissons Ratio (z) = 0.00641 0.51750
#
# Static dielectric constant tensor:
#      x y z
#    x 2.923930 0.000000 -0.042310 
#    y 0.000000 3.321370 0.000000 
#    z -0.042310 0.000000 3.365440 
# 
# 
# High freq. dielectric constant tensor:
#      x y z
#    x 1.635940 0.000000 -0.004440 
#    y 0.000000 1.685530 0.000000 
#    z -0.004440 0.000000 1.692620 
# 
# From -- ./inp_files/52720.got.cif
#   From: 2010.06.25/outbox.cif.g09.slc.cpg/sg10_27_cif.got.tgz:52720.got - 2010.06.27 22:07:45.
