data_PCOD8059716
_publ_section_title
;
Structure prediction by ZEFSAII (Michael W. Deem and Ramdas Pophale) SiO2 
 PCOD8059716
Probable space group: P 2/M
;
_chemical_formula_sum "Si O2"
_cell_formula_units_Z 20
_cell_length_a 4.957200
_cell_length_b 16.802515
_cell_length_c 14.189052
_cell_angle_alpha 90.000000
_cell_angle_beta 66.641972
_cell_angle_gamma 90.000000
_cell_volume 1084.996230
_symmetry_space_group_name_H-M "P 2/M"
_symmetry_group_IT_number 10
_symmetry_cell_setting 'monoclinic'
loop_
_space_group_symop_operation_xyz
x,y,z
-x,y,-z
-x,-y,-z
x,-y,z
loop_
_atom_site_type_symbol
_atom_site_label
_atom_site_fract_x
_atom_site_fract_y
_atom_site_fract_z
Si Si1 0.908264 0.819712 0.115718
Si Si2 0.151851 0.818267 0.384371
Si Si3 0.324737 0.269558 0.187482
Si Si4 0.253228 0.908970 0.688130
Si Si5 0.322819 0.412253 0.930179
O O1 0.106427 0.745837 0.128631
O O2 0.917785 0.891563 0.189812
O O3 0.427546 0.796789 0.852020
O O4 0.000000 0.849827 0.000000
O O5 0.155486 0.743787 0.310144
O O6 0.474955 0.849732 0.363350
O O7 0.000000 0.785968 0.500000
O O8 0.969089 0.891857 0.366514
O O9 0.483593 0.355505 0.163995
O O10 0.355222 0.000000 0.670540
O O11 0.287461 0.500000 0.887263
O O12 0.500000 0.421770 0.000000
O O13 0.000000 0.376585 0.000000
#
# Coordination Sequence:
#
# PCOD8059716 Si02
#       5
#     4   4   4   4   4
#     4  10  19  31  49  70  95 129 160 190 233 285
#     4  10  21  35  51  70  92 124 163 203 244 280
#     4  10  19  32  49  70  97 126 161 196 229 280
#     4  10  21  34  49  72  96 121 159 202 245 290
#     4  10  19  30  48  75 103 128 153 186 231 279
#
# _framework density 18.433242
#
# number of rings (size 3 to 8) (size 9 to 14) (size 15 to 20)
#    0.000    2.000    0.000    4.800    0.000    2.800 
#    0.000    0.000    0.000    7.800    0.000    0.000 
#    0.000   14.400    0.000    0.000    0.000    4.000 
#
# Total GULP energy -247898.863189 kJ/mol
# GULP energy per Si atom -12394.943159 kJ/mol
# Density = 1.839129 g / cm^3
# Si number density = 18.433242 Si / 1000 Ang^3
#
#
#
# Elastic Constant Matrix: (Units=GPa)
#
#
# Indices 1 2 3 4 5 6 
#
# 1 84.9714 4.0173 28.7884 0.0000 -5.3003 0.0000
# 2 4.0173 77.6072 39.7409 0.0000 -3.1841 0.0000
# 3 28.7884 39.7409 140.8608 0.0000 7.1359 0.0000
# 4 0.0000 0.0000 0.0000 16.2874 0.0000 -5.8822
# 5 -5.3003 -3.1841 7.1359 0.0000 23.9420 0.0000
# 6 0.0000 0.0000 0.0000 -5.8822 0.0000 22.3936
#
#
#
# Elastic Compliance Matrix: (Units=1/GPa)
#
#
# Indices 1 2 3 4 5 6 
#
# 1 0.013043 0.001118 -0.003183 0.000000 0.003985 0.000000
# 2 0.001118 0.015422 -0.004768 0.000000 0.003720 0.000000
# 3 -0.003183 -0.004768 0.009303 0.000000 -0.004112 0.000000
# 4 0.000000 0.000000 0.000000 0.067832 0.000000 0.017817
# 5 0.003985 0.003720 -0.004112 0.000000 0.044370 0.000000
# 6 0.000000 0.000000 0.000000 0.017817 0.000000 0.049336
#
#
# Mechanical properties :
#
#
# Convention : Reuss Voigt Hill
#
# Bulk Modulus (GPa) = 41.48962 49.83695 45.66329
# Shear Modulus (GPa) = 22.62400 27.91746 25.27073
#
# Velocity S-wave (km/s) = 3.50715 3.89590 3.70663
# Velocity P-wave (km/s) = 6.24156 6.87987 6.56847
#
# Compressibility (1/GPa) = 0.02410241
#
# Stress axis : x y z
#
# Youngs Moduli (GPa) = 76.67093 64.84396 107.49024
#
# Poissons Ratio (x) = -0.07251 0.34214
# Poissons Ratio (y) = -0.08574 0.51250
# Poissons Ratio (z) = 0.24404 0.30917
#
# Static dielectric constant tensor:
#      x y z
#    x 3.725800 0.000000 -0.224240 
#    y 0.000000 3.282350 0.000000 
#    z -0.224240 0.000000 3.871720 
# 
# 
# High freq. dielectric constant tensor:
#      x y z
#    x 1.740470 0.000000 -0.005680 
#    y 0.000000 1.678200 0.000000 
#    z -0.005680 0.000000 1.701790 
# 
# From -- ./inp_files/59196.got.cif
#   From: 2010.06.25/outbox.cif.g09.slc.cpg/sg10_30_cif.got.tgz:59196.got - 2010.06.27 22:07:45.
