data_PCOD8059836
_publ_section_title
;
Structure prediction by ZEFSAII (Michael W. Deem and Ramdas Pophale) SiO2 
 PCOD8059836
Probable space group: P 2/M
;
_chemical_formula_sum "Si O2"
_cell_formula_units_Z 24
_cell_length_a 22.930960
_cell_length_b 13.700717
_cell_length_c 20.321782
_cell_angle_alpha 90.000000
_cell_angle_beta 12.117498
_cell_angle_gamma 90.000000
_cell_volume 1340.217471
_symmetry_space_group_name_H-M "P 2/M"
_symmetry_group_IT_number 10
_symmetry_cell_setting 'monoclinic'
loop_
_space_group_symop_operation_xyz
x,y,z
-x,y,-z
-x,-y,-z
x,-y,z
loop_
_atom_site_type_symbol
_atom_site_label
_atom_site_fract_x
_atom_site_fract_y
_atom_site_fract_z
Si Si1 0.920839 0.616629 0.282266
Si Si2 0.399251 0.792579 0.181247
Si Si3 0.108267 0.110812 0.306474
Si Si4 0.304190 0.387134 0.973894
Si Si5 0.732414 0.388312 0.836457
Si Si6 0.188016 0.616266 0.852094
O O1 0.913134 0.500000 0.293797
O O2 0.610288 0.660478 0.629555
O O3 0.091565 0.660196 0.156097
O O4 0.062936 0.654297 0.058658
O O5 0.074221 0.822444 0.542887
O O6 0.500000 0.833866 0.000000
O O7 0.577916 0.846688 0.041192
O O8 0.461162 0.675917 0.117442
O O9 0.000000 0.119690 0.500000
O O10 0.104352 0.000000 0.285226
O O11 0.335294 0.500000 0.921174
O O12 0.185601 0.374389 0.178084
O O13 0.654449 0.500000 0.905661
O O14 0.000000 0.351557 0.500000
O O15 0.500000 0.656935 0.500000
O O16 0.190325 0.500000 0.848265
O O17 0.000000 0.656831 0.000000
#
# Coordination Sequence:
#
# PCOD8059836 Si02
#       6
#     4   4   4   4   4   4
#     4   9  16  27  40  54  73  96 126 162 203 253
#     4  10  19  31  46  65  85 105 133 172 220 270
#     4   9  17  30  48  67  85 103 124 158 214 280
#     4   9  18  30  42  54  71 101 137 172 211 249
#     4  10  21  35  48  62  83 113 151 193 232 266
#     4   9  15  22  35  55  75  93 114 148 199 251
#
# _framework density 17.907541999999999
#
# number of rings (size 3 to 8) (size 9 to 14) (size 15 to 20)
#    0.000    2.667    0.000    3.000    0.000    9.000 
#    0.000    5.833    0.000    0.500    0.000    0.000 
#    0.000    0.000    0.000    0.000    0.000    0.000 
#
# Total GULP energy -297478.460066 kJ/mol
# GULP energy per Si atom -12394.935836 kJ/mol
# Density = 1.786678 g / cm^3
# Si number density = 17.907542 Si / 1000 Ang^3
#
#
#
# Elastic Constant Matrix: (Units=GPa)
#
#
# Indices 1 2 3 4 5 6 
#
# 1 116.3120 14.1667 66.9230 0.0000 -16.9513 0.0000
# 2 14.1667 72.7181 16.9345 0.0000 -16.6488 0.0000
# 3 66.9230 16.9345 100.3144 0.0000 -20.1608 0.0000
# 4 0.0000 0.0000 0.0000 8.9601 0.0000 -10.5440
# 5 -16.9513 -16.6488 -20.1608 0.0000 43.5775 0.0000
# 6 0.0000 0.0000 0.0000 -10.5440 0.0000 10.3941
#
#
#
# Elastic Compliance Matrix: (Units=1/GPa)
#
#
# Indices 1 2 3 4 5 6 
#
# 1 0.014023 -0.000363 -0.009069 0.000000 0.001120 0.000000
# 2 -0.000363 0.015295 -0.001316 0.000000 0.005093 0.000000
# 3 -0.009069 -0.001316 0.017013 0.000000 0.003840 0.000000
# 4 0.000000 0.000000 0.000000 -0.576020 0.000000 -0.584328
# 5 0.001120 0.005093 0.003840 0.000000 0.027106 0.000000
# 6 0.000000 0.000000 0.000000 -0.584328 0.000000 -0.496548
#
#
# Mechanical properties :
#
#
# Convention : Reuss Voigt Hill
#
# Bulk Modulus (GPa) = 40.26634 53.93254 47.09944
# Shear Modulus (GPa) = -5.15806 25.34102 10.09148
#
# Velocity S-wave (km/s) = -1.69901 3.76587 2.37646
# Velocity P-wave (km/s) = 4.32269 7.00654 5.82139
#
# Compressibility (1/GPa) = 0.02483464
#
# Stress axis : x y z
#
# Youngs Moduli (GPa) = 71.31131 65.38034 58.77990
#
# Poissons Ratio (x) = 0.02377 0.53306
# Poissons Ratio (y) = 0.02592 0.07735
# Poissons Ratio (z) = 0.64670 0.08603
#
# Static dielectric constant tensor:
#      x y z
#    x 3.437770 0.000000 -0.354630 
#    y 0.000000 2.838740 0.000000 
#    z -0.354630 0.000000 3.457370 
# 
# 
# High freq. dielectric constant tensor:
#      x y z
#    x 1.683520 0.000000 -0.034770 
#    y 0.000000 1.621900 0.000000 
#    z -0.034770 0.000000 1.690850 
# 
# From -- ./inp_files/86610.got.cif
#   From: 2010.06.25/outbox.cif.g09.slc.cpg/sg10_44_cif.got.tgz:86610.got - 2010.06.27 22:07:45.
