data_PCOD8059310
_publ_section_title
;
Structure prediction by ZEFSAII (Michael W. Deem and Ramdas Pophale) SiO2 
 PCOD8059310
Probable space group: P 2/M
;
_chemical_formula_sum "Si O2"
_cell_formula_units_Z 32
_cell_length_a 19.854744
_cell_length_b 9.244616
_cell_length_c 13.791599
_cell_angle_alpha 90.000000
_cell_angle_beta 47.009418
_cell_angle_gamma 90.000000
_cell_volume 1851.662417
_symmetry_space_group_name_H-M "P 2/M"
_symmetry_group_IT_number 10
_symmetry_cell_setting 'monoclinic'
loop_
_space_group_symop_operation_xyz
x,y,z
-x,y,-z
-x,-y,-z
x,-y,z
loop_
_atom_site_type_symbol
_atom_site_label
_atom_site_fract_x
_atom_site_fract_y
_atom_site_fract_z
Si Si1 0.393043 0.666888 0.124871
Si Si2 0.194229 0.337303 0.630565
Si Si3 0.118745 0.159168 0.425965
Si Si4 0.862573 0.835643 0.923701
Si Si5 0.296737 0.837261 0.383222
Si Si6 0.893729 0.833099 0.109801
Si Si7 0.981808 0.660796 0.332064
Si Si8 0.745010 0.168162 0.865882
O O1 0.363005 0.500000 0.165611
O O2 0.370766 0.751254 0.245763
O O3 0.340360 0.734897 0.083978
O O4 0.500000 0.682539 0.000000
O O5 0.227701 0.500000 0.621112
O O6 0.279684 0.247542 0.500948
O O7 0.162383 0.263138 0.760618
O O8 0.112143 0.342006 0.634933
O O9 0.201416 0.155133 0.420681
O O10 0.035004 0.256243 0.549323
O O11 0.161448 0.217295 0.282780
O O12 0.077199 0.000000 0.452736
O O13 0.767533 0.807216 0.957500
O O14 0.943417 0.734039 0.808839
O O15 0.895910 0.000000 0.873660
O O16 0.844431 0.808298 0.054690
O O17 0.333236 0.000000 0.368734
O O18 0.889169 0.000000 0.147693
O O19 0.000000 0.782822 0.000000
O O20 0.015135 0.500000 0.325104
O O21 0.722997 0.000000 0.863102
#
# Coordination Sequence:
#
# PCOD8059310 Si02
#       8
#     4   4   4   4   4   4   4   4
#     4  10  20  34  54  80 107 130 152 186 237 296
#     4  10  19  30  46  68  98 131 166 212 255 290
#     4   8  15  28  44  61  86 121 159 196 235 278
#     4  10  20  33  47  64  91 126 168 211 248 285
#     4   9  17  30  50  74  99 128 163 199 237 287
#     4  10  19  31  48  68  91 128 175 218 255 290
#     4  10  19  28  41  63  89 123 164 203 245 286
#     4   9  19  34  50  69  93 126 163 200 239 286
#
# _framework density 17.281769000000001
#
# number of rings (size 3 to 8) (size 9 to 14) (size 15 to 20)
#    0.000    2.500    1.250    2.250    0.000    6.750 
#    0.000    2.500    0.000    0.000    0.000    0.875 
#    0.000    7.000    0.000    0.000    0.000    0.000 
#
# Total GULP energy -396729.663995 kJ/mol
# GULP energy per Si atom -12397.802000 kJ/mol
# Density = 1.724243 g / cm^3
# Si number density = 17.281769 Si / 1000 Ang^3
#
#
#
# Elastic Constant Matrix: (Units=GPa)
#
#
# Indices 1 2 3 4 5 6 
#
# 1 57.4702 34.2574 36.5495 0.0000 14.6344 0.0000
# 2 34.2574 124.7848 60.7176 0.0000 9.0952 0.0000
# 3 36.5495 60.7176 87.5479 0.0000 12.7018 0.0000
# 4 0.0000 0.0000 0.0000 28.7113 0.0000 0.9289
# 5 14.6344 9.0952 12.7018 0.0000 25.8019 0.0000
# 6 0.0000 0.0000 0.0000 0.9289 0.0000 2.6035
#
#
#
# Elastic Compliance Matrix: (Units=1/GPa)
#
#
# Indices 1 2 3 4 5 6 
#
# 1 0.026567 -0.002827 -0.007634 0.000000 -0.010314 0.000000
# 2 -0.002827 0.012397 -0.007556 0.000000 0.000953 0.000000
# 3 -0.007634 -0.007556 0.020284 0.000000 -0.002992 0.000000
# 4 0.000000 0.000000 0.000000 0.035236 0.000000 -0.012572
# 5 -0.010314 0.000953 -0.002992 0.000000 0.045744 0.000000
# 6 0.000000 0.000000 0.000000 -0.012572 0.000000 0.388579
#
#
# Mechanical properties :
#
#
# Convention : Reuss Voigt Hill
#
# Bulk Modulus (GPa) = 43.07823 59.20578 51.14200
# Shear Modulus (GPa) = 8.73243 20.64190 14.68717
#
# Velocity S-wave (km/s) = 2.25032 3.45981 2.91841
# Velocity P-wave (km/s) = 5.63321 7.09181 6.40417
#
# Compressibility (1/GPa) = 0.02321358
#
# Stress axis : x y z
#
# Youngs Moduli (GPa) = 37.64080 80.66528 49.30081
#
# Poissons Ratio (x) = 0.22805 0.37637
# Poissons Ratio (y) = 0.10642 0.37250
# Poissons Ratio (z) = 0.28735 0.60948
#
# Static dielectric constant tensor:
#      x y z
#    x 3.044200 0.000000 0.271840 
#    y 0.000000 3.477810 0.000000 
#    z 0.271840 0.000000 3.095780 
# 
# 
# High freq. dielectric constant tensor:
#      x y z
#    x 1.636050 0.000000 0.022000 
#    y 0.000000 1.677250 0.000000 
#    z 0.022000 0.000000 1.648410 
# 
# From -- ./inp_files/66180.got.cif
#   From: 2010.06.25/outbox.cif.g09.slc.cpg/sg10_34_cif.got.tgz:66180.got - 2010.06.27 22:07:45.
