data_PCOD8059401
_publ_section_title
;
Structure prediction by ZEFSAII (Michael W. Deem and Ramdas Pophale) SiO2 
 PCOD8059401
Probable space group: P 2/M
;
_chemical_formula_sum "Si O2"
_cell_formula_units_Z 32
_cell_length_a 22.730801
_cell_length_b 14.075073
_cell_length_c 19.848100
_cell_angle_alpha 90.000000
_cell_angle_beta 160.253217
_cell_angle_gamma 90.000000
_cell_volume 2145.488008
_symmetry_space_group_name_H-M "P 2/M"
_symmetry_group_IT_number 10
_symmetry_cell_setting 'monoclinic'
loop_
_space_group_symop_operation_xyz
x,y,z
-x,y,-z
-x,-y,-z
x,-y,z
loop_
_atom_site_type_symbol
_atom_site_label
_atom_site_fract_x
_atom_site_fract_y
_atom_site_fract_z
Si Si1 0.668771 0.387618 0.384480
Si Si2 0.595570 0.387252 0.786701
Si Si3 0.230396 0.106173 0.311903
Si Si4 0.148888 0.106174 0.067383
Si Si5 0.086741 0.392075 0.658755
Si Si6 0.514728 0.607925 0.942715
Si Si7 0.953068 0.612382 0.237359
Si Si8 0.459161 0.765028 0.377484
O O1 0.641782 0.500000 0.351412
O O2 0.551559 0.350588 0.319682
O O3 0.605548 0.343667 0.244488
O O4 0.871427 0.360201 0.614289
O O5 0.589566 0.500000 0.768692
O O6 0.558349 0.338124 0.675043
O O7 0.783443 0.350587 0.015320
O O8 0.198231 0.102873 0.198232
O O9 0.387478 0.178237 0.495824
O O10 0.281578 0.000000 0.391607
O O11 0.052620 0.139743 0.157860
O O12 0.279131 0.178235 0.170785
O O13 0.171547 0.000000 0.061519
O O14 0.016782 0.500000 0.583693
O O15 0.033388 0.343668 0.672328
O O16 0.000000 0.340192 0.500000
O O17 0.292274 0.387326 0.876823
O O18 0.449871 0.500000 0.882959
O O19 0.500000 0.659809 0.000000
O O20 0.932157 0.500000 0.222526
O O21 0.500000 0.749769 0.500000
#
# Coordination Sequence:
#
# PCOD8059401 Si02
#       8
#     4   4   4   4   4   4   4   4
#     4   9  16  27  40  51  67  96 134 174 214 249
#     4  10  20  32  41  52  76 111 151 189 215 238
#     4   8  14  26  45  68  90 105 119 151 205 267
#     4   8  14  26  45  68  90 105 119 151 205 267
#     4   9  14  20  32  52  74  91 115 159 209 252
#     4   9  14  20  32  52  74  91 115 159 209 252
#     4   9  16  27  40  51  67  96 134 174 214 249
#     4  10  19  29  44  63  81 106 143 181 212 247
#
# _framework density 14.915020999999999
#
# number of rings (size 3 to 8) (size 9 to 14) (size 15 to 20)
#    0.000    3.000    1.250    1.875    0.000    5.750 
#    0.000    0.000    0.000    0.000    0.000    7.000 
#    0.000    0.000    0.000    0.000    0.000    5.000 
#
# Total GULP energy -396476.963903 kJ/mol
# GULP energy per Si atom -12389.905122 kJ/mol
# Density = 1.488107 g / cm^3
# Si number density = 14.915021 Si / 1000 Ang^3
#
#
#
# Elastic Constant Matrix: (Units=GPa)
#
#
# Indices 1 2 3 4 5 6 
#
# 1 72.3764 28.7634 47.0018 0.0000 8.5519 0.0000
# 2 28.7634 37.0088 29.8198 0.0000 1.1551 0.0000
# 3 47.0018 29.8198 93.6053 0.0000 14.6815 0.0000
# 4 0.0000 0.0000 0.0000 5.8680 0.0000 2.4443
# 5 8.5519 1.1551 14.6815 0.0000 23.3030 0.0000
# 6 0.0000 0.0000 0.0000 2.4443 0.0000 3.6375
#
#
#
# Elastic Compliance Matrix: (Units=1/GPa)
#
#
# Indices 1 2 3 4 5 6 
#
# 1 0.024131 -0.012539 -0.007580 0.000000 -0.003459 0.000000
# 2 -0.012539 0.043665 -0.008873 0.000000 0.008028 0.000000
# 3 -0.007580 -0.008873 0.018654 0.000000 -0.008531 0.000000
# 4 0.000000 0.000000 0.000000 0.236657 0.000000 -0.159025
# 5 -0.003459 0.008028 -0.008531 0.000000 0.049159 0.000000
# 6 0.000000 0.000000 0.000000 -0.159025 0.000000 0.381774
#
#
# Mechanical properties :
#
#
# Convention : Reuss Voigt Hill
#
# Bulk Modulus (GPa) = 35.13006 46.01784 40.57395
# Shear Modulus (GPa) = 6.08634 13.05540 9.57087
#
# Velocity S-wave (km/s) = 2.02226 2.96179 2.53591
# Velocity P-wave (km/s) = 5.39048 6.52814 5.98640
#
# Compressibility (1/GPa) = 0.02846565
#
# Stress axis : x y z
#
# Youngs Moduli (GPa) = 41.44049 22.90150 53.60822
#
# Poissons Ratio (x) = 0.28717 0.40633
# Poissons Ratio (y) = 0.51964 0.47567
# Poissons Ratio (z) = 0.31410 0.20321
#
# Static dielectric constant tensor:
#      x y z
#    x 2.885520 0.000000 0.187660 
#    y 0.000000 2.361120 0.000000 
#    z 0.187660 0.000000 3.056930 
# 
# 
# High freq. dielectric constant tensor:
#      x y z
#    x 1.565120 0.000000 0.019200 
#    y 0.000000 1.492530 0.000000 
#    z 0.019200 0.000000 1.582660 
# 
# From -- ./inp_files/79754.got.cif
#   From: 2010.06.25/outbox.cif.g09.slc.cpg/sg10_40_cif.got.tgz:79754.got - 2010.06.27 22:07:45.
