data_PCOD8059154
_publ_section_title
;
Structure prediction by ZEFSAII (Michael W. Deem and Ramdas Pophale) SiO2 
 PCOD8059154
Probable space group: P 2/M
;
_chemical_formula_sum "Si O2"
_cell_formula_units_Z 24
_cell_length_a 16.583765
_cell_length_b 8.408307
_cell_length_c 21.984304
_cell_angle_alpha 90.000000
_cell_angle_beta 23.906462
_cell_angle_gamma 90.000000
_cell_volume 1242.286472
_symmetry_space_group_name_H-M "P 2/M"
_symmetry_group_IT_number 10
_symmetry_cell_setting 'monoclinic'
loop_
_space_group_symop_operation_xyz
x,y,z
-x,y,-z
-x,-y,-z
x,-y,z
loop_
_atom_site_type_symbol
_atom_site_label
_atom_site_fract_x
_atom_site_fract_y
_atom_site_fract_z
Si Si1 0.362006 0.185721 0.913865
Si Si2 0.932460 0.685622 0.208071
Si Si3 0.804577 0.688647 0.167265
Si Si4 0.554386 0.685539 0.667114
Si Si5 0.351453 0.312302 0.049119
Si Si6 0.914893 0.816041 0.349207
O O1 0.527991 0.222035 0.748840
O O2 0.313431 0.000000 0.951160
O O3 0.442288 0.245781 0.923642
O O4 0.162448 0.280585 0.033937
O O5 0.906050 0.500000 0.240475
O O6 0.801274 0.739821 0.240511
O O7 0.860028 0.782005 0.316813
O O8 0.814882 0.500000 0.156229
O O9 0.606542 0.751944 0.270705
O O10 0.000000 0.761879 0.000000
O O11 0.523680 0.500000 0.700395
O O12 0.773843 0.716602 0.490894
O O13 0.322855 0.500000 0.064193
O O14 0.139450 0.233528 0.208732
O O15 0.500000 0.262266 0.000000
O O16 0.883748 0.000000 0.384589
#
# Coordination Sequence:
#
# PCOD8059154 Si02
#       6
#     4   4   4   4   4   4
#     4  11  21  34  55  85 117 148 182 224 282 336
#     4  10  18  34  57  79 107 149 199 236 272 325
#     4   9  17  31  54  82 107 143 197 244 274 314
#     4  11  21  37  58  80 112 152 194 236 277 324
#     4  10  21  40  66  90 109 139 185 227 268 331
#     4  11  23  38  55  82 119 149 181 227 287 339
#
# _framework density 19.319216999999998
#
# number of rings (size 3 to 8) (size 9 to 14) (size 15 to 20)
#    0.000    1.667    1.667    6.500    0.000    2.000 
#    0.000    8.333    0.000    5.000    0.000    0.000 
#    0.000    0.000    0.000    0.000    0.000    0.000 
#
# Total GULP energy -297665.211849 kJ/mol
# GULP energy per Si atom -12402.717160 kJ/mol
# Density = 1.927525 g / cm^3
# Si number density = 19.319217 Si / 1000 Ang^3
#
#
#
# Elastic Constant Matrix: (Units=GPa)
#
#
# Indices 1 2 3 4 5 6 
#
# 1 145.9413 29.5086 50.3166 0.0000 0.3668 0.0000
# 2 29.5086 64.0533 5.3629 0.0000 -4.2505 0.0000
# 3 50.3166 5.3629 83.7059 0.0000 15.2937 0.0000
# 4 0.0000 0.0000 0.0000 22.9696 0.0000 10.8820
# 5 0.3668 -4.2505 15.2937 0.0000 24.1598 0.0000
# 6 0.0000 0.0000 0.0000 10.8820 0.0000 11.4517
#
#
#
# Elastic Compliance Matrix: (Units=1/GPa)
#
#
# Indices 1 2 3 4 5 6 
#
# 1 0.009735 -0.003762 -0.006177 0.000000 0.003101 0.000000
# 2 -0.003762 0.017472 0.000644 0.000000 0.002723 0.000000
# 3 -0.006177 0.000644 0.017618 0.000000 -0.010946 0.000000
# 4 0.000000 0.000000 0.000000 0.079183 0.000000 -0.075244
# 5 0.003101 0.002723 -0.010946 0.000000 0.048752 0.000000
# 6 0.000000 0.000000 0.000000 -0.075244 0.000000 0.158824
#
#
# Mechanical properties :
#
#
# Convention : Reuss Voigt Hill
#
# Bulk Modulus (GPa) = 38.11613 51.56408 44.84011
# Shear Modulus (GPa) = 13.93075 25.61704 19.77389
#
# Velocity S-wave (km/s) = 2.68821 3.64536 3.20274
# Velocity P-wave (km/s) = 5.42289 6.66834 6.07760
#
# Compressibility (1/GPa) = 0.02623561
#
# Stress axis : x y z
#
# Youngs Moduli (GPa) = 102.72699 57.23535 56.75929
#
# Poissons Ratio (x) = 0.21530 0.35060
# Poissons Ratio (y) = 0.38642 -0.03657
# Poissons Ratio (z) = 0.63455 -0.03687
#
# Static dielectric constant tensor:
#      x y z
#    x 3.710290 0.000000 0.084070 
#    y 0.000000 3.383860 0.000000 
#    z 0.084070 0.000000 3.341130 
# 
# 
# High freq. dielectric constant tensor:
#      x y z
#    x 1.752020 0.000000 0.014350 
#    y 0.000000 1.748200 0.000000 
#    z 0.014350 0.000000 1.737130 
# 
# From -- ./inp_files/90009.got.cif
#   From: 2010.06.25/outbox.cif.g09.slc.cpg/sg10_46_cif.got.tgz:90009.got - 2010.06.27 22:07:45.
