data_PCOD8059617
_publ_section_title
;
Structure prediction by ZEFSAII (Michael W. Deem and Ramdas Pophale) SiO2 
 PCOD8059617
Probable space group: P 2/M
;
_chemical_formula_sum "Si O2"
_cell_formula_units_Z 24
_cell_length_a 11.696813
_cell_length_b 9.208950
_cell_length_c 20.677189
_cell_angle_alpha 90.000000
_cell_angle_beta 39.249430
_cell_angle_gamma 90.000000
_cell_volume 1409.176406
_symmetry_space_group_name_H-M "P 2/M"
_symmetry_group_IT_number 10
_symmetry_cell_setting 'monoclinic'
loop_
_space_group_symop_operation_xyz
x,y,z
-x,y,-z
-x,-y,-z
x,-y,z
loop_
_atom_site_type_symbol
_atom_site_label
_atom_site_fract_x
_atom_site_fract_y
_atom_site_fract_z
Si Si1 0.639139 0.828730 0.883807
Si Si2 0.043522 0.834935 0.575349
Si Si3 0.676676 0.666947 0.741992
Si Si4 0.618458 0.669877 0.387527
Si Si5 0.368278 0.333938 0.379816
Si Si6 0.045721 0.163121 0.721693
O O1 0.578877 0.751105 0.843581
O O2 0.839832 0.777746 0.817156
O O3 0.638671 0.000000 0.870550
O O4 0.500000 0.782279 0.000000
O O5 0.199075 0.772341 0.461881
O O6 0.111730 0.830859 0.618974
O O7 0.870761 0.734594 0.642676
O O8 0.997923 0.000000 0.574503
O O9 0.699762 0.500000 0.752387
O O10 0.562863 0.680761 0.724769
O O11 0.500000 0.729127 0.500000
O O12 0.647532 0.500000 0.383024
O O13 0.525688 0.711414 0.360267
O O14 0.817001 0.740087 0.297331
O O15 0.307706 0.500000 0.420736
O O16 0.053838 0.000000 0.745563
#
# Coordination Sequence:
#
# PCOD8059617 Si02
#       6
#     4   4   4   4   4   4
#     4   9  19  37  58  77  98 123 156 205 258 301
#     4  10  19  30  46  69  99 133 168 203 241 290
#     4  10  20  32  48  71 100 128 161 204 247 296
#     4  10  19  31  48  68  97 138 174 200 232 281
#     4  10  20  32  45  67 100 136 168 201 242 284
#     4   9  18  31  48  73  99 125 161 204 245 285
#
# _framework density 17.031226
#
# number of rings (size 3 to 8) (size 9 to 14) (size 15 to 20)
#    0.000    2.333    1.667    2.500    0.000    7.333 
#    0.000    0.000    0.000    1.000    0.000    7.000 
#    0.000    0.000    0.000    0.000    0.000    0.000 
#
# Total GULP energy -297541.262357 kJ/mol
# GULP energy per Si atom -12397.552598 kJ/mol
# Density = 1.699246 g / cm^3
# Si number density = 17.031226 Si / 1000 Ang^3
#
#
#
# Elastic Constant Matrix: (Units=GPa)
#
#
# Indices 1 2 3 4 5 6 
#
# 1 106.3259 40.1522 53.7964 0.0000 16.0623 0.0000
# 2 40.1522 61.5230 38.4847 0.0000 8.3093 0.0000
# 3 53.7964 38.4847 103.3741 0.0000 11.3314 0.0000
# 4 0.0000 0.0000 0.0000 20.6222 0.0000 -2.9023
# 5 16.0623 8.3093 11.3314 0.0000 16.7141 0.0000
# 6 0.0000 0.0000 0.0000 -2.9023 0.0000 21.8766
#
#
#
# Elastic Compliance Matrix: (Units=1/GPa)
#
#
# Indices 1 2 3 4 5 6 
#
# 1 0.015371 -0.005812 -0.004897 0.000000 -0.008562 0.000000
# 2 -0.005812 0.023883 -0.005593 0.000000 -0.002496 0.000000
# 3 -0.004897 -0.005593 0.014566 0.000000 -0.002389 0.000000
# 4 0.000000 0.000000 0.000000 0.049414 0.000000 0.006556
# 5 -0.008562 -0.002496 -0.002389 0.000000 0.070918 0.000000
# 6 0.000000 0.000000 0.000000 0.006556 0.000000 0.046581
#
#
# Mechanical properties :
#
#
# Convention : Reuss Voigt Hill
#
# Bulk Modulus (GPa) = 47.13420 59.56549 53.34985
# Shear Modulus (GPa) = 19.20057 21.09523 20.14790
#
# Velocity S-wave (km/s) = 3.36128 3.52322 3.44320
# Velocity P-wave (km/s) = 6.54214 7.18338 6.87025
#
# Compressibility (1/GPa) = 0.02121602
#
# Stress axis : x y z
#
# Youngs Moduli (GPa) = 65.05789 41.87066 68.65319
#
# Poissons Ratio (x) = 0.24336 0.33618
# Poissons Ratio (y) = 0.37813 0.38398
# Poissons Ratio (z) = 0.31857 0.23418
#
# Static dielectric constant tensor:
#      x y z
#    x 3.242910 0.000000 0.151290 
#    y 0.000000 3.199790 0.000000 
#    z 0.151290 0.000000 2.979170 
# 
# 
# High freq. dielectric constant tensor:
#      x y z
#    x 1.654940 0.000000 0.011770 
#    y 0.000000 1.661760 0.000000 
#    z 0.011770 0.000000 1.621480 
# 
# From -- ./inp_files/45140.got.cif
#   From: 2010.06.25/outbox.cif.g09.slc.cpg/sg10_23_cif.got.tgz:45140.got - 2010.06.27 22:07:45.
