data_PCOD8059142
_publ_section_title
;
Structure prediction by ZEFSAII (Michael W. Deem and Ramdas Pophale) SiO2 
 PCOD8059142
Probable space group: P 2/M
;
_chemical_formula_sum "Si O2"
_cell_formula_units_Z 30
_cell_length_a 11.290442
_cell_length_b 9.694817
_cell_length_c 17.570334
_cell_angle_alpha 90.000000
_cell_angle_beta 123.050497
_cell_angle_gamma 90.000000
_cell_volume 1612.030193
_symmetry_space_group_name_H-M "P 2/M"
_symmetry_group_IT_number 10
_symmetry_cell_setting 'monoclinic'
loop_
_space_group_symop_operation_xyz
x,y,z
-x,y,-z
-x,-y,-z
x,-y,z
loop_
_atom_site_type_symbol
_atom_site_label
_atom_site_fract_x
_atom_site_fract_y
_atom_site_fract_z
Si Si1 0.928330 0.338127 0.588977
Si Si2 0.161865 0.653936 0.281426
Si Si3 0.259223 0.850123 0.191421
Si Si4 0.870935 0.349409 0.092649
Si Si5 0.447390 0.163638 0.778300
Si Si6 0.376845 0.655999 0.897493
Si Si7 0.000000 0.788226 0.000000
Si Si8 0.217988 0.663497 0.617827
O O1 0.935652 0.500000 0.603468
O O2 0.864244 0.275669 0.644840
O O3 0.826067 0.300171 0.483754
O O4 0.089392 0.290710 0.628720
O O5 0.228332 0.500000 0.311764
O O6 0.262004 0.746616 0.263853
O O7 0.015131 0.645015 0.187636
O O8 0.387780 0.808510 0.181313
O O9 0.290075 0.000000 0.237432
O O10 0.109510 0.866972 0.093614
O O11 0.805162 0.500000 0.057348
O O12 0.756157 0.272880 0.105191
O O13 0.892254 0.295029 0.015180
O O14 0.416042 0.236321 0.846645
O O15 0.352078 0.240628 0.681823
O O16 0.412953 0.000000 0.769462
O O17 0.343451 0.500000 0.853163
O O18 0.500000 0.643939 0.000000
O O19 0.251767 0.500000 0.637775
#
# Coordination Sequence:
#
# PCOD8059142 Si02
#       8
#     4   4   4   4   4   4   2   4
#     4   8  15  31  57  85 107 129 165 214 260 301
#     4   9  17  31  52  76 100 127 164 210 257 304
#     4  10  22  37  51  70  99 136 176 216 258 301
#     4   9  17  29  49  78 105 127 158 207 258 300
#     4  11  23  37  51  73 108 142 172 211 259 309
#     4  10  20  34  53  77 103 133 171 211 254 307
#     4  10  18  34  56  72  95 134 179 214 249 302
#     4   9  17  33  58  82 105 136 170 206 254 309
#
# _framework density 18.610073
#
# number of rings (size 3 to 8) (size 9 to 14) (size 15 to 20)
#    0.000    2.533    0.000    3.200    0.000    4.000 
#    0.000    9.333    0.000    4.000    0.000    0.000 
#    0.000    0.000    0.000    0.000    0.000    0.000 
#
# Total GULP energy -371657.152262 kJ/mol
# GULP energy per Si atom -12388.571742 kJ/mol
# Density = 1.856772 g / cm^3
# Si number density = 18.610073 Si / 1000 Ang^3
#
#
#
# Elastic Constant Matrix: (Units=GPa)
#
#
# Indices 1 2 3 4 5 6 
#
# 1 124.9979 53.5498 28.7344 0.0000 -23.1990 0.0000
# 2 53.5498 83.2013 31.3743 0.0000 -12.3900 0.0000
# 3 28.7344 31.3743 62.2938 0.0000 -15.7040 0.0000
# 4 0.0000 0.0000 0.0000 13.9118 0.0000 1.0361
# 5 -23.1990 -12.3900 -15.7040 0.0000 39.9218 0.0000
# 6 0.0000 0.0000 0.0000 1.0361 0.0000 24.6150
#
#
#
# Elastic Compliance Matrix: (Units=1/GPa)
#
#
# Indices 1 2 3 4 5 6 
#
# 1 0.011893 -0.006599 -0.001039 0.000000 0.004454 0.000000
# 2 -0.006599 0.018623 -0.006488 0.000000 -0.000608 0.000000
# 3 -0.001039 -0.006488 0.021247 0.000000 0.005740 0.000000
# 4 0.000000 0.000000 0.000000 0.072107 0.000000 -0.003035
# 5 0.004454 -0.000608 0.005740 0.000000 0.029707 0.000000
# 6 0.000000 0.000000 0.000000 -0.003035 0.000000 0.040753
#
#
# Mechanical properties :
#
#
# Convention : Reuss Voigt Hill
#
# Bulk Modulus (GPa) = 42.53690 55.31223 48.92456
# Shear Modulus (GPa) = 21.69943 26.14536 23.92240
#
# Velocity S-wave (km/s) = 3.41839 3.75227 3.58921
# Velocity P-wave (km/s) = 6.20379 6.96842 6.59719
#
# Compressibility (1/GPa) = 0.02350900
#
# Stress axis : x y z
#
# Youngs Moduli (GPa) = 84.08401 53.69787 47.06468
#
# Poissons Ratio (x) = 0.35437 0.04891
# Poissons Ratio (y) = 0.55489 0.30538
# Poissons Ratio (z) = 0.08738 0.34842
#
# Static dielectric constant tensor:
#      x y z
#    x 3.465470 0.000000 -0.012640 
#    y 0.000000 3.380600 0.000000 
#    z -0.012640 0.000000 3.183310 
# 
# 
# High freq. dielectric constant tensor:
#      x y z
#    x 1.729080 0.000000 -0.009480 
#    y 0.000000 1.694140 0.000000 
#    z -0.009480 0.000000 1.717780 
# 
# From -- ./inp_files/76232.got.cif
#   From: 2010.06.25/outbox.cif.g09.slc.cpg/sg10_39_cif.got.tgz:76232.got - 2010.06.27 22:07:45.
