data_PCOD8059152
_publ_section_title
;
Structure prediction by ZEFSAII (Michael W. Deem and Ramdas Pophale) SiO2 
 PCOD8059152
Probable space group: P 2/M
;
_chemical_formula_sum "Si O2"
_cell_formula_units_Z 26
_cell_length_a 9.269118
_cell_length_b 12.199534
_cell_length_c 15.646734
_cell_angle_alpha 90.000000
_cell_angle_beta 129.520871
_cell_angle_gamma 90.000000
_cell_volume 1364.837510
_symmetry_space_group_name_H-M "P 2/M"
_symmetry_group_IT_number 10
_symmetry_cell_setting 'monoclinic'
loop_
_space_group_symop_operation_xyz
x,y,z
-x,y,-z
-x,-y,-z
x,-y,z
loop_
_atom_site_type_symbol
_atom_site_label
_atom_site_fract_x
_atom_site_fract_y
_atom_site_fract_z
Si Si1 0.825809 0.375258 0.233185
Si Si2 0.911656 0.794571 0.751818
Si Si3 0.752898 0.878978 0.014184
Si Si4 0.666280 0.875173 0.797889
Si Si5 0.500000 0.294650 0.000000
Si Si6 0.254552 0.795349 0.656735
Si Si7 0.876034 0.879130 0.560042
O O1 0.882589 0.500000 0.272073
O O2 0.781491 0.319841 0.308251
O O3 0.998711 0.319805 0.246558
O O4 0.641537 0.371372 0.105139
O O5 0.741559 0.787591 0.755809
O O6 0.820535 0.854188 0.636079
O O7 0.067496 0.867317 0.857757
O O8 0.801200 0.869533 0.931604
O O9 0.667808 0.000000 0.999973
O O10 0.604289 0.784220 0.973805
O O11 0.460438 0.840118 0.751008
O O12 0.664111 0.000000 0.760474
O O13 0.215352 0.789763 0.539379
O O14 0.102202 0.878740 0.638994
O O15 0.801847 0.000000 0.507592
#
# Coordination Sequence:
#
# PCOD8059152 Si02
#       7
#     4   4   4   4   2   4   4
#     4  10  21  39  59  78 105 145 192 241 278 309
#     4  10  22  35  52  78 115 152 191 221 266 331
#     4  10  19  31  52  83 119 151 174 214 277 341
#     4  11  20  33  54  84 119 151 175 217 278 343
#     4  10  18  34  56  84 110 136 184 234 276 328
#     4  10  20  35  54  82 109 140 185 230 273 322
#     4  10  19  35  55  81 114 150 182 224 275 332
#
# _framework density 19.049886000000001
#
# number of rings (size 3 to 8) (size 9 to 14) (size 15 to 20)
#    0.000    1.846    1.538    4.154    0.000    1.846 
#    0.000    8.462    0.000    1.846    0.000   10.769 
#    0.000    0.000    0.000    0.000    0.000    0.000 
#
# Total GULP energy -322179.044854 kJ/mol
# GULP energy per Si atom -12391.501725 kJ/mol
# Density = 1.900653 g / cm^3
# Si number density = 19.049886 Si / 1000 Ang^3
#
#
#
# Elastic Constant Matrix: (Units=GPa)
#
#
# Indices 1 2 3 4 5 6 
#
# 1 62.1427 33.9855 31.5245 0.0000 -12.8558 0.0000
# 2 33.9855 119.9550 42.7400 0.0000 -12.7188 0.0000
# 3 31.5245 42.7400 111.4395 0.0000 -24.4264 0.0000
# 4 0.0000 0.0000 0.0000 17.5312 0.0000 -15.6505
# 5 -12.8558 -12.7188 -24.4264 0.0000 31.8684 0.0000
# 6 0.0000 0.0000 0.0000 -15.6505 0.0000 -50.5806
#
#
#
# Elastic Compliance Matrix: (Units=1/GPa)
#
#
# Indices 1 2 3 4 5 6 
#
# 1 0.021027 -0.004311 -0.003381 0.000000 0.004171 0.000000
# 2 -0.004311 0.010579 -0.002757 0.000000 0.000370 0.000000
# 3 -0.003381 -0.002757 0.012557 0.000000 0.007160 0.000000
# 4 0.000000 0.000000 0.000000 0.044695 0.000000 -0.013830
# 5 0.004171 0.000370 0.007160 0.000000 0.038697 0.000000
# 6 0.000000 0.000000 0.000000 -0.013830 0.000000 -0.015491
#
#
# Mechanical properties :
#
#
# Convention : Reuss Voigt Hill
#
# Bulk Modulus (GPa) = 42.98018 56.67081 49.82549
# Shear Modulus (GPa) = 35.53227 12.11627 23.82427
#
# Velocity S-wave (km/s) = 4.32351 2.52470 3.54025
# Velocity P-wave (km/s) = 6.89453 6.18967 6.55158
#
# Compressibility (1/GPa) = 0.02326654
#
# Stress axis : x y z
#
# Youngs Moduli (GPa) = 47.55703 94.52455 79.63881
#
# Poissons Ratio (x) = 0.40746 0.26925
# Poissons Ratio (y) = 0.20500 0.21955
# Poissons Ratio (z) = 0.16079 0.26059
#
# Static dielectric constant tensor:
#      x y z
#    x 3.495900 0.000000 -0.100370 
#    y 0.000000 3.128280 0.000000 
#    z -0.100370 0.000000 3.669220 
# 
# 
# High freq. dielectric constant tensor:
#      x y z
#    x 1.730480 0.000000 -0.009830 
#    y 0.000000 1.698540 0.000000 
#    z -0.009830 0.000000 1.757340 
# 
# From -- ./inp_files/34902.got.cif
#   From: 2010.06.25/outbox.cif.g09.slc.cpg/sg10_18_cif.got.tgz:34902.got - 2010.06.27 22:07:45.
