data_PCOD8059096
_publ_section_title
;
Structure prediction by ZEFSAII (Michael W. Deem and Ramdas Pophale) SiO2 
 PCOD8059096
Probable space group: P 2/M
;
_chemical_formula_sum "Si O2"
_cell_formula_units_Z 28
_cell_length_a 14.149599
_cell_length_b 8.488312
_cell_length_c 17.617438
_cell_angle_alpha 90.000000
_cell_angle_beta 43.460602
_cell_angle_gamma 90.000000
_cell_volume 1455.477556
_symmetry_space_group_name_H-M "P 2/M"
_symmetry_group_IT_number 10
_symmetry_cell_setting 'monoclinic'
loop_
_space_group_symop_operation_xyz
x,y,z
-x,y,-z
-x,-y,-z
x,-y,z
loop_
_atom_site_type_symbol
_atom_site_label
_atom_site_fract_x
_atom_site_fract_y
_atom_site_fract_z
Si Si1 0.595068 0.316292 0.248165
Si Si2 0.661918 0.684038 0.780646
Si Si3 0.643533 0.686778 0.386059
Si Si4 0.821266 0.685527 0.837123
Si Si5 0.131548 0.686398 0.627098
Si Si6 0.630403 0.182154 0.070431
Si Si7 0.302329 0.816786 0.398113
O O1 0.617276 0.500000 0.219184
O O2 0.667131 0.262895 0.284704
O O3 0.662083 0.219263 0.140137
O O4 0.432652 0.283908 0.350135
O O5 0.685763 0.500000 0.753327
O O6 0.736678 0.741848 0.813035
O O7 0.499866 0.717782 0.882469
O O8 0.729334 0.777416 0.671143
O O9 0.500000 0.759508 0.500000
O O10 0.635153 0.500000 0.396164
O O11 0.769318 0.749256 0.363561
O O12 0.807323 0.500000 0.857816
O O13 0.978194 0.738656 0.736794
O O14 0.763313 0.773331 0.944503
O O15 0.142561 0.500000 0.609908
O O16 0.171950 0.769035 0.524662
O O17 0.594073 0.000000 0.082522
O O18 0.336185 0.000000 0.386671
#
# Coordination Sequence:
#
# PCOD8059096 Si02
#       7
#     4   4   4   4   4   4   4
#     4  10  18  33  58  83 108 139 179 226 266 309
#     4  10  20  36  58  81 105 138 184 228 265 312
#     4   9  16  30  57  87 107 133 177 223 267 310
#     4  10  22  38  57  79 105 143 185 224 266 315
#     4  10  20  37  57  79 110 143 180 222 266 320
#     4  11  22  36  56  81 110 142 178 222 271 320
#     4  11  21  33  51  81 114 143 177 218 271 323
#
# _framework density 19.237673999999998
#
# number of rings (size 3 to 8) (size 9 to 14) (size 15 to 20)
#    0.000    1.857    1.429    5.571    0.000    4.000 
#    0.000    5.714    0.000    4.286    0.000    0.000 
#    0.000    0.000    0.000    0.000    0.000    0.000 
#
# Total GULP energy -347276.706074 kJ/mol
# GULP energy per Si atom -12402.739503 kJ/mol
# Density = 1.919389 g / cm^3
# Si number density = 19.237674 Si / 1000 Ang^3
#
#
#
# Elastic Constant Matrix: (Units=GPa)
#
#
# Indices 1 2 3 4 5 6 
#
# 1 77.3660 14.7400 68.1624 0.0000 9.6531 0.0000
# 2 14.7400 45.7482 27.0398 0.0000 5.9499 0.0000
# 3 68.1624 27.0398 154.1425 0.0000 10.3957 0.0000
# 4 0.0000 0.0000 0.0000 14.2576 0.0000 -0.8687
# 5 9.6531 5.9499 10.3957 0.0000 22.1268 0.0000
# 6 0.0000 0.0000 0.0000 -0.8687 0.0000 3.0161
#
#
#
# Elastic Compliance Matrix: (Units=1/GPa)
#
#
# Indices 1 2 3 4 5 6 
#
# 1 0.021763 -0.000979 -0.009118 0.000000 -0.004947 0.000000
# 2 -0.000979 0.024913 -0.003629 0.000000 -0.004567 0.000000
# 3 -0.009118 -0.003629 0.011176 0.000000 -0.000297 0.000000
# 4 0.000000 0.000000 0.000000 0.071391 0.000000 0.020563
# 5 -0.004947 -0.004567 -0.000297 0.000000 0.048720 0.000000
# 6 0.000000 0.000000 0.000000 0.020563 0.000000 0.337482
#
#
# Mechanical properties :
#
#
# Convention : Reuss Voigt Hill
#
# Bulk Modulus (GPa) = 32.89569 55.23789 44.06679
# Shear Modulus (GPa) = 9.04107 19.03439 14.03773
#
# Velocity S-wave (km/s) = 2.17022 3.14894 2.70423
# Velocity P-wave (km/s) = 4.83907 6.48049 5.71898
#
# Compressibility (1/GPa) = 0.03039912
#
# Stress axis : x y z
#
# Youngs Moduli (GPa) = 45.94980 40.13912 89.47504
#
# Poissons Ratio (x) = 0.03930 0.81585
# Poissons Ratio (y) = 0.04499 0.32473
# Poissons Ratio (z) = 0.41898 0.14568
#
# Static dielectric constant tensor:
#      x y z
#    x 3.612100 0.000000 0.192270 
#    y 0.000000 3.287840 0.000000 
#    z 0.192270 0.000000 3.506190 
# 
# 
# High freq. dielectric constant tensor:
#      x y z
#    x 1.740110 0.000000 0.020310 
#    y 0.000000 1.734890 0.000000 
#    z 0.020310 0.000000 1.747400 
# 
# From -- ./inp_files/77709.got.cif
#   From: 2010.06.25/outbox.cif.g09.slc.cpg/sg10_39_cif.got.tgz:77709.got - 2010.06.27 22:07:45.
