data_PCOD8059158
_publ_section_title
;
Structure prediction by ZEFSAII (Michael W. Deem and Ramdas Pophale) SiO2 
 PCOD8059158
Probable space group: P 2/M
;
_chemical_formula_sum "Si O2"
_cell_formula_units_Z 32
_cell_length_a 14.912660
_cell_length_b 13.651997
_cell_length_c 9.657543
_cell_angle_alpha 90.000000
_cell_angle_beta 60.123012
_cell_angle_gamma 90.000000
_cell_volume 1704.847665
_symmetry_space_group_name_H-M "P 2/M"
_symmetry_group_IT_number 10
_symmetry_cell_setting 'monoclinic'
loop_
_space_group_symop_operation_xyz
x,y,z
-x,y,-z
-x,-y,-z
x,-y,z
loop_
_atom_site_type_symbol
_atom_site_label
_atom_site_fract_x
_atom_site_fract_y
_atom_site_fract_z
Si Si1 0.362098 0.220762 0.341403
Si Si2 0.959229 0.883806 0.679069
Si Si3 0.576029 0.115938 0.192614
Si Si4 0.288689 0.224889 0.703113
Si Si5 0.741049 0.213832 0.869338
Si Si6 0.483130 0.393185 0.163521
Si Si7 0.093354 0.892069 0.824163
Si Si8 0.291553 0.389453 0.909585
O O1 0.456656 0.143831 0.255747
O O2 0.298813 0.212568 0.531308
O O3 0.283204 0.211465 0.274966
O O4 0.404927 0.330549 0.313081
O O5 0.851255 0.835907 0.805434
O O6 0.000000 0.847679 0.500000
O O7 0.048542 0.848851 0.715562
O O8 0.942864 0.000000 0.697945
O O9 0.613921 0.169315 0.303332
O O10 0.584462 0.000000 0.202124
O O11 0.649716 0.153020 0.012993
O O12 0.181411 0.173605 0.825430
O O13 0.275767 0.335144 0.773573
O O14 0.749211 0.323180 0.930159
O O15 0.433193 0.500000 0.176912
O O16 0.586740 0.401199 0.169709
O O17 0.500000 0.342068 0.000000
O O18 0.140716 0.000000 0.761526
O O19 0.000000 0.899032 0.000000
O O20 0.241634 0.500000 0.947990
#
# Coordination Sequence:
#
# PCOD8059158 Si02
#       8
#     4   4   4   4   4   4   4   4
#     4  12  22  35  52  85 117 149 181 222 280 331
#     4  10  21  37  58  86 113 139 182 239 287 322
#     4  11  23  37  52  76 115 158 190 215 260 337
#     4  11  23  36  56  81 116 146 181 229 283 336
#     4  11  21  37  61  81 111 146 191 233 275 333
#     4  10  18  34  57  80 109 146 190 231 268 313
#     4  10  20  37  60  81 103 140 190 233 272 322
#     4  10  21  37  58  82 110 148 189 230 272 330
#
# _framework density 18.770005999999999
#
# number of rings (size 3 to 8) (size 9 to 14) (size 15 to 20)
#    0.000    1.375    3.750    3.750    0.000    4.500 
#    0.000    1.250    0.000    3.750    0.000    0.000 
#    0.000    0.000    0.000    0.000    0.000    0.000 
#
# Total GULP energy -396681.172776 kJ/mol
# GULP energy per Si atom -12396.286649 kJ/mol
# Density = 1.872728 g / cm^3
# Si number density = 18.770006 Si / 1000 Ang^3
#
#
#
# Elastic Constant Matrix: (Units=GPa)
#
#
# Indices 1 2 3 4 5 6 
#
# 1 60.2669 29.4265 13.5672 0.0000 1.4658 0.0000
# 2 29.4265 114.8936 24.8754 0.0000 1.9384 0.0000
# 3 13.5672 24.8754 84.8394 0.0000 14.8515 0.0000
# 4 0.0000 0.0000 0.0000 -54.3167 0.0000 -6.2468
# 5 1.4658 1.9384 14.8515 0.0000 31.8442 0.0000
# 6 0.0000 0.0000 0.0000 -6.2468 0.0000 24.4987
#
#
#
# Elastic Compliance Matrix: (Units=1/GPa)
#
#
# Indices 1 2 3 4 5 6 
#
# 1 0.019203 -0.004537 -0.001780 0.000000 0.000222 0.000000
# 2 -0.004537 0.010383 -0.002444 0.000000 0.000717 0.000000
# 3 -0.001780 -0.002444 0.013881 0.000000 -0.006243 0.000000
# 4 0.000000 0.000000 0.000000 -0.017886 0.000000 -0.004561
# 5 0.000222 0.000717 -0.006243 0.000000 0.034261 0.000000
# 6 0.000000 0.000000 0.000000 -0.004561 0.000000 0.039656
#
#
# Mechanical properties :
#
#
# Convention : Reuss Voigt Hill
#
# Bulk Modulus (GPa) = 38.54177 43.97092 41.25635
# Shear Modulus (GPa) = 39.78761 13.21397 26.50079
#
# Velocity S-wave (km/s) = 4.60906 2.65617 3.76156
# Velocity P-wave (km/s) = 6.99306 5.73446 6.39480
#
# Compressibility (1/GPa) = 0.02594587
#
# Stress axis : x y z
#
# Youngs Moduli (GPa) = 52.07449 96.31341 72.04029
#
# Poissons Ratio (x) = 0.43695 0.12820
# Poissons Ratio (y) = 0.23625 0.17608
# Poissons Ratio (z) = 0.09267 0.23541
#
# Static dielectric constant tensor:
#      x y z
#    x 3.954890 0.000000 0.607280 
#    y 0.000000 3.727340 0.000000 
#    z 0.607280 0.000000 3.711830 
# 
# 
# High freq. dielectric constant tensor:
#      x y z
#    x 1.727460 0.000000 0.016340 
#    y 0.000000 1.721130 0.000000 
#    z 0.016340 0.000000 1.725730 
# 
# From -- ./inp_files/29472.got.cif
#   From: 2010.06.25/outbox.cif.g09.slc.cpg/sg10_15_cif.got.tgz:29472.got - 2010.06.27 22:07:45.
