data_PCOD8059279
_publ_section_title
;
Structure prediction by ZEFSAII (Michael W. Deem and Ramdas Pophale) SiO2 
 PCOD8059279
Probable space group: P 2/M
;
_chemical_formula_sum "Si O2"
_cell_formula_units_Z 32
_cell_length_a 11.543338
_cell_length_b 14.432410
_cell_length_c 17.549019
_cell_angle_alpha 90.000000
_cell_angle_beta 31.340319
_cell_angle_gamma 90.000000
_cell_volume 1520.641679
_symmetry_space_group_name_H-M "P 2/M"
_symmetry_group_IT_number 10
_symmetry_cell_setting 'monoclinic'
loop_
_space_group_symop_operation_xyz
x,y,z
-x,y,-z
-x,-y,-z
x,-y,z
loop_
_atom_site_type_symbol
_atom_site_label
_atom_site_fract_x
_atom_site_fract_y
_atom_site_fract_z
Si Si1 0.094781 0.854950 0.565483
Si Si2 0.809962 0.654980 0.432515
Si Si3 0.423003 0.286824 0.869645
Si Si4 0.243351 0.897356 0.647161
Si Si5 0.054916 0.285132 0.806759
Si Si6 0.652004 0.393236 0.244322
Si Si7 0.340622 0.103276 0.276915
Si Si8 0.843965 0.601865 0.655354
O O1 0.166741 0.748614 0.531634
O O2 0.139225 0.903198 0.621278
O O3 0.236877 0.902367 0.419396
O O4 0.836226 0.865571 0.688251
O O5 0.839281 0.668432 0.326706
O O6 0.570402 0.609702 0.580021
O O7 0.006921 0.589630 0.352656
O O8 0.389023 0.343909 0.812118
O O9 0.458865 0.177269 0.835161
O O10 0.640032 0.329964 0.788118
O O11 0.211114 0.296845 0.043754
O O12 0.500000 0.865108 0.500000
O O13 0.115804 0.824171 0.772689
O O14 0.224049 0.000000 0.694690
O O15 0.150254 0.336953 0.826672
O O16 0.724302 0.500000 0.192211
O O17 0.430718 0.000000 0.206667
O O18 0.753639 0.500000 0.682184
O O19 0.000000 0.642568 0.500000
#
# Coordination Sequence:
#
# PCOD8059279 Si02
#       8
#     4   4   4   4   4   4   4   4
#     4  10  18  37  62  95 129 159 211 268 315 363
#     4  11  21  41  69  95 128 164 209 271 320 375
#     4  12  25  43  63  94 133 171 208 265 327 392
#     4  10  21  40  67  95 130 174 219 261 314 384
#     4  11  27  43  62  95 136 168 210 262 328 386
#     4  12  25  46  72  93 122 171 221 267 323 390
#     4  11  21  35  63  95 126 165 213 267 314 367
#     4  11  21  39  67  94 120 162 217 268 320 382
#
# _framework density 21.043745999999999
#
# number of rings (size 3 to 8) (size 9 to 14) (size 15 to 20)
#    0.000    1.000    3.750    4.500    0.000    4.000 
#    0.000    0.625    0.000    3.750    0.000    0.000 
#    0.000    0.000    0.000    0.000    0.000    0.000 
#
# Total GULP energy -396822.833170 kJ/mol
# GULP energy per Si atom -12400.713537 kJ/mol
# Density = 2.099585 g / cm^3
# Si number density = 21.043746 Si / 1000 Ang^3
#
#
#
# Elastic Constant Matrix: (Units=GPa)
#
#
# Indices 1 2 3 4 5 6 
#
# 1 64.2335 22.9140 7.7721 0.0000 -7.2383 0.0000
# 2 22.9140 125.0566 29.3646 0.0000 -10.2786 0.0000
# 3 7.7721 29.3646 94.8897 0.0000 -20.1890 0.0000
# 4 0.0000 0.0000 0.0000 10.2200 0.0000 -3.2210
# 5 -7.2383 -10.2786 -20.1890 0.0000 26.1033 0.0000
# 6 0.0000 0.0000 0.0000 -3.2210 0.0000 22.6992
#
#
#
# Elastic Compliance Matrix: (Units=1/GPa)
#
#
# Indices 1 2 3 4 5 6 
#
# 1 0.016985 -0.002871 0.000310 0.000000 0.003819 0.000000
# 2 -0.002871 0.009164 -0.002397 0.000000 0.000959 0.000000
# 3 0.000310 -0.002397 0.013253 0.000000 0.009393 0.000000
# 4 0.000000 0.000000 0.000000 0.102428 0.000000 0.014535
# 5 0.003819 0.000959 0.009393 0.000000 0.047010 0.000000
# 6 0.000000 0.000000 0.000000 0.014535 0.000000 0.046117
#
#
# Mechanical properties :
#
#
# Convention : Reuss Voigt Hill
#
# Bulk Modulus (GPa) = 33.91387 44.92016 39.41701
# Shear Modulus (GPa) = 19.63075 26.74645 23.18860
#
# Velocity S-wave (km/s) = 3.05758 3.56897 3.32312
# Velocity P-wave (km/s) = 5.34939 6.19482 5.78756
#
# Compressibility (1/GPa) = 0.02948646
#
# Stress axis : x y z
#
# Youngs Moduli (GPa) = 58.87461 109.12241 75.45306
#
# Poissons Ratio (x) = 0.31330 -0.02338
# Poissons Ratio (y) = 0.16903 0.18084
# Poissons Ratio (z) = -0.01824 0.26154
#
# Static dielectric constant tensor:
#      x y z
#    x 3.845960 0.000000 -0.192100 
#    y 0.000000 4.007440 0.000000 
#    z -0.192100 0.000000 3.556470 
# 
# 
# High freq. dielectric constant tensor:
#      x y z
#    x 1.827250 0.000000 -0.012480 
#    y 0.000000 1.841540 0.000000 
#    z -0.012480 0.000000 1.792490 
# 
# From -- ./inp_files/76989.got.cif
#   From: 2010.06.25/outbox.cif.g09.slc.cpg/sg10_39_cif.got.tgz:76989.got - 2010.06.27 22:07:45.
