data_PCOD8059221
_publ_section_title
;
Structure prediction by ZEFSAII (Michael W. Deem and Ramdas Pophale) SiO2 
 PCOD8059221
Probable space group: P 2/M
;
_chemical_formula_sum "Si O2"
_cell_formula_units_Z 24
_cell_length_a 12.320068
_cell_length_b 16.038279
_cell_length_c 10.111038
_cell_angle_alpha 90.000000
_cell_angle_beta 35.693431
_cell_angle_gamma 90.000000
_cell_volume 1165.651811
_symmetry_space_group_name_H-M "P 2/M"
_symmetry_group_IT_number 10
_symmetry_cell_setting 'monoclinic'
loop_
_space_group_symop_operation_xyz
x,y,z
-x,y,-z
-x,-y,-z
x,-y,z
loop_
_atom_site_type_symbol
_atom_site_label
_atom_site_fract_x
_atom_site_fract_y
_atom_site_fract_z
Si Si1 0.498527 0.905236 0.295923
Si Si2 0.263806 0.677693 0.580665
Si Si3 0.076466 0.500000 0.279266
Si Si4 0.164433 0.500000 0.731602
Si Si5 0.542034 0.249586 0.105978
Si Si6 0.919986 0.679173 0.725829
Si Si7 0.781993 0.156678 0.226320
O O1 0.476603 0.846423 0.188985
O O2 0.308707 0.899628 0.568188
O O3 0.676794 0.868510 0.196818
O O4 0.533456 0.000000 0.217610
O O5 0.280914 0.586111 0.632120
O O6 0.440138 0.690695 0.311671
O O7 0.257014 0.745658 0.704941
O O8 0.078096 0.690161 0.678376
O O9 0.182732 0.587898 0.155822
O O10 0.000000 0.500000 0.500000
O O11 0.902588 0.500000 0.352613
O O12 0.000000 0.500000 0.000000
O O13 0.500000 0.280595 0.000000
O O14 0.763224 0.253210 0.910918
O O15 0.000000 0.691971 0.500000
O O16 0.000000 0.136123 0.000000
#
# Coordination Sequence:
#
# PCOD8059221 Si02
#       7
#     4   4   2   2   4   4   4
#     4  10  23  39  57  85 114 143 187 239 293 355
#     4  10  21  36  57  87 117 156 194 232 283 343
#     4   8  18  33  55  83 112 153 196 241 278 322
#     4  10  20  35  57  85 125 160 193 237 288 332
#     4  11  22  37  59  84 112 152 194 238 291 345
#     4  10  18  35  57  81 116 149 193 237 279 333
#     4  10  19  36  62  84 111 147 190 232 285 344
#
# _framework density 20.589338000000001
#
# number of rings (size 3 to 8) (size 9 to 14) (size 15 to 20)
#    0.000    2.000    1.667    2.500    0.000    3.667 
#    0.000    0.833    0.000   12.500    0.000    0.000 
#    0.000    0.000    0.000    0.000    0.000    0.000 
#
# Total GULP energy -297435.432273 kJ/mol
# GULP energy per Si atom -12393.143011 kJ/mol
# Density = 2.054248 g / cm^3
# Si number density = 20.589338 Si / 1000 Ang^3
#
#
#
# Elastic Constant Matrix: (Units=GPa)
#
#
# Indices 1 2 3 4 5 6 
#
# 1 28.7645 6.4560 22.7644 0.0000 -7.8503 0.0000
# 2 6.4560 145.6416 42.5822 0.0000 2.4723 0.0000
# 3 22.7644 42.5822 119.6325 0.0000 -17.1209 0.0000
# 4 0.0000 0.0000 0.0000 15.2638 0.0000 -3.2760
# 5 -7.8503 2.4723 -17.1209 0.0000 27.7241 0.0000
# 6 0.0000 0.0000 0.0000 -3.2760 0.0000 23.5465
#
#
#
# Elastic Compliance Matrix: (Units=1/GPa)
#
#
# Indices 1 2 3 4 5 6 
#
# 1 0.042376 0.000030 -0.006974 0.000000 0.007690 0.000000
# 2 0.000030 0.007838 -0.003175 0.000000 -0.002651 0.000000
# 3 -0.006974 -0.003175 0.011599 0.000000 0.005471 0.000000
# 4 0.000000 0.000000 0.000000 0.067531 0.000000 0.009395
# 5 0.007690 -0.002651 0.005471 0.000000 0.041862 0.000000
# 6 0.000000 0.000000 0.000000 0.009395 0.000000 0.043776
#
#
# Mechanical properties :
#
#
# Convention : Reuss Voigt Hill
#
# Bulk Modulus (GPa) = 24.05248 48.62706 36.33977
# Shear Modulus (GPa) = 20.07392 28.12261 24.09826
#
# Velocity S-wave (km/s) = 3.12583 3.69979 3.42486
# Velocity P-wave (km/s) = 4.97344 6.47458 5.77301
#
# Compressibility (1/GPa) = 0.04157575
#
# Stress axis : x y z
#
# Youngs Moduli (GPa) = 23.59821 127.58101 86.21359
#
# Poissons Ratio (x) = -0.00383 0.60123
# Poissons Ratio (y) = -0.00071 0.27373
# Poissons Ratio (z) = 0.16457 0.40508
#
# Static dielectric constant tensor:
#      x y z
#    x 3.610060 0.000000 0.083060 
#    y 0.000000 3.988100 0.000000 
#    z 0.083060 0.000000 3.640220 
# 
# 
# High freq. dielectric constant tensor:
#      x y z
#    x 1.791420 0.000000 0.008830 
#    y 0.000000 1.806940 0.000000 
#    z 0.008830 0.000000 1.798470 
# 
# From -- ./inp_files/51559.got.cif
#   From: 2010.06.25/outbox.cif.g09.slc.cpg/sg10_26_cif.got.tgz:51559.got - 2010.06.27 22:07:45.
