data_PCOD8059832
_publ_section_title
;
Structure prediction by ZEFSAII (Michael W. Deem and Ramdas Pophale) SiO2 
 PCOD8059832
Probable space group: P 2/M
;
_chemical_formula_sum "Si O2"
_cell_formula_units_Z 28
_cell_length_a 32.617944
_cell_length_b 8.729638
_cell_length_c 31.770242
_cell_angle_alpha 90.000000
_cell_angle_beta 170.815208
_cell_angle_gamma 90.000000
_cell_volume 1443.970697
_symmetry_space_group_name_H-M "P 2/M"
_symmetry_group_IT_number 10
_symmetry_cell_setting 'monoclinic'
loop_
_space_group_symop_operation_xyz
x,y,z
-x,y,-z
-x,-y,-z
x,-y,z
loop_
_atom_site_type_symbol
_atom_site_label
_atom_site_fract_x
_atom_site_fract_y
_atom_site_fract_z
Si Si1 0.238001 0.817221 0.713999
Si Si2 0.476215 0.317862 0.428732
Si Si3 0.048142 0.318036 0.144357
Si Si4 0.190249 0.182675 0.570794
Si Si5 0.618648 0.182028 0.856013
Si Si6 0.666252 0.817277 0.998799
Si Si7 0.094299 0.818084 0.282972
O O1 0.214131 0.754207 0.642401
O O2 0.000000 0.754587 0.500000
O O3 0.237939 0.000000 0.713799
O O4 0.500000 0.754581 0.000000
O O5 0.500000 0.251330 0.500000
O O6 0.476862 0.500000 0.430739
O O7 0.714970 0.256853 0.643401
O O8 0.213357 0.256839 0.141797
O O9 0.049629 0.500000 0.148840
O O10 0.071235 0.250210 0.213700
O O11 0.928223 0.245507 0.284793
O O12 0.190344 0.000000 0.571088
O O13 0.428280 0.245505 0.784845
O O14 0.355768 0.243277 0.569097
O O15 0.619296 0.000000 0.857920
O O16 0.642453 0.247428 0.927371
O O17 0.857446 0.243286 0.070764
O O18 0.666117 0.000000 0.998393
O O19 0.092790 0.000000 0.278453
#
# Coordination Sequence:
#
# PCOD8059832 Si02
#       7
#     4   4   4   4   4   4   4
#     4   9  15  21  27  36  53  78 109 146 194 249
#     4   9  17  30  49  71  92 115 145 179 212 247
#     4  10  19  31  49  71  92 115 145 179 212 247
#     4   9  15  21  30  43  59  82 113 155 204 245
#     4   9  17  28  42  59  79 106 137 170 211 258
#     4   9  15  23  34  48  65  85 117 159 201 242
#     4  10  19  31  46  64  88 116 143 172 214 261
#
# _framework density 19.390975999999998
#
# number of rings (size 3 to 8) (size 9 to 14) (size 15 to 20)
#    0.000    2.714    0.000    3.000    0.000    8.571 
#    0.000    0.000    0.000    2.571    0.000    0.000 
#    0.000    0.000    0.000    0.000    0.000    0.000 
#
# Total GULP energy -347203.092311 kJ/mol
# GULP energy per Si atom -12400.110440 kJ/mol
# Density = 1.934684 g / cm^3
# Si number density = 19.390976 Si / 1000 Ang^3
#
#
#
# Elastic Constant Matrix: (Units=GPa)
#
#
# Indices 1 2 3 4 5 6 
#
# 1 231.3646 9.6370 129.6403 0.0000 -0.5649 0.0000
# 2 9.6370 4.0149 9.3205 0.0000 -0.0562 0.0000
# 3 129.6403 9.3205 231.0078 0.0000 0.5035 0.0000
# 4 0.0000 0.0000 0.0000 3.0658 0.0000 5.2769
# 5 -0.5649 -0.0562 0.5035 0.0000 49.4707 0.0000
# 6 0.0000 0.0000 0.0000 5.2769 0.0000 -26.4268
#
#
#
# Elastic Compliance Matrix: (Units=1/GPa)
#
#
# Indices 1 2 3 4 5 6 
#
# 1 0.006525 -0.007899 -0.003343 0.000000 0.000100 0.000000
# 2 -0.007899 0.284387 -0.007042 0.000000 0.000305 0.000000
# 3 -0.003343 -0.007042 0.006489 0.000000 -0.000112 0.000000
# 4 0.000000 0.000000 0.000000 0.242751 0.000000 0.048472
# 5 0.000100 0.000305 -0.000112 0.000000 0.020217 0.000000
# 6 0.000000 0.000000 0.000000 0.048472 0.000000 -0.028161
#
#
# Mechanical properties :
#
#
# Convention : Reuss Voigt Hill
#
# Bulk Modulus (GPa) = 3.83387 84.84254 44.33821
# Shear Modulus (GPa) = 7.62522 26.40790 17.01656
#
# Velocity S-wave (km/s) = 1.98517 3.69435 2.96556
# Velocity P-wave (km/s) = 2.68997 7.87694 5.88567
#
# Compressibility (1/GPa) = 0.26083278
#
# Stress axis : x y z
#
# Youngs Moduli (GPa) = 153.26353 3.51634 154.09798
#
# Poissons Ratio (x) = 0.02778 0.51517
# Poissons Ratio (y) = 1.21064 1.08514
# Poissons Ratio (z) = 0.51238 0.02476
#
# Static dielectric constant tensor:
#      x y z
#    x 3.770400 0.000000 0.035460 
#    y 0.000000 2.677400 0.000000 
#    z 0.035460 0.000000 3.968750 
# 
# 
# High freq. dielectric constant tensor:
#      x y z
#    x 1.776760 0.000000 0.000230 
#    y 0.000000 1.664820 0.000000 
#    z 0.000230 0.000000 1.778070 
# 
# From -- ./inp_files/13084.got.cif
#   From: 2010.06.25/outbox.cif.g09.slc.cpg/sg10_7_cif.got.tgz:13084.got - 2010.06.27 22:07:45.
