data_PCOD8059013
_publ_section_title
;
Structure prediction by ZEFSAII (Michael W. Deem and Ramdas Pophale) SiO2 
 PCOD8059013
Probable space group: P 2/M
;
_chemical_formula_sum "Si O2"
_cell_formula_units_Z 28
_cell_length_a 19.996120
_cell_length_b 9.100101
_cell_length_c 12.590382
_cell_angle_alpha 90.000000
_cell_angle_beta 36.788704
_cell_angle_gamma 90.000000
_cell_volume 1372.019578
_symmetry_space_group_name_H-M "P 2/M"
_symmetry_group_IT_number 10
_symmetry_cell_setting 'monoclinic'
loop_
_space_group_symop_operation_xyz
x,y,z
-x,y,-z
-x,-y,-z
x,-y,z
loop_
_atom_site_type_symbol
_atom_site_label
_atom_site_fract_x
_atom_site_fract_y
_atom_site_fract_z
Si Si1 0.914956 0.658163 0.198770
Si Si2 0.638713 0.830590 0.004452
Si Si3 0.613592 0.168158 0.632209
Si Si4 0.999496 0.829319 0.722223
Si Si5 0.242131 0.827155 0.356922
Si Si6 0.230494 0.325196 0.982819
Si Si7 0.702806 0.671313 0.336335
O O1 0.897860 0.500000 0.281888
O O2 0.964616 0.789209 0.204725
O O3 0.803410 0.713213 0.285735
O O4 0.000000 0.620751 0.000000
O O5 0.695129 0.765063 0.826217
O O6 0.677901 0.731106 0.052164
O O7 0.674356 0.000000 0.978853
O O8 0.506359 0.816160 0.159484
O O9 0.704133 0.237284 0.601648
O O10 0.604781 0.248078 0.527300
O O11 0.643297 0.000000 0.570619
O O12 0.109924 0.789830 0.512101
O O13 0.890466 0.737544 0.828439
O O14 0.969019 0.000000 0.752476
O O15 0.262482 0.000000 0.336336
O O16 0.221357 0.500000 0.995108
O O17 0.270559 0.268411 0.815430
O O18 0.675168 0.500000 0.364279
#
# Coordination Sequence:
#
# PCOD8059013 Si02
#       7
#     4   4   4   4   4   4   4
#     4  10  18  33  54  80 116 155 190 228 286 346
#     4  10  22  41  62  83 113 154 197 239 284 336
#     4  10  20  37  63  91 115 144 190 244 290 337
#     4  11  21  34  58  90 118 146 188 239 288 340
#     4   9  19  37  61  89 117 147 185 236 296 345
#     4  11  24  42  58  80 119 161 196 228 282 350
#     4  10  21  36  57  83 116 156 189 230 286 345
#
# _framework density 20.407872000000001
#
# number of rings (size 3 to 8) (size 9 to 14) (size 15 to 20)
#    0.000    1.857    2.857    1.286    0.000    4.857 
#    0.000    7.857    0.000    1.714    0.000    0.000 
#    0.000    0.000    0.000    0.000    0.000    0.000 
#
# Total GULP energy -346995.897203 kJ/mol
# GULP energy per Si atom -12392.710614 kJ/mol
# Density = 2.036142 g / cm^3
# Si number density = 20.407872 Si / 1000 Ang^3
#
#
#
# Elastic Constant Matrix: (Units=GPa)
#
#
# Indices 1 2 3 4 5 6 
#
# 1 74.0193 24.7006 28.1792 0.0000 7.7734 0.0000
# 2 24.7006 52.7839 29.1312 0.0000 4.3301 0.0000
# 3 28.1792 29.1312 98.0639 0.0000 17.5762 0.0000
# 4 0.0000 0.0000 0.0000 20.3101 0.0000 -4.9498
# 5 7.7734 4.3301 17.5762 0.0000 29.4908 0.0000
# 6 0.0000 0.0000 0.0000 -4.9498 0.0000 26.4062
#
#
#
# Elastic Compliance Matrix: (Units=1/GPa)
#
#
# Indices 1 2 3 4 5 6 
#
# 1 0.016800 -0.006256 -0.002620 0.000000 -0.001948 0.000000
# 2 -0.006256 0.025005 -0.005898 0.000000 0.001493 0.000000
# 3 -0.002620 -0.005898 0.013909 0.000000 -0.006733 0.000000
# 4 0.000000 0.000000 0.000000 0.051594 0.000000 0.009671
# 5 -0.001948 0.001493 -0.006733 0.000000 0.038216 0.000000
# 6 0.000000 0.000000 0.000000 0.009671 0.000000 0.039683
#
#
# Mechanical properties :
#
#
# Convention : Reuss Voigt Hill
#
# Bulk Modulus (GPa) = 38.21673 43.20992 40.71333
# Shear Modulus (GPa) = 22.37379 24.76517 23.56948
#
# Velocity S-wave (km/s) = 3.31468 3.48733 3.40210
# Velocity P-wave (km/s) = 5.78071 6.11837 5.95193
#
# Compressibility (1/GPa) = 0.02616655
#
# Stress axis : x y z
#
# Youngs Moduli (GPa) = 59.52540 39.99160 71.89501
#
# Poissons Ratio (x) = 0.25018 0.18836
# Poissons Ratio (y) = 0.37237 0.42404
# Poissons Ratio (z) = 0.15595 0.23587
#
# Static dielectric constant tensor:
#      x y z
#    x 3.563060 0.000000 0.051630 
#    y 0.000000 3.557310 0.000000 
#    z 0.051630 0.000000 3.902260 
# 
# 
# High freq. dielectric constant tensor:
#      x y z
#    x 1.784060 0.000000 0.000570 
#    y 0.000000 1.776430 0.000000 
#    z 0.000570 0.000000 1.812250 
# 
# From -- ./inp_files/70184.got.cif
#   From: 2010.06.25/outbox.cif.g09.slc.cpg/sg10_36_cif.got.tgz:70184.got - 2010.06.27 22:07:45.
