data_PCOD8059609
_publ_section_title
;
Structure prediction by ZEFSAII (Michael W. Deem and Ramdas Pophale) SiO2 
 PCOD8059609
Probable space group: P 2/M
;
_chemical_formula_sum "Si O2"
_cell_formula_units_Z 32
_cell_length_a 18.433281
_cell_length_b 13.340146
_cell_length_c 15.129797
_cell_angle_alpha 90.000000
_cell_angle_beta 29.247890
_cell_angle_gamma 90.000000
_cell_volume 1817.774934
_symmetry_space_group_name_H-M "P 2/M"
_symmetry_group_IT_number 10
_symmetry_cell_setting 'monoclinic'
loop_
_space_group_symop_operation_xyz
x,y,z
-x,y,-z
-x,-y,-z
x,-y,z
loop_
_atom_site_type_symbol
_atom_site_label
_atom_site_fract_x
_atom_site_fract_y
_atom_site_fract_z
Si Si1 0.877356 0.390604 0.055205
Si Si2 0.824933 0.186168 0.170383
Si Si3 0.271773 0.111069 0.901426
Si Si4 0.064775 0.384396 0.527555
Si Si5 0.468966 0.616214 0.767542
Si Si6 0.140476 0.691135 0.106710
Si Si7 0.401503 0.380966 0.184831
Si Si8 0.450884 0.220380 0.450460
O O1 0.797242 0.500000 0.134417
O O2 0.943095 0.358808 0.889273
O O3 0.770302 0.297473 0.193144
O O4 0.000000 0.397260 0.000000
O O5 0.789144 0.104517 0.134271
O O6 0.718268 0.173524 0.369621
O O7 0.000000 0.182972 0.000000
O O8 0.443961 0.144269 0.715431
O O9 0.258768 0.000000 0.957381
O O10 0.173483 0.190319 0.060577
O O11 0.055442 0.500000 0.567222
O O12 0.232840 0.344371 0.351617
O O13 0.000000 0.369093 0.500000
O O14 0.966807 0.317538 0.696548
O O15 0.507990 0.500000 0.713280
O O16 0.536508 0.658172 0.787506
O O17 0.544272 0.673405 0.605142
O O18 0.292414 0.630364 0.958821
O O19 0.410717 0.500000 0.171541
O O20 0.500000 0.335751 0.000000
O O21 0.500000 0.230474 0.500000
#
# Coordination Sequence:
#
# PCOD8059609 Si02
#       8
#     4   4   4   4   4   4   4   4
#     4   9  17  28  43  65  98 137 166 192 231 279
#     4   9  18  30  45  68  93 119 160 206 241 278
#     4   9  19  35  51  65  87 122 159 200 250 295
#     4  10  19  31  51  77 104 133 161 191 229 277
#     4  10  19  30  46  68  98 132 161 195 237 282
#     4  10  19  32  50  72  96 123 164 207 242 283
#     4   9  18  31  46  69 101 134 164 191 225 272
#     4   9  19  32  46  67  94 127 163 194 232 287
#
# _framework density 17.603940000000001
#
# number of rings (size 3 to 8) (size 9 to 14) (size 15 to 20)
#    0.000    2.625    0.000    2.625    0.000    8.250 
#    0.000    3.750    0.000    0.375    0.000    0.000 
#    0.000   12.500    0.000    0.000    0.000    0.000 
#
# Total GULP energy -396486.344498 kJ/mol
# GULP energy per Si atom -12390.198266 kJ/mol
# Density = 1.756387 g / cm^3
# Si number density = 17.603940 Si / 1000 Ang^3
#
#
#
# Elastic Constant Matrix: (Units=GPa)
#
#
# Indices 1 2 3 4 5 6 
#
# 1 82.3289 26.1707 43.5903 0.0000 1.2094 0.0000
# 2 26.1707 91.1928 29.0712 0.0000 4.2316 0.0000
# 3 43.5903 29.0712 138.8055 0.0000 -1.5682 0.0000
# 4 0.0000 0.0000 0.0000 14.3439 0.0000 2.3394
# 5 1.2094 4.2316 -1.5682 0.0000 24.6082 0.0000
# 6 0.0000 0.0000 0.0000 2.3394 0.0000 8.2990
#
#
#
# Elastic Compliance Matrix: (Units=1/GPa)
#
#
# Indices 1 2 3 4 5 6 
#
# 1 0.015337 -0.003044 -0.004184 0.000000 -0.000497 0.000000
# 2 -0.003044 0.012473 -0.001680 0.000000 -0.002102 0.000000
# 3 -0.004184 -0.001680 0.008882 0.000000 0.001061 0.000000
# 4 0.000000 0.000000 0.000000 0.073076 0.000000 -0.020599
# 5 -0.000497 -0.002102 0.001061 0.000000 0.041090 0.000000
# 6 0.000000 0.000000 0.000000 -0.020599 0.000000 0.126302
#
#
# Mechanical properties :
#
#
# Convention : Reuss Voigt Hill
#
# Bulk Modulus (GPa) = 52.98227 56.66574 54.82401
# Shear Modulus (GPa) = 16.59646 23.68323 20.13984
#
# Velocity S-wave (km/s) = 3.07379 3.67186 3.38606
# Velocity P-wave (km/s) = 6.53909 7.08773 6.81893
#
# Compressibility (1/GPa) = 0.01887424
#
# Stress axis : x y z
#
# Youngs Moduli (GPa) = 65.20199 80.17600 112.58469
#
# Poissons Ratio (x) = 0.24409 0.47110
# Poissons Ratio (y) = 0.19850 0.18913
# Poissons Ratio (z) = 0.27283 0.13469
#
# Static dielectric constant tensor:
#      x y z
#    x 3.304230 0.000000 -0.053380 
#    y 0.000000 3.144810 0.000000 
#    z -0.053380 0.000000 3.402290 
# 
# 
# High freq. dielectric constant tensor:
#      x y z
#    x 1.673330 0.000000 -0.007230 
#    y 0.000000 1.647030 0.000000 
#    z -0.007230 0.000000 1.676800 
# 
# From -- ./inp_files/69283.got.cif
#   From: 2010.06.25/outbox.cif.g09.slc.cpg/sg10_35_cif.got.tgz:69283.got - 2010.06.27 22:07:45.
