data_PCOD8059837
_publ_section_title
;
Structure prediction by ZEFSAII (Michael W. Deem and Ramdas Pophale) SiO2 
 PCOD8059837
Probable space group: P 2/M
;
_chemical_formula_sum "Si O2"
_cell_formula_units_Z 20
_cell_length_a 5.254807
_cell_length_b 13.696820
_cell_length_c 17.439191
_cell_angle_alpha 90.000000
_cell_angle_beta 126.096657
_cell_angle_gamma 90.000000
_cell_volume 1014.208515
_symmetry_space_group_name_H-M "P 2/M"
_symmetry_group_IT_number 10
_symmetry_cell_setting 'monoclinic'
loop_
_space_group_symop_operation_xyz
x,y,z
-x,y,-z
-x,-y,-z
x,-y,z
loop_
_atom_site_type_symbol
_atom_site_label
_atom_site_fract_x
_atom_site_fract_y
_atom_site_fract_z
Si Si1 0.983815 0.611687 0.909155
Si Si2 0.304314 0.616484 0.391903
Si Si3 0.243975 0.110888 0.112753
Si Si4 0.612017 0.612945 0.293216
Si Si5 0.268275 0.792610 0.893588
O O1 0.097818 0.500000 0.920732
O O2 0.623337 0.625590 0.819869
O O3 0.214406 0.675932 0.896153
O O4 0.000000 0.648640 0.000000
O O5 0.500000 0.652357 0.500000
O O6 0.292831 0.500000 0.385114
O O7 0.464636 0.660657 0.343963
O O8 0.950027 0.660356 0.333284
O O9 0.557902 0.177594 0.154761
O O10 0.069826 0.153342 0.157402
O O11 0.351479 0.000000 0.145785
O O12 0.000000 0.119783 0.000000
O O13 0.670447 0.500000 0.321876
O O14 0.500000 0.834024 0.000000
#
# Coordination Sequence:
#
# PCOD8059837 Si02
#       5
#     4   4   4   4   4
#     4  10  21  35  48  64  94 136 176 207 226 252
#     4   9  16  28  46  65  83 104 140 195 248 288
#     4   9  17  30  48  67  85 106 143 201 255 292
#     4   9  18  30  44  63  85 114 154 193 232 275
#     4  10  19  31  46  65  87 117 159 199 237 278
#
# _framework density 19.719811
#
# number of rings (size 3 to 8) (size 9 to 14) (size 15 to 20)
#    0.000    2.600    0.000    3.000    0.000    8.400 
#    0.000    7.000    0.000    0.600    0.000    0.000 
#    0.000    0.000    0.000    0.000    0.000   70.000 
#
# Total GULP energy -247887.771731 kJ/mol
# GULP energy per Si atom -12394.388587 kJ/mol
# Density = 1.967493 g / cm^3
# Si number density = 19.719811 Si / 1000 Ang^3
#
#
#
# Elastic Constant Matrix: (Units=GPa)
#
#
# Indices 1 2 3 4 5 6 
#
# 1 159.4950 40.6282 43.1115 0.0000 28.9676 0.0000
# 2 40.6282 96.2300 1.2923 0.0000 10.3509 0.0000
# 3 43.1115 1.2923 88.9175 0.0000 3.9785 0.0000
# 4 0.0000 0.0000 0.0000 1.7327 0.0000 8.4702
# 5 28.9676 10.3509 3.9785 0.0000 25.2847 0.0000
# 6 0.0000 0.0000 0.0000 8.4702 0.0000 22.8941
#
#
#
# Elastic Compliance Matrix: (Units=1/GPa)
#
#
# Indices 1 2 3 4 5 6 
#
# 1 0.009962 -0.003131 -0.004362 0.000000 -0.009444 0.000000
# 2 -0.003131 0.011855 0.001413 0.000000 -0.001488 0.000000
# 3 -0.004362 0.001413 0.013236 0.000000 0.002336 0.000000
# 4 0.000000 0.000000 0.000000 -0.713760 0.000000 0.264071
# 5 -0.009444 -0.001488 0.002336 0.000000 0.050611 0.000000
# 6 0.000000 0.000000 0.000000 0.264071 0.000000 -0.054020
#
#
# Mechanical properties :
#
#
# Convention : Reuss Voigt Hill
#
# Bulk Modulus (GPa) = 43.68451 57.18962 50.43706
# Shear Modulus (GPa) = -7.54918 27.28967 9.87025
#
# Velocity S-wave (km/s) = -1.95871 3.72408 2.23967
# Velocity P-wave (km/s) = 4.13344 6.89607 5.68511
#
# Compressibility (1/GPa) = 0.02289141
#
# Stress axis : x y z
#
# Youngs Moduli (GPa) = 100.38382 84.35325 75.55065
#
# Poissons Ratio (x) = 0.26414 0.32954
# Poissons Ratio (y) = 0.31434 -0.10672
# Poissons Ratio (z) = 0.43786 -0.11915
#
# Static dielectric constant tensor:
#      x y z
#    x 4.053340 0.000000 0.251870 
#    y 0.000000 3.243870 0.000000 
#    z 0.251870 0.000000 3.279780 
# 
# 
# High freq. dielectric constant tensor:
#      x y z
#    x 1.790900 0.000000 0.020710 
#    y 0.000000 1.716930 0.000000 
#    z 0.020710 0.000000 1.716590 
# 
# From -- ./inp_files/81337.got.cif
#   From: 2010.06.25/outbox.cif.g09.slc.cpg/sg10_41_cif.got.tgz:81337.got - 2010.06.27 22:07:45.
