data_PCOD8059730
_publ_section_title
;
Structure prediction by ZEFSAII (Michael W. Deem and Ramdas Pophale) SiO2 
 PCOD8059730
Probable space group: P 2/M
;
_chemical_formula_sum "Si O2"
_cell_formula_units_Z 28
_cell_length_a 14.947048
_cell_length_b 22.146430
_cell_length_c 5.122117
_cell_angle_alpha 90.000000
_cell_angle_beta 63.283370
_cell_angle_gamma 90.000000
_cell_volume 1514.527871
_symmetry_space_group_name_H-M "P 2/M"
_symmetry_group_IT_number 10
_symmetry_cell_setting 'monoclinic'
loop_
_space_group_symop_operation_xyz
x,y,z
-x,y,-z
-x,-y,-z
x,-y,z
loop_
_atom_site_type_symbol
_atom_site_label
_atom_site_fract_x
_atom_site_fract_y
_atom_site_fract_z
Si Si1 0.390323 0.930679 0.123440
Si Si2 0.734432 0.930636 0.198077
Si Si3 0.881330 0.241825 0.648347
Si Si4 0.881281 0.377503 0.673840
Si Si5 0.558932 0.571819 0.673068
Si Si6 0.783904 0.569886 0.312437
Si Si7 0.118639 0.170411 0.854163
O O1 0.343157 0.923621 0.467201
O O2 0.405373 0.000000 0.019610
O O3 0.500000 0.899352 0.000000
O O4 0.318771 0.902899 0.991413
O O5 0.834023 0.894376 0.144372
O O6 0.767855 0.000000 0.112031
O O7 0.842616 0.310009 0.658973
O O8 0.841835 0.198509 0.469085
O O9 0.000000 0.242504 0.500000
O O10 0.844050 0.216687 0.973443
O O11 0.838532 0.423451 0.517222
O O12 0.000000 0.381966 0.500000
O O13 0.843261 0.394209 0.011856
O O14 0.500000 0.595271 0.500000
O O15 0.560923 0.500000 0.689186
O O16 0.672063 0.596074 0.499403
O O17 0.500000 0.598657 0.000000
O O18 0.781288 0.500000 0.234297
O O19 0.000000 0.160924 0.000000
#
# Coordination Sequence:
#
# PCOD8059730 Si02
#       7
#     4   4   4   4   4   4   4
#     4   9  17  30  47  69 100 134 168 205 242 290
#     4  10  19  30  48  77 106 131 161 199 256 315
#     4   9  19  35  53  71  93 131 182 219 238 272
#     4  11  22  36  53  75 106 140 174 211 248 298
#     4   9  17  31  50  72 100 131 165 206 245 288
#     4  11  22  34  52  81 110 136 167 203 259 322
#     4  10  19  33  52  74 101 131 167 210 249 292
#
# _framework density 18.487608999999999
#
# number of rings (size 3 to 8) (size 9 to 14) (size 15 to 20)
#    0.000    2.143    0.000    3.857    0.000    8.286 
#    0.000    0.000    0.000    5.143    0.000   35.000 
#    0.000    0.000    0.000    0.000    0.000    0.000 
#
# Total GULP energy -347157.103358 kJ/mol
# GULP energy per Si atom -12398.467977 kJ/mol
# Density = 1.844553 g / cm^3
# Si number density = 18.487609 Si / 1000 Ang^3
#
#
#
# Elastic Constant Matrix: (Units=GPa)
#
#
# Indices 1 2 3 4 5 6 
#
# 1 103.1110 29.9871 44.2556 0.0000 4.3198 0.0000
# 2 29.9871 60.8856 19.0374 0.0000 -3.6348 0.0000
# 3 44.2556 19.0374 109.1968 0.0000 7.5741 0.0000
# 4 0.0000 0.0000 0.0000 13.5449 0.0000 8.0182
# 5 4.3198 -3.6348 7.5741 0.0000 36.5499 0.0000
# 6 0.0000 0.0000 0.0000 8.0182 0.0000 10.0708
#
#
#
# Elastic Compliance Matrix: (Units=1/GPa)
#
#
# Indices 1 2 3 4 5 6 
#
# 1 0.013110 -0.005173 -0.004331 0.000000 -0.001166 0.000000
# 2 -0.005173 0.019620 -0.001524 0.000000 0.002878 0.000000
# 3 -0.004331 -0.001524 0.011316 0.000000 -0.001985 0.000000
# 4 0.000000 0.000000 0.000000 0.139646 0.000000 -0.111183
# 5 -0.001166 0.002878 -0.001985 0.000000 0.028195 0.000000
# 6 0.000000 0.000000 0.000000 -0.111183 0.000000 0.187819
#
#
# Mechanical properties :
#
#
# Convention : Reuss Voigt Hill
#
# Bulk Modulus (GPa) = 45.47019 51.08374 48.27696
# Shear Modulus (GPa) = 11.65252 24.02733 17.83993
#
# Velocity S-wave (km/s) = 2.51328 3.60897 3.10976
# Velocity P-wave (km/s) = 5.75069 6.71249 6.25012
#
# Compressibility (1/GPa) = 0.02199243
#
# Stress axis : x y z
#
# Youngs Moduli (GPa) = 76.27660 50.96812 88.36851
#
# Poissons Ratio (x) = 0.26363 0.38269
# Poissons Ratio (y) = 0.39454 0.13466
# Poissons Ratio (z) = 0.33033 0.07767
#
# Static dielectric constant tensor:
#      x y z
#    x 3.471300 0.000000 0.097900 
#    y 0.000000 3.183430 0.000000 
#    z 0.097900 0.000000 3.556630 
# 
# 
# High freq. dielectric constant tensor:
#      x y z
#    x 1.718310 0.000000 0.015070 
#    y 0.000000 1.679950 0.000000 
#    z 0.015070 0.000000 1.730080 
# 
# From -- ./inp_files/9761.got.cif
#   From: 2010.06.25/outbox.cif.g09.slc.cpg/sg10_5_cif.got.tgz:9761.got - 2010.06.27 22:07:45.
