data_PCOD8059504
_publ_section_title
;
Structure prediction by ZEFSAII (Michael W. Deem and Ramdas Pophale) SiO2 
 PCOD8059504
Probable space group: P 2/M
;
_chemical_formula_sum "Si O2"
_cell_formula_units_Z 24
_cell_length_a 19.362325
_cell_length_b 9.046621
_cell_length_c 20.770839
_cell_angle_alpha 90.000000
_cell_angle_beta 158.778440
_cell_angle_gamma 90.000000
_cell_volume 1316.973280
_symmetry_space_group_name_H-M "P 2/M"
_symmetry_group_IT_number 10
_symmetry_cell_setting 'monoclinic'
loop_
_space_group_symop_operation_xyz
x,y,z
-x,y,-z
-x,-y,-z
x,-y,z
loop_
_atom_site_type_symbol
_atom_site_label
_atom_site_fract_x
_atom_site_fract_y
_atom_site_fract_z
Si Si1 0.290654 0.165343 0.790654
Si Si2 0.703201 0.325218 0.703201
Si Si3 0.746360 0.824104 1.000000
Si Si4 0.656041 0.826680 0.302663
Si Si5 0.050716 0.826680 0.697338
Si Si6 0.106432 0.675108 1.000000
O O1 0.295329 0.246133 0.724954
O O2 0.154579 0.246133 0.724954
O O3 0.209888 0.000000 0.709888
O O4 0.500000 0.161755 0.000000
O O5 0.500000 0.257861 0.500000
O O6 0.687015 0.500000 0.687015
O O7 0.885872 0.274881 0.819340
O O8 0.752810 0.274880 0.819341
O O9 0.534027 0.763203 0.829910
O O10 0.754889 0.000000 1.000000
O O11 0.874206 0.763203 0.170089
O O12 0.820775 0.753344 0.000000
O O13 0.826575 0.792967 0.500000
O O14 0.623405 0.000000 0.262288
O O15 0.098830 0.000000 0.737712
O O16 0.115677 0.500000 0.000001
#
# Coordination Sequence:
#
# PCOD8059504 Si02
#       6
#     4   4   4   4   4   4
#     4   9  13  21  37  56  81 114 154 196 230 258
#     4   8  15  31  54  74  90 112 146 186 220 252
#     4  10  19  30  43  64  97 126 146 176 222 272
#     4   9  16  25  38  58  86 120 154 188 227 266
#     4   9  16  25  38  58  86 120 154 188 227 266
#     4   9  18  32  51  73  92 114 148 183 216 260
#
# _framework density 18.223604999999999
#
# number of rings (size 3 to 8) (size 9 to 14) (size 15 to 20)
#    0.000    3.000    1.667    1.500    0.000    3.333 
#    0.000    1.667    0.000    1.000    0.000    2.333 
#    0.000    2.667    0.000    0.000    0.000    0.000 
#
# Total GULP energy -297347.812542 kJ/mol
# GULP energy per Si atom -12389.492189 kJ/mol
# Density = 1.818213 g / cm^3
# Si number density = 18.223605 Si / 1000 Ang^3
#
#
#
# Elastic Constant Matrix: (Units=GPa)
#
#
# Indices 1 2 3 4 5 6 
#
# 1 188.4754 24.6722 97.8812 0.0000 -9.7157 0.0000
# 2 24.6722 11.9066 16.4118 0.0000 -1.2748 0.0000
# 3 97.8812 16.4118 168.4639 0.0000 6.6284 0.0000
# 4 0.0000 0.0000 0.0000 5.6765 0.0000 15.6294
# 5 -9.7157 -1.2748 6.6284 0.0000 16.3410 0.0000
# 6 0.0000 0.0000 0.0000 15.6294 0.0000 -95.5974
#
#
#
# Elastic Compliance Matrix: (Units=1/GPa)
#
#
# Indices 1 2 3 4 5 6 
#
# 1 0.009801 -0.013144 -0.004678 0.000000 0.006699 0.000000
# 2 -0.013144 0.116850 -0.003859 0.000000 0.002866 0.000000
# 3 -0.004678 -0.003859 0.009299 0.000000 -0.006854 0.000000
# 4 0.000000 0.000000 0.000000 0.121481 0.000000 0.019861
# 5 0.006699 0.002866 -0.006854 0.000000 0.068183 0.000000
# 6 0.000000 0.000000 0.000000 0.019861 0.000000 -0.007213
#
#
# Mechanical properties :
#
#
# Convention : Reuss Voigt Hill
#
# Bulk Modulus (GPa) = 10.80054 71.86403 41.33228
# Shear Modulus (GPa) = 12.73480 0.60940 6.67210
#
# Velocity S-wave (km/s) = 2.64637 0.57890 1.91551
# Velocity P-wave (km/s) = 3.90861 6.32195 5.25567
#
# Compressibility (1/GPa) = 0.09258794
#
# Stress axis : x y z
#
# Youngs Moduli (GPa) = 102.03108 8.55801 107.53307
#
# Poissons Ratio (x) = 0.11249 0.50300
# Poissons Ratio (y) = 1.34111 0.41500
# Poissons Ratio (z) = 0.47726 0.03303
#
# Static dielectric constant tensor:
#      x y z
#    x 3.500790 0.000000 0.024750 
#    y 0.000000 2.597270 0.000000 
#    z 0.024750 0.000000 3.661150 
# 
# 
# High freq. dielectric constant tensor:
#      x y z
#    x 1.715590 0.000000 0.001310 
#    y 0.000000 1.616550 0.000000 
#    z 0.001310 0.000000 1.724110 
# 
# From -- ./inp_files/67232.got.cif
#   From: 2010.06.25/outbox.cif.g09.slc.cpg/sg10_34_cif.got.tgz:67232.got - 2010.06.27 22:07:45.
