data_PCOD8059560
_publ_section_title
;
Structure prediction by ZEFSAII (Michael W. Deem and Ramdas Pophale) SiO2 
 PCOD8059560
Probable space group: P 2/M
;
_chemical_formula_sum "Si O2"
_cell_formula_units_Z 28
_cell_length_a 9.020667
_cell_length_b 12.764690
_cell_length_c 16.185387
_cell_angle_alpha 90.000000
_cell_angle_beta 62.042106
_cell_angle_gamma 90.000000
_cell_volume 1646.176839
_symmetry_space_group_name_H-M "P 2/M"
_symmetry_group_IT_number 10
_symmetry_cell_setting 'monoclinic'
loop_
_space_group_symop_operation_xyz
x,y,z
-x,y,-z
-x,-y,-z
x,-y,z
loop_
_atom_site_type_symbol
_atom_site_label
_atom_site_fract_x
_atom_site_fract_y
_atom_site_fract_z
Si Si1 0.495436 0.378053 0.598232
Si Si2 0.851241 0.622183 0.776396
Si Si3 0.191185 0.617664 0.944879
Si Si4 0.189064 0.306000 0.773198
Si Si5 0.003179 0.880690 0.901484
Si Si6 0.159047 0.624165 0.409005
Si Si7 0.314708 0.239114 0.051222
O O1 0.500000 0.360313 0.500000
O O2 0.460066 0.500000 0.628426
O O3 0.346431 0.304113 0.670651
O O4 0.669202 0.338421 0.592856
O O5 0.804344 0.500000 0.792808
O O6 0.849982 0.663812 0.682831
O O7 0.711015 0.687274 0.862200
O O8 0.032606 0.639746 0.769305
O O9 0.206469 0.500000 0.974664
O O10 0.248500 0.623566 0.835078
O O11 0.302712 0.690516 0.972668
O O12 0.000000 0.658358 0.000000
O O13 0.142312 0.190485 0.819278
O O14 0.819186 0.854649 0.913588
O O15 0.048136 0.000000 0.868403
O O16 0.000000 0.860823 0.000000
O O17 0.148006 0.500000 0.414683
O O18 0.000000 0.672012 0.500000
O O19 0.500000 0.189407 0.000000
#
# Coordination Sequence:
#
# PCOD8059560 Si02
#       7
#     4   4   4   4   4   4   4
#     4  10  20  32  50  76 106 139 173 208 246 299
#     4  10  19  30  45  68 100 139 169 203 250 299
#     4  11  19  31  48  72 106 144 173 202 241 302
#     4  11  19  33  52  75  98 133 177 214 256 302
#     4  10  20  38  58  74  96 130 176 226 271 309
#     4   9  18  31  45  66 100 138 173 203 238 287
#     4  11  22  33  47  73 106 136 172 209 254 313
#
# _framework density 17.009108999999999
#
# number of rings (size 3 to 8) (size 9 to 14) (size 15 to 20)
#    0.000    1.714    4.286    2.571    2.000    3.714 
#    0.000    0.000    0.000    0.429    0.000    0.000 
#    0.000   14.286    0.000    0.000    0.000    0.000 
#
# Total GULP energy -347203.259500 kJ/mol
# GULP energy per Si atom -12400.116411 kJ/mol
# Density = 1.697040 g / cm^3
# Si number density = 17.009109 Si / 1000 Ang^3
#
#
#
# Elastic Constant Matrix: (Units=GPa)
#
#
# Indices 1 2 3 4 5 6 
#
# 1 70.2619 21.1959 46.4028 0.0000 -4.9486 0.0000
# 2 21.1959 71.8190 31.1669 0.0000 -5.3917 0.0000
# 3 46.4028 31.1669 119.5271 0.0000 -1.3241 0.0000
# 4 0.0000 0.0000 0.0000 14.5875 0.0000 -1.5979
# 5 -4.9486 -5.3917 -1.3241 0.0000 38.9721 0.0000
# 6 0.0000 0.0000 0.0000 -1.5979 0.0000 10.3206
#
#
#
# Elastic Compliance Matrix: (Units=1/GPa)
#
#
# Indices 1 2 3 4 5 6 
#
# 1 0.019767 -0.002672 -0.006956 0.000000 0.001904 0.000000
# 2 -0.002672 0.016225 -0.003173 0.000000 0.001798 0.000000
# 3 -0.006956 -0.003173 0.011884 0.000000 -0.000918 0.000000
# 4 0.000000 0.000000 0.000000 0.069734 0.000000 0.010797
# 5 0.001904 0.001798 -0.000918 0.000000 0.026119 0.000000
# 6 0.000000 0.000000 0.000000 0.010797 0.000000 0.098566
#
#
# Mechanical properties :
#
#
# Convention : Reuss Voigt Hill
#
# Bulk Modulus (GPa) = 44.89862 51.01548 47.95705
# Shear Modulus (GPa) = 18.16067 23.63221 20.89644
#
# Velocity S-wave (km/s) = 3.27112 3.73149 3.50886
# Velocity P-wave (km/s) = 6.38130 6.97306 6.68373
#
# Compressibility (1/GPa) = 0.02227240
#
# Stress axis : x y z
#
# Youngs Moduli (GPa) = 50.59061 61.63495 84.14686
#
# Poissons Ratio (x) = 0.16470 0.58532
# Poissons Ratio (y) = 0.13519 0.26702
# Poissons Ratio (z) = 0.35190 0.19559
#
# Static dielectric constant tensor:
#      x y z
#    x 3.250630 0.000000 0.110470 
#    y 0.000000 2.823710 0.000000 
#    z 0.110470 0.000000 3.308940 
# 
# 
# High freq. dielectric constant tensor:
#      x y z
#    x 1.662070 0.000000 0.008210 
#    y 0.000000 1.608440 0.000000 
#    z 0.008210 0.000000 1.660510 
# 
# From -- ./inp_files/28508.got.cif
#   From: 2010.06.25/outbox.cif.g09.slc.cpg/sg10_15_cif.got.tgz:28508.got - 2010.06.27 22:07:45.
