data_PCOD8059860
_publ_section_title
;
Structure prediction by ZEFSAII (Michael W. Deem and Ramdas Pophale) SiO2 
 PCOD8059860
Probable space group: P 2/M
;
_chemical_formula_sum "Si O2"
_cell_formula_units_Z 28
_cell_length_a 19.059289
_cell_length_b 8.839385
_cell_length_c 15.081321
_cell_angle_alpha 90.000000
_cell_angle_beta 141.938555
_cell_angle_gamma 90.000000
_cell_volume 1566.410466
_symmetry_space_group_name_H-M "P 2/M"
_symmetry_group_IT_number 10
_symmetry_cell_setting 'monoclinic'
loop_
_space_group_symop_operation_xyz
x,y,z
-x,y,-z
-x,-y,-z
x,-y,z
loop_
_atom_site_type_symbol
_atom_site_label
_atom_site_fract_x
_atom_site_fract_y
_atom_site_fract_z
Si Si1 0.876780 0.821448 0.617247
Si Si2 0.733099 0.322278 0.207736
Si Si3 0.976913 0.824704 0.072587
Si Si4 0.408528 0.320989 0.101408
Si Si5 0.782590 0.175662 0.001773
Si Si6 0.666524 0.320934 0.332795
Si Si7 0.936630 0.324443 0.298696
O O1 0.940248 0.757770 0.768484
O O2 0.750995 0.751556 0.488967
O O3 0.947734 0.770203 0.600073
O O4 0.869437 0.000000 0.610394
O O5 0.713233 0.500000 0.191989
O O6 0.697428 0.252334 0.266631
O O7 0.867210 0.286749 0.320610
O O8 0.649126 0.260707 0.047185
O O9 0.843689 0.802621 0.966874
O O10 0.007879 0.000000 0.095533
O O11 0.000000 0.745731 0.000000
O O12 0.394323 0.500000 0.098891
O O13 0.539610 0.271984 0.232171
O O14 0.347812 0.234763 0.124354
O O15 0.848423 0.284741 0.133993
O O16 0.791943 0.000000 0.039998
O O17 0.681091 0.500000 0.348631
O O18 0.969865 0.500000 0.328153
#
# Coordination Sequence:
#
# PCOD8059860 Si02
#       7
#     4   4   4   4   4   4   4
#     4  10  20  32  46  68  96 120 146 186 236 282
#     4   8  15  28  47  68  86 115 164 205 221 245
#     4   8  15  30  52  73  90 112 144 182 224 274
#     4   9  17  30  48  67  90 124 163 195 220 256
#     4   9  16  27  47  73  96 116 143 186 234 272
#     4  10  19  31  47  65  90 126 163 194 223 260
#     4   9  16  29  48  66  89 121 156 191 225 267
#
# _framework density 17.875263
#
# number of rings (size 3 to 8) (size 9 to 14) (size 15 to 20)
#    0.000    3.000    0.000    3.429    0.000    2.857 
#    0.000    6.429    0.000   20.571    0.000    6.000 
#    0.000    0.000    0.000    0.000    0.000    0.000 
#
# Total GULP energy -346929.540191 kJ/mol
# GULP energy per Si atom -12390.340721 kJ/mol
# Density = 1.783458 g / cm^3
# Si number density = 17.875263 Si / 1000 Ang^3
#
#
#
# Elastic Constant Matrix: (Units=GPa)
#
#
# Indices 1 2 3 4 5 6 
#
# 1 131.1713 27.7939 58.1004 0.0000 9.2930 0.0000
# 2 27.7939 25.2058 20.7071 0.0000 3.5623 0.0000
# 3 58.1004 20.7071 84.2625 0.0000 18.0308 0.0000
# 4 0.0000 0.0000 0.0000 20.9298 0.0000 7.1646
# 5 9.2930 3.5623 18.0308 0.0000 25.0386 0.0000
# 6 0.0000 0.0000 0.0000 7.1646 0.0000 19.8589
#
#
#
# Elastic Compliance Matrix: (Units=1/GPa)
#
#
# Indices 1 2 3 4 5 6 
#
# 1 0.012237 -0.008158 -0.006749 0.000000 0.001479 0.000000
# 2 -0.008158 0.055235 -0.008175 0.000000 0.001056 0.000000
# 3 -0.006749 -0.008175 0.020978 0.000000 -0.011439 0.000000
# 4 0.000000 0.000000 0.000000 0.054511 0.000000 -0.019666
# 5 0.001479 0.001056 -0.011439 0.000000 0.047476 0.000000
# 6 0.000000 0.000000 0.000000 -0.019666 0.000000 0.057450
#
#
# Mechanical properties :
#
#
# Convention : Reuss Voigt Hill
#
# Bulk Modulus (GPa) = 23.64828 50.42693 37.03760
# Shear Modulus (GPa) = 16.22601 22.10135 19.16368
#
# Velocity S-wave (km/s) = 3.01613 3.52009 3.27781
# Velocity P-wave (km/s) = 5.03863 6.69276 5.92372
#
# Compressibility (1/GPa) = 0.04228638
#
# Stress axis : x y z
#
# Youngs Moduli (GPa) = 81.72010 18.10435 47.66867
#
# Poissons Ratio (x) = 0.14769 0.32173
# Poissons Ratio (y) = 0.66665 0.38969
# Poissons Ratio (z) = 0.55156 0.14800
#
# Static dielectric constant tensor:
#      x y z
#    x 3.746700 0.000000 0.147900 
#    y 0.000000 3.048070 0.000000 
#    z 0.147900 0.000000 3.217790 
# 
# 
# High freq. dielectric constant tensor:
#      x y z
#    x 1.691850 0.000000 0.023970 
#    y 0.000000 1.666580 0.000000 
#    z 0.023970 0.000000 1.661840 
# 
# From -- ./inp_files/54650.got.cif
#   From: 2010.06.25/outbox.cif.g09.slc.cpg/sg10_28_cif.got.tgz:54650.got - 2010.06.27 22:07:45.
