data_PCOD8059670
_publ_section_title
;
Structure prediction by ZEFSAII (Michael W. Deem and Ramdas Pophale) SiO2 
 PCOD8059670
Probable space group: P 2/M
;
_chemical_formula_sum "Si O2"
_cell_formula_units_Z 24
_cell_length_a 9.136213
_cell_length_b 9.107510
_cell_length_c 21.145577
_cell_angle_alpha 90.000000
_cell_angle_beta 131.548648
_cell_angle_gamma 90.000000
_cell_volume 1316.785507
_symmetry_space_group_name_H-M "P 2/M"
_symmetry_group_IT_number 10
_symmetry_cell_setting 'monoclinic'
loop_
_space_group_symop_operation_xyz
x,y,z
-x,y,-z
-x,-y,-z
x,-y,z
loop_
_atom_site_type_symbol
_atom_site_label
_atom_site_fract_x
_atom_site_fract_y
_atom_site_fract_z
Si Si1 0.679912 0.333897 0.402808
Si Si2 0.981899 0.830122 0.923081
Si Si3 0.715245 0.326472 0.079638
Si Si4 0.047884 0.336444 0.416387
Si Si5 0.761450 0.324238 0.235880
Si Si6 0.539061 0.829325 0.760519
O O1 0.599450 0.500000 0.389841
O O2 0.859875 0.339309 0.406932
O O3 0.512760 0.232356 0.324409
O O4 0.765627 0.263081 0.493714
O O5 0.766335 0.800364 0.835629
O O6 0.130940 0.739958 0.923964
O O7 0.039936 0.000000 0.935519
O O8 0.000000 0.773702 0.000000
O O9 0.727635 0.500000 0.077657
O O10 0.765150 0.273074 0.164681
O O11 0.500000 0.269499 0.000000
O O12 0.120763 0.500000 0.423285
O O13 0.966585 0.266831 0.327298
O O14 0.742634 0.500000 0.237606
O O15 0.574929 0.253304 0.216427
O O16 0.484388 0.000000 0.747724
#
# Coordination Sequence:
#
# PCOD8059670 Si02
#       6
#     4   4   4   4   4   4
#     4   8  13  24  43  66  93 126 161 196 237 278
#     4  10  22  38  53  70  96 131 165 194 231 287
#     4  10  21  35  53  78 101 121 154 202 248 286
#     4   7  11  22  42  66  92 125 161 193 228 279
#     4   9  17  31  50  72 100 130 159 195 241 288
#     4  10  19  30  47  73 100 126 162 202 237 278
#
# _framework density 18.226203000000002
#
# number of rings (size 3 to 8) (size 9 to 14) (size 15 to 20)
#    0.000    3.000    0.000    3.500    0.000    2.667 
#    0.000    6.667    0.000    1.000    0.000    7.000 
#    0.000    0.000    0.000    0.000    0.000    0.000 
#
# Total GULP energy -297316.565422 kJ/mol
# GULP energy per Si atom -12388.190226 kJ/mol
# Density = 1.818472 g / cm^3
# Si number density = 18.226203 Si / 1000 Ang^3
#
#
#
# Elastic Constant Matrix: (Units=GPa)
#
#
# Indices 1 2 3 4 5 6 
#
# 1 73.2909 26.2093 57.7676 0.0000 -8.9715 0.0000
# 2 26.2093 40.5831 40.7258 0.0000 0.4614 0.0000
# 3 57.7676 40.7258 191.2351 0.0000 -14.5747 0.0000
# 4 0.0000 0.0000 0.0000 19.3481 0.0000 -2.4231
# 5 -8.9715 0.4614 -14.5747 0.0000 21.2500 0.0000
# 6 0.0000 0.0000 0.0000 -2.4231 0.0000 16.8661
#
#
#
# Elastic Compliance Matrix: (Units=1/GPa)
#
#
# Indices 1 2 3 4 5 6 
#
# 1 0.020885 -0.009826 -0.003723 0.000000 0.006478 0.000000
# 2 -0.009826 0.036593 -0.005488 0.000000 -0.008707 0.000000
# 3 -0.003723 -0.005488 0.007821 0.000000 0.003911 0.000000
# 4 0.000000 0.000000 0.000000 0.052632 0.000000 0.007561
# 5 0.006478 -0.008707 0.003911 0.000000 0.052665 0.000000
# 6 0.000000 0.000000 0.000000 0.007561 0.000000 0.060377
#
#
# Mechanical properties :
#
#
# Convention : Reuss Voigt Hill
#
# Bulk Modulus (GPa) = 36.73088 61.61274 49.17181
# Shear Modulus (GPa) = 17.97772 23.51993 20.74882
#
# Velocity S-wave (km/s) = 3.14405 3.59617 3.37769
# Velocity P-wave (km/s) = 5.77725 7.14991 6.49992
#
# Compressibility (1/GPa) = 0.02722505
#
# Stress axis : x y z
#
# Youngs Moduli (GPa) = 47.88078 27.32742 127.86692
#
# Poissons Ratio (x) = 0.26852 0.47601
# Poissons Ratio (y) = 0.47047 0.70179
# Poissons Ratio (z) = 0.17825 0.14998
#
# Static dielectric constant tensor:
#      x y z
#    x 2.910050 0.000000 -0.154380 
#    y 0.000000 3.160520 0.000000 
#    z -0.154380 0.000000 4.285660 
# 
# 
# High freq. dielectric constant tensor:
#      x y z
#    x 1.661110 0.000000 -0.003680 
#    y 0.000000 1.677140 0.000000 
#    z -0.003680 0.000000 1.742350 
# 
# From -- ./inp_files/33964.got.cif
#   From: 2010.06.25/outbox.cif.g09.slc.cpg/sg10_17_cif.got.tgz:33964.got - 2010.06.27 22:07:45.
