data_PCOD8059506
_publ_section_title
;
Structure prediction by ZEFSAII (Michael W. Deem and Ramdas Pophale) SiO2 
 PCOD8059506
Probable space group: P 2/M
;
_chemical_formula_sum "Si O2"
_cell_formula_units_Z 32
_cell_length_a 24.195600
_cell_length_b 9.545877
_cell_length_c 33.632164
_cell_angle_alpha 90.000000
_cell_angle_beta 15.924336
_cell_angle_gamma 90.000000
_cell_volume 2131.277523
_symmetry_space_group_name_H-M "P 2/M"
_symmetry_group_IT_number 10
_symmetry_cell_setting 'monoclinic'
loop_
_space_group_symop_operation_xyz
x,y,z
-x,y,-z
-x,-y,-z
x,-y,z
loop_
_atom_site_type_symbol
_atom_site_label
_atom_site_fract_x
_atom_site_fract_y
_atom_site_fract_z
Si Si1 0.291071 0.663783 0.899108
Si Si2 0.844529 0.336198 0.919315
Si Si3 0.724226 0.344778 0.624573
Si Si4 0.582971 0.344420 0.812663
Si Si5 0.223001 0.834349 0.657524
Si Si6 0.656079 0.164998 0.339358
Si Si7 0.992299 0.834809 0.959489
Si Si8 0.070653 0.157489 0.405717
O O1 0.252889 0.500000 0.917613
O O2 0.529802 0.698057 0.733073
O O3 0.197840 0.708549 0.005906
O O4 0.193152 0.755014 0.932154
O O5 0.893950 0.500000 0.882562
O O6 0.030891 0.247491 0.773017
O O7 0.651280 0.299080 0.025643
O O8 0.799822 0.500000 0.560022
O O9 0.660058 0.348344 0.714550
O O10 0.904873 0.234941 0.492984
O O11 0.607085 0.500000 0.814471
O O12 0.714821 0.235770 0.747082
O O13 0.256275 0.779787 0.679558
O O14 0.422989 0.789275 0.494237
O O15 0.181804 0.000000 0.683517
O O16 0.797165 0.216903 0.205779
O O17 0.657355 0.000000 0.341834
O O18 0.959284 0.000000 0.976269
O O19 0.000000 0.792579 0.000000
O O20 0.000000 0.158329 0.500000
O O21 0.095929 0.000000 0.372292
#
# Coordination Sequence:
#
# PCOD8059506 Si02
#       8
#     4   4   4   4   4   4   4   4
#     4   9  17  28  40  55  75  99 129 163 197 235
#     4   9  16  25  37  56  78  99 128 164 196 226
#     4   8  14  24  36  47  64  95 128 154 186 226
#     4   8  14  23  33  45  68 100 126 150 184 226
#     4   9  15  25  42  56  73 101 128 159 195 233
#     4   8  15  27  40  57  76  97 127 158 196 241
#     4  10  19  30  44  59  76 100 130 165 201 237
#     4   9  15  21  30  48  70  92 124 161 188 214
#
# _framework density 15.014469999999999
#
# number of rings (size 3 to 8) (size 9 to 14) (size 15 to 20)
#    0.000    3.250    1.250    2.625    0.000    2.750 
#    0.000    4.375    0.000    0.000    0.000    0.000 
#    0.000    0.000    0.000    1.125    0.000   22.875 
#
# Total GULP energy -396579.942988 kJ/mol
# GULP energy per Si atom -12393.123218 kJ/mol
# Density = 1.498030 g / cm^3
# Si number density = 15.014470 Si / 1000 Ang^3
#
#
#
# Elastic Constant Matrix: (Units=GPa)
#
#
# Indices 1 2 3 4 5 6 
#
# 1 46.2882 33.4462 46.3977 0.0000 -11.4644 0.0000
# 2 33.4462 77.0546 59.5136 0.0000 -23.9428 0.0000
# 3 46.3977 59.5136 114.5886 0.0000 -29.1626 0.0000
# 4 0.0000 0.0000 0.0000 25.7969 0.0000 -10.4516
# 5 -11.4644 -23.9428 -29.1626 0.0000 25.4806 0.0000
# 6 0.0000 0.0000 0.0000 -10.4516 0.0000 12.3848
#
#
#
# Elastic Compliance Matrix: (Units=1/GPa)
#
#
# Indices 1 2 3 4 5 6 
#
# 1 0.039476 -0.008974 -0.012627 0.000000 -0.005123 0.000000
# 2 -0.008974 0.025929 -0.006575 0.000000 0.012801 0.000000
# 3 -0.012627 -0.006575 0.020087 0.000000 0.011130 0.000000
# 4 0.000000 0.000000 0.000000 0.058904 0.000000 0.049710
# 5 -0.005123 0.012801 0.011130 0.000000 0.061708 0.000000
# 6 0.000000 0.000000 0.000000 0.049710 0.000000 0.122695
#
#
# Mechanical properties :
#
#
# Convention : Reuss Voigt Hill
#
# Bulk Modulus (GPa) = 34.31730 57.40516 45.86123
# Shear Modulus (GPa) = 12.66250 19.30404 15.98327
#
# Velocity S-wave (km/s) = 2.90720 3.58955 3.26624
# Velocity P-wave (km/s) = 5.84593 7.44957 6.69593
#
# Compressibility (1/GPa) = 0.02913982
#
# Stress axis : x y z
#
# Youngs Moduli (GPa) = 25.33155 38.56654 49.78283
#
# Poissons Ratio (x) = 0.34611 0.62861
# Poissons Ratio (y) = 0.22733 0.32733
# Poissons Ratio (z) = 0.31986 0.25358
#
# Static dielectric constant tensor:
#      x y z
#    x 2.490790 0.000000 -0.245240 
#    y 0.000000 2.868420 0.000000 
#    z -0.245240 0.000000 3.095200 
# 
# 
# High freq. dielectric constant tensor:
#      x y z
#    x 1.514420 0.000000 -0.036680 
#    y 0.000000 1.569050 0.000000 
#    z -0.036680 0.000000 1.572430 
# 
# From -- ./inp_files/92447.got.cif
#   From: 2010.06.25/outbox.cif.g09.slc.cpg/sg10_47_cif.got.tgz:92447.got - 2010.06.27 22:07:45.
