data_PCOD8059051
_publ_section_title
;
Structure prediction by ZEFSAII (Michael W. Deem and Ramdas Pophale) SiO2 
 PCOD8059051
Probable space group: P 2/M
;
_chemical_formula_sum "Si O2"
_cell_formula_units_Z 28
_cell_length_a 9.243334
_cell_length_b 14.405394
_cell_length_c 14.720940
_cell_angle_alpha 90.000000
_cell_angle_beta 51.737607
_cell_angle_gamma 90.000000
_cell_volume 1539.076545
_symmetry_space_group_name_H-M "P 2/M"
_symmetry_group_IT_number 10
_symmetry_cell_setting 'monoclinic'
loop_
_space_group_symop_operation_xyz
x,y,z
-x,y,-z
-x,-y,-z
x,-y,z
loop_
_atom_site_type_symbol
_atom_site_label
_atom_site_fract_x
_atom_site_fract_y
_atom_site_fract_z
Si Si1 0.210260 0.105958 0.948412
Si Si2 0.048724 0.000000 0.323520
Si Si3 0.624835 0.175192 0.534472
Si Si4 0.786594 0.603331 0.064095
Si Si5 0.285830 0.254479 0.062260
Si Si6 0.321657 0.244084 0.760850
Si Si7 0.959780 0.194326 0.284537
Si Si8 0.267381 0.000000 0.406891
O O1 0.337379 0.161377 0.827935
O O2 0.279876 0.000000 0.928926
O O3 0.230918 0.157409 0.036402
O O4 0.000000 0.111286 0.000000
O O5 0.020273 0.087013 0.268286
O O6 0.239476 0.000000 0.307508
O O7 0.911048 0.000000 0.460735
O O8 0.500000 0.137539 0.500000
O O9 0.509881 0.255752 0.629818
O O10 0.824782 0.214341 0.423814
O O11 0.626767 0.093143 0.607124
O O12 0.700570 0.500000 0.091581
O O13 0.697437 0.657319 0.182977
O O14 0.753271 0.655231 0.982505
O O15 0.000000 0.597432 0.000000
O O16 0.149972 0.255537 0.204797
O O17 0.500000 0.253988 0.000000
O O18 0.149207 0.217906 0.764697
#
# Coordination Sequence:
#
# PCOD8059051 Si02
#       8
#     4   2   4   4   4   4   4   2
#     4  10  20  33  52  74 105 151 185 223 267 303
#     4   9  20  28  49  63 105 162 179 216 255 299
#     4   9  19  30  54  76 102 141 184 231 268 294
#     4  10  20  39  64  82 100 136 178 225 279 326
#     4  11  22  36  54  80 113 141 179 221 273 332
#     4  10  18  33  56  79 102 131 180 227 266 317
#     4  10  19  35  48  75 111 142 181 221 260 313
#     4   9  17  34  40  70 105 146 205 209 239 311
#
# _framework density 18.192729
#
# number of rings (size 3 to 8) (size 9 to 14) (size 15 to 20)
#    0.000    2.143    2.857    1.071    3.000    4.000 
#    0.000    0.000    0.000    4.714    0.000    1.000 
#    0.000    0.000    0.000    0.000    0.000    0.000 
#
# Total GULP energy -346879.978534 kJ/mol
# GULP energy per Si atom -12388.570662 kJ/mol
# Density = 1.815132 g / cm^3
# Si number density = 18.192729 Si / 1000 Ang^3
#
#
#
# Elastic Constant Matrix: (Units=GPa)
#
#
# Indices 1 2 3 4 5 6 
#
# 1 71.5126 40.4247 38.2467 0.0000 -12.2637 0.0000
# 2 40.4247 135.1308 53.4899 0.0000 2.6883 0.0000
# 3 38.2467 53.4899 120.1331 0.0000 -20.1386 0.0000
# 4 0.0000 0.0000 0.0000 33.0312 0.0000 6.3686
# 5 -12.2637 2.6883 -20.1386 0.0000 23.0682 0.0000
# 6 0.0000 0.0000 0.0000 6.3686 0.0000 7.9919
#
#
#
# Elastic Compliance Matrix: (Units=1/GPa)
#
#
# Indices 1 2 3 4 5 6 
#
# 1 0.019729 -0.005075 -0.002535 0.000000 0.008867 0.000000
# 2 -0.005075 0.010882 -0.004562 0.000000 -0.007949 0.000000
# 3 -0.002535 -0.004562 0.012916 0.000000 0.010460 0.000000
# 4 0.000000 0.000000 0.000000 0.035770 0.000000 -0.028505
# 5 0.008867 -0.007949 0.010460 0.000000 0.058121 0.000000
# 6 0.000000 0.000000 0.000000 -0.028505 0.000000 0.147842
#
#
# Mechanical properties :
#
#
# Convention : Reuss Voigt Hill
#
# Bulk Modulus (GPa) = 52.13041 65.67768 58.90404
# Shear Modulus (GPa) = 15.82287 25.79263 20.80775
#
# Velocity S-wave (km/s) = 2.95233 3.76938 3.38559
# Velocity P-wave (km/s) = 6.35125 7.42453 6.90877
#
# Compressibility (1/GPa) = 0.01918266
#
# Stress axis : x y z
#
# Youngs Moduli (GPa) = 50.68802 91.89095 77.42330
#
# Poissons Ratio (x) = 0.46632 0.19627
# Poissons Ratio (y) = 0.25723 0.35323
# Poissons Ratio (z) = 0.12850 0.41924
#
# Static dielectric constant tensor:
#      x y z
#    x 6.486020 0.000000 0.508600 
#    y 0.000000 3.397290 0.000000 
#    z 0.508600 0.000000 3.627350 
# 
# 
# High freq. dielectric constant tensor:
#      x y z
#    x 1.694930 0.000000 -0.003270 
#    y 0.000000 1.666760 0.000000 
#    z -0.003270 0.000000 1.715040 
# 
# From -- ./inp_files/51426.got.cif
#   From: 2010.06.25/outbox.cif.g09.slc.cpg/sg10_26_cif.got.tgz:51426.got - 2010.06.27 22:07:45.
