data_PCOD8059565
_publ_section_title
;
Structure prediction by ZEFSAII (Michael W. Deem and Ramdas Pophale) SiO2 
 PCOD8059565
Probable space group: P 2/M
;
_chemical_formula_sum "Si O2"
_cell_formula_units_Z 32
_cell_length_a 12.232805
_cell_length_b 8.870025
_cell_length_c 31.294561
_cell_angle_alpha 90.000000
_cell_angle_beta 149.926028
_cell_angle_gamma 90.000000
_cell_volume 1701.607835
_symmetry_space_group_name_H-M "P 2/M"
_symmetry_group_IT_number 10
_symmetry_cell_setting 'monoclinic'
loop_
_space_group_symop_operation_xyz
x,y,z
-x,y,-z
-x,-y,-z
x,-y,z
loop_
_atom_site_type_symbol
_atom_site_label
_atom_site_fract_x
_atom_site_fract_y
_atom_site_fract_z
Si Si1 0.801706 0.321876 0.352330
Si Si2 0.020503 0.177625 0.741904
Si Si3 0.277605 0.325792 0.521905
Si Si4 0.273729 0.320639 0.288166
Si Si5 0.627135 0.174720 0.762987
Si Si6 0.235670 0.825634 0.096171
Si Si7 0.738164 0.838470 0.567626
Si Si8 0.662197 0.676709 0.211074
O O1 0.757158 0.500000 0.341060
O O2 0.619900 0.234294 0.317349
O O3 0.794774 0.274939 0.299365
O O4 0.032235 0.275915 0.453024
O O5 0.250887 0.241819 0.802615
O O6 0.930087 0.255459 0.754119
O O7 0.856932 0.225426 0.649221
O O8 0.038185 0.000000 0.756059
O O9 0.304755 0.500000 0.539445
O O10 0.489417 0.251219 0.616219
O O11 0.273638 0.293507 0.470527
O O12 0.266628 0.500000 0.289008
O O13 0.243018 0.266685 0.229252
O O14 0.755597 0.203976 0.850257
O O15 0.620918 0.000000 0.748480
O O16 0.411477 0.724037 0.131381
O O17 0.284607 0.000000 0.102321
O O18 0.000000 0.775276 0.000000
O O19 0.500000 0.882425 0.500000
O O20 0.843916 0.000000 0.587449
O O21 0.678062 0.500000 0.208998
#
# Coordination Sequence:
#
# PCOD8059565 Si02
#       8
#     4   4   4   4   4   4   4   4
#     4   9  18  33  51  72 102 139 180 226 269 310
#     4  11  21  33  51  75 107 145 184 225 269 314
#     4  10  20  32  48  70  99 141 188 229 268 310
#     4  11  23  36  51  72 104 148 190 225 264 312
#     4  10  21  37  56  78 105 137 174 216 265 320
#     4   9  19  38  64  90 112 135 166 207 261 325
#     4  10  19  30  45  69 100 136 181 235 277 304
#     4  10  19  32  54  84 114 140 173 218 267 315
#
# _framework density 18.805743
#
# number of rings (size 3 to 8) (size 9 to 14) (size 15 to 20)
#    0.000    2.000    2.500    1.500    0.000    3.500 
#    0.000    2.500    0.000    0.750    0.000    5.250 
#    0.000    0.000    0.000    0.000    0.000    0.000 
#
# Total GULP energy -396574.735475 kJ/mol
# GULP energy per Si atom -12392.960484 kJ/mol
# Density = 1.876294 g / cm^3
# Si number density = 18.805743 Si / 1000 Ang^3
#
#
#
# Elastic Constant Matrix: (Units=GPa)
#
#
# Indices 1 2 3 4 5 6 
#
# 1 131.8004 47.8105 36.3523 0.0000 3.4188 0.0000
# 2 47.8105 61.8172 27.9616 0.0000 6.2261 0.0000
# 3 36.3523 27.9616 71.9202 0.0000 10.7635 0.0000
# 4 0.0000 0.0000 0.0000 20.6910 0.0000 2.2271
# 5 3.4188 6.2261 10.7635 0.0000 15.5775 0.0000
# 6 0.0000 0.0000 0.0000 2.2271 0.0000 37.2225
#
#
#
# Elastic Compliance Matrix: (Units=1/GPa)
#
#
# Indices 1 2 3 4 5 6 
#
# 1 0.011069 -0.007424 -0.003110 0.000000 0.002687 0.000000
# 2 -0.007424 0.024724 -0.005158 0.000000 -0.004689 0.000000
# 3 -0.003110 -0.005158 0.019040 0.000000 -0.010412 0.000000
# 4 0.000000 0.000000 0.000000 0.048643 0.000000 -0.002910
# 5 0.002687 -0.004689 -0.010412 0.000000 0.072674 0.000000
# 6 0.000000 0.000000 0.000000 -0.002910 0.000000 0.027040
#
#
# Mechanical properties :
#
#
# Convention : Reuss Voigt Hill
#
# Bulk Modulus (GPa) = 42.64900 54.42075 48.53487
# Shear Modulus (GPa) = 20.62782 24.92575 22.77679
#
# Velocity S-wave (km/s) = 3.31553 3.64460 3.48395
# Velocity P-wave (km/s) = 6.11432 6.83462 6.48448
#
# Compressibility (1/GPa) = 0.02344721
#
# Stress axis : x y z
#
# Youngs Moduli (GPa) = 90.34562 40.44610 52.52091
#
# Poissons Ratio (x) = 0.30029 0.16336
# Poissons Ratio (y) = 0.67076 0.27091
# Poissons Ratio (z) = 0.28101 0.20862
#
# Static dielectric constant tensor:
#      x y z
#    x 3.429470 0.000000 0.107440 
#    y 0.000000 3.416410 0.000000 
#    z 0.107440 0.000000 3.290350 
# 
# 
# High freq. dielectric constant tensor:
#      x y z
#    x 1.727150 0.000000 0.011840 
#    y 0.000000 1.732710 0.000000 
#    z 0.011840 0.000000 1.697420 
# 
# From -- ./inp_files/83600.got.cif
#   From: 2010.06.25/outbox.cif.g09.slc.cpg/sg10_42_cif.got.tgz:83600.got - 2010.06.27 22:07:45.
