data_PCOD8059529
_publ_section_title
;
Structure prediction by ZEFSAII (Michael W. Deem and Ramdas Pophale) SiO2 
 PCOD8059529
Probable space group: P 2/M
;
_chemical_formula_sum "Si O2"
_cell_formula_units_Z 32
_cell_length_a 14.507740
_cell_length_b 9.192613
_cell_length_c 14.174425
_cell_angle_alpha 90.000000
_cell_angle_beta 107.497375
_cell_angle_gamma 90.000000
_cell_volume 1802.893055
_symmetry_space_group_name_H-M "P 2/M"
_symmetry_group_IT_number 10
_symmetry_cell_setting 'monoclinic'
loop_
_space_group_symop_operation_xyz
x,y,z
-x,y,-z
-x,-y,-z
x,-y,z
loop_
_atom_site_type_symbol
_atom_site_label
_atom_site_fract_x
_atom_site_fract_y
_atom_site_fract_z
Si Si1 0.059369 0.332233 0.802509
Si Si2 0.893577 0.838454 0.006426
Si Si3 0.262343 0.829718 0.194224
Si Si4 0.188141 0.173362 0.703595
Si Si5 0.371176 0.172640 0.878310
Si Si6 0.890052 0.328361 0.490319
Si Si7 0.417751 0.826983 0.098847
Si Si8 0.154475 0.333784 0.311318
O O1 0.085688 0.500000 0.791332
O O2 0.114104 0.277314 0.912282
O O3 0.093306 0.235226 0.725504
O O4 0.944483 0.311679 0.777764
O O5 0.863244 0.000000 0.034304
O O6 0.823285 0.787134 0.902741
O O7 0.000000 0.844756 0.000000
O O8 0.360751 0.771724 0.174454
O O9 0.241577 0.753388 0.287903
O O10 0.267195 0.000000 0.215915
O O11 0.282403 0.232334 0.788878
O O12 0.185712 0.240786 0.598251
O O13 0.184704 0.000000 0.697467
O O14 0.472000 0.230154 0.864101
O O15 0.370204 0.000000 0.875075
O O16 0.365112 0.226225 0.985607
O O17 0.876435 0.500000 0.470986
O O18 0.863230 0.279629 0.587832
O O19 0.000000 0.283196 0.500000
O O20 0.415873 0.000000 0.097080
O O21 0.186900 0.500000 0.321649
#
# Coordination Sequence:
#
# PCOD8059529 Si02
#       8
#     4   4   4   4   4   4   4   4
#     4  11  21  33  48  68  98 139 176 201 237 302
#     4  10  19  30  44  69 103 132 161 207 251 286
#     4  10  19  31  50  74 102 134 169 206 252 302
#     4  11  21  32  52  80 104 125 161 218 268 300
#     4   8  15  29  50  77 106 131 163 205 251 303
#     4  10  20  38  55  69  96 135 176 212 251 305
#     4   8  14  28  51  76 103 137 167 196 244 307
#     4  10  21  35  50  67  95 134 172 206 244 296
#
# _framework density 17.74925
#
# number of rings (size 3 to 8) (size 9 to 14) (size 15 to 20)
#    0.000    2.250    2.500    2.250    0.000    4.000 
#    0.000    0.000    0.000    2.250    0.000   10.500 
#    0.000    0.000    0.000    0.000    0.000    0.000 
#
# Total GULP energy -396674.824220 kJ/mol
# GULP energy per Si atom -12396.088257 kJ/mol
# Density = 1.770885 g / cm^3
# Si number density = 17.749250 Si / 1000 Ang^3
#
#
#
# Elastic Constant Matrix: (Units=GPa)
#
#
# Indices 1 2 3 4 5 6 
#
# 1 92.5262 27.4905 48.1426 0.0000 -21.3462 0.0000
# 2 27.4905 47.7606 40.5521 0.0000 -7.2465 0.0000
# 3 48.1426 40.5521 103.3822 0.0000 -18.6912 0.0000
# 4 0.0000 0.0000 0.0000 27.8009 0.0000 -7.2097
# 5 -21.3462 -7.2465 -18.6912 0.0000 33.4658 0.0000
# 6 0.0000 0.0000 0.0000 -7.2097 0.0000 11.8169
#
#
#
# Elastic Compliance Matrix: (Units=1/GPa)
#
#
# Indices 1 2 3 4 5 6 
#
# 1 0.016013 -0.004344 -0.004534 0.000000 0.006741 0.000000
# 2 -0.004344 0.032572 -0.011100 0.000000 -0.001918 0.000000
# 3 -0.004534 -0.011100 0.016886 0.000000 0.004136 0.000000
# 4 0.000000 0.000000 0.000000 0.042731 0.000000 0.026071
# 5 0.006741 -0.001918 0.004136 0.000000 0.036075 0.000000
# 6 0.000000 0.000000 0.000000 0.026071 0.000000 0.100531
#
#
# Mechanical properties :
#
#
# Convention : Reuss Voigt Hill
#
# Bulk Modulus (GPa) = 39.19438 52.89326 46.04382
# Shear Modulus (GPa) = 17.04911 23.11562 20.08237
#
# Velocity S-wave (km/s) = 3.10264 3.61272 3.36735
# Velocity P-wave (km/s) = 5.91315 6.87512 6.41220
#
# Compressibility (1/GPa) = 0.02551387
#
# Stress axis : x y z
#
# Youngs Moduli (GPa) = 62.45048 30.70097 59.22065
#
# Poissons Ratio (x) = 0.13338 0.26850
# Poissons Ratio (y) = 0.27131 0.65736
# Poissons Ratio (z) = 0.28315 0.34079
#
# Static dielectric constant tensor:
#      x y z
#    x 3.457900 0.000000 -0.074570 
#    y 0.000000 3.033740 0.000000 
#    z -0.074570 0.000000 3.367860 
# 
# 
# High freq. dielectric constant tensor:
#      x y z
#    x 1.676640 0.000000 -0.012150 
#    y 0.000000 1.658240 0.000000 
#    z -0.012150 0.000000 1.678700 
# 
# From -- ./inp_files/65982.got.cif
#   From: 2010.06.25/outbox.cif.g09.slc.cpg/sg10_33_cif.got.tgz:65982.got - 2010.06.27 22:07:45.
