data_PCOD8059403
_publ_section_title
;
Structure prediction by ZEFSAII (Michael W. Deem and Ramdas Pophale) SiO2 
 PCOD8059403
Probable space group: P 2/M
;
_chemical_formula_sum "Si O2"
_cell_formula_units_Z 32
_cell_length_a 19.306358
_cell_length_b 14.524212
_cell_length_c 23.725461
_cell_angle_alpha 90.000000
_cell_angle_beta 17.937293
_cell_angle_gamma 90.000000
_cell_volume 2048.917030
_symmetry_space_group_name_H-M "P 2/M"
_symmetry_group_IT_number 10
_symmetry_cell_setting 'monoclinic'
loop_
_space_group_symop_operation_xyz
x,y,z
-x,y,-z
-x,-y,-z
x,-y,z
loop_
_atom_site_type_symbol
_atom_site_label
_atom_site_fract_x
_atom_site_fract_y
_atom_site_fract_z
Si Si1 0.145518 0.398732 0.280628
Si Si2 0.778680 0.890888 0.140234
Si Si3 0.950708 0.227527 0.474080
Si Si4 0.530796 0.210847 0.128739
Si Si5 0.646850 0.900290 0.833217
Si Si6 0.462491 0.397613 0.934355
Si Si7 0.598956 0.891046 0.481755
Si Si8 0.117487 0.109110 0.067735
O O1 0.041044 0.500000 0.373003
O O2 0.961545 0.318877 0.427387
O O3 0.331287 0.375745 0.183924
O O4 0.240152 0.395477 0.144436
O O5 0.550796 0.854442 0.348670
O O6 0.782055 0.000000 0.141186
O O7 0.798636 0.860606 0.059485
O O8 0.000000 0.851258 0.000000
O O9 0.124038 0.147879 0.323311
O O10 0.000000 0.257040 0.500000
O O11 0.699674 0.189229 0.659242
O O12 0.507340 0.162840 0.086615
O O13 0.557309 0.321096 0.099214
O O14 0.739378 0.168189 0.999462
O O15 0.705042 0.000000 0.759986
O O16 0.500000 0.920697 0.000000
O O17 0.488340 0.500000 0.887253
O O18 0.500000 0.850563 0.500000
O O19 0.860753 0.862386 0.280838
O O20 0.578720 0.000000 0.496192
O O21 0.153445 0.000000 0.048825
#
# Coordination Sequence:
#
# PCOD8059403 Si02
#       8
#     4   4   4   4   4   4   4   4
#     4   9  16  29  49  70  85 105 147 199 244 288
#     4   9  15  27  48  70  94 124 156 191 228 276
#     4  10  19  29  44  64  84 116 151 192 234 278
#     4  11  21  32  45  66  96 118 151 198 240 277
#     4  10  20  34  48  58  78 122 170 200 226 267
#     4   9  17  30  50  68  86 113 145 190 246 293
#     4   9  15  27  49  71  91 123 160 189 228 278
#     4  10  20  32  45  67 100 132 160 192 232 275
#
# _framework density 15.618007
#
# number of rings (size 3 to 8) (size 9 to 14) (size 15 to 20)
#    0.000    2.375    3.750    1.875    0.000    3.500 
#    4.500    0.000    0.000    0.000    0.000    0.000 
#    0.000    1.000    0.000    0.000    0.000    0.250 
#
# Total GULP energy -396496.687557 kJ/mol
# GULP energy per Si atom -12390.521486 kJ/mol
# Density = 1.558246 g / cm^3
# Si number density = 15.618007 Si / 1000 Ang^3
#
#
#
# Elastic Constant Matrix: (Units=GPa)
#
#
# Indices 1 2 3 4 5 6 
#
# 1 57.8116 29.7352 42.2766 0.0000 -11.3862 0.0000
# 2 29.7352 78.5873 30.5060 0.0000 -3.2519 0.0000
# 3 42.2766 30.5060 111.7175 0.0000 -0.9321 0.0000
# 4 0.0000 0.0000 0.0000 52.2814 0.0000 24.9360
# 5 -11.3862 -3.2519 -0.9321 0.0000 22.3750 0.0000
# 6 0.0000 0.0000 0.0000 24.9360 0.0000 12.3920
#
#
#
# Elastic Compliance Matrix: (Units=1/GPa)
#
#
# Indices 1 2 3 4 5 6 
#
# 1 0.030891 -0.007390 -0.009553 0.000000 0.014248 0.000000
# 2 -0.007390 0.016083 -0.001608 0.000000 -0.001490 0.000000
# 3 -0.009553 -0.001608 0.012967 0.000000 -0.004555 0.000000
# 4 0.000000 0.000000 0.000000 0.475396 0.000000 -0.956622
# 5 0.014248 -0.001490 -0.004555 0.000000 0.051537 0.000000
# 6 0.000000 0.000000 0.000000 -0.956622 0.000000 2.005673
#
#
# Mechanical properties :
#
#
# Convention : Reuss Voigt Hill
#
# Bulk Modulus (GPa) = 43.78341 50.35022 47.06681
# Shear Modulus (GPa) = 1.89591 27.11625 14.50608
#
# Velocity S-wave (km/s) = 1.10298 4.17131 3.05094
# Velocity P-wave (km/s) = 5.45132 7.45039 6.52783
#
# Compressibility (1/GPa) = 0.02283970
#
# Stress axis : x y z
#
# Youngs Moduli (GPa) = 32.37214 62.17610 77.11798
#
# Poissons Ratio (x) = 0.45950 0.73670
# Poissons Ratio (y) = 0.23924 0.12397
# Poissons Ratio (z) = 0.30925 0.09995
#
# Static dielectric constant tensor:
#      x y z
#    x 2.698620 0.000000 0.131430 
#    y 0.000000 2.851480 0.000000 
#    z 0.131430 0.000000 3.314440 
# 
# 
# High freq. dielectric constant tensor:
#      x y z
#    x 1.556770 0.000000 0.015220 
#    y 0.000000 1.572490 0.000000 
#    z 0.015220 0.000000 1.613220 
# 
# From -- ./inp_files/85940.got.cif
#   From: 2010.06.25/outbox.cif.g09.slc.cpg/sg10_43_cif.got.tgz:85940.got - 2010.06.27 22:07:45.
