data_PCOD8059792
_publ_section_title
;
Structure prediction by ZEFSAII (Michael W. Deem and Ramdas Pophale) SiO2 
 PCOD8059792
Probable space group: P 2/M
;
_chemical_formula_sum "Si O2"
_cell_formula_units_Z 28
_cell_length_a 12.702285
_cell_length_b 8.838246
_cell_length_c 15.320107
_cell_angle_alpha 90.000000
_cell_angle_beta 53.166905
_cell_angle_gamma 90.000000
_cell_volume 1376.603290
_symmetry_space_group_name_H-M "P 2/M"
_symmetry_group_IT_number 10
_symmetry_cell_setting 'monoclinic'
loop_
_space_group_symop_operation_xyz
x,y,z
-x,y,-z
-x,-y,-z
x,-y,z
loop_
_atom_site_type_symbol
_atom_site_label
_atom_site_fract_x
_atom_site_fract_y
_atom_site_fract_z
Si Si1 0.937372 0.319354 0.293057
Si Si2 0.504768 0.162666 0.398504
Si Si3 0.652827 0.321115 0.743867
Si Si4 0.354131 0.319358 0.891515
Si Si5 0.755550 0.674819 0.229584
Si Si6 0.765550 0.321052 0.871125
Si Si7 0.776063 0.821746 0.525872
O O1 0.925826 0.500000 0.302766
O O2 0.858475 0.251499 0.247250
O O3 0.885462 0.255001 0.410770
O O4 0.085677 0.260716 0.209087
O O5 0.500000 0.120925 0.500000
O O6 0.607973 0.296128 0.334019
O O7 0.364188 0.226604 0.441940
O O8 0.537946 0.000000 0.334321
O O9 0.665562 0.500000 0.725756
O O10 0.503811 0.263154 0.795680
O O11 0.681840 0.271784 0.828804
O O12 0.767876 0.243866 0.628325
O O13 0.358772 0.500000 0.893014
O O14 0.248579 0.265310 0.869255
O O15 0.304629 0.251882 0.008094
O O16 0.788637 0.500000 0.212268
O O17 0.769289 0.500000 0.877937
O O18 0.802662 0.000000 0.514667
#
# Coordination Sequence:
#
# PCOD8059792 Si02
#       7
#     4   4   4   4   4   4   4
#     4  10  21  35  52  78 111 144 175 209 256 315
#     4  10  19  32  50  74 104 139 173 211 263 318
#     4  10  19  34  58  82 104 134 177 224 262 304
#     4   9  17  31  54  83 107 132 173 221 265 305
#     4  10  19  30  51  82 109 133 167 216 262 305
#     4   9  19  35  54  77 107 143 178 213 258 312
#     4  11  22  35  54  79 108 140 174 217 268 316
#
# _framework density 20.339918999999998
#
# number of rings (size 3 to 8) (size 9 to 14) (size 15 to 20)
#    0.000    2.143    2.857    0.857    0.000    3.714 
#    0.000    6.429    0.000    4.286    0.000    2.000 
#    0.000    0.000    0.000    0.000    0.000    0.000 
#
# Total GULP energy -346886.035963 kJ/mol
# GULP energy per Si atom -12388.786999 kJ/mol
# Density = 2.029362 g / cm^3
# Si number density = 20.339919 Si / 1000 Ang^3
#
#
#
# Elastic Constant Matrix: (Units=GPa)
#
#
# Indices 1 2 3 4 5 6 
#
# 1 70.9781 15.5143 44.1556 0.0000 -0.9925 0.0000
# 2 15.5143 23.8804 21.2933 0.0000 5.1262 0.0000
# 3 44.1556 21.2933 143.3455 0.0000 11.4430 0.0000
# 4 0.0000 0.0000 0.0000 5.5795 0.0000 1.2577
# 5 -0.9925 5.1262 11.4430 0.0000 32.3811 0.0000
# 6 0.0000 0.0000 0.0000 1.2577 0.0000 12.3729
#
#
#
# Elastic Compliance Matrix: (Units=1/GPa)
#
#
# Indices 1 2 3 4 5 6 
#
# 1 0.019105 -0.008872 -0.004863 0.000000 0.003709 0.000000
# 2 -0.008872 0.053273 -0.004616 0.000000 -0.007074 0.000000
# 3 -0.004863 -0.004616 0.009378 0.000000 -0.002732 0.000000
# 4 0.000000 0.000000 0.000000 0.183429 0.000000 -0.018646
# 5 0.003709 -0.007074 -0.002732 0.000000 0.033081 0.000000
# 6 0.000000 0.000000 0.000000 -0.018646 0.000000 0.082717
#
#
# Mechanical properties :
#
#
# Convention : Reuss Voigt Hill
#
# Bulk Modulus (GPa) = 22.19525 44.45893 33.32709
# Shear Modulus (GPa) = 11.55523 20.54943 16.05233
#
# Velocity S-wave (km/s) = 2.38608 3.18197 2.81232
# Velocity P-wave (km/s) = 4.30430 5.95024 5.19290
#
# Compressibility (1/GPa) = 0.04505469
#
# Stress axis : x y z
#
# Youngs Moduli (GPa) = 52.34123 18.77109 106.63205
#
# Poissons Ratio (x) = 0.16653 0.51859
# Poissons Ratio (y) = 0.46436 0.49221
# Poissons Ratio (z) = 0.25455 0.08665
#
# Static dielectric constant tensor:
#      x y z
#    x 3.888220 0.000000 0.230150 
#    y 0.000000 3.260750 0.000000 
#    z 0.230150 0.000000 3.857640 
# 
# 
# High freq. dielectric constant tensor:
#      x y z
#    x 1.799510 0.000000 0.016980 
#    y 0.000000 1.748000 0.000000 
#    z 0.016980 0.000000 1.797860 
# 
# From -- ./inp_files/55785.got.cif
#   From: 2010.06.25/outbox.cif.g09.slc.cpg/sg10_28_cif.got.tgz:55785.got - 2010.06.27 22:07:45.
