data_PCOD8059963
_publ_section_title
;
Structure prediction by ZEFSAII (Michael W. Deem and Ramdas Pophale) SiO2 
 PCOD8059963
Probable space group: P 2/M
;
_chemical_formula_sum "Si O2"
_cell_formula_units_Z 28
_cell_length_a 20.346933
_cell_length_b 9.205748
_cell_length_c 18.120577
_cell_angle_alpha 90.000000
_cell_angle_beta 27.798040
_cell_angle_gamma 90.000000
_cell_volume 1582.879965
_symmetry_space_group_name_H-M "P 2/M"
_symmetry_group_IT_number 10
_symmetry_cell_setting 'monoclinic'
loop_
_space_group_symop_operation_xyz
x,y,z
-x,y,-z
-x,-y,-z
x,-y,z
loop_
_atom_site_type_symbol
_atom_site_label
_atom_site_fract_x
_atom_site_fract_y
_atom_site_fract_z
Si Si1 0.325567 0.164498 0.750657
Si Si2 0.660194 0.162544 0.425001
Si Si3 0.686406 0.671011 0.095327
Si Si4 0.867585 0.827666 0.792711
Si Si5 0.167331 0.159738 0.333979
Si Si6 0.361294 0.332474 0.414479
Si Si7 0.839655 0.329227 0.518796
O O1 0.492874 0.168038 0.588040
O O2 0.278543 0.217025 0.715112
O O3 0.263507 0.273606 0.873669
O O4 0.272112 0.000000 0.818608
O O5 0.713375 0.257076 0.441067
O O6 0.713910 0.000000 0.385542
O O7 0.715198 0.500000 0.060491
O O8 0.523747 0.712471 0.243132
O O9 0.774277 0.756953 0.948061
O O10 0.789415 0.794154 0.792150
O O11 0.021187 0.756189 0.642788
O O12 0.883603 0.000000 0.788866
O O13 0.218884 0.276060 0.343337
O O14 0.000000 0.151110 0.500000
O O15 0.229120 0.000000 0.292191
O O16 0.348772 0.500000 0.444778
O O17 0.280607 0.289952 0.420356
O O18 0.871935 0.500000 0.490630
#
# Coordination Sequence:
#
# PCOD8059963 Si02
#       7
#     4   4   4   4   4   4   4
#     4   8  14  26  43  66  94 122 156 196 232 270
#     4   8  14  25  44  67  91 123 160 193 228 273
#     4  10  19  31  48  71  98 128 159 191 233 282
#     4  10  20  34  51  71  95 123 157 198 238 277
#     4   8  16  31  49  69  92 119 156 198 234 273
#     4   9  19  32  46  70 102 128 154 192 235 279
#     4  10  19  32  51  73  96 124 157 193 234 280
#
# _framework density 17.689277000000001
#
# number of rings (size 3 to 8) (size 9 to 14) (size 15 to 20)
#    0.000    3.000    0.000    3.000    0.000    5.429 
#    0.000    3.571    0.000    5.143    0.000    6.000 
#    0.000    0.000    0.000    0.000    0.000    0.000 
#
# Total GULP energy -347003.027721 kJ/mol
# GULP energy per Si atom -12392.965276 kJ/mol
# Density = 1.764902 g / cm^3
# Si number density = 17.689277 Si / 1000 Ang^3
#
#
#
# Elastic Constant Matrix: (Units=GPa)
#
#
# Indices 1 2 3 4 5 6 
#
# 1 -88.8498 -28.9485 4.9753 0.0000 11.7222 0.0000
# 2 -28.9485 53.6624 28.1802 0.0000 12.3722 0.0000
# 3 4.9753 28.1802 61.5644 0.0000 26.5963 0.0000
# 4 0.0000 0.0000 0.0000 14.6711 0.0000 7.6174
# 5 11.7222 12.3722 26.5963 0.0000 28.7916 0.0000
# 6 0.0000 0.0000 0.0000 7.6174 0.0000 30.9571
#
#
#
# Elastic Compliance Matrix: (Units=1/GPa)
#
#
# Indices 1 2 3 4 5 6 
#
# 1 -0.008429 -0.006480 0.001600 0.000000 0.004738 0.000000
# 2 -0.006480 0.019552 -0.009878 0.000000 0.003361 0.000000
# 3 0.001600 -0.009878 0.031756 0.000000 -0.025741 0.000000
# 4 0.000000 0.000000 0.000000 0.078145 0.000000 -0.019228
# 5 0.004738 0.003361 -0.025741 0.000000 0.055138 0.000000
# 6 0.000000 0.000000 0.000000 -0.019228 0.000000 0.037034
#
#
# Mechanical properties :
#
#
# Convention : Reuss Voigt Hill
#
# Bulk Modulus (GPa) = 74.82952 3.86568 39.34760
# Shear Modulus (GPa) = 20.22949 16.36196 18.29572
#
# Velocity S-wave (km/s) = 3.38539 3.04462 3.21952
# Velocity P-wave (km/s) = 7.59442 3.81441 6.00936
#
# Compressibility (1/GPa) = 0.01336371
#
# Stress axis : x y z
#
# Youngs Moduli (GPa) = -118.63788 51.14639 31.49041
#
# Poissons Ratio (x) = 0.33142 -0.05040
# Poissons Ratio (y) = -0.76876 0.31106
# Poissons Ratio (z) = 0.18988 0.50522
#
# Static dielectric constant tensor:
#      x y z
#    x 3.614880 0.000000 0.442890 
#    y 0.000000 3.371920 0.000000 
#    z 0.442890 0.000000 3.174340 
# 
# 
# High freq. dielectric constant tensor:
#      x y z
#    x 1.681610 0.000000 0.035280 
#    y 0.000000 1.688470 0.000000 
#    z 0.035280 0.000000 1.650570 
# 
# From -- ./inp_files/54533.got.cif
#   From: 2010.06.25/outbox.cif.g09.slc.cpg/sg10_28_cif.got.tgz:54533.got - 2010.06.27 22:07:45.
