data_PCOD8059562
_publ_section_title
;
Structure prediction by ZEFSAII (Michael W. Deem and Ramdas Pophale) SiO2 
 PCOD8059562
Probable space group: P 2/M
;
_chemical_formula_sum "Si O2"
_cell_formula_units_Z 20
_cell_length_a 14.929403
_cell_length_b 19.019694
_cell_length_c 12.890193
_cell_angle_alpha 90.000000
_cell_angle_beta 160.747150
_cell_angle_gamma 90.000000
_cell_volume 1206.907168
_symmetry_space_group_name_H-M "P 2/M"
_symmetry_group_IT_number 10
_symmetry_cell_setting 'monoclinic'
loop_
_space_group_symop_operation_xyz
x,y,z
-x,y,-z
-x,-y,-z
x,-y,z
loop_
_atom_site_type_symbol
_atom_site_label
_atom_site_fract_x
_atom_site_fract_y
_atom_site_fract_z
Si Si1 0.711695 0.919449 0.640261
Si Si2 0.518638 0.858931 0.811422
Si Si3 0.061585 0.919109 0.452993
Si Si4 0.703673 0.273399 0.127783
Si Si5 0.705474 0.574079 0.131086
O O1 0.500000 0.910550 0.500000
O O2 0.645494 0.865619 0.475042
O O3 0.718617 0.000000 0.605708
O O4 0.000000 0.896591 0.000000
O O5 0.319939 0.879651 0.688283
O O6 0.780654 0.909596 0.083173
O O7 0.631549 0.780929 0.957071
O O8 0.000000 0.887829 0.500000
O O9 0.144636 0.000000 0.548699
O O10 0.676894 0.350600 0.041762
O O11 0.000000 0.260055 0.500000
O O12 0.500000 0.265782 0.000000
O O13 0.658998 0.500000 0.015239
O O14 0.000000 0.571432 0.500000
O O15 0.500000 0.574841 0.000000
#
# Coordination Sequence:
#
# PCOD8059562 Si02
#       5
#     4   4   4   4   4
#     4  10  21  36  51  65  81 107 150 200 242 276
#     4  12  21  33  50  67  90 118 150 190 236 271
#     4  11  22  33  46  66  92 122 152 179 215 272
#     4  10  19  30  45  68  97 124 148 176 215 266
#     4   8  14  25  41  61  88 122 152 174 200 243
#
# _framework density 16.571283000000001
#
# number of rings (size 3 to 8) (size 9 to 14) (size 15 to 20)
#    0.000    1.800    0.000    6.600    0.000    3.200 
#    0.000    0.000    0.000    0.000    0.000    0.000 
#    0.000    1.600    0.000    0.000    0.000    2.000 
#
# Total GULP energy -247788.677282 kJ/mol
# GULP energy per Si atom -12389.433864 kJ/mol
# Density = 1.653357 g / cm^3
# Si number density = 16.571283 Si / 1000 Ang^3
#
#
#
# Elastic Constant Matrix: (Units=GPa)
#
#
# Indices 1 2 3 4 5 6 
#
# 1 47.5377 37.8409 30.8147 0.0000 6.9567 0.0000
# 2 37.8409 132.6117 51.0660 0.0000 -14.0168 0.0000
# 3 30.8147 51.0660 98.1488 0.0000 9.8488 0.0000
# 4 0.0000 0.0000 0.0000 19.7927 0.0000 3.5791
# 5 6.9567 -14.0168 9.8488 0.0000 38.3923 0.0000
# 6 0.0000 0.0000 0.0000 3.5791 0.0000 11.4947
#
#
#
# Elastic Compliance Matrix: (Units=1/GPa)
#
#
# Indices 1 2 3 4 5 6 
#
# 1 0.031660 -0.007824 -0.005139 0.000000 -0.007275 0.000000
# 2 -0.007824 0.012324 -0.004669 0.000000 0.007115 0.000000
# 3 -0.005139 -0.004669 0.014687 0.000000 -0.004541 0.000000
# 4 0.000000 0.000000 0.000000 0.053538 0.000000 -0.016670
# 5 -0.007275 0.007115 -0.004541 0.000000 0.031128 0.000000
# 6 0.000000 0.000000 0.000000 -0.016670 0.000000 0.092187
#
#
# Mechanical properties :
#
#
# Convention : Reuss Voigt Hill
#
# Bulk Modulus (GPa) = 42.72489 57.52684 50.12586
# Shear Modulus (GPa) = 17.94750 24.50771 21.22761
#
# Velocity S-wave (km/s) = 3.29454 3.84985 3.58297
# Velocity P-wave (km/s) = 6.34905 7.38593 6.88703
#
# Compressibility (1/GPa) = 0.02340556
#
# Stress axis : x y z
#
# Youngs Moduli (GPa) = 31.58560 81.14555 68.08677
#
# Poissons Ratio (x) = 0.63490 0.34990
# Poissons Ratio (y) = 0.24713 0.31792
# Poissons Ratio (z) = 0.16232 0.37889
#
# Static dielectric constant tensor:
#      x y z
#    x 2.899840 0.000000 0.286500 
#    y 0.000000 3.787270 0.000000 
#    z 0.286500 0.000000 3.140640 
# 
# 
# High freq. dielectric constant tensor:
#      x y z
#    x 1.610750 0.000000 0.046730 
#    y 0.000000 1.638520 0.000000 
#    z 0.046730 0.000000 1.640310 
# 
# From -- ./inp_files/7008.got.cif
#   From: 2010.06.25/outbox.cif.g09.slc.cpg/sg10_4_cif.got.tgz:7008.got - 2010.06.27 22:07:45.
