data_PCOD8059573
_publ_section_title
;
Structure prediction by ZEFSAII (Michael W. Deem and Ramdas Pophale) SiO2 
 PCOD8059573
Probable space group: P 2/M
;
_chemical_formula_sum "Si O2"
_cell_formula_units_Z 28
_cell_length_a 12.747620
_cell_length_b 12.863283
_cell_length_c 14.656547
_cell_angle_alpha 90.000000
_cell_angle_beta 138.270116
_cell_angle_gamma 90.000000
_cell_volume 1599.700792
_symmetry_space_group_name_H-M "P 2/M"
_symmetry_group_IT_number 10
_symmetry_cell_setting 'monoclinic'
loop_
_space_group_symop_operation_xyz
x,y,z
-x,y,-z
-x,-y,-z
x,-y,z
loop_
_atom_site_type_symbol
_atom_site_label
_atom_site_fract_x
_atom_site_fract_y
_atom_site_fract_z
Si Si1 0.085824 0.117184 0.152085
Si Si2 0.074298 0.619790 0.451748
Si Si3 0.380491 0.750894 0.340550
Si Si4 0.933675 0.711265 0.186346
Si Si5 0.094268 0.612667 0.143617
Si Si6 0.391086 0.381854 0.012495
Si Si7 0.556402 0.383129 0.311077
O O1 0.270174 0.147816 0.254089
O O2 0.000445 0.188618 0.173788
O O3 0.081062 0.000000 0.186687
O O4 0.000000 0.125817 0.000000
O O5 0.030766 0.500000 0.400129
O O6 0.259394 0.637432 0.574047
O O7 0.000000 0.651455 0.500000
O O8 0.006058 0.700884 0.333777
O O9 0.500000 0.771707 0.500000
O O10 0.256716 0.660836 0.283228
O O11 0.477603 0.710541 0.316624
O O12 0.982461 0.609719 0.159050
O O13 0.745483 0.705249 0.071126
O O14 0.135573 0.500000 0.132120
O O15 0.000000 0.672871 0.000000
O O16 0.327164 0.500000 0.955442
O O17 0.493355 0.375626 0.168909
O O18 0.500000 0.347483 0.000000
O O19 0.522718 0.500000 0.329064
#
# Coordination Sequence:
#
# PCOD8059573 Si02
#       7
#     4   4   4   4   4   4   4
#     4  10  22  40  59  77  98 127 168 219 272 325
#     4  10  20  33  49  73 107 145 179 205 235 287
#     4  11  21  32  49  75 104 131 163 206 258 315
#     4  11  19  32  53  73  97 133 175 211 250 301
#     4  10  19  30  46  71 104 141 177 209 246 303
#     4  10  19  30  47  74 105 135 168 206 245 288
#     4  10  19  30  45  69 104 139 167 199 241 291
#
# _framework density 17.503274000000001
#
# number of rings (size 3 to 8) (size 9 to 14) (size 15 to 20)
#    0.000    1.714    0.000    7.714    0.000    7.143 
#    0.000    0.000    0.000    0.857    0.000    2.000 
#    0.000    0.000    0.000    0.000    0.000    0.000 
#
# Total GULP energy -346884.902547 kJ/mol
# GULP energy per Si atom -12388.746520 kJ/mol
# Density = 1.746344 g / cm^3
# Si number density = 17.503274 Si / 1000 Ang^3
#
#
#
# Elastic Constant Matrix: (Units=GPa)
#
#
# Indices 1 2 3 4 5 6 
#
# 1 139.6403 53.2216 59.8618 0.0000 7.5041 0.0000
# 2 53.2216 103.6416 45.6888 0.0000 6.6917 0.0000
# 3 59.8618 45.6888 142.0817 0.0000 9.4035 0.0000
# 4 0.0000 0.0000 0.0000 32.5804 0.0000 6.7764
# 5 7.5041 6.6917 9.4035 0.0000 36.3903 0.0000
# 6 0.0000 0.0000 0.0000 6.7764 0.0000 24.1901
#
#
#
# Elastic Compliance Matrix: (Units=1/GPa)
#
#
# Indices 1 2 3 4 5 6 
#
# 1 0.009870 -0.003745 -0.002915 0.000000 -0.000593 0.000000
# 2 -0.003745 0.012711 -0.002448 0.000000 -0.000933 0.000000
# 3 -0.002915 -0.002448 0.009140 0.000000 -0.001311 0.000000
# 4 0.000000 0.000000 0.000000 0.032592 0.000000 -0.009130
# 5 -0.000593 -0.000933 -0.001311 0.000000 0.028112 0.000000
# 6 0.000000 0.000000 0.000000 -0.009130 0.000000 0.043897
#
#
# Mechanical properties :
#
#
# Convention : Reuss Voigt Hill
#
# Bulk Modulus (GPa) = 74.04299 78.10088 76.07194
# Shear Modulus (GPa) = 31.43848 33.73824 32.58836
#
# Velocity S-wave (km/s) = 4.24270 4.39514 4.31959
# Velocity P-wave (km/s) = 8.14830 8.39487 8.27251
#
# Compressibility (1/GPa) = 0.01350567
#
# Stress axis : x y z
#
# Youngs Moduli (GPa) = 101.31584 78.67108 109.40687
#
# Poissons Ratio (x) = 0.29464 0.31891
# Poissons Ratio (y) = 0.37945 0.26781
# Poissons Ratio (z) = 0.29532 0.19258
#
# Static dielectric constant tensor:
#      x y z
#    x 3.376250 0.000000 0.064670 
#    y 0.000000 3.224160 0.000000 
#    z 0.064670 0.000000 3.354300 
# 
# 
# High freq. dielectric constant tensor:
#      x y z
#    x 1.681440 0.000000 0.003480 
#    y 0.000000 1.632150 0.000000 
#    z 0.003480 0.000000 1.695810 
# 
# From -- ./inp_files/61625.got.cif
#   From: 2010.06.25/outbox.cif.g09.slc.cpg/sg10_31_cif.got.tgz:61625.got - 2010.06.27 22:07:45.
