data_PCOD8059834
_publ_section_title
;
Structure prediction by ZEFSAII (Michael W. Deem and Ramdas Pophale) SiO2 
 PCOD8059834
Probable space group: P 2/M
;
_chemical_formula_sum "Si O2"
_cell_formula_units_Z 20
_cell_length_a 5.220457
_cell_length_b 8.763482
_cell_length_c 23.911324
_cell_angle_alpha 90.000000
_cell_angle_beta 70.883594
_cell_angle_gamma 90.000000
_cell_volume 1033.603791
_symmetry_space_group_name_H-M "P 2/M"
_symmetry_group_IT_number 10
_symmetry_cell_setting 'monoclinic'
loop_
_space_group_symop_operation_xyz
x,y,z
-x,y,-z
-x,-y,-z
x,-y,z
loop_
_atom_site_type_symbol
_atom_site_label
_atom_site_fract_x
_atom_site_fract_y
_atom_site_fract_z
Si Si1 0.000672 0.318552 0.332886
Si Si2 0.400186 0.818500 0.066543
Si Si3 0.603370 0.681330 0.264421
Si Si4 0.199422 0.682039 0.533718
Si Si5 0.797283 0.181297 0.135145
O O1 0.997835 0.500000 0.334777
O O2 0.302238 0.258038 0.299100
O O3 0.800466 0.258038 0.299099
O O4 0.900705 0.253546 0.399530
O O5 0.600312 0.758356 0.100399
O O6 0.098490 0.758357 0.100399
O O7 0.403458 0.000000 0.064362
O O8 0.500000 0.752233 0.000000
O O9 0.609987 0.500000 0.260009
O O10 0.700419 0.749630 0.199720
O O11 0.500000 0.744394 0.500000
O O12 0.198589 0.500000 0.534274
O O13 0.000000 0.744395 0.500000
O O14 0.790192 0.000000 0.139872
#
# Coordination Sequence:
#
# PCOD8059834 Si02
#       5
#     4   4   4   4   4
#     4   9  17  28  42  62  89 122 153 180 220 271
#     4   9  17  30  49  71  92 115 145 184 228 267
#     4  10  19  31  46  64  92 125 151 178 218 269
#     4   9  15  23  37  58  85 114 144 182 224 261
#     4  10  19  31  49  71  92 115 149 188 220 259
#
# _framework density 19.349772999999999
#
# number of rings (size 3 to 8) (size 9 to 14) (size 15 to 20)
#    0.000    2.600    0.000    3.000    0.000    7.200 
#    0.000    0.000    0.000    3.600    0.000    0.000 
#    0.000   16.000    0.000    0.000    0.000    0.000 
#
# Total GULP energy -248008.421444 kJ/mol
# GULP energy per Si atom -12400.421072 kJ/mol
# Density = 1.930573 g / cm^3
# Si number density = 19.349773 Si / 1000 Ang^3
#
#
#
# Elastic Constant Matrix: (Units=GPa)
#
#
# Indices 1 2 3 4 5 6 
#
# 1 230.0913 13.4587 128.4518 0.0000 0.1930 0.0000
# 2 13.4587 6.8654 14.5380 0.0000 -0.0430 0.0000
# 3 128.4518 14.5380 230.6609 0.0000 -0.2156 0.0000
# 4 0.0000 0.0000 0.0000 47.0327 0.0000 -1.6517
# 5 0.1930 -0.0430 -0.2156 0.0000 48.4142 0.0000
# 6 0.0000 0.0000 0.0000 -1.6517 0.0000 5.5678
#
#
#
# Elastic Compliance Matrix: (Units=1/GPa)
#
#
# Indices 1 2 3 4 5 6 
#
# 1 0.006505 -0.005864 -0.003253 0.000000 -0.000046 0.000000
# 2 -0.005864 0.173379 -0.007662 0.000000 0.000143 0.000000
# 3 -0.003253 -0.007662 0.006630 0.000000 0.000036 0.000000
# 4 0.000000 0.000000 0.000000 0.021486 0.000000 0.006374
# 5 -0.000046 0.000143 0.000036 0.000000 0.020656 0.000000
# 6 0.000000 0.000000 0.000000 0.006374 0.000000 0.181495
#
#
# Mechanical properties :
#
#
# Convention : Reuss Voigt Hill
#
# Bulk Modulus (GPa) = 6.53784 86.72384 46.63084
# Shear Modulus (GPa) = 10.10725 40.94754 25.52739
#
# Velocity S-wave (km/s) = 2.28797 4.60518 3.63610
# Velocity P-wave (km/s) = 3.21960 8.55531 6.46371
#
# Compressibility (1/GPa) = 0.15295580
#
# Stress axis : x y z
#
# Youngs Moduli (GPa) = 153.72180 5.76771 150.83126
#
# Poissons Ratio (x) = 0.03382 0.49067
# Poissons Ratio (y) = 0.90146 1.15564
# Poissons Ratio (z) = 0.50008 0.04419
#
# Static dielectric constant tensor:
#      x y z
#    x 4.033550 0.000000 0.012250 
#    y 0.000000 2.797370 0.000000 
#    z 0.012250 0.000000 3.725880 
# 
# 
# High freq. dielectric constant tensor:
#      x y z
#    x 1.776640 0.000000 0.000090 
#    y 0.000000 1.675450 0.000000 
#    z 0.000090 0.000000 1.774420 
# 
# From -- ./inp_files/8864.got.cif
#   From: 2010.06.25/outbox.cif.g09.slc.cpg/sg10_5_cif.got.tgz:8864.got - 2010.06.27 22:07:45.
