data_PCOD8059407
_publ_section_title
;
Structure prediction by ZEFSAII (Michael W. Deem and Ramdas Pophale) SiO2 
 PCOD8059407
Probable space group: P 2/M
;
_chemical_formula_sum "Si O2"
_cell_formula_units_Z 32
_cell_length_a 23.619449
_cell_length_b 9.261458
_cell_length_c 16.636500
_cell_angle_alpha 90.000000
_cell_angle_beta 150.430252
_cell_angle_gamma 90.000000
_cell_volume 1795.903622
_symmetry_space_group_name_H-M "P 2/M"
_symmetry_group_IT_number 10
_symmetry_cell_setting 'monoclinic'
loop_
_space_group_symop_operation_xyz
x,y,z
-x,y,-z
-x,-y,-z
x,-y,z
loop_
_atom_site_type_symbol
_atom_site_label
_atom_site_fract_x
_atom_site_fract_y
_atom_site_fract_z
Si Si1 0.478833 0.158388 0.730629
Si Si2 0.738656 0.665788 0.508518
Si Si3 0.218531 0.668288 0.764565
Si Si4 0.431575 0.158798 0.990414
Si Si5 0.124945 0.329975 0.476506
Si Si6 0.734437 0.166995 0.025179
Si Si7 0.019323 0.332230 0.114374
Si Si8 0.071396 0.832780 0.854085
O O1 0.366587 0.254581 0.576545
O O2 0.460516 0.000000 0.668224
O O3 0.480778 0.143547 0.828629
O O4 0.602393 0.224814 0.853295
O O5 0.703744 0.500000 0.467712
O O6 0.768964 0.710590 0.452984
O O7 0.850161 0.698892 0.699844
O O8 0.206376 0.500000 0.767868
O O9 0.346975 0.710787 0.902695
O O10 0.145168 0.710993 0.594938
O O11 0.190031 0.753530 0.811879
O O12 0.373865 0.000000 0.903197
O O13 0.500000 0.215823 0.000000
O O14 0.099397 0.500000 0.435054
O O15 0.014102 0.241325 0.314102
O O16 0.799664 0.185335 0.021393
O O17 0.725423 0.000000 0.041295
O O18 0.988151 0.500000 0.085683
O O19 0.933211 0.242716 0.064894
O O20 0.000000 0.278686 0.000000
O O21 0.038026 0.000000 0.821531
#
# Coordination Sequence:
#
# PCOD8059407 Si02
#       8
#     4   4   4   4   4   4   4   4
#     4   9  17  29  45  65  93 129 164 199 241 286
#     4   9  17  30  49  73  99 125 157 197 240 289
#     4  10  19  29  44  66  92 128 174 217 249 284
#     4   9  17  28  41  59  88 127 167 208 254 296
#     4   9  19  33  46  67 101 133 163 208 261 299
#     4   9  20  36  48  65  98 136 171 207 248 288
#     4   9  19  37  59  81 106 130 148 182 244 303
#     4  10  20  34  54  76  97 126 166 207 241 286
#
# _framework density 17.818328999999999
#
# number of rings (size 3 to 8) (size 9 to 14) (size 15 to 20)
#    0.000    2.750    0.000    3.000    0.000    7.000 
#    0.000    2.500    0.000    0.750    0.000    5.250 
#    0.000    0.000    0.000    0.000    0.000    0.000 
#
# Total GULP energy -396448.152247 kJ/mol
# GULP energy per Si atom -12389.004758 kJ/mol
# Density = 1.777777 g / cm^3
# Si number density = 17.818329 Si / 1000 Ang^3
#
#
#
# Elastic Constant Matrix: (Units=GPa)
#
#
# Indices 1 2 3 4 5 6 
#
# 1 111.5501 41.4656 48.5077 0.0000 3.7159 0.0000
# 2 41.4656 57.4830 31.2437 0.0000 4.0933 0.0000
# 3 48.5077 31.2437 54.7683 0.0000 7.1477 0.0000
# 4 0.0000 0.0000 0.0000 21.6470 0.0000 2.7427
# 5 3.7159 4.0933 7.1477 0.0000 25.3441 0.0000
# 6 0.0000 0.0000 0.0000 2.7427 0.0000 20.4541
#
#
#
# Elastic Compliance Matrix: (Units=1/GPa)
#
#
# Indices 1 2 3 4 5 6 
#
# 1 0.015746 -0.005477 -0.011042 0.000000 0.001690 0.000000
# 2 -0.005477 0.027120 -0.010541 0.000000 -0.000604 0.000000
# 3 -0.011042 -0.010541 0.034903 0.000000 -0.006522 0.000000
# 4 0.000000 0.000000 0.000000 0.046994 0.000000 -0.006301
# 5 0.001690 -0.000604 -0.006522 0.000000 0.041146 0.000000
# 6 0.000000 0.000000 0.000000 -0.006301 0.000000 0.049735
#
#
# Mechanical properties :
#
#
# Convention : Reuss Voigt Hill
#
# Bulk Modulus (GPa) = 42.28643 51.80393 47.04518
# Shear Modulus (GPa) = 18.00845 20.32800 19.16822
#
# Velocity S-wave (km/s) = 3.18255 3.38131 3.28343
# Velocity P-wave (km/s) = 6.10642 6.66189 6.39020
#
# Compressibility (1/GPa) = 0.02364825
#
# Stress axis : x y z
#
# Youngs Moduli (GPa) = 63.50876 36.87343 28.65065
#
# Poissons Ratio (x) = 0.20196 0.31636
# Poissons Ratio (y) = 0.34784 0.30201
# Poissons Ratio (z) = 0.70127 0.38869
#
# Static dielectric constant tensor:
#      x y z
#    x 3.458190 0.000000 0.011930 
#    y 0.000000 3.337070 0.000000 
#    z 0.011930 0.000000 3.088140 
# 
# 
# High freq. dielectric constant tensor:
#      x y z
#    x 1.681630 0.000000 0.012080 
#    y 0.000000 1.688060 0.000000 
#    z 0.012080 0.000000 1.661120 
# 
# From -- ./inp_files/79965.got.cif
#   From: 2010.06.25/outbox.cif.g09.slc.cpg/sg10_40_cif.got.tgz:79965.got - 2010.06.27 22:07:45.
