data_PCOD8059619
_publ_section_title
;
Structure prediction by ZEFSAII (Michael W. Deem and Ramdas Pophale) SiO2 
 PCOD8059619
Probable space group: P 2/M
;
_chemical_formula_sum "Si O2"
_cell_formula_units_Z 30
_cell_length_a 10.820478
_cell_length_b 12.714397
_cell_length_c 12.505763
_cell_angle_alpha 90.000000
_cell_angle_beta 91.145240
_cell_angle_gamma 90.000000
_cell_volume 1720.147331
_symmetry_space_group_name_H-M "P 2/M"
_symmetry_group_IT_number 10
_symmetry_cell_setting 'monoclinic'
loop_
_space_group_symop_operation_xyz
x,y,z
-x,y,-z
-x,-y,-z
x,-y,z
loop_
_atom_site_type_symbol
_atom_site_label
_atom_site_fract_x
_atom_site_fract_y
_atom_site_fract_z
Si Si1 0.000000 0.272685 0.500000
Si Si2 0.214189 0.118828 0.503621
Si Si3 0.246912 0.880505 0.905402
Si Si4 0.870407 0.623380 0.302120
Si Si5 0.230790 0.121171 0.144325
Si Si6 0.582499 0.878857 0.664532
Si Si7 0.989454 0.753373 0.119002
Si Si8 0.669883 0.785670 0.299621
O O1 0.890823 0.197281 0.540973
O O2 0.955130 0.347184 0.404182
O O3 0.339602 0.141199 0.440895
O O4 0.241739 0.136833 0.629612
O O5 0.168235 0.000000 0.483517
O O6 0.103541 0.851622 0.888602
O O7 0.331615 0.815269 0.825415
O O8 0.265795 0.000000 0.874281
O O9 0.288381 0.858114 0.027860
O O10 0.855407 0.500000 0.293203
O O11 0.937925 0.664482 0.196735
O O12 0.731090 0.670127 0.312504
O O13 0.336082 0.146706 0.230823
O O14 0.117980 0.200205 0.164650
O O15 0.185658 0.000000 0.153499
O O16 0.469828 0.795764 0.660370
O O17 0.534090 0.000000 0.666918
O O18 0.000000 0.703605 0.000000
#
# Coordination Sequence:
#
# PCOD8059619 Si02
#       8
#     2   4   4   4   4   4   4   4
#     4  10  20  34  54  76 100 124 152 194 240 292
#     4  10  19  31  50  76 104 130 153 182 228 288
#     4   9  16  27  45  70 100 131 160 190 230 285
#     4  10  21  36  53  70  90 122 163 209 252 281
#     4   9  17  28  45  72 105 134 156 185 230 287
#     4  10  19  30  46  70 101 133 161 188 223 276
#     4   9  17  30  49  74  99 125 157 196 243 291
#     4  10  20  32  47  67  93 129 168 201 233 275
#
# _framework density 17.440367999999999
#
# number of rings (size 3 to 8) (size 9 to 14) (size 15 to 20)
#    0.000    2.400    0.000    3.200    0.000    3.467 
#    0.000    6.000    0.000    9.600    0.000    8.400 
#    0.000    0.000    0.000    0.000    0.000    0.000 
#
# Total GULP energy -371929.244247 kJ/mol
# GULP energy per Si atom -12397.641475 kJ/mol
# Density = 1.740067 g / cm^3
# Si number density = 17.440368 Si / 1000 Ang^3
#
#
#
# Elastic Constant Matrix: (Units=GPa)
#
#
# Indices 1 2 3 4 5 6 
#
# 1 84.4283 47.5556 24.7918 0.0000 -3.1146 0.0000
# 2 47.5556 101.7165 37.4335 0.0000 -0.4679 0.0000
# 3 24.7918 37.4335 87.2815 0.0000 -1.7544 0.0000
# 4 0.0000 0.0000 0.0000 18.2995 0.0000 -0.4725
# 5 -3.1146 -0.4679 -1.7544 0.0000 23.2494 0.0000
# 6 0.0000 0.0000 0.0000 -0.4725 0.0000 20.0399
#
#
#
# Elastic Compliance Matrix: (Units=1/GPa)
#
#
# Indices 1 2 3 4 5 6 
#
# 1 0.016354 -0.007055 -0.001580 0.000000 0.001930 0.000000
# 2 -0.007055 0.014718 -0.004328 0.000000 -0.000976 0.000000
# 3 -0.001580 -0.004328 0.013777 0.000000 0.000741 0.000000
# 4 0.000000 0.000000 0.000000 0.054680 0.000000 0.001289
# 5 0.001930 -0.000976 0.000741 0.000000 0.043307 0.000000
# 6 0.000000 0.000000 0.000000 0.001289 0.000000 0.049931
#
#
# Mechanical properties :
#
#
# Convention : Reuss Voigt Hill
#
# Bulk Modulus (GPa) = 52.84993 54.77645 53.81319
# Shear Modulus (GPa) = 22.22214 23.22744 22.72479
#
# Velocity S-wave (km/s) = 3.57344 3.65337 3.61362
# Velocity P-wave (km/s) = 6.88440 7.01942 6.95223
#
# Compressibility (1/GPa) = 0.01892150
#
# Stress axis : x y z
#
# Youngs Moduli (GPa) = 61.14831 67.94354 72.58391
#
# Poissons Ratio (x) = 0.47936 0.11472
# Poissons Ratio (y) = 0.43142 0.31414
# Poissons Ratio (z) = 0.09664 0.29405
#
# Static dielectric constant tensor:
#      x y z
#    x 3.169430 0.000000 -0.079040 
#    y 0.000000 2.877720 0.000000 
#    z -0.079040 0.000000 3.532810 
# 
# 
# High freq. dielectric constant tensor:
#      x y z
#    x 1.667170 0.000000 -0.002990 
#    y 0.000000 1.631180 0.000000 
#    z -0.002990 0.000000 1.694710 
# 
# From -- ./inp_files/46717.got.cif
#   From: 2010.06.25/outbox.cif.g09.slc.cpg/sg10_24_cif.got.tgz:46717.got - 2010.06.27 22:07:45.
