data_PCOD8059162
_publ_section_title
;
Structure prediction by ZEFSAII (Michael W. Deem and Ramdas Pophale) SiO2 
 PCOD8059162
Probable space group: P 2/M
;
_chemical_formula_sum "Si O2"
_cell_formula_units_Z 28
_cell_length_a 15.027578
_cell_length_b 8.737021
_cell_length_c 11.800122
_cell_angle_alpha 90.000000
_cell_angle_beta 118.763615
_cell_angle_gamma 90.000000
_cell_volume 1358.146113
_symmetry_space_group_name_H-M "P 2/M"
_symmetry_group_IT_number 10
_symmetry_cell_setting 'monoclinic'
loop_
_space_group_symop_operation_xyz
x,y,z
-x,y,-z
-x,-y,-z
x,-y,z
loop_
_atom_site_type_symbol
_atom_site_label
_atom_site_fract_x
_atom_site_fract_y
_atom_site_fract_z
Si Si1 0.790904 0.828967 0.754900
Si Si2 0.803851 0.181830 0.142542
Si Si3 0.010391 0.176057 0.882844
Si Si4 0.274087 0.174073 0.523822
Si Si5 0.504014 0.180007 0.372789
Si Si6 0.320342 0.678422 0.122521
Si Si7 0.117355 0.679275 0.583979
O O1 0.713216 0.809506 0.604819
O O2 0.771546 0.713546 0.846373
O O3 0.899757 0.803123 0.759979
O O4 0.785389 0.000000 0.804432
O O5 0.903529 0.252145 0.141180
O O6 0.816235 0.240842 0.277460
O O7 0.797243 0.000000 0.142315
O O8 0.704985 0.246155 0.015704
O O9 0.042924 0.000000 0.916788
O O10 0.000000 0.253233 0.000000
O O11 0.389642 0.215916 0.627993
O O12 0.186049 0.285271 0.515921
O O13 0.245477 0.000000 0.540256
O O14 0.500000 0.244813 0.500000
O O15 0.421448 0.255948 0.240653
O O16 0.481961 0.000000 0.363094
O O17 0.332605 0.500000 0.110507
O O18 0.113043 0.500000 0.603928
O O19 0.000000 0.740919 0.500000
#
# Coordination Sequence:
#
# PCOD8059162 Si02
#       7
#     4   4   4   4   4   4   4
#     4  10  18  34  57  85 120 157 202 252 302 359
#     4  11  22  40  65  87 117 162 214 264 303 357
#     4   9  16  28  53  85 113 145 193 248 301 351
#     4  10  21  38  65  93 118 158 214 262 302 356
#     4  10  20  39  65  92 123 161 208 261 307 360
#     4  12  24  36  55  89 130 164 197 244 314 381
#     4  11  25  44  64  90 130 169 202 249 311 374
#
# _framework density 20.616337999999999
#
# number of rings (size 3 to 8) (size 9 to 14) (size 15 to 20)
#    0.000    1.571    2.857    3.000    0.000    3.714 
#    0.000    2.857    0.000    4.286    0.000    0.000 
#    0.000    0.000    0.000    0.000    0.000    0.000 
#
# Total GULP energy -346958.102955 kJ/mol
# GULP energy per Si atom -12391.360820 kJ/mol
# Density = 2.056941 g / cm^3
# Si number density = 20.616338 Si / 1000 Ang^3
#
#
#
# Elastic Constant Matrix: (Units=GPa)
#
#
# Indices 1 2 3 4 5 6 
#
# 1 74.5491 27.7758 27.9428 0.0000 11.6302 0.0000
# 2 27.7758 82.2340 43.5932 0.0000 9.3504 0.0000
# 3 27.9428 43.5932 128.9295 0.0000 17.6412 0.0000
# 4 0.0000 0.0000 0.0000 26.0901 0.0000 1.5512
# 5 11.6302 9.3504 17.6412 0.0000 28.2576 0.0000
# 6 0.0000 0.0000 0.0000 1.5512 0.0000 22.3006
#
#
#
# Elastic Compliance Matrix: (Units=1/GPa)
#
#
# Indices 1 2 3 4 5 6 
#
# 1 0.016216 -0.004185 -0.001504 0.000000 -0.004350 0.000000
# 2 -0.004185 0.015994 -0.004387 0.000000 -0.000831 0.000000
# 3 -0.001504 -0.004387 0.010149 0.000000 -0.004265 0.000000
# 4 0.000000 0.000000 0.000000 0.038488 0.000000 -0.002677
# 5 -0.004350 -0.000831 -0.004265 0.000000 0.040117 0.000000
# 6 0.000000 0.000000 0.000000 -0.002677 0.000000 0.045028
#
#
# Mechanical properties :
#
#
# Convention : Reuss Voigt Hill
#
# Bulk Modulus (GPa) = 45.03237 53.81513 49.42375
# Shear Modulus (GPa) = 25.83353 27.75638 26.79495
#
# Velocity S-wave (km/s) = 3.54370 3.67322 3.60904
# Velocity P-wave (km/s) = 6.21564 6.64453 6.43366
#
# Compressibility (1/GPa) = 0.02220625
#
# Stress axis : x y z
#
# Youngs Moduli (GPa) = 61.66857 62.52273 98.53032
#
# Poissons Ratio (x) = 0.26166 0.14820
# Poissons Ratio (y) = 0.25809 0.43227
# Poissons Ratio (z) = 0.09276 0.27430
#
# Static dielectric constant tensor:
#      x y z
#    x 3.763350 0.000000 0.209500 
#    y 0.000000 3.382740 0.000000 
#    z 0.209500 0.000000 3.905110 
# 
# 
# High freq. dielectric constant tensor:
#      x y z
#    x 1.799070 0.000000 0.018270 
#    y 0.000000 1.772090 0.000000 
#    z 0.018270 0.000000 1.815800 
# 
# From -- ./inp_files/50076.got.cif
#   From: 2010.06.25/outbox.cif.g09.slc.cpg/sg10_26_cif.got.tgz:50076.got - 2010.06.27 22:07:45.
