data_PCOD8059146
_publ_section_title
;
Structure prediction by ZEFSAII (Michael W. Deem and Ramdas Pophale) SiO2 
 PCOD8059146
Probable space group: P 2/M
;
_chemical_formula_sum "Si O2"
_cell_formula_units_Z 24
_cell_length_a 12.050842
_cell_length_b 16.649215
_cell_length_c 17.362979
_cell_angle_alpha 90.000000
_cell_angle_beta 20.717789
_cell_angle_gamma 90.000000
_cell_volume 1232.396842
_symmetry_space_group_name_H-M "P 2/M"
_symmetry_group_IT_number 10
_symmetry_cell_setting 'monoclinic'
loop_
_space_group_symop_operation_xyz
x,y,z
-x,y,-z
-x,-y,-z
x,-y,z
loop_
_atom_site_type_symbol
_atom_site_label
_atom_site_fract_x
_atom_site_fract_y
_atom_site_fract_z
Si Si1 0.858369 0.201129 0.936395
Si Si2 0.353592 0.414045 0.246587
Si Si3 0.245200 0.227306 0.539618
Si Si4 0.691975 0.337913 0.161405
Si Si5 0.333454 0.087831 0.688652
Si Si6 0.241332 0.245443 0.273091
O O1 0.126104 0.235495 0.704678
O O2 0.983770 0.121198 0.897448
O O3 0.804818 0.263111 0.038597
O O4 0.529519 0.185129 0.104919
O O5 0.460975 0.500000 0.138773
O O6 0.544370 0.404323 0.202219
O O7 0.391554 0.335967 0.166333
O O8 0.000000 0.422544 0.500000
O O9 0.436113 0.306782 0.390270
O O10 0.468281 0.148981 0.386239
O O11 0.934519 0.216202 0.688830
O O12 0.000000 0.376530 0.000000
O O13 0.500000 0.076560 0.500000
O O14 0.306232 0.000000 0.746727
O O15 0.000000 0.247673 0.500000
#
# Coordination Sequence:
#
# PCOD8059146 Si02
#       6
#     4   4   4   4   4   4
#     4  10  20  33  55  79 105 140 177 220 263 315
#     4   9  17  32  54  79 106 142 178 217 269 314
#     4  11  19  34  55  79 107 139 179 219 263 315
#     4  11  20  33  54  80 108 140 178 224 257 314
#     4   9  19  35  55  80 107 139 178 218 264 319
#     4  10  18  34  56  79 105 138 177 227 255 314
#
# _framework density 19.474246999999998
#
# number of rings (size 3 to 8) (size 9 to 14) (size 15 to 20)
#    0.000    2.000    6.667    0.500    0.000    0.333 
#    0.000    2.500    0.000   17.000    0.000    5.833 
#    0.000    0.000    0.000    0.000    0.000    0.000 
#
# Total GULP energy -297349.929474 kJ/mol
# GULP energy per Si atom -12389.580395 kJ/mol
# Density = 1.942992 g / cm^3
# Si number density = 19.474247 Si / 1000 Ang^3
#
#
#
# Elastic Constant Matrix: (Units=GPa)
#
#
# Indices 1 2 3 4 5 6 
#
# 1 69.1687 22.3822 24.3391 0.0000 -34.2893 0.0000
# 2 22.3822 91.5233 22.9695 0.0000 -25.6787 0.0000
# 3 24.3391 22.9695 80.9158 0.0000 -25.6891 0.0000
# 4 0.0000 0.0000 0.0000 10.4066 0.0000 -6.0387
# 5 -34.2893 -25.6787 -25.6891 0.0000 57.9549 0.0000
# 6 0.0000 0.0000 0.0000 -6.0387 0.0000 23.3910
#
#
#
# Elastic Compliance Matrix: (Units=1/GPa)
#
#
# Indices 1 2 3 4 5 6 
#
# 1 0.021155 -0.001533 -0.002526 0.000000 0.010718 0.000000
# 2 -0.001533 0.012896 -0.001948 0.000000 0.003944 0.000000
# 3 -0.002526 -0.001948 0.015039 0.000000 0.004309 0.000000
# 4 0.000000 0.000000 0.000000 0.113025 0.000000 0.029179
# 5 0.010718 0.003944 0.004309 0.000000 0.027254 0.000000
# 6 0.000000 0.000000 0.000000 0.029179 0.000000 0.050284
#
#
# Mechanical properties :
#
#
# Convention : Reuss Voigt Hill
#
# Bulk Modulus (GPa) = 26.96941 42.33216 34.65078
# Shear Modulus (GPa) = 18.93758 29.81164 24.37461
#
# Velocity S-wave (km/s) = 3.12178 3.91682 3.54168
# Velocity P-wave (km/s) = 5.18390 6.49923 5.87847
#
# Compressibility (1/GPa) = 0.03707905
#
# Stress axis : x y z
#
# Youngs Moduli (GPa) = 47.26931 77.54118 66.49320
#
# Poissons Ratio (x) = 0.11883 0.16794
# Poissons Ratio (y) = 0.07244 0.12951
# Poissons Ratio (z) = 0.11938 0.15103
#
# Static dielectric constant tensor:
#      x y z
#    x 2.356720 0.000000 0.618190 
#    y 0.000000 3.918970 0.000000 
#    z 0.618190 0.000000 3.073330 
# 
# 
# High freq. dielectric constant tensor:
#      x y z
#    x 1.755480 0.000000 -0.019180 
#    y 0.000000 1.724600 0.000000 
#    z -0.019180 0.000000 1.763280 
# 
# From -- ./inp_files/77161.got.cif
#   From: 2010.06.25/outbox.cif.g09.slc.cpg/sg10_39_cif.got.tgz:77161.got - 2010.06.27 22:07:45.
