data_PCOD8059675
_publ_section_title
;
Structure prediction by ZEFSAII (Michael W. Deem and Ramdas Pophale) SiO2 
 PCOD8059675
Probable space group: P 2/M
;
_chemical_formula_sum "Si O2"
_cell_formula_units_Z 32
_cell_length_a 23.086834
_cell_length_b 8.927862
_cell_length_c 12.467558
_cell_angle_alpha 90.000000
_cell_angle_beta 133.073247
_cell_angle_gamma 90.000000
_cell_volume 1877.164408
_symmetry_space_group_name_H-M "P 2/M"
_symmetry_group_IT_number 10
_symmetry_cell_setting 'monoclinic'
loop_
_space_group_symop_operation_xyz
x,y,z
-x,y,-z
-x,-y,-z
x,-y,z
loop_
_atom_site_type_symbol
_atom_site_label
_atom_site_fract_x
_atom_site_fract_y
_atom_site_fract_z
Si Si1 0.197087 0.325111 0.896400
Si Si2 0.094578 0.176176 0.949832
Si Si3 0.161956 0.673278 0.239660
Si Si4 0.517659 0.834054 0.396836
Si Si5 0.332781 0.671792 0.367455
Si Si6 0.344880 0.822948 0.156931
Si Si7 0.083998 0.175627 0.335501
Si Si8 0.915858 0.325804 0.441948
O O1 0.202612 0.500000 0.926473
O O2 0.153850 0.253071 0.942693
O O3 0.151705 0.289652 0.729706
O O4 0.285219 0.256100 0.998130
O O5 0.005743 0.220133 0.805779
O O6 0.108794 0.000000 0.964180
O O7 0.110410 0.235113 0.088894
O O8 0.137995 0.500000 0.200563
O O9 0.255538 0.696105 0.341755
O O10 0.143070 0.735769 0.332939
O O11 0.500000 0.839604 0.500000
O O12 0.590763 0.723074 0.465632
O O13 0.435263 0.779201 0.237706
O O14 0.540614 0.000000 0.384669
O O15 0.343963 0.500000 0.347515
O O16 0.323732 0.770060 0.249848
O O17 0.333234 0.000000 0.138479
O O18 0.103786 0.225532 0.480756
O O19 0.098965 0.000000 0.341956
O O20 0.917507 0.500000 0.476672
O O21 0.000000 0.276397 0.500000
#
# Coordination Sequence:
#
# PCOD8059675 Si02
#       8
#     4   4   4   4   4   4   4   4
#     4  11  21  33  53  78 102 135 175 211 257 309
#     4  11  22  35  52  75 104 136 172 215 259 303
#     4  11  23  36  52  75 105 140 176 212 255 308
#     4   8  16  29  45  68  99 136 169 199 249 306
#     4  10  19  30  47  73 102 135 172 208 249 303
#     4  10  19  31  48  72 104 137 168 208 254 304
#     4  11  24  38  54  76 101 134 178 220 259 304
#     4  10  21  38  57  75 100 134 172 216 263 308
#
# _framework density 17.046987999999999
#
# number of rings (size 3 to 8) (size 9 to 14) (size 15 to 20)
#    0.000    1.750    2.500    3.375    0.000    8.500 
#    0.000    0.000    0.000    0.000    0.000    0.875 
#    0.000    7.000    0.000    0.000    0.000    0.000 
#
# Total GULP energy -396864.257925 kJ/mol
# GULP energy per Si atom -12402.008060 kJ/mol
# Density = 1.700819 g / cm^3
# Si number density = 17.046988 Si / 1000 Ang^3
#
#
#
# Elastic Constant Matrix: (Units=GPa)
#
#
# Indices 1 2 3 4 5 6 
#
# 1 53.9085 31.0605 54.5295 0.0000 3.4478 0.0000
# 2 31.0605 72.8934 54.9713 0.0000 9.2307 0.0000
# 3 54.5295 54.9713 108.8597 0.0000 16.5966 0.0000
# 4 0.0000 0.0000 0.0000 27.5095 0.0000 7.3067
# 5 3.4478 9.2307 16.5966 0.0000 26.1142 0.0000
# 6 0.0000 0.0000 0.0000 7.3067 0.0000 17.7682
#
#
#
# Elastic Compliance Matrix: (Units=1/GPa)
#
#
# Indices 1 2 3 4 5 6 
#
# 1 0.039547 -0.003244 -0.019433 0.000000 0.008276 0.000000
# 2 -0.003244 0.022437 -0.009480 0.000000 -0.001478 0.000000
# 3 -0.019433 -0.009480 0.025252 0.000000 -0.010132 0.000000
# 4 0.000000 0.000000 0.000000 0.040808 0.000000 -0.016781
# 5 0.008276 -0.001478 -0.010132 0.000000 0.044162 0.000000
# 6 0.000000 0.000000 0.000000 -0.016781 0.000000 0.063181
#
#
# Mechanical properties :
#
#
# Convention : Reuss Voigt Hill
#
# Bulk Modulus (GPa) = 43.62596 57.42047 50.52321
# Shear Modulus (GPa) = 16.26844 20.61839 18.44342
#
# Velocity S-wave (km/s) = 3.09257 3.48156 3.29282
# Velocity P-wave (km/s) = 6.19671 7.06530 6.64521
#
# Compressibility (1/GPa) = 0.02292213
#
# Stress axis : x y z
#
# Youngs Moduli (GPa) = 25.28644 44.56871 39.60021
#
# Poissons Ratio (x) = 0.14458 0.76956
# Poissons Ratio (y) = 0.08203 0.37541
# Poissons Ratio (z) = 0.49140 0.42251
#
# Static dielectric constant tensor:
#      x y z
#    x 3.102410 0.000000 0.394240 
#    y 0.000000 3.303320 0.000000 
#    z 0.394240 0.000000 3.432540 
# 
# 
# High freq. dielectric constant tensor:
#      x y z
#    x 1.632370 0.000000 0.025620 
#    y 0.000000 1.671990 0.000000 
#    z 0.025620 0.000000 1.651020 
# 
# From -- ./inp_files/55232.got.cif
#   From: 2010.06.25/outbox.cif.g09.slc.cpg/sg10_28_cif.got.tgz:55232.got - 2010.06.27 22:07:45.
