data_PCOD8059239
_publ_section_title
;
Structure prediction by ZEFSAII (Michael W. Deem and Ramdas Pophale) SiO2 
 PCOD8059239
Probable space group: P 2/M
;
_chemical_formula_sum "Si O2"
_cell_formula_units_Z 28
_cell_length_a 11.803253
_cell_length_b 8.771937
_cell_length_c 15.705227
_cell_angle_alpha 90.000000
_cell_angle_beta 56.808379
_cell_angle_gamma 90.000000
_cell_volume 1360.774438
_symmetry_space_group_name_H-M "P 2/M"
_symmetry_group_IT_number 10
_symmetry_cell_setting 'monoclinic'
loop_
_space_group_symop_operation_xyz
x,y,z
-x,y,-z
-x,-y,-z
x,-y,z
loop_
_atom_site_type_symbol
_atom_site_label
_atom_site_fract_x
_atom_site_fract_y
_atom_site_fract_z
Si Si1 0.138362 0.820901 0.485318
Si Si2 0.131610 0.177624 0.151704
Si Si3 0.152891 0.326856 0.966883
Si Si4 0.327685 0.680614 0.740052
Si Si5 0.140354 0.680307 0.668211
Si Si6 0.611759 0.325038 0.886972
Si Si7 0.393224 0.674947 0.304183
O O1 0.162997 0.748206 0.566532
O O2 0.262694 0.778568 0.373278
O O3 0.000000 0.758060 0.500000
O O4 0.128838 0.000000 0.500985
O O5 0.254640 0.222110 0.162650
O O6 0.000454 0.270842 0.232974
O O7 0.099910 0.000000 0.173704
O O8 0.174837 0.219743 0.038662
O O9 0.197119 0.500000 0.971887
O O10 0.242997 0.254502 0.854607
O O11 0.000000 0.324167 0.000000
O O12 0.314183 0.500000 0.749636
O O13 0.263393 0.739567 0.677920
O O14 0.484502 0.730120 0.684499
O O15 0.141684 0.500000 0.660369
O O16 0.649597 0.500000 0.891999
O O17 0.555767 0.307987 0.814082
O O18 0.500000 0.265714 0.000000
O O19 0.354400 0.500000 0.339870
#
# Coordination Sequence:
#
# PCOD8059239 Si02
#       7
#     4   4   4   4   4   4   4
#     4  11  25  44  63  86 119 156 196 247 307 362
#     4  12  24  36  55  88 129 163 198 247 307 366
#     4  10  18  35  61  86 118 162 209 249 291 346
#     4   9  19  37  62  92 121 152 197 252 301 348
#     4  11  22  40  65  90 116 153 204 251 296 354
#     4  10  21  39  64  90 118 157 208 256 296 351
#     4  10  21  39  64  91 119 154 198 248 301 357
#
# _framework density 20.576519000000001
#
# number of rings (size 3 to 8) (size 9 to 14) (size 15 to 20)
#    0.000    1.571    1.429    3.857    0.000    7.429 
#    0.000    6.429    0.000    0.000    0.000    0.000 
#    0.000    0.000    0.000    0.000    0.000    0.000 
#
# Total GULP energy -347290.720572 kJ/mol
# GULP energy per Si atom -12403.240020 kJ/mol
# Density = 2.052969 g / cm^3
# Si number density = 20.576519 Si / 1000 Ang^3
#
#
#
# Elastic Constant Matrix: (Units=GPa)
#
#
# Indices 1 2 3 4 5 6 
#
# 1 142.9078 27.4734 54.7683 0.0000 0.3655 0.0000
# 2 27.4734 50.3708 25.2474 0.0000 3.5554 0.0000
# 3 54.7683 25.2474 113.2756 0.0000 4.5442 0.0000
# 4 0.0000 0.0000 0.0000 -8.6531 0.0000 12.7746
# 5 0.3655 3.5554 4.5442 0.0000 36.0801 0.0000
# 6 0.0000 0.0000 0.0000 12.7746 0.0000 10.5070
#
#
#
# Elastic Compliance Matrix: (Units=1/GPa)
#
#
# Indices 1 2 3 4 5 6 
#
# 1 0.009008 -0.003112 -0.003689 0.000000 0.000680 0.000000
# 2 -0.003112 0.023515 -0.003663 0.000000 -0.001824 0.000000
# 3 -0.003689 -0.003663 0.011470 0.000000 -0.001046 0.000000
# 4 0.000000 0.000000 0.000000 -0.041348 0.000000 0.050272
# 5 0.000680 -0.001824 -0.001046 0.000000 0.028021 0.000000
# 6 0.000000 0.000000 0.000000 0.050272 0.000000 0.034053
#
#
# Mechanical properties :
#
#
# Convention : Reuss Voigt Hill
#
# Bulk Modulus (GPa) = 43.35680 57.94806 50.65243
# Shear Modulus (GPa) = 53.57073 20.85782 37.21428
#
# Velocity S-wave (km/s) = 5.10797 3.18727 4.25735
# Velocity P-wave (km/s) = 7.47698 6.46284 6.98833
#
# Compressibility (1/GPa) = 0.02306443
#
# Stress axis : x y z
#
# Youngs Moduli (GPa) = 111.01494 42.52589 87.18361
#
# Poissons Ratio (x) = 0.13234 0.32161
# Poissons Ratio (y) = 0.34549 0.31938
# Poissons Ratio (z) = 0.40952 0.15578
#
# Static dielectric constant tensor:
#      x y z
#    x 4.006260 0.000000 0.122660 
#    y 0.000000 3.454450 0.000000 
#    z 0.122660 0.000000 3.754730 
# 
# 
# High freq. dielectric constant tensor:
#      x y z
#    x 1.819790 0.000000 0.005310 
#    y 0.000000 1.776050 0.000000 
#    z 0.005310 0.000000 1.808690 
# 
# From -- ./inp_files/63644.got.cif
#   From: 2010.06.25/outbox.cif.g09.slc.cpg/sg10_32_cif.got.tgz:63644.got - 2010.06.27 22:07:45.
