data_PCOD8059179
_publ_section_title
;
Structure prediction by ZEFSAII (Michael W. Deem and Ramdas Pophale) SiO2 
 PCOD8059179
Probable space group: P 2/M
;
_chemical_formula_sum "Si O2"
_cell_formula_units_Z 28
_cell_length_a 15.174173
_cell_length_b 13.704691
_cell_length_c 11.507511
_cell_angle_alpha 90.000000
_cell_angle_beta 39.031904
_cell_angle_gamma 90.000000
_cell_volume 1507.044043
_symmetry_space_group_name_H-M "P 2/M"
_symmetry_group_IT_number 10
_symmetry_cell_setting 'monoclinic'
loop_
_space_group_symop_operation_xyz
x,y,z
-x,y,-z
-x,-y,-z
x,-y,z
loop_
_atom_site_type_symbol
_atom_site_label
_atom_site_fract_x
_atom_site_fract_y
_atom_site_fract_z
Si Si1 0.460893 0.609121 0.833627
Si Si2 0.369397 0.608419 0.565653
Si Si3 0.463242 0.801132 0.162810
Si Si4 0.783766 0.109956 0.451882
Si Si5 0.284663 0.777361 0.953925
Si Si6 0.167006 0.226259 0.824499
Si Si7 0.942410 0.110570 0.684338
O O1 0.425305 0.500000 0.916840
O O2 0.586672 0.602734 0.612673
O O3 0.522153 0.682775 0.868461
O O4 0.318646 0.660085 0.925684
O O5 0.500000 0.658213 0.500000
O O6 0.342005 0.500000 0.644836
O O7 0.227333 0.668525 0.727333
O O8 0.309909 0.829861 0.361495
O O9 0.572219 0.833670 0.153685
O O10 0.500000 0.849210 0.000000
O O11 0.780285 0.149507 0.324582
O O12 0.940338 0.116007 0.337428
O O13 0.727293 0.000000 0.506983
O O14 0.230983 0.808360 0.882020
O O15 0.172104 0.808934 0.165615
O O16 0.000000 0.233162 0.000000
O O17 0.000000 0.140577 0.500000
O O18 0.880618 0.000000 0.743458
#
# Coordination Sequence:
#
# PCOD8059179 Si02
#       7
#     4   4   4   4   4   4   4
#     4   9  19  35  59  85 115 148 189 236 289 345
#     4  10  18  34  59  82 110 150 195 237 284 342
#     4  10  21  38  63  89 114 150 194 248 286 340
#     4  11  24  39  57  86 120 153 193 241 294 341
#     4  10  21  36  58  87 114 150 194 236 286 346
#     4  12  22  37  57  82 121 154 191 238 286 348
#     4  10  21  39  61  82 111 155 199 237 286 345
#
# _framework density 18.579416999999999
#
# number of rings (size 3 to 8) (size 9 to 14) (size 15 to 20)
#    0.857    0.857    4.286    0.857    0.000    2.286 
#    0.000    0.714    0.000    1.286    0.000    0.000 
#    0.000    0.000    0.000    0.000    0.000    0.000 
#
# Total GULP energy -346907.296439 kJ/mol
# GULP energy per Si atom -12389.546301 kJ/mol
# Density = 1.853713 g / cm^3
# Si number density = 18.579417 Si / 1000 Ang^3
#
#
#
# Elastic Constant Matrix: (Units=GPa)
#
#
# Indices 1 2 3 4 5 6 
#
# 1 57.6838 27.6674 19.5667 0.0000 4.0394 0.0000
# 2 27.6674 85.8162 43.9634 0.0000 -1.1873 0.0000
# 3 19.5667 43.9634 100.7651 0.0000 2.9136 0.0000
# 4 0.0000 0.0000 0.0000 19.4542 0.0000 -4.8137
# 5 4.0394 -1.1873 2.9136 0.0000 28.3875 0.0000
# 6 0.0000 0.0000 0.0000 -4.8137 0.0000 19.8268
#
#
#
# Elastic Compliance Matrix: (Units=1/GPa)
#
#
# Indices 1 2 3 4 5 6 
#
# 1 0.020932 -0.006124 -0.001303 0.000000 -0.003101 0.000000
# 2 -0.006124 0.016847 -0.006225 0.000000 0.002215 0.000000
# 3 -0.001303 -0.006225 0.012934 0.000000 -0.001402 0.000000
# 4 0.000000 0.000000 0.000000 0.054688 0.000000 0.013278
# 5 -0.003101 0.002215 -0.001402 0.000000 0.035905 0.000000
# 6 0.000000 0.000000 0.000000 0.013278 0.000000 0.053660
#
#
# Mechanical properties :
#
#
# Convention : Reuss Voigt Hill
#
# Bulk Modulus (GPa) = 42.71954 47.40667 45.06311
# Shear Modulus (GPa) = 21.73219 23.73821 22.73520
#
# Velocity S-wave (km/s) = 3.42379 3.57832 3.50190
# Velocity P-wave (km/s) = 6.21873 6.53020 6.37637
#
# Compressibility (1/GPa) = 0.02340849
#
# Stress axis : x y z
#
# Youngs Moduli (GPa) = 47.77295 59.35786 77.31755
#
# Poissons Ratio (x) = 0.36350 0.10076
# Poissons Ratio (y) = 0.29256 0.48131
# Poissons Ratio (z) = 0.06225 0.36951
#
# Static dielectric constant tensor:
#      x y z
#    x 3.380680 0.000000 0.029800 
#    y 0.000000 3.421410 0.000000 
#    z 0.029800 0.000000 3.309310 
# 
# 
# High freq. dielectric constant tensor:
#      x y z
#    x 1.718460 0.000000 0.009190 
#    y 0.000000 1.705320 0.000000 
#    z 0.009190 0.000000 1.718510 
# 
# From -- ./inp_files/51387.got.cif
#   From: 2010.06.25/outbox.cif.g09.slc.cpg/sg10_26_cif.got.tgz:51387.got - 2010.06.27 22:07:45.
