data_PCOD8059245
_publ_section_title
;
Structure prediction by ZEFSAII (Michael W. Deem and Ramdas Pophale) SiO2 
 PCOD8059245
Probable space group: P 2/M
;
_chemical_formula_sum "Si O2"
_cell_formula_units_Z 32
_cell_length_a 23.721232
_cell_length_b 8.885220
_cell_length_c 13.969881
_cell_angle_alpha 90.000000
_cell_angle_beta 146.917792
_cell_angle_gamma 90.000000
_cell_volume 1607.181493
_symmetry_space_group_name_H-M "P 2/M"
_symmetry_group_IT_number 10
_symmetry_cell_setting 'monoclinic'
loop_
_space_group_symop_operation_xyz
x,y,z
-x,y,-z
-x,-y,-z
x,-y,z
loop_
_atom_site_type_symbol
_atom_site_label
_atom_site_fract_x
_atom_site_fract_y
_atom_site_fract_z
Si Si1 0.026040 0.176955 0.812065
Si Si2 0.908558 0.822410 0.303787
Si Si3 0.809895 0.321679 0.496539
Si Si4 0.538194 0.672742 0.805931
Si Si5 0.676158 0.821866 0.467408
Si Si6 0.602423 0.171169 0.707999
Si Si7 0.253575 0.327511 0.802839
Si Si8 0.768990 0.822740 0.796630
O O1 0.071140 0.232285 0.774941
O O2 0.921772 0.264105 0.688900
O O3 0.001489 0.000000 0.775858
O O4 0.111462 0.218224 0.013673
O O5 0.800219 0.760563 0.187017
O O6 0.000000 0.757866 0.500000
O O7 0.903372 0.000000 0.301472
O O8 0.806240 0.500000 0.496730
O O9 0.723244 0.256281 0.442135
O O10 0.783104 0.262645 0.351791
O O11 0.500885 0.500000 0.745506
O O12 0.443785 0.780672 0.697010
O O13 0.590127 0.720528 0.780462
O O14 0.623236 0.691118 0.010767
O O15 0.735298 0.758402 0.645637
O O16 0.687953 0.000000 0.474706
O O17 0.500000 0.172765 0.500000
O O18 0.695705 0.239600 0.776934
O O19 0.626500 0.000000 0.776358
O O20 0.220027 0.500000 0.763661
O O21 0.751385 0.000000 0.770545
#
# Coordination Sequence:
#
# PCOD8059245 Si02
#       8
#     4   4   4   4   4   4   4   4
#     4  10  20  37  60  87 118 152 189 234 286 343
#     4  10  19  33  59  92 120 146 188 241 285 331
#     4  11  24  42  60  82 113 153 196 242 291 343
#     4  11  23  39  59  88 120 153 192 237 288 344
#     4  11  23  42  63  84 111 151 198 243 290 343
#     4  10  18  35  62  89 119 155 192 232 283 346
#     4  10  23  40  59  83 119 160 192 228 290 357
#     4   9  19  36  60  87 116 152 191 231 285 345
#
# _framework density 19.910630999999999
#
# number of rings (size 3 to 8) (size 9 to 14) (size 15 to 20)
#    0.000    1.750    2.500    1.875    0.000    4.500 
#    0.000    6.875    0.000    0.000    0.000    0.000 
#    0.000    0.000    0.000    0.000    0.000    0.000 
#
# Total GULP energy -396896.853730 kJ/mol
# GULP energy per Si atom -12403.026679 kJ/mol
# Density = 1.986531 g / cm^3
# Si number density = 19.910631 Si / 1000 Ang^3
#
#
#
# Elastic Constant Matrix: (Units=GPa)
#
#
# Indices 1 2 3 4 5 6 
#
# 1 85.0900 18.2772 19.2952 0.0000 7.0092 0.0000
# 2 18.2772 42.8966 19.7278 0.0000 0.7951 0.0000
# 3 19.2952 19.7278 97.9578 0.0000 4.7074 0.0000
# 4 0.0000 0.0000 0.0000 19.4592 0.0000 -5.7250
# 5 7.0092 0.7951 4.7074 0.0000 15.6043 0.0000
# 6 0.0000 0.0000 0.0000 -5.7250 0.0000 16.8553
#
#
#
# Elastic Compliance Matrix: (Units=1/GPa)
#
#
# Indices 1 2 3 4 5 6 
#
# 1 0.013602 -0.005050 -0.001401 0.000000 -0.005430 0.000000
# 2 -0.005050 0.027568 -0.004666 0.000000 0.002272 0.000000
# 3 -0.001401 -0.004666 0.011550 0.000000 -0.002617 0.000000
# 4 0.000000 0.000000 0.000000 0.057095 0.000000 0.019393
# 5 -0.005430 0.002272 -0.002617 0.000000 0.067197 0.000000
# 6 0.000000 0.000000 0.000000 0.019393 0.000000 0.065916
#
#
# Mechanical properties :
#
#
# Convention : Reuss Voigt Hill
#
# Bulk Modulus (GPa) = 32.80423 37.83833 35.32128
# Shear Modulus (GPa) = 18.16036 21.62670 19.89353
#
# Velocity S-wave (km/s) = 3.02336 3.29931 3.16435
# Velocity P-wave (km/s) = 5.35716 5.79304 5.57936
#
# Compressibility (1/GPa) = 0.03048388
#
# Stress axis : x y z
#
# Youngs Moduli (GPa) = 73.51796 36.27446 86.58016
#
# Poissons Ratio (x) = 0.18320 0.12132
# Poissons Ratio (y) = 0.37130 0.40400
# Poissons Ratio (z) = 0.10302 0.16926
#
# Static dielectric constant tensor:
#      x y z
#    x 3.631060 0.000000 -0.097260 
#    y 0.000000 3.397850 0.000000 
#    z -0.097260 0.000000 3.797020 
# 
# 
# High freq. dielectric constant tensor:
#      x y z
#    x 1.773960 0.000000 0.001030 
#    y 0.000000 1.756330 0.000000 
#    z 0.001030 0.000000 1.790980 
# 
# From -- ./inp_files/71570.got.cif
#   From: 2010.06.25/outbox.cif.g09.slc.cpg/sg10_36_cif.got.tgz:71570.got - 2010.06.27 22:07:45.
