data_PCOD8059075
_publ_section_title
;
Structure prediction by ZEFSAII (Michael W. Deem and Ramdas Pophale) SiO2 
 PCOD8059075
Probable space group: P 2/M
;
_chemical_formula_sum "Si O2"
_cell_formula_units_Z 32
_cell_length_a 29.064649
_cell_length_b 9.340085
_cell_length_c 12.411523
_cell_angle_alpha 90.000000
_cell_angle_beta 149.376248
_cell_angle_gamma 90.000000
_cell_volume 1716.320492
_symmetry_space_group_name_H-M "P 2/M"
_symmetry_group_IT_number 10
_symmetry_cell_setting 'monoclinic'
loop_
_space_group_symop_operation_xyz
x,y,z
-x,y,-z
-x,-y,-z
x,-y,z
loop_
_atom_site_type_symbol
_atom_site_label
_atom_site_fract_x
_atom_site_fract_y
_atom_site_fract_z
Si Si1 0.927403 0.845854 0.441831
Si Si2 0.663897 0.660037 0.057782
Si Si3 0.331459 0.334867 0.350037
Si Si4 0.019368 0.670188 0.249174
Si Si5 0.223127 0.654326 0.923795
Si Si6 0.820120 0.330041 0.787868
Si Si7 0.501566 0.170171 0.629671
Si Si8 0.197260 0.330061 0.487002
O O1 0.961105 0.730135 0.594086
O O2 0.844815 0.784733 0.206413
O O3 0.000000 0.877443 0.500000
O O4 0.901820 0.000000 0.444177
O O5 0.622957 0.500000 0.997348
O O6 0.739697 0.645763 0.120891
O O7 0.717034 0.723235 0.269424
O O8 0.589628 0.771229 0.867681
O O9 0.355562 0.500000 0.426210
O O10 0.253284 0.275827 0.272692
O O11 0.419815 0.236595 0.534592
O O12 0.301617 0.317122 0.166914
O O13 0.018456 0.500000 0.254240
O O14 0.099384 0.725123 0.331647
O O15 0.921227 0.729017 0.014450
O O16 0.177059 0.500000 0.858844
O O17 0.824030 0.500000 0.799358
O O18 0.789455 0.274946 0.608294
O O19 0.500000 0.216471 0.500000
O O20 0.499135 0.000000 0.634937
O O21 0.195982 0.500000 0.489951
#
# Coordination Sequence:
#
# PCOD8059075 Si02
#       8
#     4   4   4   4   4   4   4   4
#     4  11  23  34  46  72 112 152 184 219 267 321
#     4  10  19  34  57  83 109 137 173 223 272 318
#     4  10  20  35  56  82 111 142 176 223 274 323
#     4  10  18  33  57  82 108 142 185 229 266 311
#     4  10  19  33  54  80 107 137 177 220 270 323
#     4   9  18  32  55  85 112 140 180 226 271 316
#     4  11  23  37  56  82 109 142 180 221 271 328
#     4   9  17  32  55  85 113 140 179 224 270 315
#
# _framework density 18.644537
#
# number of rings (size 3 to 8) (size 9 to 14) (size 15 to 20)
#    0.000    2.000    2.500    1.875    0.000    5.000 
#    0.000    1.250    0.000    7.500    0.000    0.000 
#    0.000    0.000    0.000    0.000    0.000    0.000 
#
# Total GULP energy -396599.881521 kJ/mol
# GULP energy per Si atom -12393.746298 kJ/mol
# Density = 1.860210 g / cm^3
# Si number density = 18.644537 Si / 1000 Ang^3
#
#
#
# Elastic Constant Matrix: (Units=GPa)
#
#
# Indices 1 2 3 4 5 6 
#
# 1 73.9351 26.2880 35.4572 0.0000 4.8069 0.0000
# 2 26.2880 55.9113 43.6434 0.0000 9.9228 0.0000
# 3 35.4572 43.6434 106.7480 0.0000 12.4284 0.0000
# 4 0.0000 0.0000 0.0000 59.5397 0.0000 18.0089
# 5 4.8069 9.9228 12.4284 0.0000 28.1091 0.0000
# 6 0.0000 0.0000 0.0000 18.0089 0.0000 19.4429
#
#
#
# Elastic Compliance Matrix: (Units=1/GPa)
#
#
# Indices 1 2 3 4 5 6 
#
# 1 0.017100 -0.005365 -0.003549 0.000000 0.000539 0.000000
# 2 -0.005365 0.028573 -0.009312 0.000000 -0.005052 0.000000
# 3 -0.003549 -0.009312 0.014655 0.000000 -0.002586 0.000000
# 4 0.000000 0.000000 0.000000 0.023332 0.000000 -0.021611
# 5 0.000539 -0.005052 -0.002586 0.000000 0.038410 0.000000
# 6 0.000000 0.000000 0.000000 -0.021611 0.000000 0.071450
#
#
# Mechanical properties :
#
#
# Convention : Reuss Voigt Hill
#
# Bulk Modulus (GPa) = 41.88327 49.70799 45.79563
# Shear Modulus (GPa) = 21.01446 30.16540 25.58993
#
# Velocity S-wave (km/s) = 3.36089 4.02670 3.70877
# Velocity P-wave (km/s) = 6.12973 6.95255 6.55406
#
# Compressibility (1/GPa) = 0.02387588
#
# Stress axis : x y z
#
# Youngs Moduli (GPa) = 58.47944 34.99775 68.23700
#
# Poissons Ratio (x) = 0.18777 0.24218
# Poissons Ratio (y) = 0.31376 0.63540
# Poissons Ratio (z) = 0.20755 0.32589
#
# Static dielectric constant tensor:
#      x y z
#    x 3.460460 0.000000 -0.043430 
#    y 0.000000 3.299170 0.000000 
#    z -0.043430 0.000000 3.561900 
# 
# 
# High freq. dielectric constant tensor:
#      x y z
#    x 1.714060 0.000000 -0.000150 
#    y 0.000000 1.692080 0.000000 
#    z -0.000150 0.000000 1.728480 
# 
# From -- ./inp_files/58239.got.cif
#   From: 2010.06.25/outbox.cif.g09.slc.cpg/sg10_30_cif.got.tgz:58239.got - 2010.06.27 22:07:45.
