data_PCOD8059638
_publ_section_title
;
Structure prediction by ZEFSAII (Michael W. Deem and Ramdas Pophale) SiO2 
 PCOD8059638
Probable space group: P 2/M
;
_chemical_formula_sum "Si O2"
_cell_formula_units_Z 32
_cell_length_a 12.393980
_cell_length_b 8.928189
_cell_length_c 23.829394
_cell_angle_alpha 90.000000
_cell_angle_beta 45.329075
_cell_angle_gamma 90.000000
_cell_volume 1875.220060
_symmetry_space_group_name_H-M "P 2/M"
_symmetry_group_IT_number 10
_symmetry_cell_setting 'monoclinic'
loop_
_space_group_symop_operation_xyz
x,y,z
-x,y,-z
-x,-y,-z
x,-y,z
loop_
_atom_site_type_symbol
_atom_site_label
_atom_site_fract_x
_atom_site_fract_y
_atom_site_fract_z
Si Si1 0.034629 0.326445 0.597887
Si Si2 0.281381 0.176529 0.314113
Si Si3 0.133815 0.827627 0.673632
Si Si4 0.640186 0.665572 0.990845
Si Si5 0.814465 0.171243 0.839609
Si Si6 0.566433 0.324974 0.415728
Si Si7 0.408487 0.322569 0.163660
Si Si8 0.684933 0.327918 0.582723
O O1 0.990510 0.500000 0.620682
O O2 0.112439 0.271330 0.626169
O O3 0.150887 0.302922 0.504572
O O4 0.886080 0.232758 0.638807
O O5 0.402517 0.246616 0.226617
O O6 0.331681 0.222384 0.357680
O O7 0.283970 0.000000 0.306798
O O8 0.281894 0.769004 0.651958
O O9 0.994120 0.808284 0.767483
O O10 0.153132 0.000000 0.648637
O O11 0.711765 0.500000 0.971181
O O12 0.569964 0.721840 0.075828
O O13 0.500000 0.658828 0.000000
O O14 0.768326 0.775499 0.919261
O O15 0.733615 0.267855 0.821268
O O16 0.763897 0.000000 0.850309
O O17 0.500000 0.277457 0.500000
O O18 0.605711 0.500000 0.400272
O O19 0.445077 0.280966 0.413099
O O20 0.394237 0.500000 0.174460
O O21 0.666870 0.500000 0.608065
#
# Coordination Sequence:
#
# PCOD8059638 Si02
#       8
#     4   4   4   4   4   4   4   4
#     4  11  21  36  56  74 100 139 177 214 256 304
#     4  12  24  35  50  77 108 137 173 213 259 313
#     4  11  22  33  50  79 109 137 171 212 261 308
#     4   8  16  29  46  70  98 132 172 207 245 301
#     4  10  19  30  46  73 107 137 167 207 255 308
#     4  10  20  38  58  76  97 131 179 221 258 306
#     4  10  19  32  50  71 100 138 174 208 250 303
#     4  10  22  39  56  74  98 134 180 219 257 306
#
# _framework density 17.064665999999999
#
# number of rings (size 3 to 8) (size 9 to 14) (size 15 to 20)
#    0.000    1.750    2.500    3.750    0.000    7.500 
#    0.000    0.000    0.000    0.000    0.000    0.875 
#    0.000    7.000    0.000    0.000    0.000    0.000 
#
# Total GULP energy -396847.945016 kJ/mol
# GULP energy per Si atom -12401.498282 kJ/mol
# Density = 1.702583 g / cm^3
# Si number density = 17.064666 Si / 1000 Ang^3
#
#
#
# Elastic Constant Matrix: (Units=GPa)
#
#
# Indices 1 2 3 4 5 6 
#
# 1 58.7946 31.7212 37.4435 0.0000 5.5428 0.0000
# 2 31.7212 104.8774 63.8560 0.0000 3.3205 0.0000
# 3 37.4435 63.8560 121.0272 0.0000 7.3404 0.0000
# 4 0.0000 0.0000 0.0000 24.0292 0.0000 -1.0839
# 5 5.5428 3.3205 7.3404 0.0000 18.0333 0.0000
# 6 0.0000 0.0000 0.0000 -1.0839 0.0000 21.1634
#
#
#
# Elastic Compliance Matrix: (Units=1/GPa)
#
#
# Indices 1 2 3 4 5 6 
#
# 1 0.022444 -0.003806 -0.004675 0.000000 -0.004295 0.000000
# 2 -0.003806 0.014697 -0.006648 0.000000 0.001170 0.000000
# 3 -0.004675 -0.006648 0.013386 0.000000 -0.002788 0.000000
# 4 0.000000 0.000000 0.000000 0.041712 0.000000 0.002136
# 5 -0.004295 0.001170 -0.002788 0.000000 0.057692 0.000000
# 6 0.000000 0.000000 0.000000 0.002136 0.000000 0.047361
#
#
# Mechanical properties :
#
#
# Convention : Reuss Voigt Hill
#
# Bulk Modulus (GPa) = 49.33736 61.19341 55.26539
# Shear Modulus (GPa) = 21.33971 22.75710 22.04841
#
# Velocity S-wave (km/s) = 3.54011 3.65578 3.59841
# Velocity P-wave (km/s) = 6.75904 7.33193 7.05131
#
# Compressibility (1/GPa) = 0.02026862
#
# Stress axis : x y z
#
# Youngs Moduli (GPa) = 44.55529 68.04337 74.70770
#
# Poissons Ratio (x) = 0.25896 0.34928
# Poissons Ratio (y) = 0.16957 0.49663
# Poissons Ratio (z) = 0.20831 0.45233
#
# Static dielectric constant tensor:
#      x y z
#    x 2.913620 0.000000 -0.004760 
#    y 0.000000 3.264750 0.000000 
#    z -0.004760 0.000000 3.565590 
# 
# 
# High freq. dielectric constant tensor:
#      x y z
#    x 1.616890 0.000000 -0.002300 
#    y 0.000000 1.668460 0.000000 
#    z -0.002300 0.000000 1.667110 
# 
# From -- ./inp_files/79987.got.cif
#   From: 2010.06.25/outbox.cif.g09.slc.cpg/sg10_40_cif.got.tgz:79987.got - 2010.06.27 22:07:45.
