data_PCOD8059046
_publ_section_title
;
Structure prediction by ZEFSAII (Michael W. Deem and Ramdas Pophale) SiO2 
 PCOD8059046
Probable space group: P 2/M
;
_chemical_formula_sum "Si O2"
_cell_formula_units_Z 24
_cell_length_a 24.319345
_cell_length_b 8.534872
_cell_length_c 12.580922
_cell_angle_alpha 90.000000
_cell_angle_beta 29.394560
_cell_angle_gamma 90.000000
_cell_volume 1281.694501
_symmetry_space_group_name_H-M "P 2/M"
_symmetry_group_IT_number 10
_symmetry_cell_setting 'monoclinic'
loop_
_space_group_symop_operation_xyz
x,y,z
-x,y,-z
-x,-y,-z
x,-y,z
loop_
_atom_site_type_symbol
_atom_site_label
_atom_site_fract_x
_atom_site_fract_y
_atom_site_fract_z
Si Si1 0.751898 0.818044 0.099466
Si Si2 0.368681 0.680909 0.893949
Si Si3 0.773762 0.815688 0.678784
Si Si4 0.995150 0.813882 0.627964
Si Si5 0.381702 0.813887 0.241361
Si Si6 0.603274 0.181951 0.545438
O O1 0.709477 0.789459 0.290548
O O2 0.742991 0.000000 0.081828
O O3 0.675538 0.719378 0.148643
O O4 0.880411 0.759412 0.877288
O O5 0.349217 0.500000 0.952271
O O6 0.303170 0.782726 0.090310
O O7 0.499717 0.719311 0.676305
O O8 0.717116 0.744809 0.667373
O O9 0.898494 0.744855 0.485888
O O10 0.783217 0.000000 0.650387
O O11 0.000000 0.746697 0.500000
O O12 0.003409 0.000000 0.610524
O O13 0.361787 0.759499 0.395910
O O14 0.382617 0.000000 0.231199
O O15 0.500000 0.746692 0.000000
O O16 0.567789 0.000000 0.607467
#
# Coordination Sequence:
#
# PCOD8059046 Si02
#       6
#     4   4   4   4   4   4
#     4  10  20  35  54  76 103 137 173 207 252 310
#     4  12  23  33  50  78 109 134 168 216 262 301
#     4  10  18  33  56  78 104 136 172 208 253 303
#     4   9  16  29  53  79 101 130 171 212 248 296
#     4   9  16  29  53  79 101 130 171 212 248 296
#     4  10  20  35  54  76 103 137 173 207 252 310
#
# _framework density 18.725211000000002
#
# number of rings (size 3 to 8) (size 9 to 14) (size 15 to 20)
#    0.000    2.000    3.333    2.000    0.000    2.667 
#    0.000    4.167    0.000    5.000    0.000    0.000 
#    0.000    4.000    0.000    0.000    0.000    0.000 
#
# Total GULP energy -297580.338967 kJ/mol
# GULP energy per Si atom -12399.180790 kJ/mol
# Density = 1.868259 g / cm^3
# Si number density = 18.725211 Si / 1000 Ang^3
#
#
#
# Elastic Constant Matrix: (Units=GPa)
#
#
# Indices 1 2 3 4 5 6 
#
# 1 174.4493 17.1034 89.6283 0.0000 -11.0608 0.0000
# 2 17.1034 15.5850 7.7403 0.0000 -4.8040 0.0000
# 3 89.6283 7.7403 143.1456 0.0000 -4.6499 0.0000
# 4 0.0000 0.0000 0.0000 4.9370 0.0000 1.6247
# 5 -11.0608 -4.8040 -4.6499 0.0000 34.7066 0.0000
# 6 0.0000 0.0000 0.0000 1.6247 0.0000 1.7372
#
#
#
# Elastic Compliance Matrix: (Units=1/GPa)
#
#
# Indices 1 2 3 4 5 6 
#
# 1 0.009275 -0.007120 -0.005381 0.000000 0.001249 0.000000
# 2 -0.007120 0.074116 0.000713 0.000000 0.008085 0.000000
# 3 -0.005381 0.000713 0.010309 0.000000 -0.000235 0.000000
# 4 0.000000 0.000000 0.000000 0.292607 0.000000 -0.273649
# 5 0.001249 0.008085 -0.000235 0.000000 0.030299 0.000000
# 6 0.000000 0.000000 0.000000 -0.273649 0.000000 0.831555
#
#
# Mechanical properties :
#
#
# Convention : Reuss Voigt Hill
#
# Bulk Modulus (GPa) = 14.26067 62.45820 38.35944
# Shear Modulus (GPa) = 3.86067 22.85669 13.35868
#
# Velocity S-wave (km/s) = 1.43744 3.49755 2.67386
# Velocity P-wave (km/s) = 3.22293 7.05252 5.48294
#
# Compressibility (1/GPa) = 0.07012292
#
# Stress axis : x y z
#
# Youngs Moduli (GPa) = 107.82238 13.49229 97.00053
#
# Poissons Ratio (x) = 0.09607 0.52201
# Poissons Ratio (y) = 0.76773 -0.06919
# Poissons Ratio (z) = 0.58024 -0.00962
#
# Static dielectric constant tensor:
#      x y z
#    x 3.831400 0.000000 -0.167240 
#    y 0.000000 2.955550 0.000000 
#    z -0.167240 0.000000 3.503890 
# 
# 
# High freq. dielectric constant tensor:
#      x y z
#    x 1.733210 0.000000 -0.004190 
#    y 0.000000 1.680040 0.000000 
#    z -0.004190 0.000000 1.724980 
# 
# From -- ./inp_files/55043.got.cif
#   From: 2010.06.25/outbox.cif.g09.slc.cpg/sg10_28_cif.got.tgz:55043.got - 2010.06.27 22:07:45.
