data_PCOD8059591
_publ_section_title
;
Structure prediction by ZEFSAII (Michael W. Deem and Ramdas Pophale) SiO2 
 PCOD8059591
Probable space group: P 2/M
;
_chemical_formula_sum "Si O2"
_cell_formula_units_Z 24
_cell_length_a 18.910658
_cell_length_b 9.492189
_cell_length_c 24.734978
_cell_angle_alpha 90.000000
_cell_angle_beta 18.224018
_cell_angle_gamma 90.000000
_cell_volume 1388.540059
_symmetry_space_group_name_H-M "P 2/M"
_symmetry_group_IT_number 10
_symmetry_cell_setting 'monoclinic'
loop_
_space_group_symop_operation_xyz
x,y,z
-x,y,-z
-x,-y,-z
x,-y,z
loop_
_atom_site_type_symbol
_atom_site_label
_atom_site_fract_x
_atom_site_fract_y
_atom_site_fract_z
Si Si1 0.768738 0.332474 0.143627
Si Si2 0.625141 0.333690 0.130241
Si Si3 0.899838 0.836958 0.844276
Si Si4 0.252167 0.161235 0.167805
Si Si5 0.300508 0.342634 0.523771
Si Si6 0.859904 0.654821 0.482283
O O1 0.773169 0.500000 0.140405
O O2 0.737954 0.281339 0.104394
O O3 0.558774 0.284856 0.334257
O O4 0.000000 0.268356 0.000000
O O5 0.667285 0.500000 0.090239
O O6 0.357285 0.299005 0.324875
O O7 0.728860 0.242584 0.007342
O O8 0.801302 0.819277 0.856131
O O9 0.146988 0.764680 0.669657
O O10 0.922659 0.000000 0.844197
O O11 0.068918 0.239783 0.338427
O O12 0.241826 0.000000 0.193453
O O13 0.500000 0.224426 0.000000
O O14 0.287896 0.500000 0.558802
O O15 0.214476 0.350649 0.525473
O O16 0.941256 0.500000 0.441536
#
# Coordination Sequence:
#
# PCOD8059591 Si02
#       6
#     4   4   4   4   4   4
#     4   8  14  27  49  73  91 112 149 190 222 257
#     4   9  17  30  48  69  93 118 146 184 224 261
#     4  10  19  30  46  67  90 118 151 183 218 266
#     4   9  18  32  48  66  88 115 149 187 223 260
#     4   8  14  27  47  67  88 115 147 184 221 258
#     4   8  15  28  46  67  88 114 148 181 218 265
#
# _framework density 17.28434
#
# number of rings (size 3 to 8) (size 9 to 14) (size 15 to 20)
#    0.000    3.333    0.000    2.500    0.000    1.667 
#    0.000    4.167    0.000   12.000    0.000    0.000 
#    0.000    0.000    0.000    0.000    0.000    0.000 
#
# Total GULP energy -297459.590074 kJ/mol
# GULP energy per Si atom -12394.149586 kJ/mol
# Density = 1.724500 g / cm^3
# Si number density = 17.284340 Si / 1000 Ang^3
#
#
#
# Elastic Constant Matrix: (Units=GPa)
#
#
# Indices 1 2 3 4 5 6 
#
# 1 23.0460 23.7934 34.2898 0.0000 -3.1373 0.0000
# 2 23.7934 84.5919 77.0385 0.0000 5.9607 0.0000
# 3 34.2898 77.0385 167.8871 0.0000 -3.3032 0.0000
# 4 0.0000 0.0000 0.0000 9.7415 0.0000 2.1050
# 5 -3.1373 5.9607 -3.3032 0.0000 30.5816 0.0000
# 6 0.0000 0.0000 0.0000 2.1050 0.0000 16.1854
#
#
#
# Elastic Compliance Matrix: (Units=1/GPa)
#
#
# Indices 1 2 3 4 5 6 
#
# 1 0.070121 -0.012812 -0.008270 0.000000 0.008797 0.000000
# 2 -0.012812 0.023434 -0.008270 0.000000 -0.006775 0.000000
# 3 -0.008270 -0.008270 0.011480 0.000000 0.002003 0.000000
# 4 0.000000 0.000000 0.000000 0.105621 0.000000 -0.013737
# 5 0.008797 -0.006775 0.002003 0.000000 0.035139 0.000000
# 6 0.000000 0.000000 0.000000 -0.013737 0.000000 0.063571
#
#
# Mechanical properties :
#
#
# Convention : Reuss Voigt Hill
#
# Bulk Modulus (GPa) = 21.58343 60.64093 41.11218
# Shear Modulus (GPa) = 13.03745 20.66192 16.84969
#
# Velocity S-wave (km/s) = 2.74942 3.46123 3.12565
# Velocity P-wave (km/s) = 4.75326 7.15080 6.07155
#
# Compressibility (1/GPa) = 0.04633185
#
# Stress axis : x y z
#
# Youngs Moduli (GPa) = 14.26115 42.67366 87.11173
#
# Poissons Ratio (x) = 0.54672 0.72038
# Poissons Ratio (y) = 0.18271 0.72038
# Poissons Ratio (z) = 0.11793 0.35290
#
# Static dielectric constant tensor:
#      x y z
#    x 2.922700 0.000000 -0.172160 
#    y 0.000000 3.190830 0.000000 
#    z -0.172160 0.000000 3.664140 
# 
# 
# High freq. dielectric constant tensor:
#      x y z
#    x 1.626470 0.000000 -0.001140 
#    y 0.000000 1.647960 0.000000 
#    z -0.001140 0.000000 1.684240 
# 
# From -- ./inp_files/31189.got.cif
#   From: 2010.06.25/outbox.cif.g09.slc.cpg/sg10_16_cif.got.tgz:31189.got - 2010.06.27 22:07:45.
