data_PCOD8059402
_publ_section_title
;
Structure prediction by ZEFSAII (Michael W. Deem and Ramdas Pophale) SiO2 
 PCOD8059402
Probable space group: P 2/M
;
_chemical_formula_sum "Si O2"
_cell_formula_units_Z 32
_cell_length_a 18.982515
_cell_length_b 9.295599
_cell_length_c 12.218102
_cell_angle_alpha 90.000000
_cell_angle_beta 62.468826
_cell_angle_gamma 90.000000
_cell_volume 1911.792324
_symmetry_space_group_name_H-M "P 2/M"
_symmetry_group_IT_number 10
_symmetry_cell_setting 'monoclinic'
loop_
_space_group_symop_operation_xyz
x,y,z
-x,y,-z
-x,-y,-z
x,-y,z
loop_
_atom_site_type_symbol
_atom_site_label
_atom_site_fract_x
_atom_site_fract_y
_atom_site_fract_z
Si Si1 0.485149 0.157019 0.882786
Si Si2 0.316992 0.827930 0.045012
Si Si3 0.861056 0.835273 0.208191
Si Si4 0.830904 0.166193 0.988921
Si Si5 0.940783 0.336664 0.451777
Si Si6 0.205088 0.830889 0.515208
Si Si7 0.009110 0.664081 0.163327
Si Si8 0.653878 0.828265 0.732782
O O1 0.399125 0.235193 0.931161
O O2 0.564256 0.236442 0.777316
O O3 0.478850 0.000000 0.831429
O O4 0.500000 0.137399 0.000000
O O5 0.242483 0.770624 0.028418
O O6 0.320850 0.000000 0.037254
O O7 0.310016 0.775674 0.176324
O O8 0.811079 0.817765 0.132478
O O9 0.805240 0.785658 0.349901
O O10 0.940914 0.740559 0.140055
O O11 0.888166 0.000000 0.206594
O O12 0.847067 0.000000 0.947157
O O13 0.907831 0.256990 0.905996
O O14 0.916439 0.500000 0.497083
O O15 0.862175 0.241187 0.510494
O O16 0.000000 0.273706 0.500000
O O17 0.984887 0.325866 0.305839
O O18 0.289906 0.776973 0.407400
O O19 0.196924 0.000000 0.504979
O O20 0.017010 0.500000 0.117416
O O21 0.646662 0.000000 0.741616
#
# Coordination Sequence:
#
# PCOD8059402 Si02
#       8
#     4   4   4   4   4   4   4   4
#     4   7  10  19  35  56  85 112 131 161 207 250
#     4   8  14  23  37  61  87 110 136 167 209 254
#     4   9  18  32  44  58  84 116 143 172 215 252
#     4  10  19  29  44  63  86 112 140 177 214 251
#     4   9  19  33  44  57  85 117 137 163 211 261
#     4   9  17  28  44  64  83 107 143 178 205 240
#     4  10  20  32  46  63  81 108 147 181 208 245
#     4   8  13  22  39  63  86 107 136 174 207 242
#
# _framework density 16.738219000000001
#
# number of rings (size 3 to 8) (size 9 to 14) (size 15 to 20)
#    0.000    3.250    0.000    2.250    1.750    2.750 
#    0.000    0.000    0.000    0.750    0.000    6.125 
#    0.000    3.000    0.000    7.375    0.000    7.750 
#
# Total GULP energy -396465.621860 kJ/mol
# GULP energy per Si atom -12389.550683 kJ/mol
# Density = 1.670012 g / cm^3
# Si number density = 16.738219 Si / 1000 Ang^3
#
#
#
# Elastic Constant Matrix: (Units=GPa)
#
#
# Indices 1 2 3 4 5 6 
#
# 1 105.6822 23.6785 59.4213 0.0000 -19.0082 0.0000
# 2 23.6785 31.8663 21.6474 0.0000 -7.5802 0.0000
# 3 59.4213 21.6474 72.2275 0.0000 -28.3823 0.0000
# 4 0.0000 0.0000 0.0000 10.7254 0.0000 4.9748
# 5 -19.0082 -7.5802 -28.3823 0.0000 28.9118 0.0000
# 6 0.0000 0.0000 0.0000 4.9748 0.0000 3.1908
#
#
#
# Elastic Compliance Matrix: (Units=1/GPa)
#
#
# Indices 1 2 3 4 5 6 
#
# 1 0.018356 -0.004089 -0.015556 0.000000 -0.004275 0.000000
# 2 -0.004089 0.040390 -0.009176 0.000000 -0.001107 0.000000
# 3 -0.015556 -0.009176 0.039771 0.000000 0.026409 0.000000
# 4 0.000000 0.000000 0.000000 0.336776 0.000000 -0.525061
# 5 -0.004275 -0.001107 0.026409 0.000000 0.057413 0.000000
# 6 0.000000 0.000000 0.000000 -0.525061 0.000000 1.132011
#
#
# Mechanical properties :
#
#
# Convention : Reuss Voigt Hill
#
# Bulk Modulus (GPa) = 24.46507 46.58564 35.52536
# Shear Modulus (GPa) = 2.94814 15.56754 9.25784
#
# Velocity S-wave (km/s) = 1.32859 3.05300 2.35435
# Velocity P-wave (km/s) = 4.12329 6.34981 5.35358
#
# Compressibility (1/GPa) = 0.04087460
#
# Stress axis : x y z
#
# Youngs Moduli (GPa) = 54.47792 24.75872 25.14420
#
# Poissons Ratio (x) = 0.10124 0.39113
# Poissons Ratio (y) = 0.22277 0.23073
# Poissons Ratio (z) = 0.84744 0.22719
#
# Static dielectric constant tensor:
#      x y z
#    x 3.372480 0.000000 -0.169430 
#    y 0.000000 2.835530 0.000000 
#    z -0.169430 0.000000 3.325480 
# 
# 
# High freq. dielectric constant tensor:
#      x y z
#    x 1.637280 0.000000 -0.010340 
#    y 0.000000 1.600720 0.000000 
#    z -0.010340 0.000000 1.642860 
# 
# From -- ./inp_files/54819.got.cif
#   From: 2010.06.25/outbox.cif.g09.slc.cpg/sg10_28_cif.got.tgz:54819.got - 2010.06.27 22:07:45.
