data_PCOD8059874
_publ_section_title
;
Structure prediction by ZEFSAII (Michael W. Deem and Ramdas Pophale) SiO2 
 PCOD8059874
Probable space group: P 2/M
;
_chemical_formula_sum "Si O2"
_cell_formula_units_Z 32
_cell_length_a 23.674345
_cell_length_b 9.408984
_cell_length_c 9.739372
_cell_angle_alpha 90.000000
_cell_angle_beta 112.763098
_cell_angle_gamma 90.000000
_cell_volume 2000.486323
_symmetry_space_group_name_H-M "P 2/M"
_symmetry_group_IT_number 10
_symmetry_cell_setting 'monoclinic'
loop_
_space_group_symop_operation_xyz
x,y,z
-x,y,-z
-x,-y,-z
x,-y,z
loop_
_atom_site_type_symbol
_atom_site_label
_atom_site_fract_x
_atom_site_fract_y
_atom_site_fract_z
Si Si1 0.027535 0.659285 0.887475
Si Si2 0.280285 0.665632 0.044068
Si Si3 0.540822 0.836644 0.816408
Si Si4 0.854657 0.340332 0.145127
Si Si5 0.378929 0.667093 0.907353
Si Si6 0.601147 0.834148 0.341467
Si Si7 0.955662 0.159521 0.332251
Si Si8 0.361441 0.834974 0.318818
O O1 0.002070 0.500000 0.838963
O O2 0.102486 0.659185 0.952511
O O3 0.003698 0.764478 0.747019
O O4 0.000000 0.722592 0.000000
O O5 0.280277 0.500000 0.081271
O O6 0.305835 0.747193 0.200722
O O7 0.211764 0.722914 0.951974
O O8 0.319311 0.696673 0.944027
O O9 0.470774 0.801680 0.720409
O O10 0.577059 0.803279 0.710067
O O11 0.550336 0.000000 0.870910
O O12 0.562907 0.737981 0.962548
O O13 0.847735 0.500000 0.198143
O O14 0.890881 0.243975 0.292255
O O15 0.391262 0.500000 0.899586
O O16 0.367950 0.740157 0.749177
O O17 0.629067 0.787777 0.514558
O O18 0.613757 0.000000 0.324068
O O19 0.000000 0.164992 0.500000
O O20 0.938665 0.000000 0.274070
O O21 0.344366 0.000000 0.294857
#
# Coordination Sequence:
#
# PCOD8059874 Si02
#       8
#     4   4   4   4   4   4   4   4
#     4   8  15  28  48  72  95 120 154 188 221 263
#     4   9  18  34  51  66  88 120 159 193 225 268
#     4   9  17  31  49  68  89 118 153 188 230 280
#     4   8  16  30  50  69  90 121 158 192 220 262
#     4  10  20  31  46  68  93 120 152 191 232 274
#     4  10  19  31  47  67  93 120 149 188 235 281
#     4   9  17  28  45  72 102 125 148 181 226 270
#     4   9  18  31  49  70  90 116 153 193 230 273
#
# _framework density 15.996109000000001
#
# number of rings (size 3 to 8) (size 9 to 14) (size 15 to 20)
#    0.750    2.250    0.000    1.125    0.000    6.250 
#    0.000    0.000    2.750    3.750    0.000    0.000 
#    0.000    0.000    0.000    0.000    0.000    0.000 
#
# Total GULP energy -396518.091814 kJ/mol
# GULP energy per Si atom -12391.190369 kJ/mol
# Density = 1.595970 g / cm^3
# Si number density = 15.996109 Si / 1000 Ang^3
#
#
#
# Elastic Constant Matrix: (Units=GPa)
#
#
# Indices 1 2 3 4 5 6 
#
# 1 64.8296 37.5509 40.4821 0.0000 9.2976 0.0000
# 2 37.5509 84.1399 63.9739 0.0000 3.5863 0.0000
# 3 40.4821 63.9739 108.1159 0.0000 -3.2111 0.0000
# 4 0.0000 0.0000 0.0000 22.8368 0.0000 3.9800
# 5 9.2976 3.5863 -3.2111 0.0000 23.1900 0.0000
# 6 0.0000 0.0000 0.0000 3.9800 0.0000 25.1274
#
#
#
# Elastic Compliance Matrix: (Units=1/GPa)
#
#
# Indices 1 2 3 4 5 6 
#
# 1 0.023720 -0.005855 -0.005696 0.000000 -0.009394 0.000000
# 2 -0.005855 0.023676 -0.011905 0.000000 -0.002963 0.000000
# 3 -0.005696 -0.011905 0.018626 0.000000 0.006704 0.000000
# 4 0.000000 0.000000 0.000000 0.045032 0.000000 -0.007133
# 5 -0.009394 -0.002963 0.006704 0.000000 0.048275 0.000000
# 6 0.000000 0.000000 0.000000 -0.007133 0.000000 0.040927
#
#
# Mechanical properties :
#
#
# Convention : Reuss Voigt Hill
#
# Bulk Modulus (GPa) = 52.32957 60.12214 56.22585
# Shear Modulus (GPa) = 19.72081 21.90273 20.81177
#
# Velocity S-wave (km/s) = 3.51501 3.70436 3.61092
# Velocity P-wave (km/s) = 7.01845 7.48087 7.25335
#
# Compressibility (1/GPa) = 0.01910966
#
# Stress axis : x y z
#
# Youngs Moduli (GPa) = 42.15764 42.23665 53.68854
#
# Poissons Ratio (x) = 0.24728 0.30583
# Poissons Ratio (y) = 0.24682 0.63918
# Poissons Ratio (z) = 0.24015 0.50284
#
# Static dielectric constant tensor:
#      x y z
#    x 2.902780 0.000000 -0.045910 
#    y 0.000000 3.132400 0.000000 
#    z -0.045910 0.000000 2.911910 
# 
# 
# High freq. dielectric constant tensor:
#      x y z
#    x 1.596970 0.000000 -0.003340 
#    y 0.000000 1.618630 0.000000 
#    z -0.003340 0.000000 1.599590 
# 
# From -- ./inp_files/36599.got.cif
#   From: 2010.06.25/outbox.cif.g09.slc.cpg/sg10_19_cif.got.tgz:36599.got - 2010.06.27 22:07:45.
