data_PCOD8059314
_publ_section_title
;
Structure prediction by ZEFSAII (Michael W. Deem and Ramdas Pophale) SiO2 
 PCOD8059314
Probable space group: P 2/M
;
_chemical_formula_sum "Si O2"
_cell_formula_units_Z 28
_cell_length_a 18.794008
_cell_length_b 9.329477
_cell_length_c 17.858904
_cell_angle_alpha 90.000000
_cell_angle_beta 147.599831
_cell_angle_gamma 90.000000
_cell_volume 1677.868630
_symmetry_space_group_name_H-M "P 2/M"
_symmetry_group_IT_number 10
_symmetry_cell_setting 'monoclinic'
loop_
_space_group_symop_operation_xyz
x,y,z
-x,y,-z
-x,-y,-z
x,-y,z
loop_
_atom_site_type_symbol
_atom_site_label
_atom_site_fract_x
_atom_site_fract_y
_atom_site_fract_z
Si Si1 0.644199 0.170124 0.638479
Si Si2 0.378760 0.160907 0.221891
Si Si3 0.148885 0.835062 0.608517
Si Si4 0.633206 0.166695 0.076222
Si Si5 0.278051 0.332746 0.592160
Si Si6 0.693378 0.160821 0.524157
Si Si7 0.413971 0.667402 0.111889
O O1 0.500000 0.242752 0.500000
O O2 0.697937 0.212559 0.769564
O O3 0.733307 0.213141 0.644662
O O4 0.628377 0.000000 0.622985
O O5 0.534740 0.162250 0.377668
O O6 0.343958 0.268230 0.123622
O O7 0.334369 0.000000 0.159687
O O8 0.242340 0.796987 0.761210
O O9 0.182412 0.736869 0.568002
O O10 0.000000 0.801218 0.500000
O O11 0.168774 0.000000 0.602353
O O12 0.625788 0.000000 0.047532
O O13 0.500000 0.215326 0.000000
O O14 0.651611 0.258700 0.017966
O O15 0.249133 0.500000 0.562904
O O16 0.242518 0.266843 0.479545
O O17 0.429505 0.298547 0.748746
O O18 0.746710 0.000000 0.556157
O O19 0.384061 0.500000 0.082803
#
# Coordination Sequence:
#
# PCOD8059314 Si02
#       7
#     4   4   4   4   4   4   4
#     4   7  10  18  33  54  78 109 148 185 220 259
#     4   8  13  22  37  56  82 115 150 186 223 263
#     4  10  21  36  52  69  89 114 148 191 233 270
#     4  10  19  32  51  70  87 113 151 188 225 271
#     4  10  19  29  42  63  91 120 151 185 224 269
#     4   8  13  22  38  57  80 113 152 188 221 261
#     4  10  19  28  41  64  92 120 151 186 223 263
#
# _framework density 16.687837999999999
#
# number of rings (size 3 to 8) (size 9 to 14) (size 15 to 20)
#    0.000    3.000    1.429    2.571    0.000    2.286 
#    0.000    0.714    0.000    4.286    0.000    0.000 
#    0.000    1.143    0.000   13.143    0.000    9.143 
#
# Total GULP energy -346961.965904 kJ/mol
# GULP energy per Si atom -12391.498782 kJ/mol
# Density = 1.664986 g / cm^3
# Si number density = 16.687838 Si / 1000 Ang^3
#
#
#
# Elastic Constant Matrix: (Units=GPa)
#
#
# Indices 1 2 3 4 5 6 
#
# 1 128.6695 71.9400 59.0632 0.0000 -43.5486 0.0000
# 2 71.9400 81.5259 35.1129 0.0000 -22.5606 0.0000
# 3 59.0632 35.1129 61.5892 0.0000 -15.7436 0.0000
# 4 0.0000 0.0000 0.0000 7.1479 0.0000 0.6536
# 5 -43.5486 -22.5606 -15.7436 0.0000 30.3950 0.0000
# 6 0.0000 0.0000 0.0000 0.6536 0.0000 6.2465
#
#
#
# Elastic Compliance Matrix: (Units=1/GPa)
#
#
# Indices 1 2 3 4 5 6 
#
# 1 0.032147 -0.013925 -0.015858 0.000000 0.027510 0.000000
# 2 -0.013925 0.024377 -0.001174 0.000000 -0.002465 0.000000
# 3 -0.015858 -0.001174 0.030064 0.000000 -0.008020 0.000000
# 4 0.000000 0.000000 0.000000 0.141252 0.000000 -0.014780
# 5 0.027510 -0.002465 -0.008020 0.000000 0.066331 0.000000
# 6 0.000000 0.000000 0.000000 -0.014780 0.000000 0.161636
#
#
# Mechanical properties :
#
#
# Convention : Reuss Voigt Hill
#
# Bulk Modulus (GPa) = 40.52867 67.11299 53.82083
# Shear Modulus (GPa) = 9.50669 15.80245 12.65457
#
# Velocity S-wave (km/s) = 2.38938 3.08058 2.75673
# Velocity P-wave (km/s) = 5.65255 7.27718 6.51570
#
# Compressibility (1/GPa) = 0.02467389
#
# Stress axis : x y z
#
# Youngs Moduli (GPa) = 31.10680 41.02225 33.26292
#
# Poissons Ratio (x) = 0.57122 0.52748
# Poissons Ratio (y) = 0.43315 0.03906
# Poissons Ratio (z) = 0.49329 0.04817
#
# Static dielectric constant tensor:
#      x y z
#    x 3.322540 0.000000 -0.447480 
#    y 0.000000 2.985880 0.000000 
#    z -0.447480 0.000000 2.808240 
# 
# 
# High freq. dielectric constant tensor:
#      x y z
#    x 1.643000 0.000000 -0.044390 
#    y 0.000000 1.627940 0.000000 
#    z -0.044390 0.000000 1.592680 
# 
# From -- ./inp_files/79319.got.cif
#   From: 2010.06.25/outbox.cif.g09.slc.cpg/sg10_40_cif.got.tgz:79319.got - 2010.06.27 22:07:45.
