data_PCOD8059809
_publ_section_title
;
Structure prediction by ZEFSAII (Michael W. Deem and Ramdas Pophale) SiO2 
 PCOD8059809
Probable space group: P 2/M
;
_chemical_formula_sum "Si O2"
_cell_formula_units_Z 32
_cell_length_a 24.015454
_cell_length_b 8.897296
_cell_length_c 13.805905
_cell_angle_alpha 90.000000
_cell_angle_beta 43.412512
_cell_angle_gamma 90.000000
_cell_volume 2027.337451
_symmetry_space_group_name_H-M "P 2/M"
_symmetry_group_IT_number 10
_symmetry_cell_setting 'monoclinic'
loop_
_space_group_symop_operation_xyz
x,y,z
-x,y,-z
-x,-y,-z
x,-y,z
loop_
_atom_site_type_symbol
_atom_site_label
_atom_site_fract_x
_atom_site_fract_y
_atom_site_fract_z
Si Si1 0.069601 0.830414 0.199159
Si Si2 0.167648 0.674184 0.222322
Si Si3 0.667164 0.675022 0.889809
Si Si4 0.030566 0.822671 0.856056
Si Si5 0.902511 0.828899 0.509127
Si Si6 0.492090 0.666009 0.124852
Si Si7 0.824245 0.322659 0.428676
Si Si8 0.668348 0.823458 0.681826
O O1 0.143458 0.727093 0.144334
O O2 0.037010 0.770687 0.136652
O O3 0.997598 0.821269 0.368164
O O4 0.101949 0.000000 0.147550
O O5 0.147023 0.500000 0.261685
O O6 0.262499 0.706895 0.121148
O O7 0.112848 0.771091 0.363923
O O8 0.665287 0.500000 0.860493
O O9 0.682619 0.771343 0.774114
O O10 0.581255 0.718756 0.049468
O O11 0.115834 0.741793 0.728926
O O12 0.045392 0.000000 0.826733
O O13 0.000000 0.775247 0.000000
O O14 0.854279 0.721655 0.497331
O O15 0.871059 0.000000 0.536691
O O16 0.470726 0.500000 0.191899
O O17 0.420744 0.778940 0.245741
O O18 0.500000 0.661580 0.000000
O O19 0.820002 0.500000 0.424024
O O20 0.734706 0.253462 0.527958
O O21 0.678236 0.000000 0.663257
#
# Coordination Sequence:
#
# PCOD8059809 Si02
#       8
#     4   4   4   4   4   4   4   4
#     4   9  19  32  45  63  87 114 146 183 224 266
#     4  11  20  28  42  63  89 121 155 186 217 260
#     4   9  18  30  41  57  85 122 156 187 225 262
#     4   9  19  37  56  70  88 115 146 184 232 277
#     4  10  19  31  44  60  85 119 154 189 225 259
#     4   8  15  28  42  55  80 117 152 187 226 262
#     4  11  20  30  46  68  92 118 150 186 226 270
#     4  11  19  27  42  63  87 116 153 191 223 260
#
# _framework density 15.784249000000001
#
# number of rings (size 3 to 8) (size 9 to 14) (size 15 to 20)
#    0.000    2.250    1.250    4.875    0.000    7.000 
#    0.000    0.000    0.000    0.000    0.000    0.000 
#    0.000    1.000    0.000   11.500    0.000    3.500 
#
# Total GULP energy -396710.746891 kJ/mol
# GULP energy per Si atom -12397.210840 kJ/mol
# Density = 1.574832 g / cm^3
# Si number density = 15.784249 Si / 1000 Ang^3
#
#
#
# Elastic Constant Matrix: (Units=GPa)
#
#
# Indices 1 2 3 4 5 6 
#
# 1 89.3985 38.4916 56.3217 0.0000 -14.2598 0.0000
# 2 38.4916 92.5613 48.5497 0.0000 -11.4984 0.0000
# 3 56.3217 48.5497 84.0300 0.0000 -10.1397 0.0000
# 4 0.0000 0.0000 0.0000 17.8744 0.0000 -4.1619
# 5 -14.2598 -11.4984 -10.1397 0.0000 19.9294 0.0000
# 6 0.0000 0.0000 0.0000 -4.1619 0.0000 20.3548
#
#
#
# Elastic Compliance Matrix: (Units=1/GPa)
#
#
# Indices 1 2 3 4 5 6 
#
# 1 0.020639 -0.001216 -0.012181 0.000000 0.007868 0.000000
# 2 -0.001216 0.015993 -0.007902 0.000000 0.004337 0.000000
# 3 -0.012181 -0.007902 0.024535 0.000000 -0.000792 0.000000
# 4 0.000000 0.000000 0.000000 0.058743 0.000000 0.012011
# 5 0.007868 0.004337 -0.000792 0.000000 0.057906 0.000000
# 6 0.000000 0.000000 0.000000 0.012011 0.000000 0.051584
#
#
# Mechanical properties :
#
#
# Convention : Reuss Voigt Hill
#
# Bulk Modulus (GPa) = 53.85498 61.41286 57.63392
# Shear Modulus (GPa) = 17.97355 19.80684 18.89020
#
# Velocity S-wave (km/s) = 3.37813 3.54623 3.46320
# Velocity P-wave (km/s) = 7.02917 7.46725 7.25152
#
# Compressibility (1/GPa) = 0.01856838
#
# Stress axis : x y z
#
# Youngs Moduli (GPa) = 48.45249 62.52905 40.75831
#
# Poissons Ratio (x) = 0.07603 0.49649
# Poissons Ratio (y) = 0.05891 0.32206
# Poissons Ratio (z) = 0.59022 0.49408
#
# Static dielectric constant tensor:
#      x y z
#    x 3.045420 0.000000 -0.377720 
#    y 0.000000 3.000960 0.000000 
#    z -0.377720 0.000000 2.925200 
# 
# 
# High freq. dielectric constant tensor:
#      x y z
#    x 1.586130 0.000000 -0.034680 
#    y 0.000000 1.612470 0.000000 
#    z -0.034680 0.000000 1.570740 
# 
# From -- ./inp_files/72025.got.cif
#   From: 2010.06.25/outbox.cif.g09.slc.cpg/sg10_37_cif.got.tgz:72025.got - 2010.06.27 22:07:45.
