data_PCOD8059353
_publ_section_title
;
Structure prediction by ZEFSAII (Michael W. Deem and Ramdas Pophale) SiO2 
 PCOD8059353
Probable space group: P 2/M
;
_chemical_formula_sum "Si O2"
_cell_formula_units_Z 32
_cell_length_a 16.477343
_cell_length_b 8.908186
_cell_length_c 23.254580
_cell_angle_alpha 90.000000
_cell_angle_beta 31.189391
_cell_angle_gamma 90.000000
_cell_volume 1767.683688
_symmetry_space_group_name_H-M "P 2/M"
_symmetry_group_IT_number 10
_symmetry_cell_setting 'monoclinic'
loop_
_space_group_symop_operation_xyz
x,y,z
-x,y,-z
-x,-y,-z
x,-y,z
loop_
_atom_site_type_symbol
_atom_site_label
_atom_site_fract_x
_atom_site_fract_y
_atom_site_fract_z
Si Si1 0.000739 0.324357 0.783924
Si Si2 0.745590 0.676848 0.280223
Si Si3 0.474542 0.823754 0.381950
Si Si4 0.849964 0.673126 0.420693
Si Si5 0.256307 0.322304 0.974019
Si Si6 0.468051 0.177314 0.254995
Si Si7 0.999497 0.836992 0.935603
Si Si8 0.860533 0.326075 0.543908
O O1 0.997067 0.500000 0.797226
O O2 0.158316 0.265433 0.721397
O O3 0.014861 0.283650 0.707855
O O4 0.836604 0.264862 0.911492
O O5 0.723802 0.500000 0.293369
O O6 0.575164 0.747894 0.372113
O O7 0.847657 0.735857 0.165603
O O8 0.296695 0.778943 0.502451
O O9 0.517210 0.772282 0.290349
O O10 0.495219 0.000000 0.375204
O O11 0.798116 0.500000 0.443468
O O12 0.917049 0.699112 0.443842
O O13 0.277829 0.500000 0.960323
O O14 0.150497 0.265263 0.986039
O O15 0.425721 0.248867 0.860062
O O16 0.291567 0.229145 0.349489
O O17 0.478258 0.000000 0.243061
O O18 0.999618 0.000000 0.902095
O O19 0.000000 0.883273 0.000000
O O20 0.820701 0.500000 0.579532
O O21 0.000000 0.269202 0.500000
#
# Coordination Sequence:
#
# PCOD8059353 Si02
#       8
#     4   4   4   4   4   4   4   4
#     4   8  17  32  48  68  93 127 168 203 236 278
#     4  10  19  30  44  63  89 125 170 209 240 278
#     4  10  20  32  45  67  98 127 162 207 249 286
#     4   9  17  33  54  71  94 127 158 192 240 293
#     4  10  19  31  48  69  94 125 164 204 236 276
#     4  10  20  33  50  73 101 131 160 193 240 292
#     4  10  19  29  41  60  89 124 162 205 250 289
#     4   9  18  33  56  84 104 119 148 192 239 289
#
# _framework density 18.102785000000001
#
# number of rings (size 3 to 8) (size 9 to 14) (size 15 to 20)
#    0.000    2.500    0.000    3.375    0.000    6.250 
#    0.000    6.250    0.000    0.750    0.000    5.250 
#    0.000    0.000    0.000    0.000    0.000    0.000 
#
# Total GULP energy -396418.144540 kJ/mol
# GULP energy per Si atom -12388.067017 kJ/mol
# Density = 1.806158 g / cm^3
# Si number density = 18.102785 Si / 1000 Ang^3
#
#
#
# Elastic Constant Matrix: (Units=GPa)
#
#
# Indices 1 2 3 4 5 6 
#
# 1 76.2042 24.8578 55.7439 0.0000 6.6067 0.0000
# 2 24.8578 60.5002 33.6501 0.0000 0.5311 0.0000
# 3 55.7439 33.6501 122.8760 0.0000 12.7154 0.0000
# 4 0.0000 0.0000 0.0000 1.0991 0.0000 8.1666
# 5 6.6067 0.5311 12.7154 0.0000 18.7769 0.0000
# 6 0.0000 0.0000 0.0000 8.1666 0.0000 7.8688
#
#
#
# Elastic Compliance Matrix: (Units=1/GPa)
#
#
# Indices 1 2 3 4 5 6 
#
# 1 0.020404 -0.003911 -0.008016 0.000000 -0.001640 0.000000
# 2 -0.003911 0.020440 -0.004200 0.000000 0.003642 0.000000
# 3 -0.008016 -0.004200 0.013572 0.000000 -0.006251 0.000000
# 4 0.000000 0.000000 0.000000 -0.135567 0.000000 0.140697
# 5 -0.001640 0.003642 -0.006251 0.000000 0.057965 0.000000
# 6 0.000000 0.000000 0.000000 0.140697 0.000000 -0.018936
#
#
# Mechanical properties :
#
#
# Convention : Reuss Voigt Hill
#
# Bulk Modulus (GPa) = 45.12166 54.23153 49.67660
# Shear Modulus (GPa) = -2014.85334 15.23754 -999.80790
#
# Velocity S-wave (km/s) = -33.39796 2.90439 -23.52645
# Velocity P-wave (km/s) = 38.23941 6.42417 26.65504
#
# Compressibility (1/GPa) = 0.02216230
#
# Stress axis : x y z
#
# Youngs Moduli (GPa) = 49.00958 48.92387 73.68149
#
# Poissons Ratio (x) = 0.19133 0.59062
# Poissons Ratio (y) = 0.19166 0.30949
# Poissons Ratio (z) = 0.39285 0.20550
#
# Static dielectric constant tensor:
#      x y z
#    x 3.166800 0.000000 0.120640 
#    y 0.000000 3.278080 0.000000 
#    z 0.120640 0.000000 3.447460 
# 
# 
# High freq. dielectric constant tensor:
#      x y z
#    x 1.664330 0.000000 0.005770 
#    y 0.000000 1.701240 0.000000 
#    z 0.005770 0.000000 1.699390 
# 
# From -- ./inp_files/89925.got.cif
#   From: 2010.06.25/outbox.cif.g09.slc.cpg/sg10_45_cif.got.tgz:89925.got - 2010.06.27 22:07:45.
