data_PCOD8059458
_publ_section_title
;
Structure prediction by ZEFSAII (Michael W. Deem and Ramdas Pophale) SiO2 
 PCOD8059458
Probable space group: P 2/M
;
_chemical_formula_sum "Si O2"
_cell_formula_units_Z 28
_cell_length_a 5.522485
_cell_length_b 24.516670
_cell_length_c 11.530543
_cell_angle_alpha 90.000000
_cell_angle_beta 94.148153
_cell_angle_gamma 90.000000
_cell_volume 1557.064454
_symmetry_space_group_name_H-M "P 2/M"
_symmetry_group_IT_number 10
_symmetry_cell_setting 'monoclinic'
loop_
_space_group_symop_operation_xyz
x,y,z
-x,y,-z
-x,-y,-z
x,-y,z
loop_
_atom_site_type_symbol
_atom_site_label
_atom_site_fract_x
_atom_site_fract_y
_atom_site_fract_z
Si Si1 0.053979 0.220062 0.628362
Si Si2 0.000000 0.787837 0.000000
Si Si3 0.521884 0.386872 0.133696
Si Si4 0.258869 0.000000 0.570696
Si Si5 0.022801 0.562774 0.137757
Si Si6 0.297636 0.177449 0.209406
Si Si7 0.662276 0.734118 0.163292
Si Si8 0.612551 0.885492 0.375769
O O1 0.199596 0.264640 0.708029
O O2 0.190066 0.162069 0.625537
O O3 0.000000 0.244615 0.500000
O O4 0.799183 0.209898 0.682090
O O5 0.828431 0.743637 0.056794
O O6 0.096659 0.830367 0.101877
O O7 0.278944 0.410054 0.189530
O O8 0.518219 0.321978 0.148680
O O9 0.781860 0.410344 0.189382
O O10 0.500000 0.404753 0.000000
O O11 0.500000 0.000000 0.500000
O O12 0.266265 0.055661 0.646030
O O13 0.000000 0.000000 0.500000
O O14 0.029857 0.500000 0.175032
O O15 0.000000 0.570703 0.000000
O O16 0.486626 0.214854 0.149993
O O17 0.414707 0.122251 0.265407
O O18 0.500000 0.884132 0.500000
#
# Coordination Sequence:
#
# PCOD8059458 Si02
#       8
#     4   2   4   2   4   4   4   4
#     4  10  19  33  53  74 108 141 174 216 272 328
#     4  10  20  34  50  73 109 140 192 216 262 320
#     4  10  19  29  48  68 101 136 175 218 259 313
#     4  10  22  34  56  83 113 139 178 234 269 323
#     4   9  18  30  45  67  97 137 175 214 262 313
#     4  10  20  33  52  76 107 144 178 223 262 329
#     4  10  22  31  50  76 104 142 181 224 262 321
#     4  10  19  33  53  79 108 140 180 219 275 321
#
# _framework density 17.982558999999998
#
# number of rings (size 3 to 8) (size 9 to 14) (size 15 to 20)
#    0.000    2.143    1.429    2.143    9.000    1.714 
#    0.000    0.000    0.000    0.429    0.000   13.000 
#    0.000    3.429    0.000    0.000    0.000    0.000 
#
# Total GULP energy -346882.907621 kJ/mol
# GULP energy per Si atom -12388.675272 kJ/mol
# Density = 1.794163 g / cm^3
# Si number density = 17.982559 Si / 1000 Ang^3
#
#
#
# Elastic Constant Matrix: (Units=GPa)
#
#
# Indices 1 2 3 4 5 6 
#
# 1 111.5148 38.6938 25.0321 0.0000 3.2530 0.0000
# 2 38.6938 92.0790 18.4274 0.0000 8.5702 0.0000
# 3 25.0321 18.4274 85.6523 0.0000 8.6259 0.0000
# 4 0.0000 0.0000 0.0000 12.6005 0.0000 10.6777
# 5 3.2530 8.5702 8.6259 0.0000 24.6337 0.0000
# 6 0.0000 0.0000 0.0000 10.6777 0.0000 23.7157
#
#
#
# Elastic Compliance Matrix: (Units=1/GPa)
#
#
# Indices 1 2 3 4 5 6 
#
# 1 0.010933 -0.004197 -0.002378 0.000000 0.000849 0.000000
# 2 -0.004197 0.013210 -0.001252 0.000000 -0.003603 0.000000
# 3 -0.002378 -0.001252 0.013023 0.000000 -0.003811 0.000000
# 4 0.000000 0.000000 0.000000 0.128320 0.000000 -0.057774
# 5 0.000849 -0.003603 -0.003811 0.000000 0.043071 0.000000
# 6 0.000000 0.000000 0.000000 -0.057774 0.000000 0.068178
#
#
# Mechanical properties :
#
#
# Convention : Reuss Voigt Hill
#
# Bulk Modulus (GPa) = 46.48779 50.39475 48.44127
# Shear Modulus (GPa) = 16.69114 25.99617 21.34366
#
# Velocity S-wave (km/s) = 3.04992 3.80627 3.44889
# Velocity P-wave (km/s) = 6.18954 6.88491 6.54646
#
# Compressibility (1/GPa) = 0.02151102
#
# Stress axis : x y z
#
# Youngs Moduli (GPa) = 91.46793 75.69962 76.78617
#
# Poissons Ratio (x) = 0.31774 0.18257
# Poissons Ratio (y) = 0.38393 0.09617
# Poissons Ratio (z) = 0.21747 0.09481
#
# Static dielectric constant tensor:
#      x y z
#    x 3.771510 0.000000 0.111990 
#    y 0.000000 3.277110 0.000000 
#    z 0.111990 0.000000 3.207780 
# 
# 
# High freq. dielectric constant tensor:
#      x y z
#    x 1.722260 0.000000 0.003230 
#    y 0.000000 1.673000 0.000000 
#    z 0.003230 0.000000 1.654760 
# 
# From -- ./inp_files/39884.got.cif
#   From: 2010.06.25/outbox.cif.g09.slc.cpg/sg10_20_cif.got.tgz:39884.got - 2010.06.27 22:07:45.
