data_PCOD8059064
_publ_section_title
;
Structure prediction by ZEFSAII (Michael W. Deem and Ramdas Pophale) SiO2 
 PCOD8059064
Probable space group: P 2/M
;
_chemical_formula_sum "Si O2"
_cell_formula_units_Z 32
_cell_length_a 19.850660
_cell_length_b 8.631235
_cell_length_c 12.280951
_cell_angle_alpha 90.000000
_cell_angle_beta 51.109842
_cell_angle_gamma 90.000000
_cell_volume 1637.779314
_symmetry_space_group_name_H-M "P 2/M"
_symmetry_group_IT_number 10
_symmetry_cell_setting 'monoclinic'
loop_
_space_group_symop_operation_xyz
x,y,z
-x,y,-z
-x,-y,-z
x,-y,z
loop_
_atom_site_type_symbol
_atom_site_label
_atom_site_fract_x
_atom_site_fract_y
_atom_site_fract_z
Si Si1 0.097892 0.819694 0.388502
Si Si2 0.247073 0.316233 0.383948
Si Si3 0.248661 0.315333 0.629308
Si Si4 0.906250 0.315340 0.062120
Si Si5 0.403196 0.314743 0.076668
Si Si6 0.595968 0.685208 0.379576
Si Si7 0.652264 0.328082 0.095233
Si Si8 0.145202 0.327161 0.120048
O O1 0.160549 0.732859 0.408804
O O2 0.124290 0.789142 0.237911
O O3 0.000000 0.758299 0.500000
O O4 0.104538 0.000000 0.407980
O O5 0.249142 0.500000 0.383064
O O6 0.245285 0.250658 0.509176
O O7 0.333933 0.252474 0.235922
O O8 0.246827 0.500000 0.629668
O O9 0.166291 0.250859 0.780815
O O10 0.336815 0.254731 0.597160
O O11 0.902145 0.500000 0.067260
O O12 0.891805 0.255834 0.954025
O O13 0.000000 0.251642 0.000000
O O14 0.398672 0.500000 0.080464
O O15 0.500000 0.254370 0.000000
O O16 0.377495 0.243154 0.985197
O O17 0.500000 0.746124 0.500000
O O18 0.601067 0.500000 0.370980
O O19 0.620108 0.757260 0.237171
O O20 0.610872 0.500000 0.135492
O O21 0.753784 0.340615 0.997271
O O22 0.107489 0.500000 0.182314
#
# Coordination Sequence:
#
# PCOD8059064 Si02
#       8
#     4   4   4   4   4   4   4   4
#     4  11  25  41  55  74 104 139 175 221 277 325
#     4  10  20  34  54  80 107 139 179 217 258 313
#     4   9  17  28  42  70 108 135 165 209 252 304
#     4   9  17  28  45  74 105 130 157 205 265 303
#     4   9  17  27  43  72 107 137 168 212 259 298
#     4   9  16  24  38  65 106 148 172 197 253 314
#     4   9  15  26  43  67 101 137 172 210 251 297
#     4  10  18  33  57  79 102 134 176 219 257 307
#
# _framework density 19.538653
#
# number of rings (size 3 to 8) (size 9 to 14) (size 15 to 20)
#    0.000    2.500    2.500    0.375    3.500    1.000 
#    0.000    0.000    0.000    1.500    0.000    0.000 
#    0.000    1.000    0.000    0.000    0.000    0.000 
#
# Total GULP energy -396637.509190 kJ/mol
# GULP energy per Si atom -12394.922162 kJ/mol
# Density = 1.949418 g / cm^3
# Si number density = 19.538653 Si / 1000 Ang^3
#
#
#
# Elastic Constant Matrix: (Units=GPa)
#
#
# Indices 1 2 3 4 5 6 
#
# 1 169.5759 2.9006 78.0759 0.0000 8.4287 0.0000
# 2 2.9006 6.7953 5.9871 0.0000 -0.6905 0.0000
# 3 78.0759 5.9871 141.6046 0.0000 9.3332 0.0000
# 4 0.0000 0.0000 0.0000 6.1801 0.0000 -1.0750
# 5 8.4287 -0.6905 9.3332 0.0000 45.1819 0.0000
# 6 0.0000 0.0000 0.0000 -1.0750 0.0000 5.4782
#
#
#
# Elastic Compliance Matrix: (Units=1/GPa)
#
#
# Indices 1 2 3 4 5 6 
#
# 1 0.007920 0.000390 -0.004345 0.000000 -0.000574 0.000000
# 2 0.000390 0.153494 -0.006949 0.000000 0.003709 0.000000
# 3 -0.004345 -0.006949 0.009839 0.000000 -0.001328 0.000000
# 4 0.000000 0.000000 0.000000 0.167529 0.000000 0.032875
# 5 -0.000574 0.003709 -0.001328 0.000000 0.022571 0.000000
# 6 0.000000 0.000000 0.000000 0.032875 0.000000 0.188991
#
#
# Mechanical properties :
#
#
# Convention : Reuss Voigt Hill
#
# Bulk Modulus (GPa) = 6.69150 54.65589 30.67370
# Shear Modulus (GPa) = 8.03900 26.76886 17.40393
#
# Velocity S-wave (km/s) = 2.03060 3.70543 2.98777
# Velocity P-wave (km/s) = 2.98831 6.80741 5.25694
#
# Compressibility (1/GPa) = 0.14944338
#
# Stress axis : x y z
#
# Youngs Moduli (GPa) = 126.27002 6.51490 101.63567
#
# Poissons Ratio (x) = -0.00254 0.44163
# Poissons Ratio (y) = -0.04920 0.70628
# Poissons Ratio (z) = 0.54867 0.04527
#
# Static dielectric constant tensor:
#      x y z
#    x 3.775640 0.000000 0.064080 
#    y 0.000000 2.794220 0.000000 
#    z 0.064080 0.000000 3.782830 
# 
# 
# High freq. dielectric constant tensor:
#      x y z
#    x 1.777490 0.000000 0.005440 
#    y 0.000000 1.677510 0.000000 
#    z 0.005440 0.000000 1.776310 
# 
# From -- ./inp_files/55277.got.cif
#   From: 2010.06.25/outbox.cif.g09.slc.cpg/sg10_28_cif.got.tgz:55277.got - 2010.06.27 22:07:45.
