data_PCOD8059748
_publ_section_title
;
Structure prediction by ZEFSAII (Michael W. Deem and Ramdas Pophale) SiO2 
 PCOD8059748
Probable space group: P 2/M
;
_chemical_formula_sum "Si O2"
_cell_formula_units_Z 28
_cell_length_a 9.576763
_cell_length_b 32.507232
_cell_length_c 5.052090
_cell_angle_alpha 90.000000
_cell_angle_beta 113.151325
_cell_angle_gamma 90.000000
_cell_volume 1446.129616
_symmetry_space_group_name_H-M "P 2/M"
_symmetry_group_IT_number 10
_symmetry_cell_setting 'monoclinic'
loop_
_space_group_symop_operation_xyz
x,y,z
-x,y,-z
-x,-y,-z
x,-y,z
loop_
_atom_site_type_symbol
_atom_site_label
_atom_site_fract_x
_atom_site_fract_y
_atom_site_fract_z
Si Si1 0.677678 0.742945 0.121861
Si Si2 0.678697 0.453323 0.637592
Si Si3 0.321670 0.206639 0.376948
Si Si4 0.100184 0.672601 0.816404
Si Si5 0.893771 0.956670 0.670166
Si Si6 0.837724 0.420308 0.273599
Si Si7 0.107391 0.132510 0.329829
O O1 0.726839 0.758099 0.449097
O O2 0.750530 0.700440 0.078300
O O3 0.500000 0.734436 0.000000
O O4 0.727587 0.778135 0.949984
O O5 0.500000 0.445858 0.500000
O O6 0.715426 0.500000 0.578632
O O7 0.735294 0.421519 0.458831
O O8 0.760930 0.446552 0.981655
O O9 0.500000 0.197782 0.500000
O O10 0.241660 0.164939 0.405317
O O11 0.149877 0.625579 0.825726
O O12 0.000000 0.687823 0.500000
O O13 0.000000 0.679035 0.000000
O O14 0.807536 0.912588 0.593467
O O15 0.000000 0.958768 0.500000
O O16 0.795026 0.000000 0.603401
O O17 0.000000 0.955746 0.000000
O O18 0.000000 0.437618 0.500000
O O19 0.000000 0.141019 0.500000
O O20 0.000000 0.136015 0.000000
#
# Coordination Sequence:
#
# PCOD8059748 Si02
#       7
#     4   4   4   4   4   4   4
#     4  10  22  38  56  78 104 140 180 213 259 322
#     4  11  24  41  62  90 121 153 192 235 275 319
#     4  10  21  36  51  73 107 138 168 213 265 314
#     4  11  23  40  60  84 113 142 178 227 273 314
#     4   8  14  25  41  64  94 124 158 206 256 299
#     4  11  23  41  62  88 120 152 188 229 280 337
#     4  10  19  30  49  75  98 128 173 214 253 309
#
# _framework density 19.362027000000001
#
# number of rings (size 3 to 8) (size 9 to 14) (size 15 to 20)
#    0.000    1.857    0.000    4.714    0.000    7.429 
#    0.000    1.429    0.000    0.429    0.000    0.000 
#    0.000   14.857    0.000    0.000    0.000    2.286 
#
# Total GULP energy -346912.867312 kJ/mol
# GULP energy per Si atom -12389.745261 kJ/mol
# Density = 1.931796 g / cm^3
# Si number density = 19.362027 Si / 1000 Ang^3
#
#
#
# Elastic Constant Matrix: (Units=GPa)
#
#
# Indices 1 2 3 4 5 6 
#
# 1 101.3254 62.2919 47.4461 0.0000 -17.8458 0.0000
# 2 62.2919 89.7801 25.5568 0.0000 3.1505 0.0000
# 3 47.4461 25.5568 114.7086 0.0000 -22.3511 0.0000
# 4 0.0000 0.0000 0.0000 22.0454 0.0000 -9.3875
# 5 -17.8458 3.1505 -22.3511 0.0000 30.8704 0.0000
# 6 0.0000 0.0000 0.0000 -9.3875 0.0000 20.4538
#
#
#
# Elastic Compliance Matrix: (Units=1/GPa)
#
#
# Indices 1 2 3 4 5 6 
#
# 1 0.023421 -0.015603 -0.003799 0.000000 0.012382 0.000000
# 2 -0.015603 0.022651 -0.000932 0.000000 -0.012007 0.000000
# 3 -0.003799 -0.000932 0.011744 0.000000 0.006402 0.000000
# 4 0.000000 0.000000 0.000000 0.056380 0.000000 0.025876
# 5 0.012382 -0.012007 0.006402 0.000000 0.045412 0.000000
# 6 0.000000 0.000000 0.000000 0.025876 0.000000 0.060767
#
#
# Mechanical properties :
#
#
# Convention : Reuss Voigt Hill
#
# Bulk Modulus (GPa) = 58.31582 64.04485 61.18033
# Shear Modulus (GPa) = 18.74352 26.04187 22.39269
#
# Velocity S-wave (km/s) = 3.11473 3.67140 3.40446
# Velocity P-wave (km/s) = 6.56654 7.14994 6.86444
#
# Compressibility (1/GPa) = 0.01714801
#
# Stress axis : x y z
#
# Youngs Moduli (GPa) = 42.69668 44.14813 85.14908
#
# Poissons Ratio (x) = 0.68886 0.32344
# Poissons Ratio (y) = 0.66621 0.07938
# Poissons Ratio (z) = 0.16218 0.04116
#
# Static dielectric constant tensor:
#      x y z
#    x 3.416960 0.000000 -0.192490 
#    y 0.000000 3.936020 0.000000 
#    z -0.192490 0.000000 3.733910 
# 
# 
# High freq. dielectric constant tensor:
#      x y z
#    x 1.736070 0.000000 -0.026770 
#    y 0.000000 1.765110 0.000000 
#    z -0.026770 0.000000 1.767440 
# 
# From -- ./inp_files/5474.got.cif
#   From: 2010.06.25/outbox.cif.g09.slc.cpg/sg10_3_cif.got.tgz:5474.got - 2010.06.27 22:07:45.
