data_PCOD8059857
_publ_section_title
;
Structure prediction by ZEFSAII (Michael W. Deem and Ramdas Pophale) SiO2 
 PCOD8059857
Probable space group: P 2/M
;
_chemical_formula_sum "Si O2"
_cell_formula_units_Z 32
_cell_length_a 12.535687
_cell_length_b 9.331045
_cell_length_c 24.216588
_cell_angle_alpha 90.000000
_cell_angle_beta 133.344528
_cell_angle_gamma 90.000000
_cell_volume 2060.007799
_symmetry_space_group_name_H-M "P 2/M"
_symmetry_group_IT_number 10
_symmetry_cell_setting 'monoclinic'
loop_
_space_group_symop_operation_xyz
x,y,z
-x,y,-z
-x,-y,-z
x,-y,z
loop_
_atom_site_type_symbol
_atom_site_label
_atom_site_fract_x
_atom_site_fract_y
_atom_site_fract_z
Si Si1 0.607445 0.833615 0.195244
Si Si2 0.150435 0.338122 0.765360
Si Si3 0.412084 0.831328 0.355160
Si Si4 0.415604 0.835951 0.690095
Si Si5 0.439088 0.661740 0.921335
Si Si6 0.177195 0.667755 0.331154
Si Si7 0.161740 0.335089 0.549461
Si Si8 0.330857 0.336047 0.500241
O O1 0.771777 0.762953 0.253146
O O2 0.532324 0.809311 0.228378
O O3 0.507499 0.756797 0.112426
O O4 0.621927 0.000000 0.185951
O O5 0.134396 0.500000 0.735751
O O6 0.259984 0.338044 0.857716
O O7 0.991131 0.279135 0.725533
O O8 0.456187 0.794357 0.307508
O O9 0.255524 0.757026 0.310393
O O10 0.531225 0.766098 0.439709
O O11 0.400694 0.000000 0.361648
O O12 0.271123 0.744501 0.629034
O O13 0.370524 0.000000 0.664873
O O14 0.500084 0.500000 0.935864
O O15 0.500000 0.728549 0.000000
O O16 0.185302 0.500000 0.319987
O O17 0.258028 0.705557 0.416766
O O18 0.164770 0.500000 0.568255
O O19 0.206584 0.312970 0.501946
O O20 0.000000 0.270107 0.500000
O O21 0.388225 0.500000 0.520580
#
# Coordination Sequence:
#
# PCOD8059857 Si02
#       8
#     4   4   4   4   4   4   4   4
#     4   9  17  29  46  68  93 119 148 178 215 262
#     4   8  17  30  45  68  95 121 144 175 224 268
#     4  10  20  33  46  61  84 117 157 196 231 265
#     4   9  19  33  44  59  88 120 147 184 228 266
#     4   8  15  29  48  71  99 125 145 170 213 266
#     4  10  19  31  47  64  88 117 149 190 233 270
#     4   9  18  28  43  63  82 110 150 189 225 271
#     4   9  18  31  44  61  84 113 150 193 236 272
#
# _framework density 15.533922
#
# number of rings (size 3 to 8) (size 9 to 14) (size 15 to 20)
#    0.750    2.250    0.000    0.750    1.750    4.500 
#    0.000    0.000    0.000    0.000    0.000    0.875 
#    0.000    7.000    0.000    0.000    0.000    0.000 
#
# Total GULP energy -396550.821928 kJ/mol
# GULP energy per Si atom -12392.213185 kJ/mol
# Density = 1.549857 g / cm^3
# Si number density = 15.533922 Si / 1000 Ang^3
#
#
#
# Elastic Constant Matrix: (Units=GPa)
#
#
# Indices 1 2 3 4 5 6 
#
# 1 78.9173 34.0211 39.4934 0.0000 -8.2098 0.0000
# 2 34.0211 59.3030 30.1382 0.0000 -10.0531 0.0000
# 3 39.4934 30.1382 64.9663 0.0000 -17.4215 0.0000
# 4 0.0000 0.0000 0.0000 12.2144 0.0000 -6.8484
# 5 -8.2098 -10.0531 -17.4215 0.0000 18.8464 0.0000
# 6 0.0000 0.0000 0.0000 -6.8484 0.0000 19.9803
#
#
#
# Elastic Compliance Matrix: (Units=1/GPa)
#
#
# Indices 1 2 3 4 5 6 
#
# 1 0.020490 -0.007292 -0.010268 0.000000 -0.004456 0.000000
# 2 -0.007292 0.024794 -0.005816 0.000000 0.004673 0.000000
# 3 -0.010268 -0.005816 0.029652 0.000000 0.019834 0.000000
# 4 0.000000 0.000000 0.000000 0.101348 0.000000 0.034738
# 5 -0.004456 0.004673 0.019834 0.000000 0.071947 0.000000
# 6 0.000000 0.000000 0.000000 0.034738 0.000000 0.061956
#
#
# Mechanical properties :
#
#
# Convention : Reuss Voigt Hill
#
# Bulk Modulus (GPa) = 35.48217 45.61024 40.54621
# Shear Modulus (GPa) = 13.64881 16.84380 15.24631
#
# Velocity S-wave (km/s) = 2.96741 3.29648 3.13626
# Velocity P-wave (km/s) = 5.88490 6.62680 6.26684
#
# Compressibility (1/GPa) = 0.02818317
#
# Stress axis : x y z
#
# Youngs Moduli (GPa) = 48.80426 40.33298 33.72485
#
# Poissons Ratio (x) = 0.29410 0.34629
# Poissons Ratio (y) = 0.35587 0.19615
# Poissons Ratio (z) = 0.50113 0.23458
#
# Static dielectric constant tensor:
#      x y z
#    x 3.001940 0.000000 -0.064150 
#    y 0.000000 2.964470 0.000000 
#    z -0.064150 0.000000 2.749450 
# 
# 
# High freq. dielectric constant tensor:
#      x y z
#    x 1.588050 0.000000 -0.009780 
#    y 0.000000 1.598290 0.000000 
#    z -0.009780 0.000000 1.563400 
# 
# From -- ./inp_files/88548.got.cif
#   From: 2010.06.25/outbox.cif.g09.slc.cpg/sg10_45_cif.got.tgz:88548.got - 2010.06.27 22:07:45.
