data_PCOD8059827
_publ_section_title
;
Structure prediction by ZEFSAII (Michael W. Deem and Ramdas Pophale) SiO2 
 PCOD8059827
Probable space group: P 2/M
;
_chemical_formula_sum "Si O2"
_cell_formula_units_Z 32
_cell_length_a 5.149022
_cell_length_b 13.584653
_cell_length_c 27.517728
_cell_angle_alpha 90.000000
_cell_angle_beta 99.875194
_cell_angle_gamma 90.000000
_cell_volume 1896.282665
_symmetry_space_group_name_H-M "P 2/M"
_symmetry_group_IT_number 10
_symmetry_cell_setting 'monoclinic'
loop_
_space_group_symop_operation_xyz
x,y,z
-x,y,-z
-x,-y,-z
x,-y,z
loop_
_atom_site_type_symbol
_atom_site_label
_atom_site_fract_x
_atom_site_fract_y
_atom_site_fract_z
Si Si1 0.953931 0.388570 0.549718
Si Si2 0.636669 0.817125 0.615460
Si Si3 0.603304 0.882734 0.113075
Si Si4 0.497786 0.611612 0.606585
Si Si5 0.292905 0.117860 0.775265
Si Si6 0.050692 0.117408 0.055653
Si Si7 0.922792 0.885949 0.441502
Si Si8 0.255590 0.112452 0.277779
O O1 0.030722 0.500000 0.541683
O O2 0.191393 0.357238 0.593286
O O3 0.000000 0.330401 0.500000
O O4 0.656521 0.380553 0.560220
O O5 0.621013 0.705792 0.638478
O O6 0.374832 0.851084 0.578541
O O7 0.693173 0.885747 0.663050
O O8 0.876725 0.821058 0.584531
O O9 0.654709 0.842525 0.168832
O O10 0.326833 0.841912 0.084475
O O11 0.826859 0.841934 0.084348
O O12 0.603672 0.000000 0.113480
O O13 0.541274 0.500000 0.630013
O O14 0.512298 0.162271 0.746036
O O15 0.019262 0.162499 0.746419
O O16 0.291234 0.000000 0.773960
O O17 0.050002 0.000000 0.054799
O O18 0.000000 0.158710 0.000000
O O19 0.000000 0.871301 0.500000
O O20 0.952455 0.000000 0.427436
O O21 0.240354 0.000000 0.261007
#
# Coordination Sequence:
#
# PCOD8059827 Si02
#       8
#     4   4   4   4   4   4   4   4
#     4   9  17  30  47  65  87 113 136 161 193 231
#     4  12  23  36  55  73  91 118 146 176 221 266
#     4   9  15  23  34  48  69  97 128 163 209 253
#     4  10  21  34  48  69  94 116 140 170 206 252
#     4   9  17  28  42  59  78 101 130 171 220 261
#     4   9  15  21  30  46  69  98 132 167 201 241
#     4  11  24  40  55  72  94 118 146 178 213 263
#     4  10  19  31  46  63  81 101 133 175 217 259
#
# _framework density 16.875121
#
# number of rings (size 3 to 8) (size 9 to 14) (size 15 to 20)
#    0.000    2.125    0.000    4.500    0.000   11.000 
#    0.000    0.000    0.000    0.000    0.000    0.000 
#    0.000    0.000    0.000    0.000    0.000    0.000 
#
# Total GULP energy -396427.831140 kJ/mol
# GULP energy per Si atom -12388.369723 kJ/mol
# Density = 1.683671 g / cm^3
# Si number density = 16.875121 Si / 1000 Ang^3
#
#
#
# Elastic Constant Matrix: (Units=GPa)
#
#
# Indices 1 2 3 4 5 6 
#
# 1 146.9812 0.6755 61.4779 0.0000 4.8976 0.0000
# 2 0.6755 43.3357 -3.6495 0.0000 6.3817 0.0000
# 3 61.4779 -3.6495 111.7917 0.0000 2.1442 0.0000
# 4 0.0000 0.0000 0.0000 0.0942 0.0000 0.3586
# 5 4.8976 6.3817 2.1442 0.0000 29.7855 0.0000
# 6 0.0000 0.0000 0.0000 0.3586 0.0000 13.4093
#
#
#
# Elastic Compliance Matrix: (Units=1/GPa)
#
#
# Indices 1 2 3 4 5 6 
#
# 1 0.008879 -0.000398 -0.004876 0.000000 -0.001024 0.000000
# 2 -0.000398 0.023931 0.001099 0.000000 -0.005141 0.000000
# 3 -0.004876 0.001099 0.011668 0.000000 -0.000274 0.000000
# 4 0.000000 0.000000 0.000000 11.818589 0.000000 -0.316070
# 5 -0.001024 -0.005141 -0.000274 0.000000 0.034863 0.000000
# 6 0.000000 0.000000 0.000000 -0.316070 0.000000 0.083028
#
#
# Mechanical properties :
#
#
# Convention : Reuss Voigt Hill
#
# Bulk Modulus (GPa) = 27.67999 46.56849 37.12424
# Shear Modulus (GPa) = 0.41662 24.89811 12.65736
#
# Velocity S-wave (km/s) = 0.49741 3.84530 2.74169
# Velocity P-wave (km/s) = 4.09492 6.88266 5.66301
#
# Compressibility (1/GPa) = 0.03612717
#
# Stress axis : x y z
#
# Youngs Moduli (GPa) = 112.62346 41.78594 85.70478
#
# Poissons Ratio (x) = 0.01664 0.41792
# Poissons Ratio (y) = 0.04486 -0.09418
# Poissons Ratio (z) = 0.54919 -0.04592
#
# Static dielectric constant tensor:
#      x y z
#    x 3.513990 0.000000 0.060790 
#    y 0.000000 2.913060 0.000000 
#    z 0.060790 0.000000 3.036980 
# 
# 
# High freq. dielectric constant tensor:
#      x y z
#    x 1.679750 0.000000 0.002630 
#    y 0.000000 1.588320 0.000000 
#    z 0.002630 0.000000 1.626320 
# 
# From -- ./inp_files/87537.got.cif
#   From: 2010.06.25/outbox.cif.g09.slc.cpg/sg10_44_cif.got.tgz:87537.got - 2010.06.27 22:07:45.
