data_PCOD8059243
_publ_section_title
;
Structure prediction by ZEFSAII (Michael W. Deem and Ramdas Pophale) SiO2 
 PCOD8059243
Probable space group: P 2/M
;
_chemical_formula_sum "Si O2"
_cell_formula_units_Z 28
_cell_length_a 16.627258
_cell_length_b 8.749823
_cell_length_c 19.526342
_cell_angle_alpha 90.000000
_cell_angle_beta 30.403860
_cell_angle_gamma 90.000000
_cell_volume 1437.706234
_symmetry_space_group_name_H-M "P 2/M"
_symmetry_group_IT_number 10
_symmetry_cell_setting 'monoclinic'
loop_
_space_group_symop_operation_xyz
x,y,z
-x,y,-z
-x,-y,-z
x,-y,z
loop_
_atom_site_type_symbol
_atom_site_label
_atom_site_fract_x
_atom_site_fract_y
_atom_site_fract_z
Si Si1 0.787392 0.821329 0.970113
Si Si2 0.082543 0.674580 0.257534
Si Si3 0.446842 0.317362 0.231712
Si Si4 0.719647 0.674826 0.513085
Si Si5 0.329388 0.317593 0.600889
Si Si6 0.019952 0.318653 0.907490
Si Si7 0.160404 0.680932 0.349285
O O1 0.878229 0.786466 0.833163
O O2 0.875502 0.746736 0.969622
O O3 0.779627 0.000000 0.988216
O O4 0.612940 0.754064 0.089784
O O5 0.123747 0.500000 0.205968
O O6 0.175261 0.724769 0.258089
O O7 0.897104 0.689802 0.411117
O O8 0.457603 0.500000 0.222319
O O9 0.397261 0.255857 0.343617
O O10 0.316580 0.257008 0.272939
O O11 0.671434 0.500000 0.538226
O O12 0.699671 0.753417 0.453449
O O13 0.500000 0.255684 0.500000
O O14 0.325384 0.500000 0.603149
O O15 0.189127 0.258797 0.753966
O O16 0.009753 0.500000 0.910504
O O17 0.000000 0.261343 0.000000
O O18 0.150869 0.500000 0.364330
O O19 0.000000 0.752629 0.500000
#
# Coordination Sequence:
#
# PCOD8059243 Si02
#       7
#     4   4   4   4   4   4   4
#     4  12  26  41  55  78 119 165 200 231 277 339
#     4  10  18  35  62  87 113 147 191 241 294 347
#     4  10  20  35  59  89 116 146 191 243 297 349
#     4   9  16  29  56  86 113 144 181 236 292 341
#     4   9  17  29  51  88 120 136 168 226 286 340
#     4  10  21  38  63  90 114 145 188 237 290 346
#     4   9  16  30  58  94 119 138 180 250 311 346
#
# _framework density 19.475467999999999
#
# number of rings (size 3 to 8) (size 9 to 14) (size 15 to 20)
#    0.000    2.143    2.857    1.286    2.000    0.857 
#    0.000    4.286    0.000    1.286    0.000    0.000 
#    0.000    0.000    0.000    0.000    0.000    0.000 
#
# Total GULP energy -347150.355256 kJ/mol
# GULP energy per Si atom -12398.226973 kJ/mol
# Density = 1.943114 g / cm^3
# Si number density = 19.475468 Si / 1000 Ang^3
#
#
#
# Elastic Constant Matrix: (Units=GPa)
#
#
# Indices 1 2 3 4 5 6 
#
# 1 140.6908 16.8423 37.6513 0.0000 -1.5228 0.0000
# 2 16.8423 19.4783 13.7842 0.0000 1.8975 0.0000
# 3 37.6513 13.7842 56.2742 0.0000 -3.7014 0.0000
# 4 0.0000 0.0000 0.0000 1.1302 0.0000 2.6998
# 5 -1.5228 1.8975 -3.7014 0.0000 35.5064 0.0000
# 6 0.0000 0.0000 0.0000 2.6998 0.0000 3.5039
#
#
#
# Elastic Compliance Matrix: (Units=1/GPa)
#
#
# Indices 1 2 3 4 5 6 
#
# 1 0.008937 -0.004246 -0.004933 0.000000 0.000096 0.000000
# 2 -0.004246 0.064994 -0.013411 0.000000 -0.005054 0.000000
# 3 -0.004933 -0.013411 0.024558 0.000000 0.003065 0.000000
# 4 0.000000 0.000000 0.000000 -1.052534 0.000000 0.810998
# 5 0.000096 -0.005054 0.003065 0.000000 0.028758 0.000000
# 6 0.000000 0.000000 0.000000 0.810998 0.000000 -0.339490
#
#
# Mechanical properties :
#
#
# Convention : Reuss Voigt Hill
#
# Bulk Modulus (GPa) = 18.75931 39.22209 28.99070
# Shear Modulus (GPa) = -4.16033 17.90579 6.87273
#
# Velocity S-wave (km/s) = -1.46316 3.03545 1.88058
# Velocity P-wave (km/s) = 2.60744 5.69809 4.43097
#
# Compressibility (1/GPa) = 0.05330687
#
# Stress axis : x y z
#
# Youngs Moduli (GPa) = 111.88968 15.38612 40.72060
#
# Poissons Ratio (x) = 0.06533 0.20089
# Poissons Ratio (y) = 0.47509 0.54612
# Poissons Ratio (z) = 0.55199 0.20635
#
# Static dielectric constant tensor:
#      x y z
#    x 3.850960 0.000000 0.035730 
#    y 0.000000 2.956210 0.000000 
#    z 0.035730 0.000000 3.646440 
# 
# 
# High freq. dielectric constant tensor:
#      x y z
#    x 1.776720 0.000000 0.004320 
#    y 0.000000 1.691640 0.000000 
#    z 0.004320 0.000000 1.766010 
# 
# From -- ./inp_files/85621.got.cif
#   From: 2010.06.25/outbox.cif.g09.slc.cpg/sg10_43_cif.got.tgz:85621.got - 2010.06.27 22:07:45.
