data_PCOD8059359
_publ_section_title
;
Structure prediction by ZEFSAII (Michael W. Deem and Ramdas Pophale) SiO2 
 PCOD8059359
Probable space group: P 2/M
;
_chemical_formula_sum "Si O2"
_cell_formula_units_Z 32
_cell_length_a 23.507803
_cell_length_b 15.382543
_cell_length_c 17.639560
_cell_angle_alpha 90.000000
_cell_angle_beta 160.817886
_cell_angle_gamma 90.000000
_cell_volume 2095.840597
_symmetry_space_group_name_H-M "P 2/M"
_symmetry_group_IT_number 10
_symmetry_cell_setting 'monoclinic'
loop_
_space_group_symop_operation_xyz
x,y,z
-x,y,-z
-x,-y,-z
x,-y,z
loop_
_atom_site_type_symbol
_atom_site_label
_atom_site_fract_x
_atom_site_fract_y
_atom_site_fract_z
Si Si1 0.336925 0.901219 0.597949
Si Si2 0.478854 0.237526 0.883952
Si Si3 0.996619 0.896472 0.910838
Si Si4 0.831335 0.237514 0.236433
Si Si5 0.314839 0.098780 0.053806
Si Si6 0.330084 0.405649 0.735460
Si Si7 0.019333 0.405641 0.613961
Si Si8 0.331780 0.896468 0.245993
O O1 0.375290 0.844177 0.720231
O O2 0.491419 0.896201 0.732824
O O3 0.170246 0.863127 0.344947
O O4 0.306690 0.000000 0.587847
O O5 0.363626 0.324488 0.721201
O O6 0.500000 0.221897 0.000000
O O7 0.665666 0.247732 0.081334
O O8 0.993482 0.000000 0.910279
O O9 0.165241 0.861086 0.080490
O O10 0.000000 0.857973 0.000000
O O11 0.851489 0.324496 0.209073
O O12 0.000000 0.221935 0.500000
O O13 0.814618 0.155839 0.159546
O O14 0.320837 0.136862 0.146141
O O15 0.244347 0.000000 0.963215
O O16 0.307023 0.500000 0.664875
O O17 0.165189 0.385664 0.580385
O O18 0.500000 0.410552 0.000000
O O19 0.091338 0.500000 0.733473
O O20 0.000000 0.410587 0.500000
O O21 0.500000 0.857987 0.500000
O O22 0.340132 0.000000 0.256937
#
# Coordination Sequence:
#
# PCOD8059359 Si02
#       8
#     4   4   4   4   4   4   4   4
#     4   9  18  31  43  57  81 112 144 175 205 239
#     4  10  19  29  42  59  81 111 143 175 208 241
#     4   9  16  26  42  62  81 103 132 168 210 250
#     4  10  19  29  42  59  81 111 143 175 208 241
#     4   9  18  31  43  57  81 112 144 175 205 239
#     4   9  16  26  41  59  78 101 130 167 210 251
#     4   9  16  26  41  59  78 101 130 167 210 251
#     4   9  16  26  42  62  81 103 132 168 210 250
#
# _framework density 15.268337000000001
#
# number of rings (size 3 to 8) (size 9 to 14) (size 15 to 20)
#    0.000    2.750    0.000    3.750    0.000    7.000 
#    0.000    0.000    0.000    0.000    0.000    0.000 
#    0.000    1.000    0.000    3.250    0.000    5.250 
#
# Total GULP energy -396540.450723 kJ/mol
# GULP energy per Si atom -12391.889085 kJ/mol
# Density = 1.523359 g / cm^3
# Si number density = 15.268337 Si / 1000 Ang^3
#
#
#
# Elastic Constant Matrix: (Units=GPa)
#
#
# Indices 1 2 3 4 5 6 
#
# 1 95.8477 48.2405 45.6836 0.0000 -0.3029 0.0000
# 2 48.2405 89.8366 49.3035 0.0000 -2.9165 0.0000
# 3 45.6836 49.3035 95.3161 0.0000 1.6408 0.0000
# 4 0.0000 0.0000 0.0000 9.1486 0.0000 9.4284
# 5 -0.3029 -2.9165 1.6408 0.0000 19.8589 0.0000
# 6 0.0000 0.0000 0.0000 9.4284 0.0000 12.6085
#
#
#
# Elastic Compliance Matrix: (Units=1/GPa)
#
#
# Indices 1 2 3 4 5 6 
#
# 1 0.015496 -0.005944 -0.004348 0.000000 -0.000277 0.000000
# 2 -0.005944 0.017999 -0.006514 0.000000 0.003091 0.000000
# 3 -0.004348 -0.006514 0.015985 0.000000 -0.002344 0.000000
# 4 0.000000 0.000000 0.000000 0.476587 0.000000 -0.356382
# 5 -0.000277 0.003091 -0.002344 0.000000 0.050999 0.000000
# 6 0.000000 0.000000 0.000000 -0.356382 0.000000 0.345807
#
#
# Mechanical properties :
#
#
# Convention : Reuss Voigt Hill
#
# Bulk Modulus (GPa) = 63.02059 63.05062 63.03560
# Shear Modulus (GPa) = 5.19873 17.50804 11.35338
#
# Velocity S-wave (km/s) = 1.84724 3.38995 2.72984
# Velocity P-wave (km/s) = 6.77604 7.53041 7.16316
#
# Compressibility (1/GPa) = 0.01586783
#
# Stress axis : x y z
#
# Youngs Moduli (GPa) = 64.53169 55.55954 62.55800
#
# Poissons Ratio (x) = 0.33025 0.27198
# Poissons Ratio (y) = 0.38358 0.40752
# Poissons Ratio (z) = 0.28056 0.36193
#
# Static dielectric constant tensor:
#      x y z
#    x 2.953720 0.000000 0.178140 
#    y 0.000000 3.376970 0.000000 
#    z 0.178140 0.000000 2.887560 
# 
# 
# High freq. dielectric constant tensor:
#      x y z
#    x 1.581360 0.000000 0.026050 
#    y 0.000000 1.564240 0.000000 
#    z 0.026050 0.000000 1.571740 
# 
# From -- ./inp_files/80358.got.cif
#   From: 2010.06.25/outbox.cif.g09.slc.cpg/sg10_41_cif.got.tgz:80358.got - 2010.06.27 22:07:45.
