data_PCOD8059985
_publ_section_title
;
Structure prediction by ZEFSAII (Michael W. Deem and Ramdas Pophale) SiO2 
 PCOD8059985
Probable space group: P 2/M
;
_chemical_formula_sum "Si O2"
_cell_formula_units_Z 32
_cell_length_a 27.604780
_cell_length_b 10.021676
_cell_length_c 21.289741
_cell_angle_alpha 90.000000
_cell_angle_beta 18.607641
_cell_angle_gamma 90.000000
_cell_volume 1879.327071
_symmetry_space_group_name_H-M "P 2/M"
_symmetry_group_IT_number 10
_symmetry_cell_setting 'monoclinic'
loop_
_space_group_symop_operation_xyz
x,y,z
-x,y,-z
-x,-y,-z
x,-y,z
loop_
_atom_site_type_symbol
_atom_site_label
_atom_site_fract_x
_atom_site_fract_y
_atom_site_fract_z
Si Si1 0.445320 0.148019 0.171044
Si Si2 0.643832 0.655991 0.279719
Si Si3 0.831987 0.358034 0.688047
Si Si4 0.788957 0.152918 0.310065
Si Si5 0.421495 0.348107 0.906513
Si Si6 0.508878 0.653925 0.662541
Si Si7 0.730992 0.146757 0.729257
Si Si8 0.879384 0.846875 0.055689
O O1 0.447667 0.254265 0.224462
O O2 0.296502 0.170115 0.311011
O O3 0.445395 0.000000 0.200766
O O4 0.581623 0.165487 0.954726
O O5 0.500000 0.688995 0.500000
O O6 0.689687 0.500000 0.228972
O O7 0.595203 0.694865 0.268650
O O8 0.788295 0.746243 0.121809
O O9 0.760494 0.500000 0.753354
O O10 0.846187 0.256594 0.612718
O O11 0.000000 0.386160 0.500000
O O12 0.736590 0.306880 0.865788
O O13 0.656350 0.254667 0.490928
O O14 0.819056 0.172165 0.199774
O O15 0.739201 0.000000 0.384558
O O16 0.940142 0.186269 0.165190
O O17 0.468295 0.500000 0.863017
O O18 0.406304 0.325411 0.850686
O O19 0.562444 0.500000 0.589103
O O20 0.800320 0.000000 0.654545
O O21 0.853287 0.000000 0.065491
#
# Coordination Sequence:
#
# PCOD8059985 Si02
#       8
#     4   4   4   4   4   4   4   4
#     4   8  14  26  44  66  90 113 142 180 225 275
#     4  10  19  31  48  73 100 129 167 207 244 289
#     4   9  17  29  46  68  92 122 159 194 231 278
#     4   9  18  32  50  73  98 126 160 201 249 296
#     4   9  18  31  47  67  93 123 155 195 238 281
#     4  10  20  33  49  71  99 129 165 206 248 295
#     4   8  14  25  43  67  90 112 140 180 227 270
#     4   9  18  32  50  73  99 125 160 205 249 291
#
# _framework density 17.027370999999999
#
# number of rings (size 3 to 8) (size 9 to 14) (size 15 to 20)
#    0.000    3.000    1.250    1.500    0.000    2.500 
#    0.000    3.750    2.750    0.000    0.000    0.000 
#    0.000    0.000    0.000    0.000    0.000    0.000 
#
# Total GULP energy -396472.795619 kJ/mol
# GULP energy per Si atom -12389.774863 kJ/mol
# Density = 1.698862 g / cm^3
# Si number density = 17.027371 Si / 1000 Ang^3
#
#
#
# Elastic Constant Matrix: (Units=GPa)
#
#
# Indices 1 2 3 4 5 6 
#
# 1 118.1665 72.6512 35.1731 0.0000 -6.3811 0.0000
# 2 72.6512 103.6760 40.5648 0.0000 -13.8687 0.0000
# 3 35.1731 40.5648 50.2440 0.0000 -11.0855 0.0000
# 4 0.0000 0.0000 0.0000 21.1343 0.0000 -6.2878
# 5 -6.3811 -13.8687 -11.0855 0.0000 21.5559 0.0000
# 6 0.0000 0.0000 0.0000 -6.2878 0.0000 33.2393
#
#
#
# Elastic Compliance Matrix: (Units=1/GPa)
#
#
# Indices 1 2 3 4 5 6 
#
# 1 0.015414 -0.009871 -0.003627 0.000000 -0.003653 0.000000
# 2 -0.009871 0.020677 -0.008452 0.000000 0.006034 0.000000
# 3 -0.003627 -0.008452 0.031391 0.000000 0.009632 0.000000
# 4 0.000000 0.000000 0.000000 0.050138 0.000000 0.009485
# 5 -0.003653 0.006034 0.009632 0.000000 0.054145 0.000000
# 6 0.000000 0.000000 0.000000 0.009485 0.000000 0.031879
#
#
# Mechanical properties :
#
#
# Convention : Reuss Voigt Hill
#
# Bulk Modulus (GPa) = 42.40613 63.20721 52.80667
# Shear Modulus (GPa) = 19.57682 23.43238 21.50460
#
# Velocity S-wave (km/s) = 3.39444 3.71369 3.55765
# Velocity P-wave (km/s) = 6.34994 7.45588 6.92502
#
# Compressibility (1/GPa) = 0.02358149
#
# Stress axis : x y z
#
# Youngs Moduli (GPa) = 64.87725 48.36400 31.85636
#
# Poissons Ratio (x) = 0.47739 0.11555
# Poissons Ratio (y) = 0.64038 0.26925
# Poissons Ratio (z) = 0.23532 0.40877
#
# Static dielectric constant tensor:
#      x y z
#    x 3.410360 0.000000 -0.129300 
#    y 0.000000 3.442190 0.000000 
#    z -0.129300 0.000000 2.896250 
# 
# 
# High freq. dielectric constant tensor:
#      x y z
#    x 1.651030 0.000000 -0.005000 
#    y 0.000000 1.666920 0.000000 
#    z -0.005000 0.000000 1.617260 
# 
# From -- ./inp_files/86762.got.cif
#   From: 2010.06.25/outbox.cif.g09.slc.cpg/sg10_44_cif.got.tgz:86762.got - 2010.06.27 22:07:45.
