data_PCOD8059847
_publ_section_title
;
Structure prediction by ZEFSAII (Michael W. Deem and Ramdas Pophale) SiO2 
 PCOD8059847
Probable space group: P 2/M
;
_chemical_formula_sum "Si O2"
_cell_formula_units_Z 32
_cell_length_a 5.183849
_cell_length_b 8.508595
_cell_length_c 35.840326
_cell_angle_alpha 90.000000
_cell_angle_beta 89.996174
_cell_angle_gamma 90.000000
_cell_volume 1580.818993
_symmetry_space_group_name_H-M "P 2/M"
_symmetry_group_IT_number 10
_symmetry_cell_setting 'monoclinic'
loop_
_space_group_symop_operation_xyz
x,y,z
-x,y,-z
-x,-y,-z
x,-y,z
loop_
_atom_site_type_symbol
_atom_site_label
_atom_site_fract_x
_atom_site_fract_y
_atom_site_fract_z
Si Si1 0.733185 0.681697 0.103972
Si Si2 0.251458 0.687058 0.394413
Si Si3 0.248395 0.313381 0.649045
Si Si4 0.253722 0.813053 0.225484
Si Si5 0.767771 0.184600 0.859101
Si Si6 0.749992 0.312499 0.521519
Si Si7 0.252839 0.818335 0.976067
Si Si8 0.754397 0.186581 0.268130
O O1 0.781225 0.500000 0.112526
O O2 0.446332 0.728969 0.116338
O O3 0.759692 0.710794 0.060149
O O4 0.946293 0.781668 0.125972
O O5 0.250808 0.500000 0.395610
O O6 0.001778 0.750395 0.372641
O O7 0.249984 0.754089 0.436422
O O8 0.503143 0.750051 0.373101
O O9 0.248153 0.500000 0.651202
O O10 0.251200 0.245459 0.690062
O O11 0.251533 0.751951 0.183135
O O12 0.506602 0.747406 0.246142
O O13 0.005939 0.745945 0.247310
O O14 0.248140 0.000000 0.225811
O O15 0.714649 0.000000 0.861358
O O16 0.500000 0.248096 0.500000
O O17 0.749975 0.500000 0.522081
O O18 0.000000 0.248084 0.500000
O O19 0.270892 0.000000 0.963724
O O20 0.500000 0.768522 0.000000
O O21 0.000000 0.785089 0.000000
O O22 0.754350 0.000000 0.267978
#
# Coordination Sequence:
#
# PCOD8059847 Si02
#       8
#     4   4   4   4   4   4   4   4
#     4  12  25  40  60  92 129 157 188 240 301 346
#     4   9  17  28  42  62  93 128 159 196 243 300
#     4  10  19  31  46  67  97 131 161 192 245 310
#     4   9  19  35  57  80 102 134 178 226 267 308
#     4  11  22  41  66  87 113 156 203 237 279 347
#     4   9  15  23  37  58  85 118 155 195 241 289
#     4  10  21  38  61  87 115 153 202 245 281 335
#     4  10  19  34  54  77 102 129 170 221 265 303
#
# _framework density 20.242673
#
# number of rings (size 3 to 8) (size 9 to 14) (size 15 to 20)
#    0.000    2.000    0.000    4.500    0.000    6.500 
#    0.000    3.750    0.000    0.000    0.000    0.000 
#    0.000   10.000    0.000    0.000    0.000    0.000 
#
# Total GULP energy -396912.296484 kJ/mol
# GULP energy per Si atom -12403.509265 kJ/mol
# Density = 2.019660 g / cm^3
# Si number density = 20.242673 Si / 1000 Ang^3
#
#
#
# Elastic Constant Matrix: (Units=GPa)
#
#
# Indices 1 2 3 4 5 6 
#
# 1 172.5212 17.7616 70.8125 0.0000 5.7462 0.0000
# 2 17.7616 28.3504 25.3251 0.0000 -2.2059 0.0000
# 3 70.8125 25.3251 162.7588 0.0000 5.5870 0.0000
# 4 0.0000 0.0000 0.0000 27.4428 0.0000 0.5022
# 5 5.7462 -2.2059 5.5870 0.0000 43.5353 0.0000
# 6 0.0000 0.0000 0.0000 0.5022 0.0000 13.7963
#
#
#
# Elastic Compliance Matrix: (Units=1/GPa)
#
#
# Indices 1 2 3 4 5 6 
#
# 1 0.007171 -0.002069 -0.002774 0.000000 -0.000695 0.000000
# 2 -0.002069 0.041933 -0.005732 0.000000 0.003133 0.000000
# 3 -0.002774 -0.005732 0.008277 0.000000 -0.000986 0.000000
# 4 0.000000 0.000000 0.000000 0.036464 0.000000 -0.001327
# 5 -0.000695 0.003133 -0.000986 0.000000 0.023347 0.000000
# 6 0.000000 0.000000 0.000000 -0.001327 0.000000 0.072531
#
#
# Mechanical properties :
#
#
# Convention : Reuss Voigt Hill
#
# Bulk Modulus (GPa) = 27.60077 65.71429 46.65753
# Shear Modulus (GPa) = 22.42645 33.60364 28.01504
#
# Velocity S-wave (km/s) = 3.33209 4.07878 3.72420
# Velocity P-wave (km/s) = 5.33557 7.39700 6.44918
#
# Compressibility (1/GPa) = 0.03623087
#
# Stress axis : x y z
#
# Youngs Moduli (GPa) = 139.44570 23.84745 120.81836
#
# Poissons Ratio (x) = 0.04933 0.33519
# Poissons Ratio (y) = 0.28847 0.69257
# Poissons Ratio (z) = 0.38686 0.13670
#
# Static dielectric constant tensor:
#      x y z
#    x 4.052940 0.000000 -0.001810 
#    y 0.000000 3.174280 0.000000 
#    z -0.001810 0.000000 3.826470 
# 
# 
# High freq. dielectric constant tensor:
#      x y z
#    x 1.812340 0.000000 -0.000180 
#    y 0.000000 1.741980 0.000000 
#    z -0.000180 0.000000 1.808840 
# 
# From -- ./inp_files/94338.got.cif
#   From: 2010.06.25/outbox.cif.g09.slc.cpg/sg10_48_cif.got.tgz:94338.got - 2010.06.27 22:07:45.
