data_PCOD8059510
_publ_section_title
;
Structure prediction by ZEFSAII (Michael W. Deem and Ramdas Pophale) SiO2 
 PCOD8059510
Probable space group: P 2/M
;
_chemical_formula_sum "Si O2"
_cell_formula_units_Z 32
_cell_length_a 20.659235
_cell_length_b 9.149288
_cell_length_c 31.052365
_cell_angle_alpha 90.000000
_cell_angle_beta 20.195118
_cell_angle_gamma 90.000000
_cell_volume 2026.235594
_symmetry_space_group_name_H-M "P 2/M"
_symmetry_group_IT_number 10
_symmetry_cell_setting 'monoclinic'
loop_
_space_group_symop_operation_xyz
x,y,z
-x,y,-z
-x,-y,-z
x,-y,z
loop_
_atom_site_type_symbol
_atom_site_label
_atom_site_fract_x
_atom_site_fract_y
_atom_site_fract_z
Si Si1 0.053891 0.327902 0.713391
Si Si2 0.220027 0.165019 0.870905
Si Si3 0.718368 0.330152 0.251012
Si Si4 0.557959 0.830228 0.512774
Si Si5 0.845816 0.330960 0.005396
Si Si6 0.519270 0.163884 0.918721
Si Si7 0.803732 0.165408 0.809167
Si Si8 0.262969 0.671113 0.020802
O O1 0.091338 0.500000 0.687734
O O2 0.243811 0.243936 0.603388
O O3 0.969305 0.274236 0.720374
O O4 0.913438 0.284177 0.839579
O O5 0.322185 0.258893 0.770221
O O6 0.298951 0.000000 0.821400
O O7 0.261062 0.238305 0.891419
O O8 0.000000 0.166455 0.000000
O O9 0.663086 0.500000 0.283472
O O10 0.596126 0.248709 0.362436
O O11 0.932210 0.307887 0.131319
O O12 0.500000 0.807966 0.500000
O O13 0.569094 0.000000 0.518488
O O14 0.795161 0.500000 0.044171
O O15 0.774402 0.272021 0.004027
O O16 0.714030 0.217676 0.819430
O O17 0.458006 0.261960 0.916465
O O18 0.546404 0.000000 0.884651
O O19 0.358435 0.169845 0.054511
O O20 0.881800 0.000000 0.756320
O O21 0.289781 0.500000 0.004637
#
# Coordination Sequence:
#
# PCOD8059510 Si02
#       8
#     4   4   4   4   4   4   4   4
#     4  10  19  30  44  62  84 114 151 185 217 254
#     4   9  17  29  45  65  86 108 139 178 217 259
#     4  10  19  32  49  64  83 113 147 183 219 256
#     4  11  23  35  46  62  86 116 149 184 219 253
#     4   9  17  29  44  63  87 115 144 175 217 262
#     4   8  14  24  39  58  81 111 143 173 211 258
#     4   8  14  26  41  57  80 110 143 178 214 253
#     4   9  17  27  40  61  89 116 144 179 215 255
#
# _framework density 15.792832000000001
#
# number of rings (size 3 to 8) (size 9 to 14) (size 15 to 20)
#    0.000    2.750    0.000    3.000    0.000    5.500 
#    0.000    2.500    0.000    0.000    0.000    0.000 
#    0.000    1.000    0.000   10.500    0.000    6.250 
#
# Total GULP energy -396684.555428 kJ/mol
# GULP energy per Si atom -12396.392357 kJ/mol
# Density = 1.575689 g / cm^3
# Si number density = 15.792832 Si / 1000 Ang^3
#
#
#
# Elastic Constant Matrix: (Units=GPa)
#
#
# Indices 1 2 3 4 5 6 
#
# 1 123.0657 59.9076 37.0380 0.0000 1.7742 0.0000
# 2 59.9076 95.7565 40.4652 0.0000 4.1328 0.0000
# 3 37.0380 40.4652 39.2665 0.0000 5.4671 0.0000
# 4 0.0000 0.0000 0.0000 20.9015 0.0000 -1.5515
# 5 1.7742 4.1328 5.4671 0.0000 23.2154 0.0000
# 6 0.0000 0.0000 0.0000 -1.5515 0.0000 29.7262
#
#
#
# Elastic Compliance Matrix: (Units=1/GPa)
#
#
# Indices 1 2 3 4 5 6 
#
# 1 0.012651 -0.005044 -0.006954 0.000000 0.001569 0.000000
# 2 -0.005044 0.020545 -0.016500 0.000000 0.000614 0.000000
# 3 -0.006954 -0.016500 0.050192 0.000000 -0.008351 0.000000
# 4 0.000000 0.000000 0.000000 0.048029 0.000000 0.002507
# 5 0.001569 0.000614 -0.008351 0.000000 0.044812 0.000000
# 6 0.000000 0.000000 0.000000 0.002507 0.000000 0.033771
#
#
# Mechanical properties :
#
#
# Convention : Reuss Voigt Hill
#
# Bulk Modulus (GPa) = 37.88813 59.21226 48.55020
# Shear Modulus (GPa) = 18.12948 22.81383 20.47166
#
# Velocity S-wave (km/s) = 3.39183 3.80487 3.60427
# Velocity P-wave (km/s) = 6.27552 7.54170 6.93756
#
# Compressibility (1/GPa) = 0.02639349
#
# Stress axis : x y z
#
# Youngs Moduli (GPa) = 79.04279 48.67369 19.92351
#
# Poissons Ratio (x) = 0.24552 0.13854
# Poissons Ratio (y) = 0.39871 0.32873
# Poissons Ratio (z) = 0.54962 0.80310
#
# Static dielectric constant tensor:
#      x y z
#    x 3.362220 0.000000 -0.049710 
#    y 0.000000 3.148100 0.000000 
#    z -0.049710 0.000000 2.692650 
# 
# 
# High freq. dielectric constant tensor:
#      x y z
#    x 1.610630 0.000000 -0.002760 
#    y 0.000000 1.616100 0.000000 
#    z -0.002760 0.000000 1.554970 
# 
# From -- ./inp_files/49917.got.cif
#   From: 2010.06.25/outbox.cif.g09.slc.cpg/sg10_25_cif.got.tgz:49917.got - 2010.06.27 22:07:45.
