data_PCOD8059797
_publ_section_title
;
Structure prediction by ZEFSAII (Michael W. Deem and Ramdas Pophale) SiO2 
 PCOD8059797
Probable space group: P 2/M
;
_chemical_formula_sum "Si O2"
_cell_formula_units_Z 32
_cell_length_a 9.312779
_cell_length_b 20.023013
_cell_length_c 12.526385
_cell_angle_alpha 90.000000
_cell_angle_beta 46.688575
_cell_angle_gamma 90.000000
_cell_volume 1699.607554
_symmetry_space_group_name_H-M "P 2/M"
_symmetry_group_IT_number 10
_symmetry_cell_setting 'monoclinic'
loop_
_space_group_symop_operation_xyz
x,y,z
-x,y,-z
-x,-y,-z
x,-y,z
loop_
_atom_site_type_symbol
_atom_site_label
_atom_site_fract_x
_atom_site_fract_y
_atom_site_fract_z
Si Si1 0.712842 0.653222 0.919206
Si Si2 0.849439 0.180377 0.356934
Si Si3 0.805107 0.874738 0.151324
Si Si4 0.599318 0.748704 0.164073
Si Si5 0.419144 0.927914 0.423237
Si Si6 0.023445 0.574964 0.863722
Si Si7 0.323651 0.686139 0.654349
Si Si8 0.154830 0.745912 0.327191
O O1 0.821733 0.680210 0.757729
O O2 0.813977 0.587418 0.915259
O O3 0.500000 0.625660 0.000000
O O4 0.698119 0.713413 0.012142
O O5 0.874740 0.138925 0.236505
O O6 0.726946 0.136054 0.507249
O O7 0.737975 0.248836 0.383201
O O8 0.060618 0.194761 0.303579
O O9 0.746400 0.809350 0.114182
O O10 0.609193 0.920306 0.248693
O O11 0.000000 0.908675 0.000000
O O12 0.602017 0.700826 0.264708
O O13 0.370653 0.769392 0.258892
O O14 0.500000 0.929980 0.500000
O O15 0.317973 0.000000 0.446930
O O16 0.099308 0.500000 0.801474
O O17 0.156239 0.631084 0.742407
O O18 0.000000 0.587722 0.000000
O O19 0.500000 0.651840 0.500000
O O20 0.000000 0.728332 0.500000
#
# Coordination Sequence:
#
# PCOD8059797 Si02
#       8
#     4   4   4   4   4   4   4   4
#     4  10  21  37  55  80 111 145 184 227 279 327
#     4  10  19  34  55  82 107 145 181 227 281 327
#     4  10  19  30  52  79 107 141 184 224 275 321
#     4  10  21  33  51  82 112 140 175 235 283 322
#     4   9  18  33  50  76 114 147 181 222 272 333
#     4  11  23  39  59  82 112 152 187 223 277 337
#     4  11  20  34  58  83 111 140 183 238 277 322
#     4  11  20  32  54  82 110 138 182 234 283 322
#
# _framework density 18.827876
#
# number of rings (size 3 to 8) (size 9 to 14) (size 15 to 20)
#    0.000    1.750    2.500    4.125    1.750    0.750 
#    0.000    0.000    0.000    3.750    0.000    0.000 
#    0.000   14.000    0.000    0.000    0.000    0.000 
#
# Total GULP energy -396550.221144 kJ/mol
# GULP energy per Si atom -12392.194411 kJ/mol
# Density = 1.878502 g / cm^3
# Si number density = 18.827876 Si / 1000 Ang^3
#
#
#
# Elastic Constant Matrix: (Units=GPa)
#
#
# Indices 1 2 3 4 5 6 
#
# 1 99.7235 25.9954 20.5030 0.0000 -5.8768 0.0000
# 2 25.9954 88.8870 34.5866 0.0000 -9.6862 0.0000
# 3 20.5030 34.5866 104.2649 0.0000 -8.9009 0.0000
# 4 0.0000 0.0000 0.0000 8.9123 0.0000 -18.0803
# 5 -5.8768 -9.6862 -8.9009 0.0000 26.7212 0.0000
# 6 0.0000 0.0000 0.0000 -18.0803 0.0000 22.1995
#
#
#
# Elastic Compliance Matrix: (Units=1/GPa)
#
#
# Indices 1 2 3 4 5 6 
#
# 1 0.011026 -0.002641 -0.001201 0.000000 0.001068 0.000000
# 2 -0.002641 0.013848 -0.003804 0.000000 0.003172 0.000000
# 3 -0.001201 -0.003804 0.011269 0.000000 0.002111 0.000000
# 4 0.000000 0.000000 0.000000 -0.172024 0.000000 -0.140105
# 5 0.001068 0.003172 0.002111 0.000000 0.039511 0.000000
# 6 0.000000 0.000000 0.000000 -0.140105 0.000000 -0.069062
#
#
# Mechanical properties :
#
#
# Convention : Reuss Voigt Hill
#
# Bulk Modulus (GPa) = 47.95657 50.56059 49.25858
# Shear Modulus (GPa) = -34.91880 25.68598 -4.61641
#
# Velocity S-wave (km/s) = -4.31122 3.69759 -1.56755
# Velocity P-wave (km/s) = 0.86268 6.71877 4.78989
#
# Compressibility (1/GPa) = 0.02085220
#
# Stress axis : x y z
#
# Youngs Moduli (GPa) = 90.69478 72.21121 88.73866
#
# Poissons Ratio (x) = 0.19071 0.10658
# Poissons Ratio (y) = 0.23952 0.33753
# Poissons Ratio (z) = 0.10892 0.27466
#
# Static dielectric constant tensor:
#      x y z
#    x 3.587760 0.000000 -0.019370 
#    y 0.000000 3.420160 0.000000 
#    z -0.019370 0.000000 3.599940 
# 
# 
# High freq. dielectric constant tensor:
#      x y z
#    x 1.730310 0.000000 -0.003180 
#    y 0.000000 1.698040 0.000000 
#    z -0.003180 0.000000 1.740400 
# 
# From -- ./inp_files/26083.got.cif
#   From: 2010.06.25/outbox.cif.g09.slc.cpg/sg10_14_cif.got.tgz:26083.got - 2010.06.27 22:07:45.
