data_PCOD8059648
_publ_section_title
;
Structure prediction by ZEFSAII (Michael W. Deem and Ramdas Pophale) SiO2 
 PCOD8059648
Probable space group: P 2/M
;
_chemical_formula_sum "Si O2"
_cell_formula_units_Z 32
_cell_length_a 25.331546
_cell_length_b 10.987066
_cell_length_c 13.944132
_cell_angle_alpha 90.000000
_cell_angle_beta 26.315536
_cell_angle_gamma 90.000000
_cell_volume 1720.468069
_symmetry_space_group_name_H-M "P 2/M"
_symmetry_group_IT_number 10
_symmetry_cell_setting 'monoclinic'
loop_
_space_group_symop_operation_xyz
x,y,z
-x,y,-z
-x,-y,-z
x,-y,z
loop_
_atom_site_type_symbol
_atom_site_label
_atom_site_fract_x
_atom_site_fract_y
_atom_site_fract_z
Si Si1 0.416720 0.142159 0.555385
Si Si2 0.152584 0.139826 0.973262
Si Si3 0.971498 0.710601 0.149607
Si Si4 0.858148 0.369703 0.520932
Si Si5 0.518680 0.136520 0.757807
Si Si6 0.260277 0.135137 0.482530
Si Si7 0.390675 0.286695 0.118812
Si Si8 0.028257 0.860504 0.565014
O O1 0.500000 0.204510 0.500000
O O2 0.489798 0.166056 0.339909
O O3 0.400382 0.000000 0.604131
O O4 0.283942 0.198954 0.770340
O O5 0.083473 0.210298 0.002159
O O6 0.090365 0.151455 0.178650
O O7 0.159358 0.000000 0.928828
O O8 0.933413 0.623602 0.299072
O O9 0.859610 0.793327 0.307646
O O10 0.000000 0.645097 0.000000
O O11 0.888183 0.500000 0.524172
O O12 0.717520 0.377777 0.725901
O O13 0.882929 0.246844 0.542371
O O14 0.658799 0.146818 0.554794
O O15 0.473101 0.000000 0.855419
O O16 0.437712 0.234728 0.942096
O O17 0.341116 0.175472 0.261816
O O18 0.219035 0.000000 0.527236
O O19 0.500000 0.350062 0.000000
O O20 0.000000 0.835070 0.500000
O O21 0.080464 0.000000 0.491640
#
# Coordination Sequence:
#
# PCOD8059648 Si02
#       8
#     4   4   4   4   4   4   4   4
#     4   9  17  27  39  60  93 131 166 199 240 294
#     4   9  17  29  45  70 104 135 166 206 253 306
#     4  10  19  30  47  69  96 133 173 210 252 302
#     4  10  22  37  53  77 107 138 175 217 260 310
#     4   9  16  26  42  65  94 128 166 208 254 303
#     4   9  16  26  42  68  99 127 161 209 261 307
#     4   9  18  31  47  68  96 132 173 213 255 302
#     4   9  19  36  58  82 107 136 171 215 266 315
#
# _framework density 18.599589000000002
#
# number of rings (size 3 to 8) (size 9 to 14) (size 15 to 20)
#    0.000    2.750    0.000    1.500    0.000    8.750 
#    0.000    2.500    0.000    0.000    0.000    0.875 
#    0.000    9.500    0.000    0.000    0.000    0.000 
#
# Total GULP energy -396438.410469 kJ/mol
# GULP energy per Si atom -12388.700327 kJ/mol
# Density = 1.855726 g / cm^3
# Si number density = 18.599589 Si / 1000 Ang^3
#
#
#
# Elastic Constant Matrix: (Units=GPa)
#
#
# Indices 1 2 3 4 5 6 
#
# 1 102.5149 31.2825 42.6351 0.0000 6.1139 0.0000
# 2 31.2825 83.0216 16.1386 0.0000 -2.9094 0.0000
# 3 42.6351 16.1386 72.0029 0.0000 -10.0026 0.0000
# 4 0.0000 0.0000 0.0000 -11.4044 0.0000 5.7156
# 5 6.1139 -2.9094 -10.0026 0.0000 29.8833 0.0000
# 6 0.0000 0.0000 0.0000 5.7156 0.0000 8.1268
#
#
#
# Elastic Compliance Matrix: (Units=1/GPa)
#
#
# Indices 1 2 3 4 5 6 
#
# 1 0.015132 -0.004195 -0.008922 0.000000 -0.006491 0.000000
# 2 -0.004195 0.013759 -0.000309 0.000000 0.002094 0.000000
# 3 -0.008922 -0.000309 0.020440 0.000000 0.008637 0.000000
# 4 0.000000 0.000000 0.000000 -0.064833 0.000000 0.045597
# 5 -0.006491 0.002094 0.008637 0.000000 0.037886 0.000000
# 6 0.000000 0.000000 0.000000 0.045597 0.000000 0.090981
#
#
# Mechanical properties :
#
#
# Convention : Reuss Voigt Hill
#
# Bulk Modulus (GPa) = 44.48340 48.62797 46.55569
# Shear Modulus (GPa) = 33.84986 16.48669 25.16827
#
# Velocity S-wave (km/s) = 4.27069 2.98048 3.68253
# Velocity P-wave (km/s) = 6.94886 6.16812 6.57010
#
# Compressibility (1/GPa) = 0.02248030
#
# Stress axis : x y z
#
# Youngs Moduli (GPa) = 66.08353 72.67858 48.92301
#
# Poissons Ratio (x) = 0.30489 0.43648
# Poissons Ratio (y) = 0.27722 0.01512
# Poissons Ratio (z) = 0.58958 0.02246
#
# Static dielectric constant tensor:
#      x y z
#    x 3.516740 0.000000 -0.086630 
#    y 0.000000 3.026850 0.000000 
#    z -0.086630 0.000000 3.524290 
# 
# 
# High freq. dielectric constant tensor:
#      x y z
#    x 1.718840 0.000000 0.000340 
#    y 0.000000 1.675850 0.000000 
#    z 0.000340 0.000000 1.729670 
# 
# From -- ./inp_files/55730.got.cif
#   From: 2010.06.25/outbox.cif.g09.slc.cpg/sg10_28_cif.got.tgz:55730.got - 2010.06.27 22:07:45.
