data_PCOD8059701
_publ_section_title
;
Structure prediction by ZEFSAII (Michael W. Deem and Ramdas Pophale) SiO2 
 PCOD8059701
Probable space group: P 2/M
;
_chemical_formula_sum "Si O2"
_cell_formula_units_Z 18
_cell_length_a 12.953329
_cell_length_b 7.607211
_cell_length_c 11.092013
_cell_angle_alpha 90.000000
_cell_angle_beta 76.310924
_cell_angle_gamma 90.000000
_cell_volume 1061.945351
_symmetry_space_group_name_H-M "P 2/M"
_symmetry_group_IT_number 10
_symmetry_cell_setting 'monoclinic'
loop_
_space_group_symop_operation_xyz
x,y,z
-x,y,-z
-x,-y,-z
x,-y,z
loop_
_atom_site_type_symbol
_atom_site_label
_atom_site_fract_x
_atom_site_fract_y
_atom_site_fract_z
Si Si1 0.376682 0.500000 0.509409
Si Si2 0.741560 0.201229 0.588865
Si Si3 0.904724 0.803833 0.343013
Si Si4 0.137794 0.800134 0.212837
Si Si5 0.117642 0.500000 0.026288
Si Si6 0.794201 0.500000 0.243446
O O1 0.500000 0.500000 0.500000
O O2 0.348908 0.327812 0.438782
O O3 0.318226 0.500000 0.655865
O O4 0.850994 0.234705 0.486434
O O5 0.765886 0.245233 0.722036
O O6 0.702528 0.000000 0.585489
O O7 0.860634 0.672920 0.255667
O O8 0.030527 0.778036 0.320439
O O9 0.876775 0.000000 0.306144
O O10 0.137146 0.673355 0.099230
O O11 0.148968 0.000000 0.162128
O O12 0.211633 0.500000 0.900006
O O13 0.000000 0.500000 0.000000
#
# Coordination Sequence:
#
# PCOD8059701 Si02
#       6
#     2   4   4   4   2   2
#     4  10  21  36  56  75  92 121 161 210 261 294
#     4   9  18  32  51  75  99 123 160 207 249 288
#     4   9  16  28  47  71 100 130 160 195 236 284
#     4  10  19  30  48  72 101 137 166 191 231 286
#     4  12  21  31  44  69 106 144 167 188 222 282
#     4  10  20  33  45  69 102 131 164 196 236 286
#
# _framework density 16.950026000000001
#
# number of rings (size 3 to 8) (size 9 to 14) (size 15 to 20)
#    0.000    2.222    2.222    1.333    0.000    4.444 
#    0.000    4.444    0.000    2.667    0.000    3.111 
#    0.000    0.000    0.000    0.000    0.000    0.000 
#
# Total GULP energy -223123.186002 kJ/mol
# GULP energy per Si atom -12395.732556 kJ/mol
# Density = 1.691145 g / cm^3
# Si number density = 16.950026 Si / 1000 Ang^3
#
#
#
# Elastic Constant Matrix: (Units=GPa)
#
#
# Indices 1 2 3 4 5 6 
#
# 1 92.0322 52.5046 46.3547 0.0000 12.4892 0.0000
# 2 52.5046 124.2289 66.3952 0.0000 16.4276 0.0000
# 3 46.3547 66.3952 110.5039 0.0000 16.7118 0.0000
# 4 0.0000 0.0000 0.0000 49.3382 0.0000 8.5614
# 5 12.4892 16.4276 16.7118 0.0000 15.0737 0.0000
# 6 0.0000 0.0000 0.0000 8.5614 0.0000 19.0215
#
#
#
# Elastic Compliance Matrix: (Units=1/GPa)
#
#
# Indices 1 2 3 4 5 6 
#
# 1 0.015552 -0.004194 -0.003300 0.000000 -0.004657 0.000000
# 2 -0.004194 0.013463 -0.005571 0.000000 -0.005022 0.000000
# 3 -0.003300 -0.005571 0.014957 0.000000 -0.007777 0.000000
# 4 0.000000 0.000000 0.000000 0.021985 0.000000 -0.009895
# 5 -0.004657 -0.005022 -0.007777 0.000000 0.084295 0.000000
# 6 0.000000 0.000000 0.000000 -0.009895 0.000000 0.057026
#
#
# Mechanical properties :
#
#
# Convention : Reuss Voigt Hill
#
# Bulk Modulus (GPa) = 56.04072 73.03045 64.53558
# Shear Modulus (GPa) = 20.88940 27.45403 24.17172
#
# Velocity S-wave (km/s) = 3.51438 4.02892 3.78041
# Velocity P-wave (km/s) = 7.04286 8.05123 7.56387
#
# Compressibility (1/GPa) = 0.01784417
#
# Stress axis : x y z
#
# Youngs Moduli (GPa) = 64.29912 74.27498 66.85792
#
# Poissons Ratio (x) = 0.31147 0.22063
# Poissons Ratio (y) = 0.26964 0.37245
# Poissons Ratio (z) = 0.21219 0.41377
#
# Static dielectric constant tensor:
#      x y z
#    x 2.741710 0.000000 0.026280 
#    y 0.000000 3.438360 0.000000 
#    z 0.026280 0.000000 3.125020 
# 
# 
# High freq. dielectric constant tensor:
#      x y z
#    x 1.603250 0.000000 0.009370 
#    y 0.000000 1.675360 0.000000 
#    z 0.009370 0.000000 1.644780 
# 
# From -- ./inp_files/21676.got.cif
#   From: 2010.06.25/outbox.cif.g09.slc.cpg/sg10_11_cif.got.tgz:21676.got - 2010.06.27 22:07:45.
