data_PCOD8059164
_publ_section_title
;
Structure prediction by ZEFSAII (Michael W. Deem and Ramdas Pophale) SiO2 
 PCOD8059164
Probable space group: P 2/M
;
_chemical_formula_sum "Si O2"
_cell_formula_units_Z 28
_cell_length_a 10.057976
_cell_length_b 8.886365
_cell_length_c 26.257414
_cell_angle_alpha 90.000000
_cell_angle_beta 141.545543
_cell_angle_gamma 90.000000
_cell_volume 1459.492672
_symmetry_space_group_name_H-M "P 2/M"
_symmetry_group_IT_number 10
_symmetry_cell_setting 'monoclinic'
loop_
_space_group_symop_operation_xyz
x,y,z
-x,y,-z
-x,-y,-z
x,-y,z
loop_
_atom_site_type_symbol
_atom_site_label
_atom_site_fract_x
_atom_site_fract_y
_atom_site_fract_z
Si Si1 0.522735 0.321565 0.564670
Si Si2 0.488851 0.822479 0.737860
Si Si3 0.072535 0.324220 0.152504
Si Si4 0.964795 0.321373 0.744216
Si Si5 0.185682 0.324287 0.020357
Si Si6 0.759101 0.177159 0.437253
Si Si7 0.370257 0.320468 0.803942
O O1 0.500000 0.265577 0.500000
O O2 0.513188 0.500000 0.565326
O O3 0.746594 0.259063 0.654031
O O4 0.326339 0.256146 0.537679
O O5 0.730965 0.765976 0.812333
O O6 0.384004 0.771684 0.653364
O O7 0.355342 0.745333 0.742860
O O8 0.480063 0.000000 0.742517
O O9 0.134686 0.500000 0.171556
O O10 0.017767 0.264630 0.192349
O O11 0.867330 0.294169 0.054934
O O12 0.967076 0.500000 0.743236
O O13 0.166748 0.257590 0.773876
O O14 0.195553 0.500000 0.035413
O O15 0.417315 0.257009 0.103979
O O16 0.000000 0.251685 0.000000
O O17 0.000000 0.232001 0.500000
O O18 0.749111 0.000000 0.442925
O O19 0.366909 0.500000 0.800217
#
# Coordination Sequence:
#
# PCOD8059164 Si02
#       7
#     4   4   4   4   4   4   4
#     4  10  21  37  57  85 116 140 174 223 275 330
#     4  11  22  36  55  81 108 141 185 226 267 319
#     4  10  18  34  58  79 107 145 182 223 271 323
#     4   9  19  34  54  81 110 143 179 219 270 324
#     4   9  16  28  51  83 109 138 183 226 265 319
#     4  10  23  41  58  80 110 143 184 226 266 322
#     4  10  20  35  55  80 112 145 181 225 272 321
#
# _framework density 19.184747999999999
#
# number of rings (size 3 to 8) (size 9 to 14) (size 15 to 20)
#    0.000    2.143    2.857    0.429    2.000    1.714 
#    0.000    5.714    0.000    0.000    0.000    2.000 
#    0.000    0.000    0.000    0.000    0.000    0.000 
#
# Total GULP energy -347237.329531 kJ/mol
# GULP energy per Si atom -12401.333198 kJ/mol
# Density = 1.914108 g / cm^3
# Si number density = 19.184748 Si / 1000 Ang^3
#
#
#
# Elastic Constant Matrix: (Units=GPa)
#
#
# Indices 1 2 3 4 5 6 
#
# 1 173.1889 26.1263 65.8706 0.0000 -3.1064 0.0000
# 2 26.1263 23.0175 19.7811 0.0000 -2.1206 0.0000
# 3 65.8706 19.7811 111.2959 0.0000 -4.5652 0.0000
# 4 0.0000 0.0000 0.0000 14.9230 0.0000 -1.8913
# 5 -3.1064 -2.1206 -4.5652 0.0000 40.3335 0.0000
# 6 0.0000 0.0000 0.0000 -1.8913 0.0000 15.5501
#
#
#
# Elastic Compliance Matrix: (Units=1/GPa)
#
#
# Indices 1 2 3 4 5 6 
#
# 1 0.008095 -0.005993 -0.003731 0.000000 -0.000114 0.000000
# 2 -0.005993 0.055827 -0.006303 0.000000 0.001760 0.000000
# 3 -0.003731 -0.006303 0.012345 0.000000 0.000779 0.000000
# 4 0.000000 0.000000 0.000000 0.068060 0.000000 0.008278
# 5 -0.000114 0.001760 0.000779 0.000000 0.024965 0.000000
# 6 0.000000 0.000000 0.000000 0.008278 0.000000 0.065315
#
#
# Mechanical properties :
#
#
# Convention : Reuss Voigt Hill
#
# Bulk Modulus (GPa) = 22.61748 59.00647 40.81197
# Shear Modulus (GPa) = 17.76843 27.20959 22.48901
#
# Velocity S-wave (km/s) = 3.04661 3.77011 3.42750
# Velocity P-wave (km/s) = 4.91840 7.05517 6.08137
#
# Compressibility (1/GPa) = 0.04421359
#
# Stress axis : x y z
#
# Youngs Moduli (GPa) = 123.53463 17.91261 81.00295
#
# Poissons Ratio (x) = 0.10735 0.30218
# Poissons Ratio (y) = 0.74031 0.51059
# Poissons Ratio (z) = 0.46085 0.11291
#
# Static dielectric constant tensor:
#      x y z
#    x 3.652410 0.000000 -0.024660 
#    y 0.000000 3.052340 0.000000 
#    z -0.024660 0.000000 3.738590 
# 
# 
# High freq. dielectric constant tensor:
#      x y z
#    x 1.754810 0.000000 -0.006390 
#    y 0.000000 1.702220 0.000000 
#    z -0.006390 0.000000 1.757650 
# 
# From -- ./inp_files/79262.got.cif
#   From: 2010.06.25/outbox.cif.g09.slc.cpg/sg10_40_cif.got.tgz:79262.got - 2010.06.27 22:07:45.
