data_PCOD8059412
_publ_section_title
;
Structure prediction by ZEFSAII (Michael W. Deem and Ramdas Pophale) SiO2 
 PCOD8059412
Probable space group: P 2/M
;
_chemical_formula_sum "Si O2"
_cell_formula_units_Z 28
_cell_length_a 18.778084
_cell_length_b 9.476632
_cell_length_c 12.064309
_cell_angle_alpha 90.000000
_cell_angle_beta 130.526034
_cell_angle_gamma 90.000000
_cell_volume 1631.866565
_symmetry_space_group_name_H-M "P 2/M"
_symmetry_group_IT_number 10
_symmetry_cell_setting 'monoclinic'
loop_
_space_group_symop_operation_xyz
x,y,z
-x,y,-z
-x,-y,-z
x,-y,z
loop_
_atom_site_type_symbol
_atom_site_label
_atom_site_fract_x
_atom_site_fract_y
_atom_site_fract_z
Si Si1 0.892934 0.664921 0.881185
Si Si2 0.008764 0.847400 0.638753
Si Si3 0.605052 0.835262 0.621293
Si Si4 0.180072 0.337613 0.788355
Si Si5 0.757065 0.163126 0.598517
Si Si6 0.196044 0.162740 0.588548
Si Si7 0.737505 0.340022 0.897588
O O1 0.892405 0.500000 0.852373
O O2 0.843427 0.744704 0.729917
O O3 0.835876 0.698890 0.936725
O O4 0.000000 0.719593 0.000000
O O5 0.904730 0.802429 0.570639
O O6 0.000000 0.866925 0.500000
O O7 0.084424 0.727701 0.741227
O O8 0.038238 0.000000 0.720779
O O9 0.500000 0.777630 0.500000
O O10 0.661888 0.799446 0.567005
O O11 0.653096 0.759009 0.773744
O O12 0.604651 0.000000 0.648540
O O13 0.161017 0.500000 0.738708
O O14 0.218558 0.259260 0.717646
O O15 0.255036 0.321912 0.962371
O O16 0.735106 0.193412 0.445635
O O17 0.784875 0.000000 0.643666
O O18 0.201027 0.000000 0.633618
O O19 0.710983 0.500000 0.840086
#
# Coordination Sequence:
#
# PCOD8059412 Si02
#       7
#     4   4   4   4   4   4   4
#     4   9  18  31  46  65  95 130 159 193 235 277
#     4   8  15  27  40  57  86 125 165 196 223 260
#     4   9  18  34  56  78  95 114 150 200 247 291
#     4  10  19  29  44  67  95 126 163 200 229 268
#     4   9  18  32  49  71  96 122 156 196 238 285
#     4   9  18  31  45  64  94 129 162 195 232 276
#     4   9  19  33  47  70  99 126 158 193 236 286
#
# _framework density 17.158266000000001
#
# number of rings (size 3 to 8) (size 9 to 14) (size 15 to 20)
#    0.000    3.000    0.000    1.286    2.000    4.857 
#    0.000    0.000    0.000    0.857    0.000    6.000 
#    0.000    0.000    0.000    0.000    0.000    0.000 
#
# Total GULP energy -347015.611211 kJ/mol
# GULP energy per Si atom -12393.414686 kJ/mol
# Density = 1.711921 g / cm^3
# Si number density = 17.158266 Si / 1000 Ang^3
#
#
#
# Elastic Constant Matrix: (Units=GPa)
#
#
# Indices 1 2 3 4 5 6 
#
# 1 76.8521 40.1782 54.4122 0.0000 3.5434 0.0000
# 2 40.1782 78.0976 54.3127 0.0000 -1.1403 0.0000
# 3 54.4122 54.3127 90.3559 0.0000 0.1912 0.0000
# 4 0.0000 0.0000 0.0000 27.6469 0.0000 2.4675
# 5 3.5434 -1.1403 0.1912 0.0000 29.9164 0.0000
# 6 0.0000 0.0000 0.0000 2.4675 0.0000 13.4594
#
#
#
# Elastic Compliance Matrix: (Units=1/GPa)
#
#
# Indices 1 2 3 4 5 6 
#
# 1 0.023577 -0.003955 -0.011815 0.000000 -0.002868 0.000000
# 2 -0.003955 0.022691 -0.011261 0.000000 0.001405 0.000000
# 3 -0.011815 -0.011261 0.024949 0.000000 0.000811 0.000000
# 4 0.000000 0.000000 0.000000 0.036772 0.000000 -0.006741
# 5 -0.002868 0.001405 0.000811 0.000000 0.033814 0.000000
# 6 0.000000 0.000000 0.000000 -0.006741 0.000000 0.075533
#
#
# Mechanical properties :
#
#
# Convention : Reuss Voigt Hill
#
# Bulk Modulus (GPa) = 58.28727 60.34573 59.31650
# Shear Modulus (GPa) = 18.04300 20.63138 19.33719
#
# Velocity S-wave (km/s) = 3.24630 3.47135 3.36071
# Velocity P-wave (km/s) = 6.93509 7.16334 7.05014
#
# Compressibility (1/GPa) = 0.01715640
#
# Stress axis : x y z
#
# Youngs Moduli (GPa) = 42.41500 44.07053 40.08146
#
# Poissons Ratio (x) = 0.17429 0.47354
# Poissons Ratio (y) = 0.16774 0.45135
# Poissons Ratio (z) = 0.50111 0.49627
#
# Static dielectric constant tensor:
#      x y z
#    x 3.798080 0.000000 0.062630 
#    y 0.000000 3.228850 0.000000 
#    z 0.062630 0.000000 2.995630 
# 
# 
# High freq. dielectric constant tensor:
#      x y z
#    x 1.647750 0.000000 -0.017750 
#    y 0.000000 1.663860 0.000000 
#    z -0.017750 0.000000 1.637100 
# 
# From -- ./inp_files/54718.got.cif
#   From: 2010.06.25/outbox.cif.g09.slc.cpg/sg10_28_cif.got.tgz:54718.got - 2010.06.27 22:07:45.
