data_PCOD8059095
_publ_section_title
;
Structure prediction by ZEFSAII (Michael W. Deem and Ramdas Pophale) SiO2 
 PCOD8059095
Probable space group: P 2/M
;
_chemical_formula_sum "Si O2"
_cell_formula_units_Z 32
_cell_length_a 12.158433
_cell_length_b 8.949082
_cell_length_c 15.476904
_cell_angle_alpha 90.000000
_cell_angle_beta 89.654250
_cell_angle_gamma 90.000000
_cell_volume 1683.961952
_symmetry_space_group_name_H-M "P 2/M"
_symmetry_group_IT_number 10
_symmetry_cell_setting 'monoclinic'
loop_
_space_group_symop_operation_xyz
x,y,z
-x,y,-z
-x,-y,-z
x,-y,z
loop_
_atom_site_type_symbol
_atom_site_label
_atom_site_fract_x
_atom_site_fract_y
_atom_site_fract_z
Si Si1 0.886363 0.322443 0.248552
Si Si2 0.958681 0.331513 0.596611
Si Si3 0.485843 0.822179 0.403248
Si Si4 0.646528 0.177868 0.249976
Si Si5 0.024573 0.175501 0.097010
Si Si6 0.250141 0.176215 0.350652
Si Si7 0.255435 0.824138 0.159956
Si Si8 0.486131 0.178081 0.097226
O O1 0.874813 0.500000 0.245701
O O2 0.765334 0.252666 0.251728
O O3 0.953166 0.268653 0.333852
O O4 0.948810 0.266909 0.162835
O O5 0.930521 0.500000 0.623607
O O6 0.847239 0.238035 0.590869
O O7 0.000000 0.320489 0.500000
O O8 0.500000 0.759485 0.500000
O O9 0.579213 0.767426 0.335408
O O10 0.368216 0.757794 0.375503
O O11 0.486116 0.000000 0.402444
O O12 0.581720 0.229996 0.163227
O O13 0.660870 0.000000 0.250115
O O14 0.152399 0.221406 0.102341
O O15 0.005842 0.000000 0.115617
O O16 0.000000 0.221329 0.000000
O O17 0.225288 0.233086 0.254815
O O18 0.251323 0.000000 0.360563
O O19 0.369416 0.752304 0.127468
O O20 0.274061 0.000000 0.161585
O O21 0.483648 0.000000 0.096795
O O22 0.500000 0.240074 0.000000
#
# Coordination Sequence:
#
# PCOD8059095 Si02
#       8
#     4   4   4   4   4   4   4   4
#     4  11  24  40  56  77 113 153 186 227 281 333
#     4  10  23  41  57  76 108 149 190 231 277 329
#     4   9  18  32  52  82 114 140 170 221 284 332
#     4  10  20  35  56  81 110 143 183 225 269 330
#     4  10  21  36  59  88 113 141 183 230 273 325
#     4  10  18  33  58  83 108 138 180 230 274 322
#     4   9  16  30  51  79 111 137 171 222 267 311
#     4   9  17  29  51  82 111 139 172 216 270 318
#
# _framework density 19.002804999999999
#
# number of rings (size 3 to 8) (size 9 to 14) (size 15 to 20)
#    0.000    2.250    2.500    0.375    3.500    1.000 
#    0.000    0.625    0.000    1.875    0.000    0.000 
#    0.000    0.000    0.000    0.000    0.000    0.000 
#
# Total GULP energy -396634.885956 kJ/mol
# GULP energy per Si atom -12394.840186 kJ/mol
# Density = 1.895955 g / cm^3
# Si number density = 19.002805 Si / 1000 Ang^3
#
#
#
# Elastic Constant Matrix: (Units=GPa)
#
#
# Indices 1 2 3 4 5 6 
#
# 1 157.3643 38.4032 61.5446 0.0000 0.4446 0.0000
# 2 38.4032 30.2593 29.3435 0.0000 -2.1055 0.0000
# 3 61.5446 29.3435 122.8231 0.0000 6.1110 0.0000
# 4 0.0000 0.0000 0.0000 14.5646 0.0000 0.6161
# 5 0.4446 -2.1055 6.1110 0.0000 31.6670 0.0000
# 6 0.0000 0.0000 0.0000 0.6161 0.0000 -2.6749
#
#
#
# Elastic Compliance Matrix: (Units=1/GPa)
#
#
# Indices 1 2 3 4 5 6 
#
# 1 0.009772 -0.010011 -0.002489 0.000000 -0.000323 0.000000
# 2 -0.010011 0.054032 -0.008156 0.000000 0.005307 0.000000
# 3 -0.002489 -0.008156 0.011473 0.000000 -0.002721 0.000000
# 4 0.000000 0.000000 0.000000 0.067997 0.000000 0.015663
# 5 -0.000323 0.005307 -0.002721 0.000000 0.032461 0.000000
# 6 0.000000 0.000000 0.000000 0.015663 0.000000 -0.370243
#
#
# Mechanical properties :
#
#
# Convention : Reuss Voigt Hill
#
# Bulk Modulus (GPa) = 29.44266 63.22547 46.33406
# Shear Modulus (GPa) = -35.24242 20.78838 -7.22702
#
# Velocity S-wave (km/s) = -4.31117 3.31110 -1.95228
# Velocity P-wave (km/s) = 3.04205 6.92544 4.39930
#
# Compressibility (1/GPa) = 0.03396432
#
# Stress axis : x y z
#
# Youngs Moduli (GPa) = 102.33263 18.50766 87.16161
#
# Poissons Ratio (x) = 0.18528 0.21693
# Poissons Ratio (y) = 1.02445 0.71092
# Poissons Ratio (z) = 0.25469 0.15095
#
# Static dielectric constant tensor:
#      x y z
#    x 3.745990 0.000000 0.045890 
#    y 0.000000 3.028280 0.000000 
#    z 0.045890 0.000000 3.724400 
# 
# 
# High freq. dielectric constant tensor:
#      x y z
#    x 1.756590 0.000000 0.002340 
#    y 0.000000 1.686140 0.000000 
#    z 0.002340 0.000000 1.752740 
# 
# From -- ./inp_files/58218.got.cif
#   From: 2010.06.25/outbox.cif.g09.slc.cpg/sg10_30_cif.got.tgz:58218.got - 2010.06.27 22:07:45.
