data_PCOD8059489
_publ_section_title
;
Structure prediction by ZEFSAII (Michael W. Deem and Ramdas Pophale) SiO2 
 PCOD8059489
Probable space group: P 2/M
;
_chemical_formula_sum "Si O2"
_cell_formula_units_Z 32
_cell_length_a 12.266896
_cell_length_b 9.278807
_cell_length_c 21.923495
_cell_angle_alpha 90.000000
_cell_angle_beta 45.157168
_cell_angle_gamma 90.000000
_cell_volume 1769.333366
_symmetry_space_group_name_H-M "P 2/M"
_symmetry_group_IT_number 10
_symmetry_cell_setting 'monoclinic'
loop_
_space_group_symop_operation_xyz
x,y,z
-x,y,-z
-x,-y,-z
x,-y,z
loop_
_atom_site_type_symbol
_atom_site_label
_atom_site_fract_x
_atom_site_fract_y
_atom_site_fract_z
Si Si1 0.937281 0.668890 0.286409
Si Si2 0.966464 0.664516 0.136745
Si Si3 0.674384 0.846413 0.928374
Si Si4 0.752156 0.331870 0.784359
Si Si5 0.221304 0.829434 0.981111
Si Si6 0.387811 0.663302 0.713010
Si Si7 0.370252 0.832456 0.600620
Si Si8 0.517207 0.669078 0.194087
O O1 0.895033 0.500000 0.302072
O O2 0.001636 0.712879 0.193512
O O3 0.784450 0.756619 0.362200
O O4 0.064533 0.705747 0.288887
O O5 0.017998 0.500000 0.106637
O O6 0.786301 0.685494 0.196032
O O7 0.049451 0.761425 0.051680
O O8 0.691742 0.726016 0.871370
O O9 0.761453 0.000000 0.879537
O O10 0.500000 0.888266 0.000000
O O11 0.721161 0.784219 0.974983
O O12 0.730856 0.500000 0.794955
O O13 0.645053 0.273767 0.771129
O O14 0.336135 0.757139 0.887851
O O15 0.214429 0.000000 0.971354
O O16 0.411664 0.500000 0.680319
O O17 0.429546 0.769160 0.641397
O O18 0.496901 0.696803 0.727844
O O19 0.500000 0.802909 0.500000
O O20 0.335879 0.000000 0.623103
O O21 0.544714 0.500000 0.169720
#
# Coordination Sequence:
#
# PCOD8059489 Si02
#       8
#     4   4   4   4   4   4   4   4
#     4   9  18  32  52  80 108 133 165 207 256 304
#     4   9  17  31  49  68  96 132 174 221 263 301
#     4  10  19  30  42  63  97 135 177 223 262 296
#     4  10  19  31  50  74 100 133 175 216 253 297
#     4  11  21  30  44  68  99 137 182 225 263 301
#     4   9  20  38  56  76 102 134 171 208 254 308
#     4  10  21  37  60  88 109 126 155 198 249 306
#     4  10  21  35  51  71 100 140 180 217 254 296
#
# _framework density 18.085909000000001
#
# number of rings (size 3 to 8) (size 9 to 14) (size 15 to 20)
#    0.000    2.250    2.500    1.500    0.000    5.250 
#    0.000    2.500    0.000    0.750    0.000    5.250 
#    0.000    0.000    0.000    0.000    0.000    0.000 
#
# Total GULP energy -396510.961607 kJ/mol
# GULP energy per Si atom -12390.967550 kJ/mol
# Density = 1.804474 g / cm^3
# Si number density = 18.085909 Si / 1000 Ang^3
#
#
#
# Elastic Constant Matrix: (Units=GPa)
#
#
# Indices 1 2 3 4 5 6 
#
# 1 78.0387 25.0445 36.6159 0.0000 6.8413 0.0000
# 2 25.0445 57.6152 50.7346 0.0000 -6.3041 0.0000
# 3 36.6159 50.7346 80.9576 0.0000 -4.0996 0.0000
# 4 0.0000 0.0000 0.0000 27.7905 0.0000 -0.7271
# 5 6.8413 -6.3041 -4.0996 0.0000 14.9536 0.0000
# 6 0.0000 0.0000 0.0000 -0.7271 0.0000 14.9471
#
#
#
# Elastic Compliance Matrix: (Units=1/GPa)
#
#
# Indices 1 2 3 4 5 6 
#
# 1 0.017983 -0.003109 -0.006762 0.000000 -0.011392 0.000000
# 2 -0.003109 0.040739 -0.023509 0.000000 0.012152 0.000000
# 3 -0.006762 -0.023509 0.030217 0.000000 0.001467 0.000000
# 4 0.000000 0.000000 0.000000 0.036029 0.000000 0.001753
# 5 -0.011392 0.012152 0.001467 0.000000 0.077611 0.000000
# 6 0.000000 0.000000 0.000000 0.001753 0.000000 0.066988
#
#
# Mechanical properties :
#
#
# Convention : Reuss Voigt Hill
#
# Bulk Modulus (GPa) = 45.08609 49.04460 47.06535
# Shear Modulus (GPa) = 14.54671 18.48601 16.51636
#
# Velocity S-wave (km/s) = 2.83912 3.20053 3.02523
# Velocity P-wave (km/s) = 5.97749 6.39017 6.18727
#
# Compressibility (1/GPa) = 0.02217979
#
# Stress axis : x y z
#
# Youngs Moduli (GPa) = 55.60681 24.54656 33.09363
#
# Poissons Ratio (x) = 0.07632 0.22378
# Poissons Ratio (y) = 0.17289 0.77799
# Poissons Ratio (z) = 0.37602 0.57706
#
# Static dielectric constant tensor:
#      x y z
#    x 3.721110 0.000000 -0.075510 
#    y 0.000000 3.346440 0.000000 
#    z -0.075510 0.000000 2.956220 
# 
# 
# High freq. dielectric constant tensor:
#      x y z
#    x 1.710350 0.000000 -0.005200 
#    y 0.000000 1.702800 0.000000 
#    z -0.005200 0.000000 1.655980 
# 
# From -- ./inp_files/83583.got.cif
#   From: 2010.06.25/outbox.cif.g09.slc.cpg/sg10_42_cif.got.tgz:83583.got - 2010.06.27 22:07:45.
