data_PCOD8059448
_publ_section_title
;
Structure prediction by ZEFSAII (Michael W. Deem and Ramdas Pophale) SiO2 
 PCOD8059448
Probable space group: P 2/M
;
_chemical_formula_sum "Si O2"
_cell_formula_units_Z 22
_cell_length_a 8.573081
_cell_length_b 11.818898
_cell_length_c 11.685306
_cell_angle_alpha 90.000000
_cell_angle_beta 93.955151
_cell_angle_gamma 90.000000
_cell_volume 1181.186376
_symmetry_space_group_name_H-M "P 2/M"
_symmetry_group_IT_number 10
_symmetry_cell_setting 'monoclinic'
loop_
_space_group_symop_operation_xyz
x,y,z
-x,y,-z
-x,-y,-z
x,-y,z
loop_
_atom_site_type_symbol
_atom_site_label
_atom_site_fract_x
_atom_site_fract_y
_atom_site_fract_z
Si Si1 0.906794 0.000000 0.211862
Si Si2 0.582245 0.625153 0.381133
Si Si3 0.113049 0.817819 0.111447
Si Si4 0.265749 0.366403 0.268034
Si Si5 0.178726 0.000000 0.536643
Si Si6 0.316247 0.000000 0.011885
Si Si7 0.181896 0.240589 0.491268
O O1 0.812528 0.000000 0.325217
O O2 0.016679 0.888636 0.202442
O O3 0.771935 0.000000 0.112053
O O4 0.500000 0.633151 0.500000
O O5 0.646599 0.500000 0.361248
O O6 0.454007 0.655953 0.276865
O O7 0.732596 0.707023 0.391687
O O8 0.178555 0.699471 0.162520
O O9 0.263643 0.889352 0.079544
O O10 0.000000 0.789971 0.000000
O O11 0.229229 0.500000 0.256178
O O12 0.203774 0.320086 0.384562
O O13 0.254566 0.886935 0.484156
O O14 0.000000 0.000000 0.500000
O O15 0.500000 0.000000 0.000000
O O16 0.000000 0.229962 0.500000
#
# Coordination Sequence:
#
# PCOD8059448 Si02
#       7
#     2   4   4   4   2   2   4
#     4   9  18  35  52  72 103 135 161 198 254 303
#     4   8  16  31  46  62  91 128 163 199 240 287
#     4   9  18  34  55  75  98 130 167 205 249 300
#     4  10  20  34  51  71 100 137 171 204 244 290
#     4  10  19  29  46  74 106 130 157 200 248 289
#     4   9  19  34  56  80  99 123 161 208 254 302
#     4  10  19  31  49  74 102 133 167 205 244 289
#
# _framework density 18.625342
#
# number of rings (size 3 to 8) (size 9 to 14) (size 15 to 20)
#    0.000    2.727    0.000    4.909    0.000    4.000 
#    0.000    5.000    0.000    0.545    0.000    0.000 
#    0.000    0.000    0.000    0.000    0.000    0.000 
#
# Total GULP energy -272550.456191 kJ/mol
# GULP energy per Si atom -12388.657100 kJ/mol
# Density = 1.858295 g / cm^3
# Si number density = 18.625342 Si / 1000 Ang^3
#
#
#
# Elastic Constant Matrix: (Units=GPa)
#
#
# Indices 1 2 3 4 5 6 
#
# 1 81.6761 52.8750 20.6993 0.0000 19.8854 0.0000
# 2 52.8750 161.9172 54.8482 0.0000 27.6885 0.0000
# 3 20.6993 54.8482 67.7434 0.0000 12.8714 0.0000
# 4 0.0000 0.0000 0.0000 30.1539 0.0000 5.8556
# 5 19.8854 27.6885 12.8714 0.0000 25.7050 0.0000
# 6 0.0000 0.0000 0.0000 5.8556 0.0000 21.9520
#
#
#
# Elastic Compliance Matrix: (Units=1/GPa)
#
#
# Indices 1 2 3 4 5 6 
#
# 1 0.017012 -0.003944 -0.000344 0.000000 -0.008739 0.000000
# 2 -0.003944 0.010466 -0.006307 0.000000 -0.005065 0.000000
# 3 -0.000344 -0.006307 0.020591 0.000000 -0.003251 0.000000
# 4 0.000000 0.000000 0.000000 0.034975 0.000000 -0.009329
# 5 -0.008739 -0.005065 -0.003251 0.000000 0.052747 0.000000
# 6 0.000000 0.000000 0.000000 -0.009329 0.000000 0.048042
#
#
# Mechanical properties :
#
#
# Convention : Reuss Voigt Hill
#
# Bulk Modulus (GPa) = 37.20381 63.13128 50.16755
# Shear Modulus (GPa) = 23.36633 27.75646 25.56139
#
# Velocity S-wave (km/s) = 3.54580 3.86457 3.70861
# Velocity P-wave (km/s) = 6.06480 7.34044 6.73290
#
# Compressibility (1/GPa) = 0.02687896
#
# Stress axis : x y z
#
# Youngs Moduli (GPa) = 58.78249 95.54338 48.56601
#
# Poissons Ratio (x) = 0.37685 0.01671
# Poissons Ratio (y) = 0.23186 0.30629
# Poissons Ratio (z) = 0.02022 0.60255
#
# Static dielectric constant tensor:
#      x y z
#    x 3.392240 0.000000 0.440340 
#    y 0.000000 4.008930 0.000000 
#    z 0.440340 0.000000 3.286340 
# 
# 
# High freq. dielectric constant tensor:
#      x y z
#    x 1.702730 0.000000 0.030670 
#    y 0.000000 1.732120 0.000000 
#    z 0.030670 0.000000 1.705290 
# 
# From -- ./inp_files/42115.got.cif
#   From: 2010.06.25/outbox.cif.g09.slc.cpg/sg10_22_cif.got.tgz:42115.got - 2010.06.27 22:07:45.
