data_PCOD8059454
_publ_section_title
;
Structure prediction by ZEFSAII (Michael W. Deem and Ramdas Pophale) SiO2 
 PCOD8059454
Probable space group: P 2/M
;
_chemical_formula_sum "Si O2"
_cell_formula_units_Z 28
_cell_length_a 14.433163
_cell_length_b 14.124566
_cell_length_c 9.091368
_cell_angle_alpha 90.000000
_cell_angle_beta 125.929842
_cell_angle_gamma 90.000000
_cell_volume 1500.753554
_symmetry_space_group_name_H-M "P 2/M"
_symmetry_group_IT_number 10
_symmetry_cell_setting 'monoclinic'
loop_
_space_group_symop_operation_xyz
x,y,z
-x,y,-z
-x,-y,-z
x,-y,z
loop_
_atom_site_type_symbol
_atom_site_label
_atom_site_fract_x
_atom_site_fract_y
_atom_site_fract_z
Si Si1 0.165191 0.394006 0.763482
Si Si2 0.122840 0.893160 0.584844
Si Si3 0.674714 0.894294 0.021852
Si Si4 0.755621 0.760362 0.529563
Si Si5 0.073875 0.392875 0.348878
Si Si6 0.366368 0.891463 0.353422
Si Si7 0.622807 0.284756 0.131735
O O1 0.202693 0.500000 0.839189
O O2 0.119879 0.389387 0.556487
O O3 0.278348 0.329445 0.880689
O O4 0.060979 0.362747 0.775249
O O5 0.181605 0.836805 0.510728
O O6 0.000000 0.845810 0.500000
O O7 0.107865 0.000000 0.514248
O O8 0.193691 0.887932 0.802232
O O9 0.668819 0.869811 0.845458
O O10 0.625571 0.000000 0.004770
O O11 0.601266 0.821341 0.050249
O O12 0.847233 0.680626 0.670530
O O13 0.702209 0.814430 0.616822
O O14 0.656959 0.712953 0.335911
O O15 0.086597 0.500000 0.297440
O O16 0.500000 0.873741 0.500000
O O17 0.335236 0.000000 0.368983
O O18 0.500000 0.337859 0.000000
#
# Coordination Sequence:
#
# PCOD8059454 Si02
#       7
#     4   4   4   4   4   4   4
#     4   8  15  28  47  71  99 127 157 201 254 300
#     4   9  18  31  49  74 104 131 160 205 254 299
#     4   9  19  33  48  68 100 135 166 203 248 294
#     4  10  19  29  53  75  97 129 171 210 245 299
#     4   8  15  28  48  73  97 124 162 206 249 298
#     4  10  20  35  52  71 100 138 176 209 245 295
#     4  10  19  29  47  75 101 128 166 208 251 297
#
# _framework density 18.657294
#
# number of rings (size 3 to 8) (size 9 to 14) (size 15 to 20)
#    0.000    2.857    0.000    2.143    6.000    1.143 
#    0.000    0.714    0.000    4.714    0.000    2.000 
#    0.000    0.000    0.000    0.000    0.000    0.000 
#
# Total GULP energy -346963.753629 kJ/mol
# GULP energy per Si atom -12391.562630 kJ/mol
# Density = 1.861483 g / cm^3
# Si number density = 18.657294 Si / 1000 Ang^3
#
#
#
# Elastic Constant Matrix: (Units=GPa)
#
#
# Indices 1 2 3 4 5 6 
#
# 1 90.7950 48.4044 39.7207 0.0000 22.8508 0.0000
# 2 48.4044 85.5178 25.7341 0.0000 8.7503 0.0000
# 3 39.7207 25.7341 58.7633 0.0000 11.6746 0.0000
# 4 0.0000 0.0000 0.0000 8.3901 0.0000 -2.2021
# 5 22.8508 8.7503 11.6746 0.0000 29.0149 0.0000
# 6 0.0000 0.0000 0.0000 -2.2021 0.0000 32.6513
#
#
#
# Elastic Compliance Matrix: (Units=1/GPa)
#
#
# Indices 1 2 3 4 5 6 
#
# 1 0.022633 -0.008891 -0.009126 0.000000 -0.011472 0.000000
# 2 -0.008891 0.017051 -0.001986 0.000000 0.002659 0.000000
# 3 -0.009126 -0.001986 0.024465 0.000000 -0.002057 0.000000
# 4 0.000000 0.000000 0.000000 0.121337 0.000000 0.008183
# 5 -0.011472 0.002659 -0.002057 0.000000 0.043526 0.000000
# 6 0.000000 0.000000 0.000000 0.008183 0.000000 0.031179
#
#
# Mechanical properties :
#
#
# Convention : Reuss Voigt Hill
#
# Bulk Modulus (GPa) = 41.41872 51.42162 46.42017
# Shear Modulus (GPa) = 16.22095 22.09238 19.15666
#
# Velocity S-wave (km/s) = 2.95178 3.44483 3.20779
# Velocity P-wave (km/s) = 5.81939 6.59116 6.21726
#
# Compressibility (1/GPa) = 0.02414367
#
# Stress axis : x y z
#
# Youngs Moduli (GPa) = 44.18276 58.64653 40.87529
#
# Poissons Ratio (x) = 0.52141 0.37304
# Poissons Ratio (y) = 0.39282 0.08117
# Poissons Ratio (z) = 0.40322 0.11646
#
# Static dielectric constant tensor:
#      x y z
#    x 3.412120 0.000000 0.307920 
#    y 0.000000 3.735410 0.000000 
#    z 0.307920 0.000000 3.343470 
# 
# 
# High freq. dielectric constant tensor:
#      x y z
#    x 1.708390 0.000000 0.027280 
#    y 0.000000 1.727570 0.000000 
#    z 0.027280 0.000000 1.695620 
# 
# From -- ./inp_files/29584.got.cif
#   From: 2010.06.25/outbox.cif.g09.slc.cpg/sg10_15_cif.got.tgz:29584.got - 2010.06.27 22:07:45.
