data_PCOD8059393
_publ_section_title
;
Structure prediction by ZEFSAII (Michael W. Deem and Ramdas Pophale) SiO2 
 PCOD8059393
Probable space group: P 2/M
;
_chemical_formula_sum "Si O2"
_cell_formula_units_Z 32
_cell_length_a 22.724914
_cell_length_b 13.656017
_cell_length_c 16.634873
_cell_angle_alpha 90.000000
_cell_angle_beta 23.235887
_cell_angle_gamma 90.000000
_cell_volume 2036.629787
_symmetry_space_group_name_H-M "P 2/M"
_symmetry_group_IT_number 10
_symmetry_cell_setting 'monoclinic'
loop_
_space_group_symop_operation_xyz
x,y,z
-x,y,-z
-x,-y,-z
x,-y,z
loop_
_atom_site_type_symbol
_atom_site_label
_atom_site_fract_x
_atom_site_fract_y
_atom_site_fract_z
Si Si1 0.456221 0.203089 0.322857
Si Si2 0.161440 0.116940 0.619197
Si Si3 0.722410 0.890836 0.686616
Si Si4 0.260013 0.389088 0.808768
Si Si5 0.601566 0.885972 0.443874
Si Si6 0.912979 0.216040 0.028521
Si Si7 0.507441 0.389064 0.624435
Si Si8 0.592214 0.111178 0.006571
O O1 0.290753 0.178512 0.500031
O O2 0.486382 0.138176 0.364026
O O3 0.471156 0.317692 0.326314
O O4 0.584185 0.177328 0.096710
O O5 0.156608 0.149508 0.529980
O O6 0.192373 0.000000 0.588548
O O7 0.005029 0.143292 0.855673
O O8 0.569073 0.890915 0.830638
O O9 0.767891 0.000000 0.653116
O O10 0.704224 0.840203 0.798012
O O11 0.199687 0.500000 0.882107
O O12 0.119916 0.315816 0.979262
O O13 0.349101 0.371089 0.779672
O O14 0.364121 0.368191 0.601397
O O15 0.500000 0.842793 0.500000
O O16 0.761866 0.836729 0.242959
O O17 0.626422 0.000000 0.402251
O O18 0.000000 0.243173 0.000000
O O19 0.517305 0.500000 0.644491
O O20 0.638477 0.000000 0.971918
#
# Coordination Sequence:
#
# PCOD8059393 Si02
#       8
#     4   4   4   4   4   4   4   4
#     4  11  17  27  45  67  91 119 154 189 232 274
#     4  10  19  29  43  65  97 131 156 182 223 275
#     4   7  12  24  39  59  87 119 154 187 221 265
#     4   9  18  33  49  63  84 117 156 197 235 269
#     4  11  22  32  42  61  94 130 161 188 215 265
#     4  12  21  30  45  68  95 127 154 189 229 278
#     4   9  17  31  49  65  84 114 154 199 238 269
#     4   8  13  22  40  64  89 116 149 190 228 266
#
# _framework density 15.712232
#
# number of rings (size 3 to 8) (size 9 to 14) (size 15 to 20)
#    0.000    2.375    2.500    4.500    0.000    0.750 
#    0.000    0.625    0.000    0.000    0.000   11.375 
#    0.000   16.000    0.000    0.000    0.000    0.000 
#
# Total GULP energy -396448.718609 kJ/mol
# GULP energy per Si atom -12389.022457 kJ/mol
# Density = 1.567647 g / cm^3
# Si number density = 15.712232 Si / 1000 Ang^3
#
#
#
# Elastic Constant Matrix: (Units=GPa)
#
#
# Indices 1 2 3 4 5 6 
#
# 1 90.3339 46.4328 46.0456 0.0000 19.6185 0.0000
# 2 46.4328 90.0101 31.2996 0.0000 5.3367 0.0000
# 3 46.0456 31.2996 51.5839 0.0000 13.1193 0.0000
# 4 0.0000 0.0000 0.0000 11.1121 0.0000 -5.3148
# 5 19.6185 5.3367 13.1193 0.0000 29.8878 0.0000
# 6 0.0000 0.0000 0.0000 -5.3148 0.0000 23.0221
#
#
#
# Elastic Compliance Matrix: (Units=1/GPa)
#
#
# Indices 1 2 3 4 5 6 
#
# 1 0.024023 -0.006544 -0.015489 0.000000 -0.007802 0.000000
# 2 -0.006544 0.015915 -0.004711 0.000000 0.003522 0.000000
# 3 -0.015489 -0.004711 0.037452 0.000000 -0.005431 0.000000
# 4 0.000000 0.000000 0.000000 0.101162 0.000000 0.023354
# 5 -0.007802 0.003522 -0.005431 0.000000 0.040335 0.000000
# 6 0.000000 0.000000 0.000000 0.023354 0.000000 0.048828
#
#
# Mechanical properties :
#
#
# Convention : Reuss Voigt Hill
#
# Bulk Modulus (GPa) = 41.83778 53.27597 47.55688
# Shear Modulus (GPa) = 15.18971 20.01441 17.60206
#
# Velocity S-wave (km/s) = 3.11262 3.57292 3.35069
# Velocity P-wave (km/s) = 6.29311 7.14156 6.73072
#
# Compressibility (1/GPa) = 0.02390184
#
# Stress axis : x y z
#
# Youngs Moduli (GPa) = 41.62629 62.83348 26.70097
#
# Poissons Ratio (x) = 0.41119 0.41357
# Poissons Ratio (y) = 0.27241 0.12579
# Poissons Ratio (z) = 0.64475 0.29601
#
# Static dielectric constant tensor:
#      x y z
#    x 3.148000 0.000000 0.303880 
#    y 0.000000 2.960320 0.000000 
#    z 0.303880 0.000000 2.996620 
# 
# 
# High freq. dielectric constant tensor:
#      x y z
#    x 1.594710 0.000000 0.014930 
#    y 0.000000 1.586490 0.000000 
#    z 0.014930 0.000000 1.576570 
# 
# From -- ./inp_files/80336.got.cif
#   From: 2010.06.25/outbox.cif.g09.slc.cpg/sg10_41_cif.got.tgz:80336.got - 2010.06.27 22:07:45.
