data_PCOD8059191
_publ_section_title
;
Structure prediction by ZEFSAII (Michael W. Deem and Ramdas Pophale) SiO2 
 PCOD8059191
Probable space group: P 2/M
;
_chemical_formula_sum "Si O2"
_cell_formula_units_Z 32
_cell_length_a 14.256102
_cell_length_b 8.508937
_cell_length_c 24.003266
_cell_angle_alpha 90.000000
_cell_angle_beta 147.181377
_cell_angle_gamma 90.000000
_cell_volume 1578.086546
_symmetry_space_group_name_H-M "P 2/M"
_symmetry_group_IT_number 10
_symmetry_cell_setting 'monoclinic'
loop_
_space_group_symop_operation_xyz
x,y,z
-x,y,-z
-x,-y,-z
x,-y,z
loop_
_atom_site_type_symbol
_atom_site_label
_atom_site_fract_x
_atom_site_fract_y
_atom_site_fract_z
Si Si1 0.704392 0.679819 0.097738
Si Si2 0.195195 0.181371 0.966821
Si Si3 0.169785 0.684200 0.219772
Si Si4 0.807324 0.316466 0.542703
Si Si5 0.698301 0.182900 0.602506
Si Si6 0.499373 0.314912 0.810173
Si Si7 0.193210 0.683426 0.731873
Si Si8 0.494233 0.686755 0.310945
O O1 0.762914 0.500000 0.116136
O O2 0.776098 0.785280 0.083857
O O3 0.784302 0.750975 0.194477
O O4 0.500000 0.692223 0.000000
O O5 0.001123 0.228042 0.886916
O O6 0.226902 0.000000 0.995253
O O7 0.326276 0.280915 0.069532
O O8 0.142929 0.500000 0.197863
O O9 0.205277 0.718175 0.302136
O O10 0.328699 0.750061 0.262218
O O11 0.779638 0.500000 0.542773
O O12 0.790497 0.217533 0.590412
O O13 0.668938 0.255394 0.428631
O O14 0.998721 0.285389 0.613108
O O15 0.500000 0.238724 0.500000
O O16 0.712496 0.000000 0.624530
O O17 0.475954 0.500000 0.793124
O O18 0.332771 0.240867 0.759074
O O19 0.508276 0.241807 0.752572
O O20 0.236139 0.500000 0.757732
O O21 0.489661 0.500000 0.307262
#
# Coordination Sequence:
#
# PCOD8059191 Si02
#       8
#     4   4   4   4   4   4   4   4
#     4  10  18  34  59  87 116 154 193 229 282 349
#     4  12  25  39  57  87 118 152 192 241 296 352
#     4  11  22  39  61  86 115 154 195 242 291 344
#     4  10  19  35  58  89 119 151 193 237 284 343
#     4  11  22  36  57  88 121 156 190 232 290 350
#     4  10  20  40  61  82 113 153 195 242 291 346
#     4   9  18  32  58  88 116 148 185 232 285 337
#     4   9  20  36  60  87 112 146 199 248 288 335
#
# _framework density 20.277723000000002
#
# number of rings (size 3 to 8) (size 9 to 14) (size 15 to 20)
#    0.000    1.750    2.500    2.625    0.000    2.750 
#    0.000    7.500    0.000    0.000    0.000    1.750 
#    0.000    0.000    0.000    0.000    0.000    0.000 
#
# Total GULP energy -396890.781816 kJ/mol
# GULP energy per Si atom -12402.836932 kJ/mol
# Density = 2.023157 g / cm^3
# Si number density = 20.277723 Si / 1000 Ang^3
#
#
#
# Elastic Constant Matrix: (Units=GPa)
#
#
# Indices 1 2 3 4 5 6 
#
# 1 124.1860 8.6013 87.1104 0.0000 -10.8643 0.0000
# 2 8.6013 28.6424 1.0848 0.0000 2.6519 0.0000
# 3 87.1104 1.0848 125.4104 0.0000 11.1367 0.0000
# 4 0.0000 0.0000 0.0000 11.3441 0.0000 5.0960
# 5 -10.8643 2.6519 11.1367 0.0000 37.2765 0.0000
# 6 0.0000 0.0000 0.0000 5.0960 0.0000 6.9531
#
#
#
# Elastic Compliance Matrix: (Units=1/GPa)
#
#
# Indices 1 2 3 4 5 6 
#
# 1 0.019532 -0.006286 -0.014441 0.000000 0.010454 0.000000
# 2 -0.006286 0.037169 0.004564 0.000000 -0.005840 0.000000
# 3 -0.014441 0.004564 0.018868 0.000000 -0.010171 0.000000
# 4 0.000000 0.000000 0.000000 0.131420 0.000000 -0.096319
# 5 0.010454 -0.005840 -0.010171 0.000000 0.033327 0.000000
# 6 0.000000 0.000000 0.000000 -0.096319 0.000000 0.214414
#
#
# Mechanical properties :
#
#
# Convention : Reuss Voigt Hill
#
# Bulk Modulus (GPa) = 23.12584 52.42575 37.77579
# Shear Modulus (GPa) = 9.97065 23.21091 16.59078
#
# Velocity S-wave (km/s) = 2.21985 3.38694 2.86348
# Velocity P-wave (km/s) = 4.24259 6.41912 5.44081
#
# Compressibility (1/GPa) = 0.04324168
#
# Stress axis : x y z
#
# Youngs Moduli (GPa) = 51.19775 26.90421 52.99896
#
# Poissons Ratio (x) = 0.16913 0.76536
# Poissons Ratio (y) = 0.32185 -0.24187
# Poissons Ratio (z) = 0.73935 -0.12278
#
# Static dielectric constant tensor:
#      x y z
#    x 3.891570 0.000000 0.043700 
#    y 0.000000 3.254270 0.000000 
#    z 0.043700 0.000000 3.790190 
# 
# 
# High freq. dielectric constant tensor:
#      x y z
#    x 1.795430 0.000000 0.009600 
#    y 0.000000 1.753350 0.000000 
#    z 0.009600 0.000000 1.803360 
# 
# From -- ./inp_files/89600.got.cif
#   From: 2010.06.25/outbox.cif.g09.slc.cpg/sg10_45_cif.got.tgz:89600.got - 2010.06.27 22:07:45.
