data_PCOD8059459
_publ_section_title
;
Structure prediction by ZEFSAII (Michael W. Deem and Ramdas Pophale) SiO2 
 PCOD8059459
Probable space group: P 2/M
;
_chemical_formula_sum "Si O2"
_cell_formula_units_Z 28
_cell_length_a 15.228326
_cell_length_b 22.230671
_cell_length_c 5.163187
_cell_angle_alpha 90.000000
_cell_angle_beta 107.068069
_cell_angle_gamma 90.000000
_cell_volume 1670.939897
_symmetry_space_group_name_H-M "P 2/M"
_symmetry_group_IT_number 10
_symmetry_cell_setting 'monoclinic'
loop_
_space_group_symop_operation_xyz
x,y,z
-x,y,-z
-x,-y,-z
x,-y,z
loop_
_atom_site_type_symbol
_atom_site_label
_atom_site_fract_x
_atom_site_fract_y
_atom_site_fract_z
Si Si1 0.177043 0.659419 0.603451
Si Si2 0.600802 0.630972 0.664620
Si Si3 0.391052 0.861745 0.411784
Si Si4 0.669795 0.429587 0.219654
Si Si5 0.280849 0.740961 0.366369
Si Si6 0.391172 0.066979 0.909996
Si Si7 0.899244 0.295235 0.957028
O O1 0.227699 0.597581 0.719739
O O2 0.255180 0.712551 0.627652
O O3 0.105097 0.674913 0.765504
O O4 0.120035 0.654364 0.283570
O O5 0.500000 0.653927 0.500000
O O6 0.632901 0.584283 0.473459
O O7 0.665852 0.689113 0.745715
O O8 0.602203 0.597689 0.942385
O O9 0.500000 0.850654 0.500000
O O10 0.342243 0.799547 0.436107
O O11 0.358960 0.907468 0.606933
O O12 0.357025 0.889522 0.110884
O O13 0.676537 0.500000 0.182278
O O14 0.182776 0.754610 0.137085
O O15 0.350025 0.000000 0.913218
O O16 0.500000 0.063237 0.000000
O O17 0.000000 0.266226 0.000000
#
# Coordination Sequence:
#
# PCOD8059459 Si02
#       7
#     4   4   4   4   4   4   4
#     4   9  19  35  51  74  98 128 153 205 257 297
#     4  11  22  35  50  72 102 135 166 205 245 288
#     4  10  19  29  48  72 100 139 169 200 238 283
#     4  11  21  36  53  71  97 132 170 205 245 291
#     4   9  21  32  52  74 105 124 164 200 256 293
#     4   9  18  31  45  66  99 139 179 207 230 265
#     4  10  19  34  57  74  96 126 157 197 259 314
#
# _framework density 16.757035999999999
#
# number of rings (size 3 to 8) (size 9 to 14) (size 15 to 20)
#    0.857    1.286    1.429    2.143    2.000    3.429 
#    0.000    2.857    0.000    2.571    0.000    0.000 
#    0.000    3.429    0.000    0.000    0.000    0.000 
#
# Total GULP energy -346917.827045 kJ/mol
# GULP energy per Si atom -12389.922394 kJ/mol
# Density = 1.671890 g / cm^3
# Si number density = 16.757036 Si / 1000 Ang^3
#
#
#
# Elastic Constant Matrix: (Units=GPa)
#
#
# Indices 1 2 3 4 5 6 
#
# 1 77.6758 34.2852 21.9100 0.0000 0.1903 0.0000
# 2 34.2852 98.7556 23.5524 0.0000 0.4785 0.0000
# 3 21.9100 23.5524 85.2800 0.0000 -13.6488 0.0000
# 4 0.0000 0.0000 0.0000 16.0169 0.0000 -2.3888
# 5 0.1903 0.4785 -13.6488 0.0000 26.4389 0.0000
# 6 0.0000 0.0000 0.0000 -2.3888 0.0000 11.1878
#
#
#
# Elastic Compliance Matrix: (Units=1/GPa)
#
#
# Indices 1 2 3 4 5 6 
#
# 1 0.015831 -0.004773 -0.003002 0.000000 -0.001577 0.000000
# 2 -0.004773 0.012367 -0.002420 0.000000 -0.001438 0.000000
# 3 -0.003002 -0.002420 0.014363 0.000000 0.007480 0.000000
# 4 0.000000 0.000000 0.000000 0.064488 0.000000 0.013769
# 5 -0.001577 -0.001438 0.007480 0.000000 0.041722 0.000000
# 6 0.000000 0.000000 0.000000 0.013769 0.000000 0.092323
#
#
# Mechanical properties :
#
#
# Convention : Reuss Voigt Hill
#
# Bulk Modulus (GPa) = 45.09965 46.80073 45.95019
# Shear Modulus (GPa) = 18.59624 22.85965 20.72795
#
# Velocity S-wave (km/s) = 3.33492 3.69749 3.52087
# Velocity P-wave (km/s) = 6.46538 6.79840 6.63398
#
# Compressibility (1/GPa) = 0.02217312
#
# Stress axis : x y z
#
# Youngs Moduli (GPa) = 63.16667 80.86074 69.62525
#
# Poissons Ratio (x) = 0.38592 0.20899
# Poissons Ratio (y) = 0.30147 0.16846
# Poissons Ratio (z) = 0.18960 0.19564
#
# Static dielectric constant tensor:
#      x y z
#    x 3.045160 0.000000 -0.124700 
#    y 0.000000 2.925030 0.000000 
#    z -0.124700 0.000000 3.234260 
# 
# 
# High freq. dielectric constant tensor:
#      x y z
#    x 1.625860 0.000000 -0.017940 
#    y 0.000000 1.612640 0.000000 
#    z -0.017940 0.000000 1.657930 
# 
# From -- ./inp_files/9991.got.cif
#   From: 2010.06.25/outbox.cif.g09.slc.cpg/sg10_5_cif.got.tgz:9991.got - 2010.06.27 22:07:45.
