data_PCOD8059395
_publ_section_title
;
Structure prediction by ZEFSAII (Michael W. Deem and Ramdas Pophale) SiO2 
 PCOD8059395
Probable space group: P 2/M
;
_chemical_formula_sum "Si O2"
_cell_formula_units_Z 32
_cell_length_a 8.800829
_cell_length_b 13.925016
_cell_length_c 29.435009
_cell_angle_alpha 90.000000
_cell_angle_beta 151.216514
_cell_angle_gamma 90.000000
_cell_volume 1736.923639
_symmetry_space_group_name_H-M "P 2/M"
_symmetry_group_IT_number 10
_symmetry_cell_setting 'monoclinic'
loop_
_space_group_symop_operation_xyz
x,y,z
-x,y,-z
-x,-y,-z
x,-y,z
loop_
_atom_site_type_symbol
_atom_site_label
_atom_site_fract_x
_atom_site_fract_y
_atom_site_fract_z
Si Si1 0.366397 0.612506 0.598514
Si Si2 0.751297 0.239893 0.281279
Si Si3 0.210266 0.887678 0.455806
Si Si4 0.778751 0.106690 0.208749
Si Si5 0.766935 0.110246 0.106220
Si Si6 0.629011 0.241680 0.734745
Si Si7 0.491582 0.890747 0.622857
Si Si8 0.721080 0.388370 0.599618
O O1 0.376967 0.500000 0.610979
O O2 0.584637 0.659903 0.694788
O O3 0.530025 0.640982 0.594178
O O4 0.000000 0.646772 0.500000
O O5 0.634505 0.183426 0.205944
O O6 0.459349 0.269369 0.236587
O O7 0.916767 0.168035 0.359403
O O8 0.952500 0.331200 0.318554
O O9 0.500000 0.857989 0.500000
O O10 0.272202 0.855655 0.524035
O O11 0.144192 0.000000 0.435215
O O12 0.612763 0.117495 0.116128
O O13 0.150772 0.125005 0.300043
O O14 0.722148 0.000000 0.213809
O O15 0.027324 0.193523 0.170884
O O16 0.901172 0.000000 0.135037
O O17 0.500000 0.133251 0.000000
O O18 0.415252 0.167279 0.648911
O O19 0.421314 0.000000 0.616643
O O20 0.500000 0.359875 0.500000
O O21 0.811289 0.500000 0.622610
#
# Coordination Sequence:
#
# PCOD8059395 Si02
#       8
#     4   4   4   4   4   4   4   4
#     4  10  22  39  57  79 111 149 191 233 271 318
#     4  12  22  30  48  75 109 142 175 222 272 327
#     4  10  19  29  43  65  98 144 184 211 252 315
#     4   9  17  31  51  74 100 134 174 215 261 316
#     4   9  19  39  63  82 106 144 187 233 283 334
#     4  11  23  33  53  80 108 139 185 233 276 325
#     4   9  18  32  46  65  99 141 185 221 252 306
#     4  10  21  35  51  71  99 142 190 228 266 318
#
# _framework density 18.423376999999999
#
# number of rings (size 3 to 8) (size 9 to 14) (size 15 to 20)
#    0.000    2.000    1.250    4.125    3.500    3.500 
#    0.000    1.875    0.000    2.625    0.000    0.000 
#    0.000    4.000    0.000    0.000    0.000    0.000 
#
# Total GULP energy -396557.474131 kJ/mol
# GULP energy per Si atom -12392.421067 kJ/mol
# Density = 1.838144 g / cm^3
# Si number density = 18.423377 Si / 1000 Ang^3
#
#
#
# Elastic Constant Matrix: (Units=GPa)
#
#
# Indices 1 2 3 4 5 6 
#
# 1 117.7746 53.6745 34.9364 0.0000 -14.9698 0.0000
# 2 53.6745 71.1183 30.7761 0.0000 -3.5969 0.0000
# 3 34.9364 30.7761 82.9829 0.0000 -19.1804 0.0000
# 4 0.0000 0.0000 0.0000 21.3358 0.0000 -4.3210
# 5 -14.9698 -3.5969 -19.1804 0.0000 23.0616 0.0000
# 6 0.0000 0.0000 0.0000 -4.3210 0.0000 23.3826
#
#
#
# Elastic Compliance Matrix: (Units=1/GPa)
#
#
# Indices 1 2 3 4 5 6 
#
# 1 0.014162 -0.010079 -0.000573 0.000000 0.007145 0.000000
# 2 -0.010079 0.024111 -0.006613 0.000000 -0.008282 0.000000
# 3 -0.000573 -0.006613 0.017852 0.000000 0.013444 0.000000
# 4 0.000000 0.000000 0.000000 0.048692 0.000000 0.008998
# 5 0.007145 -0.008282 0.013444 0.000000 0.057890 0.000000
# 6 0.000000 0.000000 0.000000 0.008998 0.000000 0.044430
#
#
# Mechanical properties :
#
#
# Convention : Reuss Voigt Hill
#
# Bulk Modulus (GPa) = 46.30747 56.73886 51.52317
# Shear Modulus (GPa) = 20.09119 23.72193 21.90656
#
# Velocity S-wave (km/s) = 3.30590 3.59221 3.45202
# Velocity P-wave (km/s) = 6.30569 6.93320 6.62688
#
# Compressibility (1/GPa) = 0.02159479
#
# Stress axis : x y z
#
# Youngs Moduli (GPa) = 70.60936 41.47479 56.01648
#
# Poissons Ratio (x) = 0.41804 0.03209
# Poissons Ratio (y) = 0.71170 0.37043
# Poissons Ratio (z) = 0.04045 0.27427
#
# Static dielectric constant tensor:
#      x y z
#    x 3.747100 0.000000 -0.262590 
#    y 0.000000 3.389080 0.000000 
#    z -0.262590 0.000000 3.069070 
# 
# 
# High freq. dielectric constant tensor:
#      x y z
#    x 1.725650 0.000000 -0.022410 
#    y 0.000000 1.712340 0.000000 
#    z -0.022410 0.000000 1.665130 
# 
# From -- ./inp_files/94686.got.cif
#   From: 2010.06.25/outbox.cif.g09.slc.cpg/sg10_48_cif.got.tgz:94686.got - 2010.06.27 22:07:45.
