data_PCOD8059133
_publ_section_title
;
Structure prediction by ZEFSAII (Michael W. Deem and Ramdas Pophale) SiO2 
 PCOD8059133
Probable space group: P 2/M
;
_chemical_formula_sum "Si O2"
_cell_formula_units_Z 30
_cell_length_a 29.427301
_cell_length_b 9.393018
_cell_length_c 11.998685
_cell_angle_alpha 90.000000
_cell_angle_beta 29.573823
_cell_angle_gamma 90.000000
_cell_volume 1636.875361
_symmetry_space_group_name_H-M "P 2/M"
_symmetry_group_IT_number 10
_symmetry_cell_setting 'monoclinic'
loop_
_space_group_symop_operation_xyz
x,y,z
-x,y,-z
-x,-y,-z
x,-y,z
loop_
_atom_site_type_symbol
_atom_site_label
_atom_site_fract_x
_atom_site_fract_y
_atom_site_fract_z
Si Si1 0.040737 0.162437 0.793405
Si Si2 0.613027 0.663109 0.878239
Si Si3 0.399700 0.335943 0.348874
Si Si4 0.254344 0.170488 0.791736
Si Si5 0.081902 0.658427 0.102772
Si Si6 0.000000 0.264763 0.500000
Si Si7 0.241276 0.834823 0.294985
Si Si8 0.809720 0.161849 0.835297
O O1 0.150208 0.186913 0.563801
O O2 0.998939 0.272162 0.795581
O O3 0.018424 0.000000 0.804502
O O4 0.000000 0.197960 0.000000
O O5 0.641136 0.500000 0.835396
O O6 0.628431 0.706395 0.716769
O O7 0.674221 0.757376 0.828053
O O8 0.507606 0.687446 0.136992
O O9 0.372985 0.500000 0.429911
O O10 0.349526 0.230555 0.541474
O O11 0.249234 0.000000 0.790288
O O12 0.170854 0.240704 0.900691
O O13 0.244708 0.222106 0.940932
O O14 0.105406 0.500000 0.008319
O O15 0.046940 0.640562 0.304321
O O16 0.920009 0.169389 0.615328
O O17 0.223386 0.765922 0.209827
O O18 0.267247 0.000000 0.231727
O O19 0.782328 0.000000 0.881077
#
# Coordination Sequence:
#
# PCOD8059133 Si02
#       8
#     4   4   4   4   4   2   4   4
#     4  10  22  38  54  77 111 148 187 228 269 316
#     4   9  20  38  60  83 109 144 179 219 275 333
#     4   9  19  39  61  82 110 141 178 224 274 329
#     4  10  21  35  56  82 109 141 183 228 272 323
#     4  11  22  35  53  80 111 146 185 226 272 321
#     4  10  18  34  54  76 107 146 191 230 265 310
#     4  10  20  36  56  81 112 145 183 229 273 319
#     4   9  18  33  54  79 107 145 186 224 272 323
#
# _framework density 18.327601000000001
#
# number of rings (size 3 to 8) (size 9 to 14) (size 15 to 20)
#    0.000    2.267    1.333    2.000    1.867    2.933 
#    0.000    3.333    0.000    4.000    0.000    0.000 
#    0.000    0.000    0.000    0.000    0.000    0.000 
#
# Total GULP energy -371913.072181 kJ/mol
# GULP energy per Si atom -12397.102406 kJ/mol
# Density = 1.828589 g / cm^3
# Si number density = 18.327601 Si / 1000 Ang^3
#
#
#
# Elastic Constant Matrix: (Units=GPa)
#
#
# Indices 1 2 3 4 5 6 
#
# 1 125.0311 49.5179 48.3157 0.0000 -9.4081 0.0000
# 2 49.5179 84.3798 46.0863 0.0000 -2.2497 0.0000
# 3 48.3157 46.0863 106.4764 0.0000 5.1868 0.0000
# 4 0.0000 0.0000 0.0000 11.3387 0.0000 11.1399
# 5 -9.4081 -2.2497 5.1868 0.0000 21.4969 0.0000
# 6 0.0000 0.0000 0.0000 11.1399 0.0000 12.1004
#
#
#
# Elastic Compliance Matrix: (Units=1/GPa)
#
#
# Indices 1 2 3 4 5 6 
#
# 1 0.011648 -0.004792 -0.003476 0.000000 0.005435 0.000000
# 2 -0.004792 0.017724 -0.005550 0.000000 0.001097 0.000000
# 3 -0.003476 -0.005550 0.013634 0.000000 -0.005392 0.000000
# 4 0.000000 0.000000 0.000000 0.923261 0.000000 -0.849975
# 5 0.005435 0.001097 -0.005392 0.000000 0.050313 0.000000
# 6 0.000000 0.000000 0.000000 -0.849975 0.000000 0.865149
#
#
# Mechanical properties :
#
#
# Convention : Reuss Voigt Hill
#
# Bulk Modulus (GPa) = 65.06606 67.08080 66.07343
# Shear Modulus (GPa) = 2.61166 20.45170 11.53168
#
# Velocity S-wave (km/s) = 1.19502 3.34413 2.51110
# Velocity P-wave (km/s) = 6.12232 7.18271 6.67361
#
# Compressibility (1/GPa) = 0.01536900
#
# Stress axis : x y z
#
# Youngs Moduli (GPa) = 85.85038 56.41988 73.34505
#
# Poissons Ratio (x) = 0.27038 0.25496
# Poissons Ratio (y) = 0.41141 0.40710
# Poissons Ratio (z) = 0.29843 0.31316
#
# Static dielectric constant tensor:
#      x y z
#    x 3.429150 0.000000 0.198650 
#    y 0.000000 3.185480 0.000000 
#    z 0.198650 0.000000 3.393270 
# 
# 
# High freq. dielectric constant tensor:
#      x y z
#    x 1.705410 0.000000 0.007460 
#    y 0.000000 1.698700 0.000000 
#    z 0.007460 0.000000 1.711450 
# 
# From -- ./inp_files/57965.got.cif
#   From: 2010.06.25/outbox.cif.g09.slc.cpg/sg10_29_cif.got.tgz:57965.got - 2010.06.27 22:07:45.
