data_PCOD8059936
_publ_section_title
;
Structure prediction by ZEFSAII (Michael W. Deem and Ramdas Pophale) SiO2 
 PCOD8059936
Probable space group: P 2/M
;
_chemical_formula_sum "Si O2"
_cell_formula_units_Z 24
_cell_length_a 14.761316
_cell_length_b 14.093487
_cell_length_c 12.468766
_cell_angle_alpha 90.000000
_cell_angle_beta 147.639362
_cell_angle_gamma 90.000000
_cell_volume 1388.420263
_symmetry_space_group_name_H-M "P 2/M"
_symmetry_group_IT_number 10
_symmetry_cell_setting 'monoclinic'
loop_
_space_group_symop_operation_xyz
x,y,z
-x,y,-z
-x,-y,-z
x,-y,z
loop_
_atom_site_type_symbol
_atom_site_label
_atom_site_fract_x
_atom_site_fract_y
_atom_site_fract_z
Si Si1 0.805772 0.608344 0.577515
Si Si2 0.689180 0.232694 0.312796
Si Si3 0.310824 0.232693 0.934444
Si Si4 0.689773 0.612439 0.689771
Si Si5 0.194230 0.608344 0.965978
Si Si6 0.999997 0.894130 0.372744
O O1 0.740423 0.500000 0.504502
O O2 0.696535 0.670059 0.386424
O O3 0.783997 0.648238 0.676868
O O4 0.000001 0.615864 0.737790
O O5 0.726416 0.257451 0.226414
O O6 0.830018 0.159098 0.497479
O O7 0.500003 0.189076 0.136753
O O8 0.303467 0.329940 0.993362
O O9 0.169987 0.159096 0.837453
O O10 0.500000 0.653074 0.500000
O O11 0.691565 0.500000 0.691559
O O12 0.784002 0.648238 0.891126
O O13 0.259579 0.500000 0.023658
O O14 0.000000 0.900235 0.500000
O O15 0.000001 0.000000 0.323390
#
# Coordination Sequence:
#
# PCOD8059936 Si02
#       6
#     4   4   4   4   4   4
#     4  10  19  31  48  70 100 136 170 203 240 284
#     4  10  20  33  50  74 102 131 165 201 242 295
#     4  10  20  33  50  74 102 131 165 201 242 295
#     4   9  17  29  45  67  95 128 169 209 241 277
#     4  10  19  31  48  70 100 136 170 203 240 284
#     4   9  18  34  53  72  97 126 159 204 253 295
#
# _framework density 17.285831000000002
#
# number of rings (size 3 to 8) (size 9 to 14) (size 15 to 20)
#    0.000    2.333    1.667    1.500    0.000    5.333 
#    0.000    6.667    0.000    0.000    0.000    2.333 
#    0.000    4.000    0.000    0.000    0.000    0.000 
#
# Total GULP energy -297549.863718 kJ/mol
# GULP energy per Si atom -12397.910988 kJ/mol
# Density = 1.724649 g / cm^3
# Si number density = 17.285831 Si / 1000 Ang^3
#
#
#
# Elastic Constant Matrix: (Units=GPa)
#
#
# Indices 1 2 3 4 5 6 
#
# 1 78.0665 42.4763 34.1290 0.0000 8.8974 0.0000
# 2 42.4763 88.0888 44.3071 0.0000 2.2135 0.0000
# 3 34.1290 44.3071 95.9129 0.0000 12.6518 0.0000
# 4 0.0000 0.0000 0.0000 12.5401 0.0000 6.4241
# 5 8.8974 2.2135 12.6518 0.0000 30.1876 0.0000
# 6 0.0000 0.0000 0.0000 6.4241 0.0000 7.2128
#
#
#
# Elastic Compliance Matrix: (Units=1/GPa)
#
#
# Indices 1 2 3 4 5 6 
#
# 1 0.018460 -0.007496 -0.002605 0.000000 -0.003799 0.000000
# 2 -0.007496 0.017934 -0.006071 0.000000 0.003439 0.000000
# 3 -0.002605 -0.006071 0.014817 0.000000 -0.004997 0.000000
# 4 0.000000 0.000000 0.000000 0.146661 0.000000 -0.130624
# 5 -0.003799 0.003439 -0.004997 0.000000 0.036088 0.000000
# 6 0.000000 0.000000 0.000000 -0.130624 0.000000 0.254983
#
#
# Mechanical properties :
#
#
# Convention : Reuss Voigt Hill
#
# Bulk Modulus (GPa) = 53.00141 55.98813 54.49477
# Shear Modulus (GPa) = 9.47734 19.39848 14.43791
#
# Velocity S-wave (km/s) = 2.34406 3.35359 2.89320
# Velocity P-wave (km/s) = 6.16883 6.88878 6.53872
#
# Compressibility (1/GPa) = 0.01886742
#
# Stress axis : x y z
#
# Youngs Moduli (GPa) = 54.17172 55.76081 67.49188
#
# Poissons Ratio (x) = 0.41796 0.17580
# Poissons Ratio (y) = 0.40605 0.40974
# Poissons Ratio (z) = 0.14111 0.33852
#
# Static dielectric constant tensor:
#      x y z
#    x 3.245420 0.000000 0.097920 
#    y 0.000000 3.035290 0.000000 
#    z 0.097920 0.000000 3.326420 
# 
# 
# High freq. dielectric constant tensor:
#      x y z
#    x 1.660700 0.000000 0.016950 
#    y 0.000000 1.626470 0.000000 
#    z 0.016950 0.000000 1.674730 
# 
# From -- ./inp_files/34484.got.cif
#   From: 2010.06.25/outbox.cif.g09.slc.cpg/sg10_18_cif.got.tgz:34484.got - 2010.06.27 22:07:45.
