data_PCOD8059480
_publ_section_title
;
Structure prediction by ZEFSAII (Michael W. Deem and Ramdas Pophale) SiO2 
 PCOD8059480
Probable space group: P 2/M
;
_chemical_formula_sum "Si O2"
_cell_formula_units_Z 22
_cell_length_a 18.877486
_cell_length_b 13.418624
_cell_length_c 5.060844
_cell_angle_alpha 90.000000
_cell_angle_beta 73.019858
_cell_angle_gamma 90.000000
_cell_volume 1226.076016
_symmetry_space_group_name_H-M "P 2/M"
_symmetry_group_IT_number 10
_symmetry_cell_setting 'monoclinic'
loop_
_space_group_symop_operation_xyz
x,y,z
-x,y,-z
-x,-y,-z
x,-y,z
loop_
_atom_site_type_symbol
_atom_site_label
_atom_site_fract_x
_atom_site_fract_y
_atom_site_fract_z
Si Si1 0.198119 0.114980 0.611205
Si Si2 0.052345 0.000000 0.189672
Si Si3 0.455279 0.881144 0.801004
Si Si4 0.949393 0.608129 0.808497
Si Si5 0.709272 0.886432 0.009511
Si Si6 0.087237 0.802544 0.353295
O O1 0.233470 0.162106 0.840251
O O2 0.129806 0.183255 0.584482
O O3 0.169604 0.000000 0.676911
O O4 0.261447 0.121519 0.318777
O O5 0.000000 0.000000 0.500000
O O6 0.104007 0.899882 0.145402
O O7 0.000000 0.000000 0.000000
O O8 0.500000 0.843464 0.500000
O O9 0.371973 0.836354 0.888045
O O10 0.451083 0.000000 0.820983
O O11 0.500000 0.837802 0.000000
O O12 0.910025 0.500000 0.905212
O O13 0.890783 0.698487 0.816419
O O14 0.000000 0.594923 0.500000
O O15 0.000000 0.639239 0.000000
O O16 0.701551 0.000000 0.114009
O O17 0.000000 0.797724 0.500000
#
# Coordination Sequence:
#
# PCOD8059480 Si02
#       6
#     4   2   4   4   4   4
#     4  10  19  30  40  56  82 114 140 174 215 254
#     4  10  20  30  42  60  82 104 136 184 220 246
#     4   9  15  24  40  58  74  99 137 176 203 235
#     4   9  18  32  48  64  81 102 135 184 232 267
#     4   9  18  29  40  56  82 109 139 172 212 254
#     4  10  20  33  46  64  83 113 151 188 219 258
#
# _framework density 17.943422999999999
#
# number of rings (size 3 to 8) (size 9 to 14) (size 15 to 20)
#    0.000    2.545    0.909    1.636    0.000   10.182 
#    0.000    0.000    0.000    0.000    0.000    0.000 
#    0.000    0.000    0.000    0.000    0.000   18.182 
#
# Total GULP energy -272640.680497 kJ/mol
# GULP energy per Si atom -12392.758204 kJ/mol
# Density = 1.790258 g / cm^3
# Si number density = 17.943423 Si / 1000 Ang^3
#
#
#
# Elastic Constant Matrix: (Units=GPa)
#
#
# Indices 1 2 3 4 5 6 
#
# 1 96.0624 14.9173 7.4792 0.0000 19.1103 0.0000
# 2 14.9173 100.1989 3.7769 0.0000 13.6324 0.0000
# 3 7.4792 3.7769 58.1932 0.0000 28.4814 0.0000
# 4 0.0000 0.0000 0.0000 14.0761 0.0000 5.0769
# 5 19.1103 13.6324 28.4814 0.0000 33.8340 0.0000
# 6 0.0000 0.0000 0.0000 5.0769 0.0000 5.4336
#
#
#
# Elastic Compliance Matrix: (Units=1/GPa)
#
#
# Indices 1 2 3 4 5 6 
#
# 1 0.012077 -0.000686 0.002884 0.000000 -0.008972 0.000000
# 2 -0.000686 0.010795 0.002256 0.000000 -0.005861 0.000000
# 3 0.002884 0.002256 0.030458 0.000000 -0.028177 0.000000
# 4 0.000000 0.000000 0.000000 0.107152 0.000000 -0.100118
# 5 -0.008972 -0.005861 -0.028177 0.000000 0.060705 0.000000
# 6 0.000000 0.000000 0.000000 -0.100118 0.000000 0.277584
#
#
# Mechanical properties :
#
#
# Convention : Reuss Voigt Hill
#
# Bulk Modulus (GPa) = 16.06755 34.08904 25.07829
# Shear Modulus (GPa) = 9.79223 25.88748 17.83985
#
# Velocity S-wave (km/s) = 2.33862 3.80245 3.15656
# Velocity P-wave (km/s) = 4.03313 6.19011 5.22416
#
# Compressibility (1/GPa) = 0.06223725
#
# Stress axis : x y z
#
# Youngs Moduli (GPa) = 82.80306 92.63845 32.83233
#
# Poissons Ratio (x) = 0.06354 -0.09468
# Poissons Ratio (y) = 0.05680 -0.07408
# Poissons Ratio (z) = -0.23878 -0.20901
#
# Static dielectric constant tensor:
#      x y z
#    x 3.362270 0.000000 0.180530 
#    y 0.000000 4.743170 0.000000 
#    z 0.180530 0.000000 3.482890 
# 
# 
# High freq. dielectric constant tensor:
#      x y z
#    x 1.678280 0.000000 0.014020 
#    y 0.000000 1.625090 0.000000 
#    z 0.014020 0.000000 1.720280 
# 
# From -- ./inp_files/9104.got.cif
#   From: 2010.06.25/outbox.cif.g09.slc.cpg/sg10_5_cif.got.tgz:9104.got - 2010.06.27 22:07:45.
