data_PCOD8059512
_publ_section_title
;
Structure prediction by ZEFSAII (Michael W. Deem and Ramdas Pophale) SiO2 
 PCOD8059512
Probable space group: P 2/M
;
_chemical_formula_sum "Si O2"
_cell_formula_units_Z 32
_cell_length_a 24.864427
_cell_length_b 8.793241
_cell_length_c 17.032344
_cell_angle_alpha 90.000000
_cell_angle_beta 152.864811
_cell_angle_gamma 90.000000
_cell_volume 1698.454375
_symmetry_space_group_name_H-M "P 2/M"
_symmetry_group_IT_number 10
_symmetry_cell_setting 'monoclinic'
loop_
_space_group_symop_operation_xyz
x,y,z
-x,y,-z
-x,-y,-z
x,-y,z
loop_
_atom_site_type_symbol
_atom_site_label
_atom_site_fract_x
_atom_site_fract_y
_atom_site_fract_z
Si Si1 0.629768 0.831631 0.669735
Si Si2 0.834153 0.674560 0.866406
Si Si3 0.184064 0.324680 0.463435
Si Si4 0.250790 0.821784 0.391251
Si Si5 0.924492 0.676842 0.149824
Si Si6 0.493433 0.319196 0.745067
Si Si7 0.715506 0.168196 0.955568
Si Si8 0.432626 0.677556 0.838778
O O1 0.500000 0.767848 0.500000
O O2 0.698405 0.701804 0.712542
O O3 0.667777 0.847489 0.807415
O O4 0.641120 0.000000 0.644162
O O5 0.864033 0.500000 0.888528
O O6 0.845744 0.765304 0.799336
O O7 0.907094 0.738036 0.036880
O O8 0.191197 0.500000 0.444294
O O9 0.193142 0.220478 0.398997
O O10 0.292217 0.288485 0.662953
O O11 0.061288 0.293301 0.349222
O O12 0.382310 0.749162 0.552113
O O13 0.265640 0.000000 0.403571
O O14 0.890400 0.500000 0.105323
O O15 0.844834 0.754562 0.113931
O O16 0.485896 0.500000 0.728506
O O17 0.622118 0.265377 0.884006
O O18 0.481122 0.260387 0.818868
O O19 0.730132 0.000000 0.012438
O O20 0.458795 0.500000 0.875216
O O21 0.500000 0.756298 0.000000
#
# Coordination Sequence:
#
# PCOD8059512 Si02
#       8
#     4   4   4   4   4   4   4   4
#     4   9  17  28  41  59  86 121 160 204 251 291
#     4  10  19  30  44  63  90 126 169 211 247 286
#     4   9  18  34  54  74  98 129 164 203 248 297
#     4  11  21  32  47  69  99 131 167 211 255 296
#     4   9  19  34  50  69  96 133 174 210 244 287
#     4  10  19  32  52  76 102 130 162 201 247 298
#     4  10  19  30  47  71 100 132 166 205 246 290
#     4   8  15  30  55  84 105 121 149 196 250 298
#
# _framework density 18.840658000000001
#
# number of rings (size 3 to 8) (size 9 to 14) (size 15 to 20)
#    0.000    2.500    0.000    3.750    0.000    3.250 
#    0.000    2.500    0.000   10.125    0.000    5.250 
#    0.000    0.000    0.000    0.000    0.000    0.000 
#
# Total GULP energy -396465.737404 kJ/mol
# GULP energy per Si atom -12389.554294 kJ/mol
# Density = 1.879778 g / cm^3
# Si number density = 18.840658 Si / 1000 Ang^3
#
#
#
# Elastic Constant Matrix: (Units=GPa)
#
#
# Indices 1 2 3 4 5 6 
#
# 1 41.3772 19.2317 23.1877 0.0000 12.5604 0.0000
# 2 19.2317 75.1045 21.7883 0.0000 5.6033 0.0000
# 3 23.1877 21.7883 80.5309 0.0000 14.8618 0.0000
# 4 0.0000 0.0000 0.0000 13.4416 0.0000 7.6084
# 5 12.5604 5.6033 14.8618 0.0000 32.4524 0.0000
# 6 0.0000 0.0000 0.0000 7.6084 0.0000 20.3737
#
#
#
# Elastic Compliance Matrix: (Units=1/GPa)
#
#
# Indices 1 2 3 4 5 6 
#
# 1 0.033194 -0.006011 -0.006283 0.000000 -0.008932 0.000000
# 2 -0.006011 0.015555 -0.002634 0.000000 0.000847 0.000000
# 3 -0.006283 -0.002634 0.015737 0.000000 -0.004320 0.000000
# 4 0.000000 0.000000 0.000000 0.094337 0.000000 -0.035229
# 5 -0.008932 0.000847 -0.004320 0.000000 0.036104 0.000000
# 6 0.000000 0.000000 0.000000 -0.035229 0.000000 0.062239
#
#
# Mechanical properties :
#
#
# Convention : Reuss Voigt Hill
#
# Bulk Modulus (GPa) = 28.87680 36.15865 32.51772
# Shear Modulus (GPa) = 16.74681 22.10720 19.42701
#
# Velocity S-wave (km/s) = 2.98462 3.42918 3.21459
# Velocity P-wave (km/s) = 5.21895 5.90868 5.57449
#
# Compressibility (1/GPa) = 0.03462987
#
# Stress axis : x y z
#
# Youngs Moduli (GPa) = 30.12582 64.28837 63.54587
#
# Poissons Ratio (x) = 0.38642 0.39926
# Poissons Ratio (y) = 0.18108 0.16739
# Poissons Ratio (z) = 0.18928 0.16934
#
# Static dielectric constant tensor:
#      x y z
#    x 3.318010 0.000000 -0.011800 
#    y 0.000000 3.435390 0.000000 
#    z -0.011800 0.000000 3.538190 
# 
# 
# High freq. dielectric constant tensor:
#      x y z
#    x 1.710530 0.000000 0.018570 
#    y 0.000000 1.718780 0.000000 
#    z 0.018570 0.000000 1.719170 
# 
# From -- ./inp_files/79999.got.cif
#   From: 2010.06.25/outbox.cif.g09.slc.cpg/sg10_40_cif.got.tgz:79999.got - 2010.06.27 22:07:45.
