data_PCOD8059838
_publ_section_title
;
Structure prediction by ZEFSAII (Michael W. Deem and Ramdas Pophale) SiO2 
 PCOD8059838
Probable space group: P 2/M
;
_chemical_formula_sum "Si O2"
_cell_formula_units_Z 28
_cell_length_a 20.261309
_cell_length_b 9.474453
_cell_length_c 11.813249
_cell_angle_alpha 90.000000
_cell_angle_beta 55.569089
_cell_angle_gamma 90.000000
_cell_volume 1870.441688
_symmetry_space_group_name_H-M "P 2/M"
_symmetry_group_IT_number 10
_symmetry_cell_setting 'monoclinic'
loop_
_space_group_symop_operation_xyz
x,y,z
-x,y,-z
-x,-y,-z
x,-y,z
loop_
_atom_site_type_symbol
_atom_site_label
_atom_site_fract_x
_atom_site_fract_y
_atom_site_fract_z
Si Si1 0.591870 0.334902 0.417072
Si Si2 0.783402 0.337389 0.829761
Si Si3 0.639096 0.836660 0.583107
Si Si4 0.242009 0.841464 0.345612
Si Si5 0.511766 0.835003 0.117212
Si Si6 0.086468 0.840486 0.384678
Si Si7 0.358278 0.661511 0.878178
O O1 0.500000 0.284525 0.500000
O O2 0.597056 0.500000 0.438344
O O3 0.637879 0.254255 0.471183
O O4 0.635487 0.292691 0.258356
O O5 0.799727 0.500000 0.784569
O O6 0.730113 0.266839 0.780188
O O7 0.869234 0.255490 0.754179
O O8 0.734115 0.320698 0.993900
O O9 0.721732 0.798475 0.568351
O O10 0.566837 0.794895 0.735825
O O11 0.635249 0.000000 0.552035
O O12 0.144210 0.839920 0.440659
O O13 0.273507 0.000000 0.284846
O O14 0.586698 0.756098 0.096961
O O15 0.530325 0.000000 0.104611
O O16 0.500000 0.784327 0.000000
O O17 0.000000 0.776131 0.500000
O O18 0.076148 0.000000 0.347665
O O19 0.386868 0.500000 0.864307
#
# Coordination Sequence:
#
# PCOD8059838 Si02
#       7
#     4   4   4   4   4   4   4
#     4  10  20  34  48  60  83 122 162 199 234 264
#     4   9  17  28  45  69  95 118 147 184 221 265
#     4  10  19  31  46  65  88 117 155 196 229 264
#     4   8  16  30  46  66  96 121 143 178 226 275
#     4  10  20  30  44  64  87 117 152 187 230 271
#     4   8  15  29  49  71  96 124 146 170 219 281
#     4  10  20  33  45  62  88 121 157 191 228 265
#
# _framework density 14.969726
#
# number of rings (size 3 to 8) (size 9 to 14) (size 15 to 20)
#    0.857    1.857    1.429    0.857    0.000    4.286 
#    0.000    0.000    0.000    0.000    0.000    1.000 
#    0.000    8.000    0.000    0.000    0.000    0.000 
#
# Total GULP energy -346959.981520 kJ/mol
# GULP energy per Si atom -12391.427911 kJ/mol
# Density = 1.493565 g / cm^3
# Si number density = 14.969726 Si / 1000 Ang^3
#
#
#
# Elastic Constant Matrix: (Units=GPa)
#
#
# Indices 1 2 3 4 5 6 
#
# 1 64.0948 29.7379 55.4028 0.0000 -5.3086 0.0000
# 2 29.7379 58.0003 48.8513 0.0000 -0.3448 0.0000
# 3 55.4028 48.8513 109.3413 0.0000 2.7172 0.0000
# 4 0.0000 0.0000 0.0000 19.7814 0.0000 0.5525
# 5 -5.3086 -0.3448 2.7172 0.0000 22.9726 0.0000
# 6 0.0000 0.0000 0.0000 0.5525 0.0000 13.8803
#
#
#
# Elastic Compliance Matrix: (Units=1/GPa)
#
#
# Indices 1 2 3 4 5 6 
#
# 1 0.029849 -0.003749 -0.013660 0.000000 0.008457 0.000000
# 2 -0.003749 0.028196 -0.010718 0.000000 0.000825 0.000000
# 3 -0.013660 -0.010718 0.021000 0.000000 -0.005801 0.000000
# 4 0.000000 0.000000 0.000000 0.050609 0.000000 -0.002014
# 5 0.008457 0.000825 -0.005801 0.000000 0.046183 0.000000
# 6 0.000000 0.000000 0.000000 -0.002014 0.000000 0.072125
#
#
# Mechanical properties :
#
#
# Convention : Reuss Voigt Hill
#
# Bulk Modulus (GPa) = 43.87679 55.49114 49.68397
# Shear Modulus (GPa) = 16.03532 17.82314 16.92923
#
# Velocity S-wave (km/s) = 3.27644 3.45427 3.36653
# Velocity P-wave (km/s) = 6.60965 7.28414 6.95507
#
# Compressibility (1/GPa) = 0.02279109
#
# Stress axis : x y z
#
# Youngs Moduli (GPa) = 33.50209 35.46617 47.61967
#
# Poissons Ratio (x) = 0.13296 0.65046
# Poissons Ratio (y) = 0.12560 0.51040
# Poissons Ratio (z) = 0.45762 0.38013
#
# Static dielectric constant tensor:
#      x y z
#    x 2.743870 0.000000 -0.030980 
#    y 0.000000 2.899330 0.000000 
#    z -0.030980 0.000000 2.802350 
# 
# 
# High freq. dielectric constant tensor:
#      x y z
#    x 1.550530 0.000000 -0.003610 
#    y 0.000000 1.577760 0.000000 
#    z -0.003610 0.000000 1.555890 
# 
# From -- ./inp_files/54456.got.cif
#   From: 2010.06.25/outbox.cif.g09.slc.cpg/sg10_28_cif.got.tgz:54456.got - 2010.06.27 22:07:45.
