data_PCOD8059841
_publ_section_title
;
Structure prediction by ZEFSAII (Michael W. Deem and Ramdas Pophale) SiO2 
 PCOD8059841
Probable space group: P 2/M
;
_chemical_formula_sum "Si O2"
_cell_formula_units_Z 32
_cell_length_a 20.958507
_cell_length_b 8.830883
_cell_length_c 23.165866
_cell_angle_alpha 90.000000
_cell_angle_beta 155.969157
_cell_angle_gamma 90.000000
_cell_volume 1746.027278
_symmetry_space_group_name_H-M "P 2/M"
_symmetry_group_IT_number 10
_symmetry_cell_setting 'monoclinic'
loop_
_space_group_symop_operation_xyz
x,y,z
-x,y,-z
-x,-y,-z
x,-y,z
loop_
_atom_site_type_symbol
_atom_site_label
_atom_site_fract_x
_atom_site_fract_y
_atom_site_fract_z
Si Si1 0.401075 0.820028 0.652292
Si Si2 0.540894 0.181450 0.172628
Si Si3 0.673034 0.834289 0.167993
Si Si4 0.092989 0.180323 0.332418
Si Si5 0.029240 0.322101 0.158801
Si Si6 0.716442 0.179717 0.853175
Si Si7 0.165546 0.833399 0.167686
Si Si8 0.212700 0.181068 0.854076
O O1 0.401379 0.756601 0.717992
O O2 0.246657 0.760953 0.492692
O O3 0.554366 0.759852 0.745654
O O4 0.404157 0.000000 0.655893
O O5 0.655998 0.247498 0.216764
O O6 0.545774 0.000000 0.174094
O O7 0.362108 0.236387 0.014783
O O8 0.776754 0.752681 0.203484
O O9 0.746848 0.000000 0.239797
O O10 0.500000 0.852941 0.000000
O O11 0.096244 0.251998 0.272327
O O12 0.943381 0.241621 0.244318
O O13 0.089351 0.000000 0.323591
O O14 0.016758 0.500000 0.154284
O O15 0.154557 0.281666 0.212000
O O16 0.858081 0.256429 0.004526
O O17 0.715270 0.223709 0.783893
O O18 0.737467 0.000000 0.877979
O O19 0.215473 0.000000 0.232045
O O20 0.000000 0.846768 0.000000
O O21 0.212251 0.000000 0.849964
#
# Coordination Sequence:
#
# PCOD8059841 Si02
#       8
#     4   4   4   4   4   4   4   4
#     4   9  17  28  44  67  93 124 159 192 228 270
#     4   8  12  20  36  59  89 121 152 188 228 270
#     4   7  10  17  31  55  87 119 148 181 226 274
#     4  10  19  31  46  65  93 127 161 194 228 270
#     4  11  21  32  49  72  95 120 152 190 233 278
#     4   9  17  32  53  74  95 119 151 190 229 273
#     4   8  15  29  50  73  94 117 147 186 230 273
#     4   8  13  22  39  61  86 120 156 188 226 272
#
# _framework density 18.32732
#
# number of rings (size 3 to 8) (size 9 to 14) (size 15 to 20)
#    0.000    3.250    0.000    4.125    0.000    4.250 
#    0.000    1.875    0.000    7.500    0.000    0.000 
#    0.000   14.500    0.000    0.000    0.000    0.250 
#
# Total GULP energy -396437.297654 kJ/mol
# GULP energy per Si atom -12388.665552 kJ/mol
# Density = 1.828561 g / cm^3
# Si number density = 18.327320 Si / 1000 Ang^3
#
#
#
# Elastic Constant Matrix: (Units=GPa)
#
#
# Indices 1 2 3 4 5 6 
#
# 1 168.5946 23.9972 76.6308 0.0000 -29.2458 0.0000
# 2 23.9972 29.0575 21.6761 0.0000 -5.4333 0.0000
# 3 76.6308 21.6761 104.5533 0.0000 -17.5798 0.0000
# 4 0.0000 0.0000 0.0000 2.7992 0.0000 0.4080
# 5 -29.2458 -5.4333 -17.5798 0.0000 12.8997 0.0000
# 6 0.0000 0.0000 0.0000 0.4080 0.0000 0.0026
#
#
#
# Elastic Compliance Matrix: (Units=1/GPa)
#
#
# Indices 1 2 3 4 5 6 
#
# 1 0.011847 -0.002525 -0.004959 0.000000 0.019038 0.000000
# 2 -0.002525 0.041789 -0.006248 0.000000 0.003362 0.000000
# 3 -0.004959 -0.006248 0.015776 0.000000 0.007627 0.000000
# 4 0.000000 0.000000 0.000000 -0.016231 0.000000 2.562421
# 5 0.019038 0.003362 0.007627 0.000000 0.132494 0.000000
# 6 0.000000 0.000000 0.000000 2.562421 0.000000-17.580816
#
#
# Mechanical properties :
#
#
# Convention : Reuss Voigt Hill
#
# Bulk Modulus (GPa) = 23.83786 60.75705 42.29746
# Shear Modulus (GPa) = -0.28812 15.13372 7.42280
#
# Velocity S-wave (km/s) = -0.39693 2.87670 2.01468
# Velocity P-wave (km/s) = 3.58119 6.65259 5.34237
#
# Compressibility (1/GPa) = 0.04195007
#
# Stress axis : x y z
#
# Youngs Moduli (GPa) = 84.40874 23.92959 63.38555
#
# Poissons Ratio (x) = 0.06043 0.31430
# Poissons Ratio (y) = 0.21315 0.39601
# Poissons Ratio (z) = 0.41854 0.14950
#
# Static dielectric constant tensor:
#      x y z
#    x 4.137130 0.000000 -0.027130 
#    y 0.000000 2.740000 0.000000 
#    z -0.027130 0.000000 3.178400 
# 
# 
# High freq. dielectric constant tensor:
#      x y z
#    x 1.740210 0.000000 -0.007990 
#    y 0.000000 1.640590 0.000000 
#    z -0.007990 0.000000 1.676190 
# 
# From -- ./inp_files/90675.got.cif
#   From: 2010.06.25/outbox.cif.g09.slc.cpg/sg10_46_cif.got.tgz:90675.got - 2010.06.27 22:07:45.
