data_PCOD8059205
_publ_section_title
;
Structure prediction by ZEFSAII (Michael W. Deem and Ramdas Pophale) SiO2 
 PCOD8059205
Probable space group: P 2/M
;
_chemical_formula_sum "Si O2"
_cell_formula_units_Z 28
_cell_length_a 10.024334
_cell_length_b 8.927549
_cell_length_c 25.492347
_cell_angle_alpha 90.000000
_cell_angle_beta 140.030499
_cell_angle_gamma 90.000000
_cell_volume 1465.512181
_symmetry_space_group_name_H-M "P 2/M"
_symmetry_group_IT_number 10
_symmetry_cell_setting 'monoclinic'
loop_
_space_group_symop_operation_xyz
x,y,z
-x,y,-z
-x,-y,-z
x,-y,z
loop_
_atom_site_type_symbol
_atom_site_label
_atom_site_fract_x
_atom_site_fract_y
_atom_site_fract_z
Si Si1 0.507414 0.322507 0.562174
Si Si2 0.505648 0.822698 0.746320
Si Si3 0.066264 0.324118 0.148653
Si Si4 0.939067 0.323073 0.734426
Si Si5 0.386089 0.323234 0.017224
Si Si6 0.762493 0.176852 0.434402
Si Si7 0.353814 0.321776 0.805894
O O1 0.500000 0.271666 0.500000
O O2 0.492107 0.500000 0.563577
O O3 0.721751 0.255786 0.649469
O O4 0.317511 0.250767 0.536283
O O5 0.741185 0.765476 0.816639
O O6 0.376661 0.766750 0.656621
O O7 0.396192 0.757070 0.764138
O O8 0.505222 0.000000 0.749489
O O9 0.117278 0.500000 0.160485
O O10 0.022785 0.271830 0.194764
O O11 0.857841 0.282214 0.054098
O O12 0.930631 0.500000 0.728541
O O13 0.125583 0.266416 0.754216
O O14 0.418381 0.500000 0.024046
O O15 0.487028 0.263605 0.101441
O O16 0.500000 0.253726 0.000000
O O17 0.000000 0.229478 0.500000
O O18 0.747192 0.000000 0.435462
O O19 0.368366 0.500000 0.803250
#
# Coordination Sequence:
#
# PCOD8059205 Si02
#       7
#     4   4   4   4   4   4   4
#     4  10  21  36  57  89 119 139 172 226 284 337
#     4  11  24  40  55  78 113 150 188 228 271 325
#     4  10  18  34  61  84 108 145 185 227 276 328
#     4   9  17  32  56  84 112 141 177 225 275 323
#     4   9  16  30  56  88 113 137 180 234 277 320
#     4  10  23  42  59  77 108 150 191 228 269 323
#     4  10  20  35  58  86 113 144 184 229 277 327
#
# _framework density 19.105947
#
# number of rings (size 3 to 8) (size 9 to 14) (size 15 to 20)
#    0.000    2.143    2.857    0.429    2.000    1.714 
#    0.000    5.000    0.000    0.857    0.000    0.000 
#    0.000    0.000    0.000    0.000    0.000    0.000 
#
# Total GULP energy -347202.433493 kJ/mol
# GULP energy per Si atom -12400.086910 kJ/mol
# Density = 1.906246 g / cm^3
# Si number density = 19.105947 Si / 1000 Ang^3
#
#
#
# Elastic Constant Matrix: (Units=GPa)
#
#
# Indices 1 2 3 4 5 6 
#
# 1 158.6656 34.2527 58.8928 0.0000 8.9215 0.0000
# 2 34.2527 29.0507 23.8219 0.0000 1.7422 0.0000
# 3 58.8928 23.8219 117.5495 0.0000 9.5295 0.0000
# 4 0.0000 0.0000 0.0000 16.4466 0.0000 -5.5583
# 5 8.9215 1.7422 9.5295 0.0000 35.0052 0.0000
# 6 0.0000 0.0000 0.0000 -5.5583 0.0000 2.1830
#
#
#
# Elastic Compliance Matrix: (Units=1/GPa)
#
#
# Indices 1 2 3 4 5 6 
#
# 1 0.009255 -0.008536 -0.002812 0.000000 -0.001168 0.000000
# 2 -0.008536 0.049158 -0.005791 0.000000 0.001305 0.000000
# 3 -0.002812 -0.005791 0.011257 0.000000 -0.002059 0.000000
# 4 0.000000 0.000000 0.000000 0.435977 0.000000 1.110104
# 5 -0.001168 0.001305 -0.002059 0.000000 0.029361 0.000000
# 6 0.000000 0.000000 0.000000 1.110104 0.000000 3.284690
#
#
# Mechanical properties :
#
#
# Convention : Reuss Voigt Hill
#
# Bulk Modulus (GPa) = 28.25643 59.91118 44.08380
# Shear Modulus (GPa) = 1.29340 23.28019 12.28679
#
# Velocity S-wave (km/s) = 0.82367 3.49446 2.53867
# Velocity P-wave (km/s) = 3.96560 6.90703 5.63174
#
# Compressibility (1/GPa) = 0.03539018
#
# Stress axis : x y z
#
# Youngs Moduli (GPa) = 108.05223 20.34273 88.83739
#
# Poissons Ratio (x) = 0.17364 0.24982
# Poissons Ratio (y) = 0.92233 0.51448
# Poissons Ratio (z) = 0.30386 0.11781
#
# Static dielectric constant tensor:
#      x y z
#    x 3.620620 0.000000 0.082280 
#    y 0.000000 3.070430 0.000000 
#    z 0.082280 0.000000 3.869810 
# 
# 
# High freq. dielectric constant tensor:
#      x y z
#    x 1.752730 0.000000 0.004650 
#    y 0.000000 1.699210 0.000000 
#    z 0.004650 0.000000 1.758300 
# 
# From -- ./inp_files/92093.got.cif
#   From: 2010.06.25/outbox.cif.g09.slc.cpg/sg10_47_cif.got.tgz:92093.got - 2010.06.27 22:07:45.
