data_PCOD8059903
_publ_section_title
;
Structure prediction by ZEFSAII (Michael W. Deem and Ramdas Pophale) SiO2 
 PCOD8059903
Probable space group: P 2/M
;
_chemical_formula_sum "Si O2"
_cell_formula_units_Z 26
_cell_length_a 6.457177
_cell_length_b 14.048128
_cell_length_c 18.844733
_cell_angle_alpha 90.000000
_cell_angle_beta 52.746876
_cell_angle_gamma 90.000000
_cell_volume 1360.652702
_symmetry_space_group_name_H-M "P 2/M"
_symmetry_group_IT_number 10
_symmetry_cell_setting 'monoclinic'
loop_
_space_group_symop_operation_xyz
x,y,z
-x,y,-z
-x,-y,-z
x,-y,z
loop_
_atom_site_type_symbol
_atom_site_label
_atom_site_fract_x
_atom_site_fract_y
_atom_site_fract_z
Si Si1 0.000000 0.179886 0.500000
Si Si2 0.737584 0.610135 0.097414
Si Si3 0.592687 0.763798 0.902115
Si Si4 0.197845 0.731614 0.778682
Si Si5 0.914604 0.104946 0.369652
Si Si6 0.526896 0.732330 0.416255
Si Si7 0.486468 0.887546 0.207362
O O1 0.025650 0.109572 0.559926
O O2 0.243495 0.250957 0.442929
O O3 0.665224 0.500000 0.117781
O O4 0.503894 0.660529 0.103947
O O5 0.769065 0.650450 0.169787
O O6 0.000000 0.628448 0.000000
O O7 0.451813 0.845233 0.883446
O O8 0.902330 0.764186 0.832327
O O9 0.500000 0.786147 0.000000
O O10 0.303675 0.684336 0.682270
O O11 0.356790 0.828152 0.765491
O O12 0.671943 0.168689 0.399874
O O13 0.180461 0.133994 0.276331
O O14 0.828908 0.000000 0.365412
O O15 0.500000 0.679228 0.500000
O O16 0.554819 0.000000 0.199275
#
# Coordination Sequence:
#
# PCOD8059903 Si02
#       7
#     2   4   4   4   4   4   4
#     4  10  19  32  46  72 107 144 192 242 287 326
#     4  10  22  39  63  94 118 140 177 229 296 360
#     4  11  22  38  60  86 115 151 188 234 282 343
#     4  11  21  39  59  82 120 155 189 235 287 337
#     4  10  19  31  47  73 106 144 193 242 286 326
#     4  10  21  33  52  79 108 150 197 235 282 335
#     4  10  22  36  54  79 114 159 203 237 276 329
#
# _framework density 19.108477000000001
#
# number of rings (size 3 to 8) (size 9 to 14) (size 15 to 20)
#    0.000    1.692    4.615    0.231    0.000    5.846 
#    0.000    0.769    0.000    0.462    0.000    1.615 
#    0.000    0.000    0.000    0.000    0.000    0.000 
#
# Total GULP energy -322227.758283 kJ/mol
# GULP energy per Si atom -12393.375319 kJ/mol
# Density = 1.906499 g / cm^3
# Si number density = 19.108477 Si / 1000 Ang^3
#
#
#
# Elastic Constant Matrix: (Units=GPa)
#
#
# Indices 1 2 3 4 5 6 
#
# 1 76.5360 13.9954 28.2203 0.0000 -0.2314 0.0000
# 2 13.9954 67.7905 28.6233 0.0000 5.7795 0.0000
# 3 28.2203 28.6233 141.2966 0.0000 18.4199 0.0000
# 4 0.0000 0.0000 0.0000 7.6487 0.0000 11.9445
# 5 -0.2314 5.7795 18.4199 0.0000 32.6240 0.0000
# 6 0.0000 0.0000 0.0000 11.9445 0.0000 5.2893
#
#
#
# Elastic Compliance Matrix: (Units=1/GPa)
#
#
# Indices 1 2 3 4 5 6 
#
# 1 0.014448 -0.001996 -0.002743 0.000000 0.002005 0.000000
# 2 -0.001996 0.016443 -0.002753 0.000000 -0.001372 0.000000
# 3 -0.002743 -0.002753 0.008767 0.000000 -0.004482 0.000000
# 4 0.000000 0.000000 0.000000 -0.051747 0.000000 0.116857
# 5 0.002005 -0.001372 -0.004482 0.000000 0.033440 0.000000
# 6 0.000000 0.000000 0.000000 0.116857 0.000000 -0.074830
#
#
# Mechanical properties :
#
#
# Convention : Reuss Voigt Hill
#
# Bulk Modulus (GPa) = 40.52761 47.47789 44.00275
# Shear Modulus (GPa) = -165.17574 23.43135 -70.87220
#
# Velocity S-wave (km/s) = -9.30746 3.50555 -6.09671
# Velocity P-wave (km/s) = 9.70823 6.42539 5.14607
#
# Compressibility (1/GPa) = 0.02467454
#
# Stress axis : x y z
#
# Youngs Moduli (GPa) = 69.21372 60.81636 114.06251
#
# Poissons Ratio (x) = 0.12137 0.31283
# Poissons Ratio (y) = 0.13813 0.31407
# Poissons Ratio (z) = 0.18983 0.16745
#
# Static dielectric constant tensor:
#      x y z
#    x 3.635010 0.000000 0.170110 
#    y 0.000000 3.073910 0.000000 
#    z 0.170110 0.000000 4.002540 
# 
# 
# High freq. dielectric constant tensor:
#      x y z
#    x 1.758580 0.000000 0.004510 
#    y 0.000000 1.695160 0.000000 
#    z 0.004510 0.000000 1.763730 
# 
# From -- ./inp_files/11226.got.cif
#   From: 2010.06.25/outbox.cif.g09.slc.cpg/sg10_6_cif.got.tgz:11226.got - 2010.06.27 22:07:45.
