data_PCOD8059021
_publ_section_title
;
Structure prediction by ZEFSAII (Michael W. Deem and Ramdas Pophale) SiO2 
 PCOD8059021
Probable space group: P 2/M
;
_chemical_formula_sum "Si O2"
_cell_formula_units_Z 32
_cell_length_a 31.796532
_cell_length_b 9.020662
_cell_length_c 13.336776
_cell_angle_alpha 90.000000
_cell_angle_beta 24.986380
_cell_angle_gamma 90.000000
_cell_volume 1615.830563
_symmetry_space_group_name_H-M "P 2/M"
_symmetry_group_IT_number 10
_symmetry_cell_setting 'monoclinic'
loop_
_space_group_symop_operation_xyz
x,y,z
-x,y,-z
-x,-y,-z
x,-y,z
loop_
_atom_site_type_symbol
_atom_site_label
_atom_site_fract_x
_atom_site_fract_y
_atom_site_fract_z
Si Si1 0.627049 0.823381 0.911183
Si Si2 0.597022 0.176792 0.589168
Si Si3 0.078910 0.165888 0.242296
Si Si4 0.264105 0.175972 0.124205
Si Si5 0.941602 0.673175 0.396010
Si Si6 0.044043 0.836378 0.012637
Si Si7 0.706726 0.175333 0.157521
Si Si8 0.269513 0.176270 0.514451
O O1 0.514127 0.763890 0.151384
O O2 0.628642 0.000000 0.909166
O O3 0.677424 0.762954 0.904952
O O4 0.684201 0.761216 0.689761
O O5 0.632536 0.238768 0.403350
O O6 0.668003 0.236363 0.525117
O O7 0.598763 0.000000 0.585441
O O8 0.000000 0.160470 0.500000
O O9 0.040442 0.277255 0.241298
O O10 0.094508 0.000000 0.164182
O O11 0.182352 0.232543 0.058391
O O12 0.154727 0.243822 0.354909
O O13 0.251529 0.000000 0.156979
O O14 0.321087 0.222394 0.897155
O O15 0.923159 0.500000 0.444265
O O16 0.966408 0.722673 0.229952
O O17 0.155855 0.769434 0.769870
O O18 0.044680 0.000000 0.063655
O O19 0.000000 0.858800 0.000000
O O20 0.704639 0.000000 0.168125
O O21 0.274126 0.000000 0.500104
#
# Coordination Sequence:
#
# PCOD8059021 Si02
#       8
#     4   4   4   4   4   4   4   4
#     4   9  17  28  47  74 102 133 167 215 269 319
#     4   9  16  26  43  73 109 134 162 211 273 321
#     4  10  18  33  55  76 102 141 182 215 254 310
#     4  10  19  34  52  72 102 139 182 217 257 320
#     4  12  24  35  51  78 111 142 175 221 274 318
#     4  10  20  35  56  79 106 145 187 220 256 316
#     4   9  17  29  48  74 103 138 173 213 262 312
#     4   9  16  28  47  72 103 136 170 211 263 320
#
# _framework density 19.804055999999999
#
# number of rings (size 3 to 8) (size 9 to 14) (size 15 to 20)
#    0.000    2.250    1.250    3.000    0.000    6.500 
#    0.000    2.500    0.000    0.000    0.000    5.250 
#    0.000    6.000    0.000    0.000    0.000    0.000 
#
# Total GULP energy -396620.526378 kJ/mol
# GULP energy per Si atom -12394.391449 kJ/mol
# Density = 1.975898 g / cm^3
# Si number density = 19.804056 Si / 1000 Ang^3
#
#
#
# Elastic Constant Matrix: (Units=GPa)
#
#
# Indices 1 2 3 4 5 6 
#
# 1 118.9150 16.6207 40.2657 0.0000 16.4725 0.0000
# 2 16.6207 26.3358 11.9890 0.0000 2.8456 0.0000
# 3 40.2657 11.9890 109.9179 0.0000 13.8817 0.0000
# 4 0.0000 0.0000 0.0000 9.3710 0.0000 -7.2375
# 5 16.4725 2.8456 13.8817 0.0000 38.2456 0.0000
# 6 0.0000 0.0000 0.0000 -7.2375 0.0000 15.3870
#
#
#
# Elastic Compliance Matrix: (Units=1/GPa)
#
#
# Indices 1 2 3 4 5 6 
#
# 1 0.010524 -0.004977 -0.002920 0.000000 -0.003102 0.000000
# 2 -0.004977 0.042386 -0.002801 0.000000 0.000006 0.000000
# 3 -0.002920 -0.002801 0.010782 0.000000 -0.002447 0.000000
# 4 0.000000 0.000000 0.000000 0.167596 0.000000 0.078832
# 5 -0.003102 0.000006 -0.002447 0.000000 0.028371 0.000000
# 6 0.000000 0.000000 0.000000 0.078832 0.000000 0.102070
#
#
# Mechanical properties :
#
#
# Convention : Reuss Voigt Hill
#
# Bulk Modulus (GPa) = 23.64299 43.65771 33.65035
# Shear Modulus (GPa) = 12.58737 25.02026 18.80382
#
# Velocity S-wave (km/s) = 2.52384 3.55828 3.08473
# Velocity P-wave (km/s) = 4.52298 6.24295 5.45123
#
# Compressibility (1/GPa) = 0.04229583
#
# Stress axis : x y z
#
# Youngs Moduli (GPa) = 95.02460 23.59248 92.74643
#
# Poissons Ratio (x) = 0.11742 0.27086
# Poissons Ratio (y) = 0.47292 0.25977
# Poissons Ratio (z) = 0.27751 0.06608
#
# Static dielectric constant tensor:
#      x y z
#    x 3.957770 0.000000 0.158940 
#    y 0.000000 2.886570 0.000000 
#    z 0.158940 0.000000 3.840890 
# 
# 
# High freq. dielectric constant tensor:
#      x y z
#    x 1.787410 0.000000 0.009510 
#    y 0.000000 1.688570 0.000000 
#    z 0.009510 0.000000 1.782230 
# 
# From -- ./inp_files/58209.got.cif
#   From: 2010.06.25/outbox.cif.g09.slc.cpg/sg10_30_cif.got.tgz:58209.got - 2010.06.27 22:07:45.
