data_PCOD8059561
_publ_section_title
;
Structure prediction by ZEFSAII (Michael W. Deem and Ramdas Pophale) SiO2 
 PCOD8059561
Probable space group: P 2/M
;
_chemical_formula_sum "Si O2"
_cell_formula_units_Z 32
_cell_length_a 21.221642
_cell_length_b 9.032994
_cell_length_c 15.429279
_cell_angle_alpha 90.000000
_cell_angle_beta 42.052514
_cell_angle_gamma 90.000000
_cell_volume 1981.111433
_symmetry_space_group_name_H-M "P 2/M"
_symmetry_group_IT_number 10
_symmetry_cell_setting 'monoclinic'
loop_
_space_group_symop_operation_xyz
x,y,z
-x,y,-z
-x,-y,-z
x,-y,z
loop_
_atom_site_type_symbol
_atom_site_label
_atom_site_fract_x
_atom_site_fract_y
_atom_site_fract_z
Si Si1 0.096015 0.326925 0.225559
Si Si2 0.393689 0.824999 0.707682
Si Si3 0.121964 0.673877 0.542412
Si Si4 0.399061 0.825353 0.507101
Si Si5 0.790081 0.824154 0.385260
Si Si6 0.786929 0.674428 0.059377
Si Si7 0.890891 0.671793 0.127068
Si Si8 0.888398 0.833216 0.619401
O O1 0.109721 0.500000 0.228951
O O2 0.142424 0.241161 0.258878
O O3 0.986335 0.288527 0.326238
O O4 0.148031 0.271955 0.086084
O O5 0.381612 0.764396 0.621846
O O6 0.498193 0.776870 0.633642
O O7 0.315565 0.747162 0.846839
O O8 0.379367 0.000000 0.728670
O O9 0.140884 0.500000 0.523293
O O10 0.186382 0.750941 0.547781
O O11 0.153081 0.738989 0.417828
O O12 0.316053 0.770848 0.529050
O O13 0.398296 0.000000 0.516552
O O14 0.861020 0.769193 0.239147
O O15 0.798170 0.000000 0.384463
O O16 0.775713 0.500000 0.068648
O O17 0.834908 0.726709 0.099629
O O18 0.870690 0.500000 0.168278
O O19 0.000000 0.699420 0.000000
O O20 0.000000 0.831599 0.500000
O O21 0.848720 0.000000 0.655712
#
# Coordination Sequence:
#
# PCOD8059561 Si02
#       8
#     4   4   4   4   4   4   4   4
#     4   9  18  32  48  66  94 130 160 186 227 282
#     4   9  16  31  50  65  86 120 157 192 237 286
#     4  10  19  32  49  68  94 130 161 186 228 283
#     4   8  16  30  48  66  88 119 154 194 239 284
#     4  11  20  31  47  69  93 120 158 200 235 269
#     4  10  19  30  45  68  94 121 157 197 230 267
#     4  10  20  33  45  60  91 132 164 188 222 273
#     4   9  17  30  48  71  95 118 153 201 237 263
#
# _framework density 16.152549
#
# number of rings (size 3 to 8) (size 9 to 14) (size 15 to 20)
#    0.000    2.500    1.250    2.625    0.000    4.750 
#    0.000    3.750    0.000    0.000    0.000    0.875 
#    0.000    7.000    0.000    0.000    0.000    0.000 
#
# Total GULP energy -396766.145314 kJ/mol
# GULP energy per Si atom -12398.942041 kJ/mol
# Density = 1.611579 g / cm^3
# Si number density = 16.152549 Si / 1000 Ang^3
#
#
#
# Elastic Constant Matrix: (Units=GPa)
#
#
# Indices 1 2 3 4 5 6 
#
# 1 113.9714 44.6509 45.9833 0.0000 5.4166 0.0000
# 2 44.6509 53.9681 23.0578 0.0000 2.7443 0.0000
# 3 45.9833 23.0578 49.3240 0.0000 -4.5278 0.0000
# 4 0.0000 0.0000 0.0000 25.0349 0.0000 3.1201
# 5 5.4166 2.7443 -4.5278 0.0000 24.8214 0.0000
# 6 0.0000 0.0000 0.0000 3.1201 0.0000 25.6288
#
#
#
# Elastic Compliance Matrix: (Units=1/GPa)
#
#
# Indices 1 2 3 4 5 6 
#
# 1 0.017663 -0.008884 -0.012791 0.000000 -0.005206 0.000000
# 2 -0.008884 0.028153 -0.005072 0.000000 -0.002099 0.000000
# 3 -0.012791 -0.005072 0.035472 0.000000 0.009823 0.000000
# 4 0.000000 0.000000 0.000000 0.040560 0.000000 -0.004938
# 5 -0.005206 -0.002099 0.009823 0.000000 0.043448 0.000000
# 6 0.000000 0.000000 0.000000 -0.004938 0.000000 0.039620
#
#
# Mechanical properties :
#
#
# Convention : Reuss Voigt Hill
#
# Bulk Modulus (GPa) = 35.97884 49.40527 42.69205
# Shear Modulus (GPa) = 18.67954 22.00180 20.34067
#
# Velocity S-wave (km/s) = 3.40434 3.69470 3.55249
# Velocity P-wave (km/s) = 6.14618 6.98958 6.58140
#
# Compressibility (1/GPa) = 0.02779411
#
# Stress axis : x y z
#
# Youngs Moduli (GPa) = 56.61635 35.52032 28.19141
#
# Poissons Ratio (x) = 0.31555 0.36061
# Poissons Ratio (y) = 0.50295 0.14298
# Poissons Ratio (z) = 0.72421 0.18015
#
# Static dielectric constant tensor:
#      x y z
#    x 3.177490 0.000000 -0.025470 
#    y 0.000000 2.987630 0.000000 
#    z -0.025470 0.000000 3.002620 
# 
# 
# High freq. dielectric constant tensor:
#      x y z
#    x 1.611490 0.000000 0.003550 
#    y 0.000000 1.616850 0.000000 
#    z 0.003550 0.000000 1.601880 
# 
# From -- ./inp_files/65995.got.cif
#   From: 2010.06.25/outbox.cif.g09.slc.cpg/sg10_33_cif.got.tgz:65995.got - 2010.06.27 22:07:45.
