data_PCOD8059783
_publ_section_title
;
Structure prediction by ZEFSAII (Michael W. Deem and Ramdas Pophale) SiO2 
 PCOD8059783
Probable space group: P 2/M
;
_chemical_formula_sum "Si O2"
_cell_formula_units_Z 28
_cell_length_a 14.720149
_cell_length_b 9.280824
_cell_length_c 11.995253
_cell_angle_alpha 90.000000
_cell_angle_beta 120.570216
_cell_angle_gamma 90.000000
_cell_volume 1410.959663
_symmetry_space_group_name_H-M "P 2/M"
_symmetry_group_IT_number 10
_symmetry_cell_setting 'monoclinic'
loop_
_space_group_symop_operation_xyz
x,y,z
-x,y,-z
-x,-y,-z
x,-y,z
loop_
_atom_site_type_symbol
_atom_site_label
_atom_site_fract_x
_atom_site_fract_y
_atom_site_fract_z
Si Si1 0.770739 0.335206 0.352300
Si Si2 0.813712 0.329677 0.630134
Si Si3 0.998175 0.169255 0.129993
Si Si4 0.418596 0.334600 0.046791
Si Si5 0.574122 0.842712 0.252802
Si Si6 0.176124 0.664930 0.852052
Si Si7 0.388481 0.840258 0.468189
O O1 0.732661 0.500000 0.335100
O O2 0.822214 0.291425 0.503094
O O3 0.666955 0.247490 0.252618
O O4 0.850919 0.314721 0.297465
O O5 0.818131 0.500000 0.653296
O O6 0.706971 0.268023 0.620149
O O7 0.909786 0.254894 0.751598
O O8 0.888753 0.225227 0.112785
O O9 0.010388 0.000000 0.161365
O O10 0.000000 0.202641 0.000000
O O11 0.431099 0.500000 0.087434
O O12 0.460800 0.237891 0.175893
O O13 0.500000 0.290886 0.000000
O O14 0.298466 0.297135 0.945970
O O15 0.608827 0.860441 0.399878
O O16 0.565945 0.000000 0.191018
O O17 0.150993 0.500000 0.871659
O O18 0.500000 0.772306 0.500000
O O19 0.371151 0.000000 0.402277
#
# Coordination Sequence:
#
# PCOD8059783 Si02
#       7
#     4   4   4   4   4   4   4
#     4   9  18  36  59  86 119 150 183 230 295 354
#     4  10  21  38  64  90 115 150 193 244 292 344
#     4  11  26  46  63  81 114 157 197 243 297 350
#     4  10  19  34  55  80 116 157 188 226 287 347
#     4  10  19  30  50  81 116 153 191 235 279 334
#     4  10  21  38  62  88 116 154 199 243 288 348
#     4   9  19  36  56  81 117 157 193 233 288 345
#
# _framework density 19.844650000000001
#
# number of rings (size 3 to 8) (size 9 to 14) (size 15 to 20)
#    0.000    2.143    1.429    1.286    0.000    5.714 
#    0.000    7.143    0.000    0.000    0.000    0.000 
#    0.000    0.000    0.000    0.000    0.000    0.000 
#
# Total GULP energy -347037.828393 kJ/mol
# GULP energy per Si atom -12394.208157 kJ/mol
# Density = 1.979948 g / cm^3
# Si number density = 19.844650 Si / 1000 Ang^3
#
#
#
# Elastic Constant Matrix: (Units=GPa)
#
#
# Indices 1 2 3 4 5 6 
#
# 1 121.7618 63.0155 48.1690 0.0000 8.7014 0.0000
# 2 63.0155 114.3367 64.1759 0.0000 12.8938 0.0000
# 3 48.1690 64.1759 94.2056 0.0000 15.4395 0.0000
# 4 0.0000 0.0000 0.0000 5.5837 0.0000 -13.4987
# 5 8.7014 12.8938 15.4395 0.0000 26.5888 0.0000
# 6 0.0000 0.0000 0.0000 -13.4987 0.0000 17.5321
#
#
#
# Elastic Compliance Matrix: (Units=1/GPa)
#
#
# Indices 1 2 3 4 5 6 
#
# 1 0.011874 -0.005082 -0.002627 0.000000 0.000104 0.000000
# 2 -0.005082 0.016383 -0.008325 0.000000 -0.001447 0.000000
# 3 -0.002627 -0.008325 0.018597 0.000000 -0.005902 0.000000
# 4 0.000000 0.000000 0.000000 -0.207918 0.000000 -0.160086
# 5 0.000104 -0.001447 -0.005902 0.000000 0.041705 0.000000
# 6 0.000000 0.000000 0.000000 -0.160086 0.000000 -0.066219
#
#
# Mechanical properties :
#
#
# Convention : Reuss Voigt Hill
#
# Bulk Modulus (GPa) = 67.62637 75.66943 71.64790
# Shear Modulus (GPa) = -33.65131 20.27049 -6.69041
#
# Velocity S-wave (km/s) = -4.12240 3.19949 -1.83813
# Velocity P-wave (km/s) = 3.39013 7.20158 5.62831
#
# Compressibility (1/GPa) = 0.01478713
#
# Stress axis : x y z
#
# Youngs Moduli (GPa) = 84.21415 61.03976 53.77336
#
# Poissons Ratio (x) = 0.31020 0.14125
# Poissons Ratio (y) = 0.42797 0.44765
# Poissons Ratio (z) = 0.22120 0.50814
#
# Static dielectric constant tensor:
#      x y z
#    x 3.590820 0.000000 -0.029530 
#    y 0.000000 3.964830 0.000000 
#    z -0.029530 0.000000 3.653100 
# 
# 
# High freq. dielectric constant tensor:
#      x y z
#    x 1.761230 0.000000 0.002950 
#    y 0.000000 1.777440 0.000000 
#    z 0.002950 0.000000 1.771340 
# 
# From -- ./inp_files/50069.got.cif
#   From: 2010.06.25/outbox.cif.g09.slc.cpg/sg10_26_cif.got.tgz:50069.got - 2010.06.27 22:07:45.
