data_PCOD8059840
_publ_section_title
;
Structure prediction by ZEFSAII (Michael W. Deem and Ramdas Pophale) SiO2 
 PCOD8059840
Probable space group: P 2/M
;
_chemical_formula_sum "Si O2"
_cell_formula_units_Z 28
_cell_length_a 8.582051
_cell_length_b 34.389030
_cell_length_c 5.189540
_cell_angle_alpha 90.000000
_cell_angle_beta 107.598647
_cell_angle_gamma 90.000000
_cell_volume 1459.899352
_symmetry_space_group_name_H-M "P 2/M"
_symmetry_group_IT_number 10
_symmetry_cell_setting 'monoclinic'
loop_
_space_group_symop_operation_xyz
x,y,z
-x,y,-z
-x,-y,-z
x,-y,z
loop_
_atom_site_type_symbol
_atom_site_label
_atom_site_fract_x
_atom_site_fract_y
_atom_site_fract_z
Si Si1 0.888509 0.166374 0.194255
Si Si2 0.111246 0.500000 0.805623
Si Si3 0.694514 0.421008 0.097257
Si Si4 0.694223 0.375070 0.597111
Si Si5 0.304844 0.287531 0.402422
Si Si6 0.110551 0.917770 0.805275
Si Si7 0.887499 0.000000 0.193750
Si Si8 0.693601 0.242887 0.096800
O O1 0.795604 0.123859 0.147803
O O2 0.748152 0.198366 0.124076
O O3 0.000000 0.171369 0.500000
O O4 0.000000 0.171369 0.000000
O O5 0.228794 0.463229 0.864397
O O6 0.000000 0.500000 0.500000
O O7 0.000000 0.500000 0.000000
O O8 0.757814 0.397574 0.377590
O O9 0.500000 0.425539 0.000000
O O10 0.757814 0.397575 0.880222
O O11 0.500000 0.373424 0.500000
O O12 0.764728 0.331357 0.632365
O O13 0.500000 0.288144 0.500000
O O14 0.237253 0.265202 0.618957
O O15 0.237253 0.265201 0.118297
O O16 0.000000 0.918162 0.500000
O O17 0.215808 0.958778 0.857904
O O18 0.000000 0.918162 0.000000
O O19 0.000000 0.000000 0.500000
O O20 0.000000 0.000000 0.000000
O O21 0.500000 0.243255 0.000000
#
# Coordination Sequence:
#
# PCOD8059840 Si02
#       8
#     4   2   4   4   4   4   2   4
#     4  10  19  31  46  65  93 125 157 194 239 285
#     4  12  25  40  57  78 110 144 166 192 239 288
#     4  10  20  36  59  83 103 128 167 206 237 277
#     4   9  17  31  55  82 102 123 159 208 247 274
#     4   9  17  30  50  76 100 123 158 202 243 279
#     4   8  14  23  37  57  81 111 144 185 233 278
#     4   8  12  20  34  54  79 104 139 184 230 276
#     4  10  19  31  49  71  96 127 162 197 233 282
#
# _framework density 19.179403000000001
#
# number of rings (size 3 to 8) (size 9 to 14) (size 15 to 20)
#    0.000    2.571    0.000    2.786    0.000    3.429 
#    0.000    2.857    0.000   17.143    0.000    0.500 
#    0.000    0.000    0.000   38.429    0.000    1.429 
#
# Total GULP energy -346893.668445 kJ/mol
# GULP energy per Si atom -12389.059587 kJ/mol
# Density = 1.913575 g / cm^3
# Si number density = 19.179403 Si / 1000 Ang^3
#
#
#
# Elastic Constant Matrix: (Units=GPa)
#
#
# Indices 1 2 3 4 5 6 
#
# 1 25.1398 36.1633 36.6423 0.0000 -15.8568 0.0000
# 2 36.1633 239.0141 67.1361 0.0000 -18.4954 0.0000
# 3 36.6423 67.1361 131.5556 0.0000 -47.6919 0.0000
# 4 0.0000 0.0000 0.0000 30.0662 0.0000 -3.6298
# 5 -15.8568 -18.4954 -47.6919 0.0000 26.5364 0.0000
# 6 0.0000 0.0000 0.0000 -3.6298 0.0000 23.9878
#
#
#
# Elastic Compliance Matrix: (Units=1/GPa)
#
#
# Indices 1 2 3 4 5 6 
#
# 1 0.080611 -0.007654 -0.008662 0.000000 0.027267 0.000000
# 2 -0.007654 0.005700 -0.002855 0.000000 -0.005732 0.000000
# 3 -0.008662 -0.002855 0.025464 0.000000 0.038599 0.000000
# 4 0.000000 0.000000 0.000000 0.033879 0.000000 0.005127
# 5 0.027267 -0.005732 0.038599 0.000000 0.119353 0.000000
# 6 0.000000 0.000000 0.000000 0.005127 0.000000 0.042464
#
#
# Mechanical properties :
#
#
# Convention : Reuss Voigt Hill
#
# Bulk Modulus (GPa) = 13.61764 75.06588 44.34176
# Shear Modulus (GPa) = 13.50294 33.16925 23.33609
#
# Velocity S-wave (km/s) = 2.65624 4.16314 3.49195
# Velocity P-wave (km/s) = 4.06485 7.89511 6.27916
#
# Compressibility (1/GPa) = 0.07343414
#
# Stress axis : x y z
#
# Youngs Moduli (GPa) = 12.40527 175.42975 39.27143
#
# Poissons Ratio (x) = 1.34267 0.34016
# Poissons Ratio (y) = 0.09494 0.11212
# Poissons Ratio (z) = 0.10745 0.50087
#
# Static dielectric constant tensor:
#      x y z
#    x 2.979110 0.000000 -0.429150 
#    y 0.000000 4.291780 0.000000 
#    z -0.429150 0.000000 3.697730 
# 
# 
# High freq. dielectric constant tensor:
#      x y z
#    x 1.685670 0.000000 -0.042090 
#    y 0.000000 1.781030 0.000000 
#    z -0.042090 0.000000 1.756150 
# 
# From -- ./inp_files/5555.got.cif
#   From: 2010.06.25/outbox.cif.g09.slc.cpg/sg10_3_cif.got.tgz:5555.got - 2010.06.27 22:07:45.
