data_PCOD8059926
_publ_section_title
;
Structure prediction by ZEFSAII (Michael W. Deem and Ramdas Pophale) SiO2 
 PCOD8059926
Probable space group: P 2/M
;
_chemical_formula_sum "Si O2"
_cell_formula_units_Z 28
_cell_length_a 31.412483
_cell_length_b 9.284339
_cell_length_c 32.263489
_cell_angle_alpha 90.000000
_cell_angle_beta 9.252949
_cell_angle_gamma 90.000000
_cell_volume 1512.978348
_symmetry_space_group_name_H-M "P 2/M"
_symmetry_group_IT_number 10
_symmetry_cell_setting 'monoclinic'
loop_
_space_group_symop_operation_xyz
x,y,z
-x,y,-z
-x,-y,-z
x,-y,z
loop_
_atom_site_type_symbol
_atom_site_label
_atom_site_fract_x
_atom_site_fract_y
_atom_site_fract_z
Si Si1 0.711214 0.669570 0.762924
Si Si2 0.572305 0.328263 0.475927
Si Si3 0.145637 0.671853 0.951500
Si Si4 0.578554 0.832820 0.807165
Si Si5 0.289720 0.671026 0.903578
Si Si6 0.997835 0.832617 0.334061
Si Si7 0.864772 0.671318 0.378577
O O1 0.699911 0.500000 0.766685
O O2 0.642907 0.743091 0.785683
O O3 0.000000 0.720721 0.500000
O O4 0.500000 0.720712 0.000000
O O5 0.500000 0.268405 0.500000
O O6 0.571750 0.500000 0.476103
O O7 0.858970 0.269214 0.213686
O O8 0.358874 0.269234 0.713779
O O9 0.146404 0.500000 0.951269
O O10 0.217845 0.733300 0.927428
O O11 0.788324 0.790460 0.570518
O O12 0.597079 0.000000 0.800969
O O13 0.288115 0.790445 0.070747
O O14 0.287038 0.500000 0.904422
O O15 0.577685 0.727281 0.640201
O O16 0.075186 0.727235 0.142638
O O17 0.934824 0.737920 0.355027
O O18 0.978851 0.000000 0.340343
O O19 0.871700 0.500000 0.376297
#
# Coordination Sequence:
#
# PCOD8059926 Si02
#       7
#     4   4   4   4   4   4   4
#     4  10  21  36  54  78 106 133 162 198 238 277
#     4   9  15  21  30  46  69 102 146 186 219 265
#     4   9  15  23  34  48  72 105 140 184 229 263
#     4  10  21  36  54  75  99 129 163 196 231 279
#     4   9  17  28  42  62  86 113 151 195 234 276
#     4  10  21  36  52  73 100 127 158 196 239 282
#     4  10  19  31  48  69  91 118 156 195 230 277
#
# _framework density 18.506544000000002
#
# number of rings (size 3 to 8) (size 9 to 14) (size 15 to 20)
#    0.000    2.429    0.000    3.000    0.000    6.857 
#    0.000    0.000    0.000    0.000    0.000    0.000 
#    0.000    0.000    0.000    0.000    0.000   50.000 
#
# Total GULP energy -347266.829666 kJ/mol
# GULP energy per Si atom -12402.386774 kJ/mol
# Density = 1.846442 g / cm^3
# Si number density = 18.506544 Si / 1000 Ang^3
#
#
#
# Elastic Constant Matrix: (Units=GPa)
#
#
# Indices 1 2 3 4 5 6 
#
# 1 187.5282 36.6228 106.1984 0.0000 0.0116 0.0000
# 2 36.6228 18.1319 25.4937 0.0000 0.0280 0.0000
# 3 106.1984 25.4937 208.5378 0.0000 -0.0861 0.0000
# 4 0.0000 0.0000 0.0000 7.7301 0.0000 -0.0179
# 5 0.0116 0.0280 -0.0861 0.0000 35.6368 0.0000
# 6 0.0000 0.0000 0.0000 -0.0179 0.0000 -12.9344
#
#
#
# Elastic Compliance Matrix: (Units=1/GPa)
#
#
# Indices 1 2 3 4 5 6 
#
# 1 0.010392 -0.016361 -0.003292 0.000000 0.000002 0.000000
# 2 -0.016361 0.092358 -0.002959 0.000000 -0.000075 0.000000
# 3 -0.003292 -0.002959 0.006833 0.000000 0.000020 0.000000
# 4 0.000000 0.000000 0.000000 0.129365 0.000000 -0.000179
# 5 0.000002 -0.000075 0.000020 0.000000 0.028061 0.000000
# 6 0.000000 0.000000 0.000000 -0.000179 0.000000 -0.077313
#
#
# Mechanical properties :
#
#
# Convention : Reuss Voigt Hill
#
# Bulk Modulus (GPa) = 15.53769 83.42531 49.48150
# Shear Modulus (GPa) = 19.50275 22.47868 20.99072
#
# Velocity S-wave (km/s) = 3.24980 3.48894 3.37149
# Velocity P-wave (km/s) = 4.74295 7.83626 6.47698
#
# Compressibility (1/GPa) = 0.06435962
#
# Stress axis : x y z
#
# Youngs Moduli (GPa) = 96.22744 10.82740 146.33837
#
# Poissons Ratio (x) = 0.17715 0.48175
# Poissons Ratio (y) = 1.57440 0.43299
# Poissons Ratio (z) = 0.31678 0.03204
#
# Static dielectric constant tensor:
#      x y z
#    x 3.495710 0.000000 -0.000620 
#    y 0.000000 2.838360 0.000000 
#    z -0.000620 0.000000 3.729460 
# 
# 
# High freq. dielectric constant tensor:
#      x y z
#    x 1.735790 0.000000 -0.000020 
#    y 0.000000 1.656600 0.000000 
#    z -0.000020 0.000000 1.743430 
# 
# From -- ./inp_files/13085.got.cif
#   From: 2010.06.25/outbox.cif.g09.slc.cpg/sg10_7_cif.got.tgz:13085.got - 2010.06.27 22:07:45.
