data_PCOD8059911
_publ_section_title
;
Structure prediction by ZEFSAII (Michael W. Deem and Ramdas Pophale) SiO2 
 PCOD8059911
Probable space group: P 2/M
;
_chemical_formula_sum "Si O2"
_cell_formula_units_Z 32
_cell_length_a 11.431497
_cell_length_b 9.224656
_cell_length_c 20.814926
_cell_angle_alpha 90.000000
_cell_angle_beta 115.956874
_cell_angle_gamma 90.000000
_cell_volume 1973.547697
_symmetry_space_group_name_H-M "P 2/M"
_symmetry_group_IT_number 10
_symmetry_cell_setting 'monoclinic'
loop_
_space_group_symop_operation_xyz
x,y,z
-x,y,-z
-x,-y,-z
x,-y,z
loop_
_atom_site_type_symbol
_atom_site_label
_atom_site_fract_x
_atom_site_fract_y
_atom_site_fract_z
Si Si1 0.488723 0.836320 0.724836
Si Si2 0.286713 0.329612 0.840278
Si Si3 0.012417 0.332995 0.427297
Si Si4 0.645478 0.661814 0.007651
Si Si5 0.702182 0.328344 0.535582
Si Si6 0.449671 0.833539 0.122240
Si Si7 0.526832 0.328702 0.608177
Si Si8 0.798303 0.829274 0.296416
O O1 0.583846 0.821867 0.809964
O O2 0.546401 0.736959 0.683045
O O3 0.342358 0.789637 0.708303
O O4 0.487782 0.000000 0.699044
O O5 0.284517 0.500000 0.824180
O O6 0.257077 0.301844 0.909218
O O7 0.427947 0.267826 0.859546
O O8 0.184744 0.246732 0.769547
O O9 0.993662 0.500000 0.401152
O O10 0.152409 0.269580 0.439298
O O11 0.000000 0.318653 0.500000
O O12 0.905271 0.232377 0.369754
O O13 0.673189 0.500000 0.988740
O O14 0.500000 0.673461 0.000000
O O15 0.664583 0.773089 0.952302
O O16 0.702224 0.500000 0.530349
O O17 0.647418 0.280295 0.591957
O O18 0.607021 0.270481 0.456246
O O19 0.481747 0.000000 0.111993
O O20 0.523302 0.500000 0.614649
O O21 0.816283 0.000000 0.291766
#
# Coordination Sequence:
#
# PCOD8059911 Si02
#       8
#     4   4   4   4   4   4   4   4
#     4   9  18  29  39  58  88 115 142 178 213 246
#     4   9  16  26  39  55  78 109 144 179 212 248
#     4  10  19  31  48  67  87 113 143 174 212 257
#     4   8  14  23  35  53  77 106 141 177 208 245
#     4   8  16  30  46  67  88 104 135 180 216 249
#     4   9  16  24  35  54  82 113 141 173 212 251
#     4   9  16  29  49  65  81 109 141 175 213 253
#     4  10  20  31  42  60  87 116 146 180 215 252
#
# _framework density 16.214454
#
# number of rings (size 3 to 8) (size 9 to 14) (size 15 to 20)
#    0.000    3.000    0.000    4.125    0.000    7.000 
#    0.000    2.500    0.000    0.000    0.000    0.000 
#    0.000    1.000    0.000   11.250    0.000    8.125 
#
# Total GULP energy -396509.635006 kJ/mol
# GULP energy per Si atom -12390.926094 kJ/mol
# Density = 1.617755 g / cm^3
# Si number density = 16.214454 Si / 1000 Ang^3
#
#
#
# Elastic Constant Matrix: (Units=GPa)
#
#
# Indices 1 2 3 4 5 6 
#
# 1 56.1439 26.2101 33.3207 0.0000 -9.6338 0.0000
# 2 26.2101 74.5839 55.9482 0.0000 -9.1592 0.0000
# 3 33.3207 55.9482 112.6821 0.0000 -18.4068 0.0000
# 4 0.0000 0.0000 0.0000 21.6953 0.0000 3.5643
# 5 -9.6338 -9.1592 -18.4068 0.0000 15.4383 0.0000
# 6 0.0000 0.0000 0.0000 3.5643 0.0000 8.6824
#
#
#
# Elastic Compliance Matrix: (Units=1/GPa)
#
#
# Indices 1 2 3 4 5 6 
#
# 1 0.023318 -0.004812 -0.003223 0.000000 0.007853 0.000000
# 2 -0.004812 0.022358 -0.009937 0.000000 -0.001586 0.000000
# 3 -0.003223 -0.009937 0.016728 0.000000 0.012038 0.000000
# 4 0.000000 0.000000 0.000000 0.049426 0.000000 -0.020290
# 5 0.007853 -0.001586 0.012038 0.000000 0.083086 0.000000
# 6 0.000000 0.000000 0.000000 -0.020290 0.000000 0.123506
#
#
# Mechanical properties :
#
#
# Convention : Reuss Voigt Hill
#
# Bulk Modulus (GPa) = 37.79403 52.70756 45.25080
# Shear Modulus (GPa) = 13.76696 17.69191 15.72944
#
# Velocity S-wave (km/s) = 2.91702 3.30679 3.11800
# Velocity P-wave (km/s) = 5.89108 6.86709 6.39772
#
# Compressibility (1/GPa) = 0.02645920
#
# Stress axis : x y z
#
# Youngs Moduli (GPa) = 42.88461 44.72585 59.77979
#
# Poissons Ratio (x) = 0.21523 0.19268
# Poissons Ratio (y) = 0.20637 0.59406
# Poissons Ratio (z) = 0.13823 0.44446
#
# Static dielectric constant tensor:
#      x y z
#    x 2.768450 0.000000 -0.113790 
#    y 0.000000 3.021960 0.000000 
#    z -0.113790 0.000000 3.636430 
# 
# 
# High freq. dielectric constant tensor:
#      x y z
#    x 1.560320 0.000000 -0.016780 
#    y 0.000000 1.620020 0.000000 
#    z -0.016780 0.000000 1.638770 
# 
# From -- ./inp_files/54834.got.cif
#   From: 2010.06.25/outbox.cif.g09.slc.cpg/sg10_28_cif.got.tgz:54834.got - 2010.06.27 22:07:45.
