data_PCOD8059901
_publ_section_title
;
Structure prediction by ZEFSAII (Michael W. Deem and Ramdas Pophale) SiO2 
 PCOD8059901
Probable space group: P 2/M
;
_chemical_formula_sum "Si O2"
_cell_formula_units_Z 28
_cell_length_a 11.177258
_cell_length_b 11.584840
_cell_length_c 13.472383
_cell_angle_alpha 90.000000
_cell_angle_beta 108.453455
_cell_angle_gamma 90.000000
_cell_volume 1654.795030
_symmetry_space_group_name_H-M "P 2/M"
_symmetry_group_IT_number 10
_symmetry_cell_setting 'monoclinic'
loop_
_space_group_symop_operation_xyz
x,y,z
-x,y,-z
-x,-y,-z
x,-y,z
loop_
_atom_site_type_symbol
_atom_site_label
_atom_site_fract_x
_atom_site_fract_y
_atom_site_fract_z
Si Si1 0.727065 0.765578 0.852695
Si Si2 0.509917 0.866431 0.119582
Si Si3 0.215318 0.214885 0.787704
Si Si4 0.107138 0.000000 0.870798
Si Si5 0.836623 0.000000 0.899042
Si Si6 0.114794 0.370162 0.236254
Si Si7 0.047979 0.365222 0.622581
Si Si8 0.143832 0.366892 0.938598
O O1 0.582002 0.775466 0.848820
O O2 0.755312 0.694419 0.759561
O O3 0.771984 0.890972 0.834366
O O4 0.817630 0.711041 0.959286
O O5 0.648747 0.839621 0.197094
O O6 0.476635 0.000000 0.135021
O O7 0.500000 0.843822 0.000000
O O8 0.160774 0.273477 0.672710
O O9 0.224489 0.321301 0.866617
O O10 0.125059 0.114005 0.808492
O O11 0.978548 0.000000 0.898028
O O12 0.199361 0.000000 0.991159
O O13 0.158450 0.500000 0.254093
O O14 0.063166 0.330998 0.329899
O O15 0.004955 0.353124 0.124204
O O16 0.088809 0.500000 0.649700
O O17 0.000000 0.344076 0.500000
O O18 0.178877 0.500000 0.968488
#
# Coordination Sequence:
#
# PCOD8059901 Si02
#       8
#     4   4   4   2   2   4   4   4
#     4  12  20  31  46  73 106 146 183 208 251 310
#     4  11  21  35  49  70 108 156 190 213 243 298
#     4  11  19  35  53  76 104 143 179 217 264 311
#     4  11  20  29  48  75 104 134 176 226 261 308
#     4  11  20  27  43  73 104 139 181 217 249 302
#     4   9  19  33  51  76 106 134 167 219 277 320
#     4   9  19  38  63  85 104 130 169 224 284 329
#     4  10  19  31  47  71 105 140 173 216 265 312
#
# _framework density 16.920525000000001
#
# number of rings (size 3 to 8) (size 9 to 14) (size 15 to 20)
#    0.000    1.571    4.286    3.857    2.000    1.143 
#    0.000    3.929    0.000    0.857    0.000    4.000 
#    0.000    0.000    0.000    0.000    0.000    0.000 
#
# Total GULP energy -346948.046465 kJ/mol
# GULP energy per Si atom -12391.001659 kJ/mol
# Density = 1.688201 g / cm^3
# Si number density = 16.920525 Si / 1000 Ang^3
#
#
#
# Elastic Constant Matrix: (Units=GPa)
#
#
# Indices 1 2 3 4 5 6 
#
# 1 85.2802 42.6556 37.9450 0.0000 -12.6567 0.0000
# 2 42.6556 82.8830 33.5183 0.0000 -0.4803 0.0000
# 3 37.9450 33.5183 74.9400 0.0000 -0.8718 0.0000
# 4 0.0000 0.0000 0.0000 32.0321 0.0000 -2.5376
# 5 -12.6567 -0.4803 -0.8718 0.0000 11.4765 0.0000
# 6 0.0000 0.0000 0.0000 -2.5376 0.0000 27.7770
#
#
#
# Elastic Compliance Matrix: (Units=1/GPa)
#
#
# Indices 1 2 3 4 5 6 
#
# 1 0.023036 -0.008682 -0.007496 0.000000 0.024472 0.000000
# 2 -0.008682 0.018002 -0.003761 0.000000 -0.009107 0.000000
# 3 -0.007496 -0.003761 0.018740 0.000000 -0.007001 0.000000
# 4 0.000000 0.000000 0.000000 0.031446 0.000000 0.002873
# 5 0.024472 -0.009107 -0.007001 0.000000 0.113210 0.000000
# 6 0.000000 0.000000 0.000000 0.002873 0.000000 0.036264
#
#
# Mechanical properties :
#
#
# Convention : Reuss Voigt Hill
#
# Bulk Modulus (GPa) = 50.25401 52.37122 51.31261
# Shear Modulus (GPa) = 17.40881 22.85606 20.13243
#
# Velocity S-wave (km/s) = 3.21106 3.67930 3.45312
# Velocity P-wave (km/s) = 6.59639 7.00486 6.80369
#
# Compressibility (1/GPa) = 0.01989891
#
# Stress axis : x y z
#
# Youngs Moduli (GPa) = 43.41018 55.54972 53.36037
#
# Poissons Ratio (x) = 0.48230 0.39999
# Poissons Ratio (y) = 0.37690 0.20071
# Poissons Ratio (z) = 0.32541 0.20895
#
# Static dielectric constant tensor:
#      x y z
#    x 3.127230 0.000000 -0.157020 
#    y 0.000000 3.412940 0.000000 
#    z -0.157020 0.000000 2.921090 
# 
# 
# High freq. dielectric constant tensor:
#      x y z
#    x 1.639290 0.000000 -0.023470 
#    y 0.000000 1.668530 0.000000 
#    z -0.023470 0.000000 1.604740 
# 
# From -- ./inp_files/46163.got.cif
#   From: 2010.06.25/outbox.cif.g09.slc.cpg/sg10_24_cif.got.tgz:46163.got - 2010.06.27 22:07:45.
