data_PCOD8059246
_publ_section_title
;
Structure prediction by ZEFSAII (Michael W. Deem and Ramdas Pophale) SiO2 
 PCOD8059246
Probable space group: P 2/M
;
_chemical_formula_sum "Si O2"
_cell_formula_units_Z 24
_cell_length_a 14.706364
_cell_length_b 8.825093
_cell_length_c 15.148473
_cell_angle_alpha 90.000000
_cell_angle_beta 40.027250
_cell_angle_gamma 90.000000
_cell_volume 1264.465532
_symmetry_space_group_name_H-M "P 2/M"
_symmetry_group_IT_number 10
_symmetry_cell_setting 'monoclinic'
loop_
_space_group_symop_operation_xyz
x,y,z
-x,y,-z
-x,-y,-z
x,-y,z
loop_
_atom_site_type_symbol
_atom_site_label
_atom_site_fract_x
_atom_site_fract_y
_atom_site_fract_z
Si Si1 0.650377 0.677908 0.635517
Si Si2 0.860657 0.179170 0.822475
Si Si3 0.836280 0.173551 0.643062
Si Si4 0.347245 0.819988 0.870638
Si Si5 0.167838 0.180083 0.647516
Si Si6 0.151470 0.179543 0.858453
O O1 0.645607 0.500000 0.627316
O O2 0.748421 0.718580 0.645207
O O3 0.495679 0.739488 0.769701
O O4 0.707768 0.750008 0.502858
O O5 0.809638 0.228005 0.763174
O O6 0.016693 0.244275 0.726841
O O7 0.872664 0.000000 0.820448
O O8 0.748702 0.238920 0.976951
O O9 0.000000 0.189750 0.500000
O O10 0.786993 0.000000 0.665583
O O11 0.272949 0.766697 0.835209
O O12 0.368004 0.000000 0.858327
O O13 0.191691 0.233719 0.730422
O O14 0.175424 0.000000 0.632432
O O15 0.138282 0.000000 0.870844
O O16 0.000000 0.248842 0.000000
#
# Coordination Sequence:
#
# PCOD8059246 Si02
#       6
#     4   4   4   4   4   4
#     4  12  26  40  53  79 120 161 195 233 279 333
#     4   9  17  32  61  92 113 139 183 236 289 343
#     4  10  19  36  63  89 111 143 188 239 290 341
#     4  10  20  37  60  88 119 149 184 234 291 342
#     4  10  18  35  62  90 115 144 187 238 288 339
#     4   9  16  30  61  96 117 137 181 242 292 334
#
# _framework density 18.980352
#
# number of rings (size 3 to 8) (size 9 to 14) (size 15 to 20)
#    0.000    2.000    3.333    1.500    0.000    1.667 
#    0.000    9.167    0.000    1.000    0.000    0.000 
#    0.000    0.000    0.000    0.000    0.000    0.000 
#
# Total GULP energy -297618.883884 kJ/mol
# GULP energy per Si atom -12400.786829 kJ/mol
# Density = 1.893715 g / cm^3
# Si number density = 18.980352 Si / 1000 Ang^3
#
#
#
# Elastic Constant Matrix: (Units=GPa)
#
#
# Indices 1 2 3 4 5 6 
#
# 1 90.8891 20.6718 42.9612 0.0000 19.5149 0.0000
# 2 20.6718 44.2736 26.6508 0.0000 2.2633 0.0000
# 3 42.9612 26.6508 124.7189 0.0000 18.0950 0.0000
# 4 0.0000 0.0000 0.0000 -4.6554 0.0000 4.0422
# 5 19.5149 2.2633 18.0950 0.0000 35.5917 0.0000
# 6 0.0000 0.0000 0.0000 4.0422 0.0000 1.8278
#
#
#
# Elastic Compliance Matrix: (Units=1/GPa)
#
#
# Indices 1 2 3 4 5 6 
#
# 1 0.014945 -0.004711 -0.003234 0.000000 -0.006250 0.000000
# 2 -0.004711 0.027459 -0.004714 0.000000 0.003234 0.000000
# 3 -0.003234 -0.004714 0.010622 0.000000 -0.003327 0.000000
# 4 0.000000 0.000000 0.000000 -0.073556 0.000000 0.162675
# 5 -0.006250 0.003234 -0.003327 0.000000 0.033009 0.000000
# 6 0.000000 0.000000 0.000000 0.162675 0.000000 0.187351
#
#
# Mechanical properties :
#
#
# Convention : Reuss Voigt Hill
#
# Bulk Modulus (GPa) = 36.09251 48.93882 42.51566
# Shear Modulus (GPa) = 21.33245 17.85933 19.59589
#
# Velocity S-wave (km/s) = 3.35613 3.07080 3.21663
# Velocity P-wave (km/s) = 5.83739 6.19782 6.02031
#
# Compressibility (1/GPa) = 0.02770658
#
# Stress axis : x y z
#
# Youngs Moduli (GPa) = 66.91298 36.41816 94.14277
#
# Poissons Ratio (x) = 0.17158 0.30449
# Poissons Ratio (y) = 0.31525 0.44377
# Poissons Ratio (z) = 0.21642 0.17167
#
# Static dielectric constant tensor:
#      x y z
#    x 3.716210 0.000000 0.221440 
#    y 0.000000 2.991100 0.000000 
#    z 0.221440 0.000000 3.699390 
# 
# 
# High freq. dielectric constant tensor:
#      x y z
#    x 1.748450 0.000000 0.010010 
#    y 0.000000 1.686170 0.000000 
#    z 0.010010 0.000000 1.750240 
# 
# From -- ./inp_files/66308.got.cif
#   From: 2010.06.25/outbox.cif.g09.slc.cpg/sg10_34_cif.got.tgz:66308.got - 2010.06.27 22:07:45.
