data_PCOD8059986
_publ_section_title
;
Structure prediction by ZEFSAII (Michael W. Deem and Ramdas Pophale) SiO2 
 PCOD8059986
Probable space group: P 2/M
;
_chemical_formula_sum "Si O2"
_cell_formula_units_Z 28
_cell_length_a 31.414742
_cell_length_b 8.656201
_cell_length_c 31.406509
_cell_angle_alpha 90.000000
_cell_angle_beta 170.522907
_cell_angle_gamma 90.000000
_cell_volume 1406.212205
_symmetry_space_group_name_H-M "P 2/M"
_symmetry_group_IT_number 10
_symmetry_cell_setting 'monoclinic'
loop_
_space_group_symop_operation_xyz
x,y,z
-x,y,-z
-x,-y,-z
x,-y,z
loop_
_atom_site_type_symbol
_atom_site_label
_atom_site_fract_x
_atom_site_fract_y
_atom_site_fract_z
Si Si1 0.971225 0.680402 0.922254
Si Si2 0.690973 0.182606 0.310255
Si Si3 0.167373 0.815712 0.834778
Si Si4 0.263054 0.319709 0.736502
Si Si5 0.399375 0.816565 0.587018
Si Si6 0.124012 0.815767 0.888004
Si Si7 0.494360 0.182695 0.403511
O O1 0.930019 0.500000 0.873482
O O2 0.717974 0.770027 0.656669
O O3 0.000000 0.720408 0.000000
O O4 0.224663 0.736706 0.147925
O O5 0.715686 0.226864 0.285834
O O6 0.929859 0.250698 0.572869
O O7 0.689219 0.000000 0.312131
O O8 0.428369 0.250693 0.071218
O O9 0.144037 0.752299 0.859736
O O10 0.167563 0.000000 0.834842
O O11 0.268446 0.500000 0.731270
O O12 0.000000 0.269751 0.500000
O O13 0.500000 0.269607 0.000000
O O14 0.423533 0.760655 0.562347
O O15 0.135604 0.749722 0.346578
O O16 0.398318 0.000000 0.587977
O O17 0.636042 0.750320 0.848228
O O18 0.122830 0.000000 0.887022
O O19 0.451791 0.000000 0.363600
#
# Coordination Sequence:
#
# PCOD8059986 Si02
#       7
#     4   4   4   4   4   4   4
#     4  11  24  41  59  81 112 151 192 230 277 343
#     4  10  19  31  48  73 101 126 159 203 248 292
#     4   9  17  28  45  72 103 132 163 201 245 298
#     4  10  21  36  52  70  93 124 163 201 240 294
#     4   9  17  28  46  75 107 136 169 213 261 309
#     4   9  15  26  44  69 105 140 165 199 253 306
#     4  11  22  37  59  88 117 144 185 239 286 327
#
# _framework density 19.911646000000001
#
# number of rings (size 3 to 8) (size 9 to 14) (size 15 to 20)
#    0.000    2.143    0.000    3.857    0.000    9.143 
#    0.000    0.000    0.000    0.000    0.000   20.000 
#    0.000    0.000    0.000    0.000    0.000    0.000 
#
# Total GULP energy -347292.391168 kJ/mol
# GULP energy per Si atom -12403.299685 kJ/mol
# Density = 1.986633 g / cm^3
# Si number density = 19.911646 Si / 1000 Ang^3
#
#
#
# Elastic Constant Matrix: (Units=GPa)
#
#
# Indices 1 2 3 4 5 6 
#
# 1 93.3916 47.8216 30.6317 0.0000 -2.3458 0.0000
# 2 47.8216 -14.8747 29.7281 0.0000 2.6447 0.0000
# 3 30.6317 29.7281 144.2295 0.0000 -1.0387 0.0000
# 4 0.0000 0.0000 0.0000 -0.2002 0.0000 5.8396
# 5 -2.3458 2.6447 -1.0387 0.0000 44.6605 0.0000
# 6 0.0000 0.0000 0.0000 5.8396 0.0000 -1.0783
#
#
#
# Elastic Compliance Matrix: (Units=1/GPa)
#
#
# Indices 1 2 3 4 5 6 
#
# 1 0.005930 0.011656 -0.003665 0.000000 -0.000464 0.000000
# 2 0.011656 -0.024291 0.002546 0.000000 0.002110 0.000000
# 3 -0.003665 0.002546 0.007186 0.000000 -0.000176 0.000000
# 4 0.000000 0.000000 0.000000 0.031822 0.000000 0.172334
# 5 -0.000464 0.002110 -0.000176 0.000000 0.022238 0.000000
# 6 0.000000 0.000000 0.000000 0.172334 0.000000 0.005909
#
#
# Mechanical properties :
#
#
# Convention : Reuss Voigt Hill
#
# Bulk Modulus (GPa) = 101.02043 48.78993 74.90518
# Shear Modulus (GPa) = 161.19240 16.31406 88.75323
#
# Velocity S-wave (km/s) = 9.00720 2.86549 6.68358
# Velocity P-wave (km/s) = 12.61020 5.95856 9.86209
#
# Compressibility (1/GPa) = 0.00989899
#
# Stress axis : x y z
#
# Youngs Moduli (GPa) = 168.64491 -41.16819 139.16554
#
# Poissons Ratio (x) = 0.47985 0.51006
# Poissons Ratio (y) = -1.96571 -0.35437
# Poissons Ratio (z) = 0.61811 0.10483
#
# Static dielectric constant tensor:
#      x y z
#    x 3.776050 0.000000 0.011850 
#    y 0.000000 3.149120 0.000000 
#    z 0.011850 0.000000 4.016490 
# 
# 
# High freq. dielectric constant tensor:
#      x y z
#    x 1.795310 0.000000 0.000810 
#    y 0.000000 1.726820 0.000000 
#    z 0.000810 0.000000 1.799740 
# 
# From -- ./inp_files/13568.got.cif
#   From: 2010.06.25/outbox.cif.g09.slc.cpg/sg10_7_cif.got.tgz:13568.got - 2010.06.27 22:07:45.
