data_PCOD8059955
_publ_section_title
;
Structure prediction by ZEFSAII (Michael W. Deem and Ramdas Pophale) SiO2 
 PCOD8059955
Probable space group: P 2/M
;
_chemical_formula_sum "Si O2"
_cell_formula_units_Z 32
_cell_length_a 17.397351
_cell_length_b 8.979476
_cell_length_c 23.524990
_cell_angle_alpha 90.000000
_cell_angle_beta 148.687693
_cell_angle_gamma 90.000000
_cell_volume 1909.934557
_symmetry_space_group_name_H-M "P 2/M"
_symmetry_group_IT_number 10
_symmetry_cell_setting 'monoclinic'
loop_
_space_group_symop_operation_xyz
x,y,z
-x,y,-z
-x,-y,-z
x,-y,z
loop_
_atom_site_type_symbol
_atom_site_label
_atom_site_fract_x
_atom_site_fract_y
_atom_site_fract_z
Si Si1 0.770829 0.171778 0.089794
Si Si2 0.669872 0.175730 0.823472
Si Si3 0.401704 0.325019 0.701088
Si Si4 0.125523 0.324414 0.954213
Si Si5 0.062766 0.324817 0.479813
Si Si6 0.126134 0.664119 0.126795
Si Si7 0.443974 0.171739 0.845343
Si Si8 0.834667 0.824681 0.257022
O O1 0.858715 0.272244 0.100362
O O2 0.821671 0.226852 0.183731
O O3 0.812562 0.000000 0.105484
O O4 0.595098 0.194484 0.975124
O O5 0.504202 0.241354 0.719822
O O6 0.746600 0.221637 0.812243
O O7 0.665033 0.000000 0.825029
O O8 0.756262 0.238635 0.932481
O O9 0.427203 0.500000 0.711910
O O10 0.233532 0.279819 0.582155
O O11 0.447686 0.275283 0.792889
O O12 0.156097 0.500000 0.979655
O O13 0.957059 0.286117 0.867776
O O14 0.038052 0.500000 0.460949
O O15 0.000000 0.262900 0.500000
O O16 0.978554 0.250891 0.374325
O O17 0.197678 0.500000 0.178877
O O18 0.000000 0.658098 0.000000
O O19 0.311775 0.226593 0.802124
O O20 0.423765 0.000000 0.813840
O O21 0.853297 0.000000 0.272934
#
# Coordination Sequence:
#
# PCOD8059955 Si02
#       8
#     4   4   4   4   4   4   4   4
#     4  10  20  33  49  73 104 136 170 207 246 294
#     4  11  20  30  47  73 102 130 164 204 247 298
#     4  11  21  33  51  72  99 132 168 209 254 297
#     4  10  19  31  48  71 101 136 168 199 241 294
#     4  10  21  37  53  71  96 128 170 217 257 295
#     4   8  16  30  46  67  98 133 165 197 238 292
#     4  10  19  32  50  72 100 133 168 205 249 296
#     4  10  21  35  52  73  99 133 172 212 253 297
#
# _framework density 16.754501000000001
#
# number of rings (size 3 to 8) (size 9 to 14) (size 15 to 20)
#    0.000    2.000    2.500    3.000    0.000    6.000 
#    0.000    0.000    0.000    2.250    0.000    0.875 
#    0.000    7.000    0.000    0.000    0.000    0.000 
#
# Total GULP energy -396822.841490 kJ/mol
# GULP energy per Si atom -12400.713797 kJ/mol
# Density = 1.671637 g / cm^3
# Si number density = 16.754501 Si / 1000 Ang^3
#
#
#
# Elastic Constant Matrix: (Units=GPa)
#
#
# Indices 1 2 3 4 5 6 
#
# 1 112.7042 47.2899 48.4710 0.0000 25.2431 0.0000
# 2 47.2899 76.2099 38.6124 0.0000 15.8299 0.0000
# 3 48.4710 38.6124 89.0111 0.0000 6.9449 0.0000
# 4 0.0000 0.0000 0.0000 19.1727 0.0000 1.5617
# 5 25.2431 15.8299 6.9449 0.0000 21.8029 0.0000
# 6 0.0000 0.0000 0.0000 1.5617 0.0000 24.4169
#
#
#
# Elastic Compliance Matrix: (Units=1/GPa)
#
#
# Indices 1 2 3 4 5 6 
#
# 1 0.016336 -0.004208 -0.005982 0.000000 -0.013953 0.000000
# 2 -0.004208 0.020414 -0.005935 0.000000 -0.008059 0.000000
# 3 -0.005982 -0.005935 0.016603 0.000000 0.005946 0.000000
# 4 0.000000 0.000000 0.000000 0.052431 0.000000 -0.003353
# 5 -0.013953 -0.008059 0.005946 0.000000 0.065978 0.000000
# 6 0.000000 0.000000 0.000000 -0.003353 0.000000 0.041170
#
#
# Mechanical properties :
#
#
# Convention : Reuss Voigt Hill
#
# Bulk Modulus (GPa) = 47.38703 60.74132 54.06417
# Shear Modulus (GPa) = 19.82439 22.64865 21.23652
#
# Velocity S-wave (km/s) = 3.44354 3.68066 3.56407
# Velocity P-wave (km/s) = 6.64494 7.37533 7.01964
#
# Compressibility (1/GPa) = 0.02110282
#
# Stress axis : x y z
#
# Youngs Moduli (GPa) = 61.21354 48.98648 60.23140
#
# Poissons Ratio (x) = 0.20613 0.36030
# Poissons Ratio (y) = 0.25758 0.35748
# Poissons Ratio (z) = 0.36617 0.29074
#
# Static dielectric constant tensor:
#      x y z
#    x 3.481690 0.000000 0.220480 
#    y 0.000000 3.120340 0.000000 
#    z 0.220480 0.000000 2.932650 
# 
# 
# High freq. dielectric constant tensor:
#      x y z
#    x 1.651170 0.000000 0.018000 
#    y 0.000000 1.647820 0.000000 
#    z 0.018000 0.000000 1.610250 
# 
# From -- ./inp_files/56448.got.cif
#   From: 2010.06.25/outbox.cif.g09.slc.cpg/sg10_29_cif.got.tgz:56448.got - 2010.06.27 22:07:45.
