data_PCOD8059601
_publ_section_title
;
Structure prediction by ZEFSAII (Michael W. Deem and Ramdas Pophale) SiO2 
 PCOD8059601
Probable space group: P 2/M
;
_chemical_formula_sum "Si O2"
_cell_formula_units_Z 32
_cell_length_a 11.709816
_cell_length_b 9.262815
_cell_length_c 17.270885
_cell_angle_alpha 90.000000
_cell_angle_beta 93.519619
_cell_angle_gamma 90.000000
_cell_volume 1869.768028
_symmetry_space_group_name_H-M "P 2/M"
_symmetry_group_IT_number 10
_symmetry_cell_setting 'monoclinic'
loop_
_space_group_symop_operation_xyz
x,y,z
-x,y,-z
-x,-y,-z
x,-y,z
loop_
_atom_site_type_symbol
_atom_site_label
_atom_site_fract_x
_atom_site_fract_y
_atom_site_fract_z
Si Si1 0.255051 0.331218 0.409033
Si Si2 0.135284 0.830074 0.709487
Si Si3 0.512490 0.334358 0.915025
Si Si4 0.703427 0.662672 0.812471
Si Si5 0.420410 0.833506 0.319170
Si Si6 0.082244 0.662527 0.262280
Si Si7 0.126841 0.168871 0.532989
Si Si8 0.620803 0.832297 0.222110
O O1 0.271094 0.500000 0.423444
O O2 0.378096 0.263417 0.389564
O O3 0.161799 0.296119 0.338856
O O4 0.217628 0.257710 0.486980
O O5 0.139316 0.776554 0.621259
O O6 0.249739 0.780580 0.758221
O O7 0.026790 0.764457 0.749185
O O8 0.120215 0.000000 0.710660
O O9 0.472545 0.500000 0.915244
O O10 0.646783 0.321447 0.895116
O O11 0.429580 0.255796 0.851521
O O12 0.500000 0.265491 0.000000
O O13 0.674428 0.500000 0.778353
O O14 0.650259 0.788911 0.759321
O O15 0.841411 0.680458 0.813443
O O16 0.552691 0.806538 0.300546
O O17 0.396712 0.000000 0.338310
O O18 0.037039 0.500000 0.269490
O O19 0.000000 0.206458 0.500000
O O20 0.154198 0.000000 0.525018
O O21 0.614414 0.000000 0.199341
#
# Coordination Sequence:
#
# PCOD8059601 Si02
#       8
#     4   4   4   4   4   4   4   4
#     4  10  19  30  46  68  94 122 157 204 250 285
#     4  10  20  33  48  67  95 127 161 200 241 285
#     4   9  17  31  54  80 102 125 154 191 234 280
#     4   8  15  28  45  70 100 123 150 192 236 277
#     4   9  16  28  47  67  89 120 159 196 235 284
#     4   9  17  28  44  67  93 123 157 194 236 280
#     4  10  19  31  47  68  92 123 164 207 247 284
#     4   9  19  34  50  71  98 128 158 193 237 285
#
# _framework density 17.114421
#
# number of rings (size 3 to 8) (size 9 to 14) (size 15 to 20)
#    0.000    2.750    1.250    1.500    0.000    4.000 
#    0.000    0.625    0.000    4.500    0.000    5.250 
#    0.000    0.000    0.000    0.000    0.000    0.000 
#
# Total GULP energy -396580.803526 kJ/mol
# GULP energy per Si atom -12393.150110 kJ/mol
# Density = 1.707547 g / cm^3
# Si number density = 17.114421 Si / 1000 Ang^3
#
#
#
# Elastic Constant Matrix: (Units=GPa)
#
#
# Indices 1 2 3 4 5 6 
#
# 1 114.7199 43.6923 57.4943 0.0000 -16.2528 0.0000
# 2 43.6923 55.2351 33.7137 0.0000 -7.0535 0.0000
# 3 57.4943 33.7137 94.1491 0.0000 -18.3310 0.0000
# 4 0.0000 0.0000 0.0000 19.9114 0.0000 -5.9525
# 5 -16.2528 -7.0535 -18.3310 0.0000 25.3110 0.0000
# 6 0.0000 0.0000 0.0000 -5.9525 0.0000 25.4606
#
#
#
# Elastic Compliance Matrix: (Units=1/GPa)
#
#
# Indices 1 2 3 4 5 6 
#
# 1 0.015109 -0.008050 -0.005695 0.000000 0.003334 0.000000
# 2 -0.008050 0.027463 -0.005163 0.000000 -0.001255 0.000000
# 3 -0.005695 -0.005163 0.017411 0.000000 0.007514 0.000000
# 4 0.000000 0.000000 0.000000 0.053996 0.000000 0.012624
# 5 0.003334 -0.001255 0.007514 0.000000 0.046742 0.000000
# 6 0.000000 0.000000 0.000000 0.012624 0.000000 0.042228
#
#
# Mechanical properties :
#
#
# Convention : Reuss Voigt Hill
#
# Bulk Modulus (GPa) = 45.11020 59.32276 52.21648
# Shear Modulus (GPa) = 20.14878 22.75017 21.44948
#
# Velocity S-wave (km/s) = 3.43490 3.64991 3.54404
# Velocity P-wave (km/s) = 6.49204 7.24570 6.87920
#
# Compressibility (1/GPa) = 0.02216793
#
# Stress axis : x y z
#
# Youngs Moduli (GPa) = 66.18389 36.41262 57.43518
#
# Poissons Ratio (x) = 0.29312 0.32710
# Poissons Ratio (y) = 0.53278 0.29651
# Poissons Ratio (z) = 0.37692 0.18798
#
# Static dielectric constant tensor:
#      x y z
#    x 3.311820 0.000000 -0.359130 
#    y 0.000000 3.172130 0.000000 
#    z -0.359130 0.000000 3.034670 
# 
# 
# High freq. dielectric constant tensor:
#      x y z
#    x 1.655080 0.000000 -0.033650 
#    y 0.000000 1.662680 0.000000 
#    z -0.033650 0.000000 1.626760 
# 
# From -- ./inp_files/52721.got.cif
#   From: 2010.06.25/outbox.cif.g09.slc.cpg/sg10_27_cif.got.tgz:52721.got - 2010.06.27 22:07:45.
