data_PCOD8059810
_publ_section_title
;
Structure prediction by ZEFSAII (Michael W. Deem and Ramdas Pophale) SiO2 
 PCOD8059810
Probable space group: P 2/M
;
_chemical_formula_sum "Si O2"
_cell_formula_units_Z 28
_cell_length_a 18.635019
_cell_length_b 12.923702
_cell_length_c 22.398684
_cell_angle_alpha 90.000000
_cell_angle_beta 162.447536
_cell_angle_gamma 90.000000
_cell_volume 1626.823066
_symmetry_space_group_name_H-M "P 2/M"
_symmetry_group_IT_number 10
_symmetry_cell_setting 'monoclinic'
loop_
_space_group_symop_operation_xyz
x,y,z
-x,y,-z
-x,-y,-z
x,-y,z
loop_
_atom_site_type_symbol
_atom_site_label
_atom_site_fract_x
_atom_site_fract_y
_atom_site_fract_z
Si Si1 0.793319 0.877336 0.793780
Si Si2 0.194549 0.384387 0.517276
Si Si3 0.444463 0.379665 0.090588
Si Si4 0.740148 0.877522 0.617616
Si Si5 0.016770 0.765291 0.734170
Si Si6 0.168015 0.319255 0.685316
Si Si7 0.780384 0.114830 0.214540
O O1 0.828729 0.841277 0.753409
O O2 0.532738 0.841558 0.609611
O O3 0.806193 0.000000 0.806470
O O4 0.000000 0.828811 0.000000
O O5 0.245620 0.500000 0.533803
O O6 0.381166 0.351372 0.716210
O O7 0.198597 0.299790 0.467681
O O8 0.921569 0.379817 0.326625
O O9 0.380772 0.500000 0.039607
O O10 0.563181 0.347432 0.120787
O O11 0.206733 0.315147 0.911175
O O12 0.910108 0.826498 0.704507
O O13 0.760349 0.000000 0.627329
O O14 0.142248 0.847449 0.789817
O O15 0.127239 0.196415 0.663091
O O16 0.000000 0.360438 0.500000
O O17 0.888684 0.000000 0.311570
O O18 0.500000 0.110649 0.000000
#
# Coordination Sequence:
#
# PCOD8059810 Si02
#       7
#     4   4   4   4   4   4   4
#     4   8  15  31  54  76  99 127 156 190 236 285
#     4   9  19  32  47  68  92 120 161 214 260 291
#     4  10  19  32  48  67  91 121 162 213 261 293
#     4   9  18  31  49  76 106 131 157 191 231 282
#     4  11  20  31  48  71  99 131 164 198 239 288
#     4   9  17  31  48  65  85 117 168 218 254 291
#     4  10  19  31  44  61  93 135 172 201 230 272
#
# _framework density 17.211459999999999
#
# number of rings (size 3 to 8) (size 9 to 14) (size 15 to 20)
#    0.000    2.571    1.429    2.143    0.000    3.143 
#    0.000    2.143    0.000    1.714    0.000    8.000 
#    0.000   13.714    0.000    0.000    0.000    0.000 
#
# Total GULP energy -347008.119093 kJ/mol
# GULP energy per Si atom -12393.147110 kJ/mol
# Density = 1.717229 g / cm^3
# Si number density = 17.211460 Si / 1000 Ang^3
#
#
#
# Elastic Constant Matrix: (Units=GPa)
#
#
# Indices 1 2 3 4 5 6 
#
# 1 100.1945 33.0895 40.7685 0.0000 8.4945 0.0000
# 2 33.0895 79.2679 24.4047 0.0000 2.0603 0.0000
# 3 40.7685 24.4047 77.1856 0.0000 -1.3442 0.0000
# 4 0.0000 0.0000 0.0000 22.3060 0.0000 -2.7601
# 5 8.4945 2.0603 -1.3442 0.0000 18.8516 0.0000
# 6 0.0000 0.0000 0.0000 -2.7601 0.0000 -34.7159
#
#
#
# Elastic Compliance Matrix: (Units=1/GPa)
#
#
# Indices 1 2 3 4 5 6 
#
# 1 0.014472 -0.003857 -0.006538 0.000000 -0.006565 0.000000
# 2 -0.003857 0.015068 -0.002729 0.000000 -0.000103 0.000000
# 3 -0.006538 -0.002729 0.017350 0.000000 0.004482 0.000000
# 4 0.000000 0.000000 0.000000 0.044394 0.000000 -0.003530
# 5 -0.006565 -0.000103 0.004482 0.000000 0.056335 0.000000
# 6 0.000000 0.000000 0.000000 -0.003530 0.000000 -0.028525
#
#
# Mechanical properties :
#
#
# Convention : Reuss Voigt Hill
#
# Bulk Modulus (GPa) = 48.44703 50.35259 49.39981
# Shear Modulus (GPa) = 32.84624 11.84735 22.34680
#
# Velocity S-wave (km/s) = 4.37326 2.62647 3.60720
# Velocity P-wave (km/s) = 7.32869 6.20617 6.79067
#
# Compressibility (1/GPa) = 0.02064110
#
# Stress axis : x y z
#
# Youngs Moduli (GPa) = 69.10109 66.36382 57.63637
#
# Poissons Ratio (x) = 0.25599 0.37685
# Poissons Ratio (y) = 0.26654 0.15728
# Poissons Ratio (z) = 0.45181 0.18109
#
# Static dielectric constant tensor:
#      x y z
#    x 3.095570 0.000000 -0.127710 
#    y 0.000000 3.207210 0.000000 
#    z -0.127710 0.000000 3.291190 
# 
# 
# High freq. dielectric constant tensor:
#      x y z
#    x 1.644330 0.000000 -0.010270 
#    y 0.000000 1.649080 0.000000 
#    z -0.010270 0.000000 1.661180 
# 
# From -- ./inp_files/85844.got.cif
#   From: 2010.06.25/outbox.cif.g09.slc.cpg/sg10_43_cif.got.tgz:85844.got - 2010.06.27 22:07:45.
