data_PCOD8059676
_publ_section_title
;
Structure prediction by ZEFSAII (Michael W. Deem and Ramdas Pophale) SiO2 
 PCOD8059676
Probable space group: P 2/M
;
_chemical_formula_sum "Si O2"
_cell_formula_units_Z 32
_cell_length_a 11.066704
_cell_length_b 9.410581
_cell_length_c 18.805593
_cell_angle_alpha 90.000000
_cell_angle_beta 62.426832
_cell_angle_gamma 90.000000
_cell_volume 1736.047202
_symmetry_space_group_name_H-M "P 2/M"
_symmetry_group_IT_number 10
_symmetry_cell_setting 'monoclinic'
loop_
_space_group_symop_operation_xyz
x,y,z
-x,y,-z
-x,-y,-z
x,-y,z
loop_
_atom_site_type_symbol
_atom_site_label
_atom_site_fract_x
_atom_site_fract_y
_atom_site_fract_z
Si Si1 0.134942 0.662273 0.506265
Si Si2 0.399712 0.664715 0.967570
Si Si3 0.681890 0.660798 0.673270
Si Si4 0.860950 0.159284 0.354436
Si Si5 0.603257 0.333340 0.188953
Si Si6 0.820559 0.843096 0.750619
Si Si7 0.150744 0.662123 0.127117
Si Si8 0.159630 0.667686 0.776124
O O1 0.112604 0.500000 0.538548
O O2 0.270299 0.674503 0.421070
O O3 0.165152 0.763043 0.564148
O O4 0.000000 0.711974 0.500000
O O5 0.439700 0.500000 0.951306
O O6 0.417778 0.735292 0.884186
O O7 0.500000 0.734385 0.000000
O O8 0.240703 0.685179 0.031994
O O9 0.705709 0.500000 0.694239
O O10 0.523988 0.703707 0.725371
O O11 0.773932 0.766187 0.692658
O O12 0.797165 0.251182 0.307740
O O13 0.018895 0.147375 0.296067
O O14 0.797208 0.000000 0.374298
O O15 0.621480 0.500000 0.173554
O O16 0.739718 0.275471 0.189618
O O17 0.776871 0.754799 0.831640
O O18 0.755354 0.000000 0.772741
O O19 0.158080 0.500000 0.151402
O O20 0.993742 0.705149 0.156126
O O21 0.177332 0.500000 0.757147
#
# Coordination Sequence:
#
# PCOD8059676 Si02
#       8
#     4   4   4   4   4   4   4   4
#     4  10  19  31  50  78 105 128 161 207 254 301
#     4   9  16  27  47  77 107 130 160 204 253 300
#     4  10  19  32  51  73 100 132 165 202 253 305
#     4  10  20  33  51  74 102 134 166 205 252 300
#     4   9  18  32  51  75 101 132 169 209 249 294
#     4  10  19  30  47  73 103 132 164 204 249 300
#     4   9  17  29  49  74  99 132 168 205 248 290
#     4   9  18  33  52  73  99 132 174 213 243 285
#
# _framework density 18.432677000000002
#
# number of rings (size 3 to 8) (size 9 to 14) (size 15 to 20)
#    0.000    2.500    1.250    1.500    0.000    4.250 
#    0.000    3.750    0.000    7.875    0.000    3.500 
#    0.000    0.000    0.000    0.000    0.000    0.000 
#
# Total GULP energy -396668.639523 kJ/mol
# GULP energy per Si atom -12395.894985 kJ/mol
# Density = 1.839072 g / cm^3
# Si number density = 18.432677 Si / 1000 Ang^3
#
#
#
# Elastic Constant Matrix: (Units=GPa)
#
#
# Indices 1 2 3 4 5 6 
#
# 1 93.6873 27.3144 54.7378 0.0000 19.3391 0.0000
# 2 27.3144 65.1202 34.5212 0.0000 9.2479 0.0000
# 3 54.7378 34.5212 119.3103 0.0000 6.6821 0.0000
# 4 0.0000 0.0000 0.0000 5.8764 0.0000 -4.4215
# 5 19.3391 9.2479 6.6821 0.0000 25.9709 0.0000
# 6 0.0000 0.0000 0.0000 -4.4215 0.0000 4.4199
#
#
#
# Elastic Compliance Matrix: (Units=1/GPa)
#
#
# Indices 1 2 3 4 5 6 
#
# 1 0.017437 -0.002244 -0.006766 0.000000 -0.010444 0.000000
# 2 -0.002244 0.019142 -0.004283 0.000000 -0.004043 0.000000
# 3 -0.006766 -0.004283 0.012538 0.000000 0.003337 0.000000
# 4 0.000000 0.000000 0.000000 0.688104 0.000000 0.688354
# 5 -0.010444 -0.004043 0.003337 0.000000 0.046863 0.000000
# 6 0.000000 0.000000 0.000000 0.688354 0.000000 0.914856
#
#
# Mechanical properties :
#
#
# Convention : Reuss Voigt Hill
#
# Bulk Modulus (GPa) = 44.38096 56.80715 50.59406
# Shear Modulus (GPa) = 2.88511 18.02307 10.45409
#
# Velocity S-wave (km/s) = 1.25244 3.13034 2.38407
# Velocity P-wave (km/s) = 5.12065 6.62955 5.92335
#
# Compressibility (1/GPa) = 0.02253219
#
# Stress axis : x y z
#
# Youngs Moduli (GPa) = 57.34986 52.24137 79.75992
#
# Poissons Ratio (x) = 0.11723 0.53962
# Poissons Ratio (y) = 0.12870 0.34157
# Poissons Ratio (z) = 0.38800 0.22372
#
# Static dielectric constant tensor:
#      x y z
#    x 3.362700 0.000000 0.029900 
#    y 0.000000 3.364300 0.000000 
#    z 0.029900 0.000000 3.452540 
# 
# 
# High freq. dielectric constant tensor:
#      x y z
#    x 1.698310 0.000000 -0.000430 
#    y 0.000000 1.682940 0.000000 
#    z -0.000430 0.000000 1.718100 
# 
# From -- ./inp_files/83352.got.cif
#   From: 2010.06.25/outbox.cif.g09.slc.cpg/sg10_42_cif.got.tgz:83352.got - 2010.06.27 22:07:45.
