data_PCOD8059272
_publ_section_title
;
Structure prediction by ZEFSAII (Michael W. Deem and Ramdas Pophale) SiO2 
 PCOD8059272
Probable space group: P 2/M
;
_chemical_formula_sum "Si O2"
_cell_formula_units_Z 28
_cell_length_a 8.926801
_cell_length_b 20.595483
_cell_length_c 18.095130
_cell_angle_alpha 90.000000
_cell_angle_beta 151.032157
_cell_angle_gamma 90.000000
_cell_volume 1611.241915
_symmetry_space_group_name_H-M "P 2/M"
_symmetry_group_IT_number 10
_symmetry_cell_setting 'monoclinic'
loop_
_space_group_symop_operation_xyz
x,y,z
-x,y,-z
-x,-y,-z
x,-y,z
loop_
_atom_site_type_symbol
_atom_site_label
_atom_site_fract_x
_atom_site_fract_y
_atom_site_fract_z
Si Si1 0.857644 0.426858 0.359265
Si Si2 0.845593 0.343675 0.636834
Si Si3 0.637617 0.902305 0.139576
Si Si4 0.836048 0.426746 0.110908
Si Si5 0.142209 0.000000 0.312420
Si Si6 0.288691 0.652821 0.078911
Si Si7 0.851685 0.000000 0.019903
Si Si8 0.364001 0.757430 0.859796
O O1 0.781356 0.500000 0.295452
O O2 0.559364 0.381385 0.242163
O O3 0.000000 0.434677 0.500000
O O4 0.096234 0.391348 0.407253
O O5 0.500000 0.320675 0.500000
O O6 0.922045 0.382760 0.743134
O O7 0.034877 0.277405 0.713094
O O8 0.685023 0.830123 0.192909
O O9 0.500000 0.896865 0.000000
O O10 0.969264 0.938186 0.274731
O O11 0.379551 0.938467 0.077608
O O12 0.950830 0.500000 0.165032
O O13 0.500000 0.415593 0.000000
O O14 0.827486 0.404436 0.023702
O O15 0.500000 0.000000 0.500000
O O16 0.087776 0.000000 0.196365
O O17 0.395514 0.718354 0.085961
O O18 0.000000 0.677291 0.000000
O O19 0.000000 0.000000 0.000000
O O20 0.500000 0.757701 0.000000
#
# Coordination Sequence:
#
# PCOD8059272 Si02
#       8
#     4   4   4   4   2   4   2   4
#     4  10  22  37  50  70 102 133 163 210 277 336
#     4  11  22  35  53  76 100 131 172 220 270 315
#     4   8  17  32  56  80 110 149 182 211 258 313
#     4  11  20  36  56  73  95 125 175 223 267 316
#     4   9  17  33  56  88 118 147 183 225 262 308
#     4  11  22  35  53  76 100 131 172 220 270 315
#     4   9  17  33  56  88 118 147 183 225 262 308
#     4  10  18  37  57  76 103 141 183 219 255 314
#
# _framework density 17.377901000000001
#
# number of rings (size 3 to 8) (size 9 to 14) (size 15 to 20)
#    0.000    2.000    4.286    1.714    2.000    3.429 
#    0.000    1.429    0.000    6.857    0.000    0.000 
#    0.000    0.000    0.000    0.000    0.000    0.000 
#
# Total GULP energy -346887.235043 kJ/mol
# GULP energy per Si atom -12388.829823 kJ/mol
# Density = 1.733835 g / cm^3
# Si number density = 17.377901 Si / 1000 Ang^3
#
#
#
# Elastic Constant Matrix: (Units=GPa)
#
#
# Indices 1 2 3 4 5 6 
#
# 1 98.6067 49.9425 43.7801 0.0000 21.5266 0.0000
# 2 49.9425 142.6440 43.9812 0.0000 15.7731 0.0000
# 3 43.7801 43.9812 83.9934 0.0000 15.2009 0.0000
# 4 0.0000 0.0000 0.0000 14.3767 0.0000 -2.0505
# 5 21.5266 15.7731 15.2009 0.0000 31.1317 0.0000
# 6 0.0000 0.0000 0.0000 -2.0505 0.0000 14.7791
#
#
#
# Elastic Compliance Matrix: (Units=1/GPa)
#
#
# Indices 1 2 3 4 5 6 
#
# 1 0.015467 -0.003064 -0.005268 0.000000 -0.006570 0.000000
# 2 -0.003064 0.009120 -0.002990 0.000000 -0.001042 0.000000
# 3 -0.005268 -0.002990 0.016765 0.000000 -0.003029 0.000000
# 4 0.000000 0.000000 0.000000 0.070961 0.000000 0.009845
# 5 -0.006570 -0.001042 -0.003029 0.000000 0.038671 0.000000
# 6 0.000000 0.000000 0.000000 0.009845 0.000000 0.069029
#
#
# Mechanical properties :
#
#
# Convention : Reuss Voigt Hill
#
# Bulk Modulus (GPa) = 53.45421 66.73908 60.09664
# Shear Modulus (GPa) = 20.08884 24.56018 22.32451
#
# Velocity S-wave (km/s) = 3.40369 3.76347 3.58809
# Velocity P-wave (km/s) = 6.80246 7.57449 7.19883
#
# Compressibility (1/GPa) = 0.01870760
#
# Stress axis : x y z
#
# Youngs Moduli (GPa) = 64.65567 109.64371 59.64711
#
# Poissons Ratio (x) = 0.33599 0.31423
# Poissons Ratio (y) = 0.19813 0.17834
# Poissons Ratio (z) = 0.34061 0.32782
#
# Static dielectric constant tensor:
#      x y z
#    x 3.144490 0.000000 -0.021140 
#    y 0.000000 3.795670 0.000000 
#    z -0.021140 0.000000 3.327830 
# 
# 
# High freq. dielectric constant tensor:
#      x y z
#    x 1.662770 0.000000 0.003220 
#    y 0.000000 1.675320 0.000000 
#    z 0.003220 0.000000 1.662860 
# 
# From -- ./inp_files/19949.got.cif
#   From: 2010.06.25/outbox.cif.g09.slc.cpg/sg10_10_cif.got.tgz:19949.got - 2010.06.27 22:07:45.
