data_PCOD8059891
_publ_section_title
;
Structure prediction by ZEFSAII (Michael W. Deem and Ramdas Pophale) SiO2 
 PCOD8059891
Probable space group: P 2/M
;
_chemical_formula_sum "Si O2"
_cell_formula_units_Z 32
_cell_length_a 17.217533
_cell_length_b 8.768380
_cell_length_c 11.916842
_cell_angle_alpha 90.000000
_cell_angle_beta 84.991125
_cell_angle_gamma 90.000000
_cell_volume 1792.213744
_symmetry_space_group_name_H-M "P 2/M"
_symmetry_group_IT_number 10
_symmetry_cell_setting 'monoclinic'
loop_
_space_group_symop_operation_xyz
x,y,z
-x,y,-z
-x,-y,-z
x,-y,z
loop_
_atom_site_type_symbol
_atom_site_label
_atom_site_fract_x
_atom_site_fract_y
_atom_site_fract_z
Si Si1 0.397928 0.674999 0.262778
Si Si2 0.255645 0.819617 0.406376
Si Si3 0.769632 0.819488 0.112586
Si Si4 0.542536 0.322067 0.381042
Si Si5 0.709904 0.179626 0.356042
Si Si6 0.696501 0.677116 0.929315
Si Si7 0.084478 0.320638 0.030786
Si Si8 0.837596 0.178477 0.785467
O O1 0.383304 0.500000 0.297948
O O2 0.337172 0.768717 0.343832
O O3 0.485989 0.720818 0.283490
O O4 0.384108 0.699258 0.130029
O O5 0.250070 0.755914 0.534550
O O6 0.180661 0.765959 0.340597
O O7 0.256199 0.000000 0.404471
O O8 0.762115 0.769683 0.243535
O O9 0.696076 0.738682 0.057125
O O10 0.852097 0.761149 0.055771
O O11 0.763740 0.000000 0.098535
O O12 0.500000 0.268173 0.500000
O O13 0.561688 0.500000 0.383724
O O14 0.622214 0.235115 0.352604
O O15 0.705706 0.000000 0.364470
O O16 0.722547 0.500000 0.923495
O O17 0.759755 0.785422 0.863650
O O18 0.096214 0.500000 0.018867
O O19 0.092872 0.269849 0.160959
O O20 0.000000 0.268178 0.000000
O O21 0.857149 0.000000 0.788227
#
# Coordination Sequence:
#
# PCOD8059891 Si02
#       8
#     4   4   4   4   4   4   4   4
#     4   9  17  29  45  68  94 121 160 208 251 287
#     4   9  17  29  46  69  96 126 161 199 239 281
#     4  10  20  34  51  72  99 128 162 198 234 285
#     4  10  19  31  47  69  96 126 166 211 248 287
#     4  10  21  34  48  69  98 132 165 200 243 288
#     4   9  16  28  47  67  92 125 159 199 245 288
#     4  10  20  34  54  79 103 125 152 190 235 283
#     4   9  16  27  47  74  99 123 155 194 233 278
#
# _framework density 17.855011000000001
#
# number of rings (size 3 to 8) (size 9 to 14) (size 15 to 20)
#    0.000    2.500    1.250    3.000    0.000    3.750 
#    0.000    0.625    0.000    4.500    0.000    5.250 
#    0.000    0.000    0.000    0.000    0.000    0.000 
#
# Total GULP energy -396453.473870 kJ/mol
# GULP energy per Si atom -12389.171058 kJ/mol
# Density = 1.781437 g / cm^3
# Si number density = 17.855011 Si / 1000 Ang^3
#
#
#
# Elastic Constant Matrix: (Units=GPa)
#
#
# Indices 1 2 3 4 5 6 
#
# 1 85.2254 13.8498 70.5836 0.0000 28.8009 0.0000
# 2 13.8498 17.8939 34.6563 0.0000 5.9343 0.0000
# 3 70.5836 34.6563 149.2772 0.0000 30.7996 0.0000
# 4 0.0000 0.0000 0.0000 585.1621 0.0000 69.2943
# 5 28.8009 5.9343 30.7996 0.0000 33.2105 0.0000
# 6 0.0000 0.0000 0.0000 69.2943 0.0000 28.3844
#
#
#
# Elastic Compliance Matrix: (Units=1/GPa)
#
#
# Indices 1 2 3 4 5 6 
#
# 1 0.022760 0.004398 -0.009334 0.000000 -0.011867 0.000000
# 2 0.004398 0.102963 -0.026464 0.000000 0.002331 0.000000
# 3 -0.009334 -0.026464 0.018068 0.000000 -0.003933 0.000000
# 4 0.000000 0.000000 0.000000 0.002404 0.000000 -0.005869
# 5 -0.011867 0.002331 -0.003933 0.000000 0.043633 0.000000
# 6 0.000000 0.000000 0.000000 -0.005869 0.000000 0.049557
#
#
# Mechanical properties :
#
#
# Convention : Reuss Voigt Hill
#
# Bulk Modulus (GPa) = 12.34731 54.50845 33.42788
# Shear Modulus (GPa) = 15.18910 138.23852 76.71381
#
# Velocity S-wave (km/s) = 2.91983 8.80857 6.56187
# Velocity P-wave (km/s) = 4.27756 11.57796 8.72773
#
# Compressibility (1/GPa) = 0.08098930
#
# Stress axis : x y z
#
# Youngs Moduli (GPa) = 43.93703 9.71219 55.34694
#
# Poissons Ratio (x) = -0.04271 0.51662
# Poissons Ratio (y) = -0.19322 1.46472
# Poissons Ratio (z) = 0.41012 0.25703
#
# Static dielectric constant tensor:
#      x y z
#    x 3.227210 0.000000 0.656940 
#    y 0.000000 3.276790 0.000000 
#    z 0.656940 0.000000 4.103880 
# 
# 
# High freq. dielectric constant tensor:
#      x y z
#    x 1.655270 0.000000 0.040790 
#    y 0.000000 1.692460 0.000000 
#    z 0.040790 0.000000 1.695210 
# 
# From -- ./inp_files/52802.got.cif
#   From: 2010.06.25/outbox.cif.g09.slc.cpg/sg10_27_cif.got.tgz:52802.got - 2010.06.27 22:07:45.
