data_PCOD8059514
_publ_section_title
;
Structure prediction by ZEFSAII (Michael W. Deem and Ramdas Pophale) SiO2 
 PCOD8059514
Probable space group: P 2/M
;
_chemical_formula_sum "Si O2"
_cell_formula_units_Z 32
_cell_length_a 13.769511
_cell_length_b 9.123532
_cell_length_c 24.169076
_cell_angle_alpha 90.000000
_cell_angle_beta 34.645425
_cell_angle_gamma 90.000000
_cell_volume 1726.112515
_symmetry_space_group_name_H-M "P 2/M"
_symmetry_group_IT_number 10
_symmetry_cell_setting 'monoclinic'
loop_
_space_group_symop_operation_xyz
x,y,z
-x,y,-z
-x,-y,-z
x,-y,z
loop_
_atom_site_type_symbol
_atom_site_label
_atom_site_fract_x
_atom_site_fract_y
_atom_site_fract_z
Si Si1 0.982340 0.667337 0.329751
Si Si2 0.305715 0.170166 0.596807
Si Si3 0.563987 0.165448 0.054431
Si Si4 0.811350 0.667021 0.877649
Si Si5 0.547663 0.670094 0.166757
Si Si6 0.104884 0.828726 0.800118
Si Si7 0.246699 0.833726 0.268631
Si Si8 0.843502 0.669145 0.112122
O O1 0.948260 0.500000 0.362866
O O2 0.117243 0.679069 0.217079
O O3 0.066567 0.753113 0.342037
O O4 0.803998 0.739839 0.396374
O O5 0.500000 0.222448 0.500000
O O6 0.247287 0.203428 0.686647
O O7 0.283528 0.000000 0.592330
O O8 0.644251 0.251704 0.069955
O O9 0.357814 0.166938 0.158977
O O10 0.633534 0.000000 0.019900
O O11 0.628126 0.250020 0.969114
O O12 0.788707 0.500000 0.906420
O O13 0.932623 0.746557 0.864819
O O14 0.518525 0.500000 0.166546
O O15 0.359971 0.747643 0.261983
O O16 0.662410 0.691721 0.166872
O O17 0.172180 0.767843 0.826419
O O18 0.067009 0.000000 0.823106
O O19 0.211883 0.000000 0.304827
O O20 0.871359 0.500000 0.115817
O O21 0.000000 0.721296 0.000000
#
# Coordination Sequence:
#
# PCOD8059514 Si02
#       8
#     4   4   4   4   4   4   4   4
#     4  10  20  32  49  73  97 125 163 203 249 304
#     4   9  19  37  58  79 105 134 164 204 258 313
#     4   9  18  29  43  63  90 125 166 207 246 286
#     4  10  19  30  44  63  93 129 163 206 251 295
#     4   9  17  30  46  64  91 127 166 206 245 289
#     4  10  20  32  50  75 101 132 171 213 253 300
#     4   9  19  32  46  66  95 128 167 210 249 294
#     4  10  20  32  48  71 101 139 176 210 254 301
#
# _framework density 18.538768999999998
#
# number of rings (size 3 to 8) (size 9 to 14) (size 15 to 20)
#    0.750    1.750    0.000    2.625    0.000    5.000 
#    0.000    2.500    0.000    0.000    0.000    0.875 
#    0.000    7.000    0.000    0.000    0.000    0.000 
#
# Total GULP energy -396586.321165 kJ/mol
# GULP energy per Si atom -12393.322536 kJ/mol
# Density = 1.849657 g / cm^3
# Si number density = 18.538769 Si / 1000 Ang^3
#
#
#
# Elastic Constant Matrix: (Units=GPa)
#
#
# Indices 1 2 3 4 5 6 
#
# 1 74.9665 49.4107 28.2907 0.0000 -26.1620 0.0000
# 2 49.4107 134.1629 34.3247 0.0000 -21.4205 0.0000
# 3 28.2907 34.3247 54.0690 0.0000 -15.6004 0.0000
# 4 0.0000 0.0000 0.0000 20.3496 0.0000 -5.6662
# 5 -26.1620 -21.4205 -15.6004 0.0000 21.5357 0.0000
# 6 0.0000 0.0000 0.0000 -5.6662 0.0000 25.2215
#
#
#
# Elastic Compliance Matrix: (Units=1/GPa)
#
#
# Indices 1 2 3 4 5 6 
#
# 1 0.026603 -0.004905 -0.003652 0.000000 0.024794 0.000000
# 2 -0.004905 0.010466 -0.003531 0.000000 0.001893 0.000000
# 3 -0.003652 -0.003531 0.025732 0.000000 0.010691 0.000000
# 4 0.000000 0.000000 0.000000 0.052420 0.000000 0.011777
# 5 0.024794 0.001893 0.010691 0.000000 0.086182 0.000000
# 6 0.000000 0.000000 0.000000 0.011777 0.000000 0.042294
#
#
# Mechanical properties :
#
#
# Convention : Reuss Voigt Hill
#
# Bulk Modulus (GPa) = 25.89038 54.13894 40.01466
# Shear Modulus (GPa) = 17.80952 23.49951 20.65452
#
# Velocity S-wave (km/s) = 3.10282 3.56418 3.34147
# Velocity P-wave (km/s) = 5.18001 6.79738 6.04305
#
# Compressibility (1/GPa) = 0.03862438
#
# Stress axis : x y z
#
# Youngs Moduli (GPa) = 37.59018 95.55013 38.86148
#
# Poissons Ratio (x) = 0.46863 0.14193
# Poissons Ratio (y) = 0.18436 0.13724
# Poissons Ratio (z) = 0.13729 0.33743
#
# Static dielectric constant tensor:
#      x y z
#    x 3.126180 0.000000 -0.189600 
#    y 0.000000 3.503750 0.000000 
#    z -0.189600 0.000000 3.098800 
# 
# 
# High freq. dielectric constant tensor:
#      x y z
#    x 1.701700 0.000000 -0.026350 
#    y 0.000000 1.734260 0.000000 
#    z -0.026350 0.000000 1.680540 
# 
# From -- ./inp_files/95243.got.cif
#   From: 2010.06.25/outbox.cif.g09.slc.cpg/sg10_48_cif.got.tgz:95243.got - 2010.06.27 22:07:45.
