data_PCOD8059288
_publ_section_title
;
Structure prediction by ZEFSAII (Michael W. Deem and Ramdas Pophale) SiO2 
 PCOD8059288
Probable space group: P 2/M
;
_chemical_formula_sum "Si O2"
_cell_formula_units_Z 32
_cell_length_a 19.532365
_cell_length_b 9.201206
_cell_length_c 28.687048
_cell_angle_alpha 90.000000
_cell_angle_beta 23.120910
_cell_angle_gamma 90.000000
_cell_volume 2024.492816
_symmetry_space_group_name_H-M "P 2/M"
_symmetry_group_IT_number 10
_symmetry_cell_setting 'monoclinic'
loop_
_space_group_symop_operation_xyz
x,y,z
-x,y,-z
-x,-y,-z
x,-y,z
loop_
_atom_site_type_symbol
_atom_site_label
_atom_site_fract_x
_atom_site_fract_y
_atom_site_fract_z
Si Si1 0.384924 0.836419 0.443086
Si Si2 0.818912 0.170957 0.516151
Si Si3 0.439874 0.332588 0.590101
Si Si4 0.742638 0.839060 0.164729
Si Si5 0.135966 0.839157 0.372843
Si Si6 0.383136 0.331380 0.277218
Si Si7 0.773167 0.667951 0.053727
Si Si8 0.896278 0.167713 0.166004
O O1 0.221996 0.790241 0.512205
O O2 0.405368 0.728271 0.473797
O O3 0.552677 0.827804 0.305508
O O4 0.360685 0.000000 0.477675
O O5 0.686694 0.254425 0.632756
O O6 0.021717 0.212496 0.399523
O O7 0.788615 0.000000 0.544585
O O8 0.500000 0.311624 0.500000
O O9 0.407258 0.500000 0.623185
O O10 0.262126 0.245056 0.708594
O O11 0.762478 0.715622 0.114077
O O12 0.882312 0.814954 0.118664
O O13 0.769262 0.000000 0.125784
O O14 0.293596 0.730596 0.286164
O O15 0.000000 0.842067 0.500000
O O16 0.214522 0.000000 0.315415
O O17 0.337502 0.500000 0.309928
O O18 0.589392 0.304046 0.143356
O O19 0.825356 0.500000 0.019995
O O20 0.921427 0.758241 0.933357
O O21 0.894125 0.000000 0.182515
#
# Coordination Sequence:
#
# PCOD8059288 Si02
#       8
#     4   4   4   4   4   4   4   4
#     4   9  17  29  47  68  89 116 150 187 221 259
#     4   9  16  28  43  60  84 115 152 188 221 256
#     4  10  21  36  52  69  91 115 139 176 225 271
#     4   9  17  29  43  60  84 115 149 183 218 255
#     4   8  15  26  40  56  78 114 154 187 219 255
#     4  10  19  27  37  58  87 120 154 185 220 256
#     4  11  21  29  40  61  89 120 151 184 219 259
#     4  10  21  34  48  65  83 111 149 186 220 258
#
# _framework density 15.806428
#
# number of rings (size 3 to 8) (size 9 to 14) (size 15 to 20)
#    0.000    2.500    1.250    3.375    0.000    9.250 
#    0.000    0.000    0.000    0.000    0.000    0.000 
#    0.000    1.000    0.000   11.250    0.000    5.000 
#
# Total GULP energy -396691.557492 kJ/mol
# GULP energy per Si atom -12396.611172 kJ/mol
# Density = 1.577045 g / cm^3
# Si number density = 15.806428 Si / 1000 Ang^3
#
#
#
# Elastic Constant Matrix: (Units=GPa)
#
#
# Indices 1 2 3 4 5 6 
#
# 1 94.7950 58.5103 43.0346 0.0000 -20.6156 0.0000
# 2 58.5103 110.3897 46.1648 0.0000 -13.1647 0.0000
# 3 43.0346 46.1648 45.8558 0.0000 -14.9123 0.0000
# 4 0.0000 0.0000 0.0000 18.0845 0.0000 -3.6234
# 5 -20.6156 -13.1647 -14.9123 0.0000 20.4823 0.0000
# 6 0.0000 0.0000 0.0000 -3.6234 0.0000 24.3857
#
#
#
# Elastic Compliance Matrix: (Units=1/GPa)
#
#
# Indices 1 2 3 4 5 6 
#
# 1 0.021008 -0.005267 -0.011317 0.000000 0.009520 0.000000
# 2 -0.005267 0.017020 -0.013572 0.000000 -0.004243 0.000000
# 3 -0.011317 -0.013572 0.051820 0.000000 0.017614 0.000000
# 4 0.000000 0.000000 0.000000 0.056993 0.000000 0.008468
# 5 0.009520 -0.004243 0.017614 0.000000 0.068501 0.000000
# 6 0.000000 0.000000 0.000000 0.008468 0.000000 0.042266
#
#
# Mechanical properties :
#
#
# Convention : Reuss Voigt Hill
#
# Bulk Modulus (GPa) = 33.85692 60.71778 47.28735
# Shear Modulus (GPa) = 15.25480 19.47921 17.36700
#
# Velocity S-wave (km/s) = 3.10998 3.51431 3.31831
# Velocity P-wave (km/s) = 5.86193 7.41376 6.68304
#
# Compressibility (1/GPa) = 0.02953606
#
# Stress axis : x y z
#
# Youngs Moduli (GPa) = 47.60074 58.75401 19.29759
#
# Poissons Ratio (x) = 0.30944 0.21840
# Poissons Ratio (y) = 0.25070 0.26190
# Poissons Ratio (z) = 0.53872 0.79740
#
# Static dielectric constant tensor:
#      x y z
#    x 3.253670 0.000000 -0.455210 
#    y 0.000000 3.119650 0.000000 
#    z -0.455210 0.000000 2.775330 
# 
# 
# High freq. dielectric constant tensor:
#      x y z
#    x 1.590670 0.000000 -0.035830 
#    y 0.000000 1.616680 0.000000 
#    z -0.035830 0.000000 1.568550 
# 
# From -- ./inp_files/95648.got.cif
#   From: 2010.06.25/outbox.cif.g09.slc.cpg/sg10_48_cif.got.tgz:95648.got - 2010.06.27 22:07:45.
