data_PCOD8059380
_publ_section_title
;
Structure prediction by ZEFSAII (Michael W. Deem and Ramdas Pophale) SiO2 
 PCOD8059380
Probable space group: P 2/M
;
_chemical_formula_sum "Si O2"
_cell_formula_units_Z 32
_cell_length_a 21.322437
_cell_length_b 14.443703
_cell_length_c 17.915201
_cell_angle_alpha 90.000000
_cell_angle_beta 21.851651
_cell_angle_gamma 90.000000
_cell_volume 2053.614503
_symmetry_space_group_name_H-M "P 2/M"
_symmetry_group_IT_number 10
_symmetry_cell_setting 'monoclinic'
loop_
_space_group_symop_operation_xyz
x,y,z
-x,y,-z
-x,-y,-z
x,-y,z
loop_
_atom_site_type_symbol
_atom_site_label
_atom_site_fract_x
_atom_site_fract_y
_atom_site_fract_z
Si Si1 0.362469 0.272087 0.213655
Si Si2 0.216077 0.103504 0.179420
Si Si3 0.140676 0.609659 0.944731
Si Si4 0.630381 0.289466 0.030256
Si Si5 0.409430 0.389290 0.771510
Si Si6 0.805255 0.600882 0.713299
Si Si7 0.775122 0.609703 0.311922
Si Si8 0.167176 0.102321 0.407243
O O1 0.244854 0.351749 0.309642
O O2 0.262384 0.180294 0.349185
O O3 0.500000 0.243780 0.000000
O O4 0.448026 0.309195 0.194797
O O5 0.331837 0.178986 0.009503
O O6 0.202895 0.125489 0.281497
O O7 0.027775 0.108059 0.355375
O O8 0.290477 0.000000 0.083769
O O9 0.147016 0.500000 0.936214
O O10 0.268512 0.644450 0.867560
O O11 0.207736 0.648163 0.791372
O O12 0.943065 0.641019 0.173654
O O13 0.768175 0.336763 0.825661
O O14 0.640648 0.335396 0.099011
O O15 0.403579 0.500000 0.790082
O O16 0.597581 0.354762 0.541471
O O17 0.714747 0.500000 0.818063
O O18 0.000000 0.584632 0.500000
O O19 0.768481 0.500000 0.316852
O O20 0.236833 0.000000 0.349742
#
# Coordination Sequence:
#
# PCOD8059380 Si02
#       8
#     4   4   4   4   4   4   4   4
#     4  10  19  29  43  62  82 109 145 189 228 266
#     4   9  17  30  49  66  82 106 139 186 239 283
#     4   8  14  27  48  69  89 120 154 186 221 261
#     4  11  21  31  43  64  92 116 146 187 232 273
#     4  10  19  30  43  65  98 129 155 183 222 266
#     4  10  20  34  47  56  74 116 166 197 219 255
#     4   8  14  27  47  69  92 117 153 189 219 262
#     4   9  16  29  49  68  80  98 140 195 240 279
#
# _framework density 15.582281
#
# number of rings (size 3 to 8) (size 9 to 14) (size 15 to 20)
#    0.000    2.625    2.500    3.000    0.000    5.000 
#    4.500    0.000    0.000    0.000    0.000    0.000 
#    0.000    2.000    0.000    2.750    0.000    0.250 
#
# Total GULP energy -396503.519216 kJ/mol
# GULP energy per Si atom -12390.734975 kJ/mol
# Density = 1.554681 g / cm^3
# Si number density = 15.582281 Si / 1000 Ang^3
#
#
#
# Elastic Constant Matrix: (Units=GPa)
#
#
# Indices 1 2 3 4 5 6 
#
# 1 95.6555 28.7245 43.5549 0.0000 -9.6232 0.0000
# 2 28.7245 73.3656 26.1501 0.0000 -2.6004 0.0000
# 3 43.5549 26.1501 57.2122 0.0000 -12.4369 0.0000
# 4 0.0000 0.0000 0.0000 -0.4684 0.0000 2.4385
# 5 -9.6232 -2.6004 -12.4369 0.0000 21.2849 0.0000
# 6 0.0000 0.0000 0.0000 2.4385 0.0000 -0.8747
#
#
#
# Elastic Compliance Matrix: (Units=1/GPa)
#
#
# Indices 1 2 3 4 5 6 
#
# 1 0.016337 -0.002372 -0.011237 0.000000 0.000530 0.000000
# 2 -0.002372 0.016764 -0.006466 0.000000 -0.002802 0.000000
# 3 -0.011237 -0.006466 0.031745 0.000000 0.012678 0.000000
# 4 0.000000 0.000000 0.000000 0.157980 0.000000 0.440430
# 5 0.000530 -0.002802 0.012678 0.000000 0.054287 0.000000
# 6 0.000000 0.000000 0.000000 0.440430 0.000000 0.084602
#
#
# Mechanical properties :
#
#
# Convention : Reuss Voigt Hill
#
# Bulk Modulus (GPa) = 40.49338 47.01025 43.75181
# Shear Modulus (GPa) = 12.19222 12.50861 12.35042
#
# Velocity S-wave (km/s) = 2.80025 2.83635 2.81836
# Velocity P-wave (km/s) = 6.04139 6.40008 6.22332
#
# Compressibility (1/GPa) = 0.02469540
#
# Stress axis : x y z
#
# Youngs Moduli (GPa) = 61.21250 59.65006 31.50089
#
# Poissons Ratio (x) = 0.14149 0.35399
# Poissons Ratio (y) = 0.14519 0.20368
# Poissons Ratio (z) = 0.68787 0.38570
#
# Static dielectric constant tensor:
#      x y z
#    x 3.043090 0.000000 -0.327560 
#    y 0.000000 2.861590 0.000000 
#    z -0.327560 0.000000 2.994950 
# 
# 
# High freq. dielectric constant tensor:
#      x y z
#    x 1.581750 0.000000 -0.032920 
#    y 0.000000 1.570430 0.000000 
#    z -0.032920 0.000000 1.584920 
# 
# From -- ./inp_files/69286.got.cif
#   From: 2010.06.25/outbox.cif.g09.slc.cpg/sg10_35_cif.got.tgz:69286.got - 2010.06.27 22:07:45.
