data_PCOD8059873
_publ_section_title
;
Structure prediction by ZEFSAII (Michael W. Deem and Ramdas Pophale) SiO2 
 PCOD8059873
Probable space group: P 2/M
;
_chemical_formula_sum "Si O2"
_cell_formula_units_Z 32
_cell_length_a 16.874851
_cell_length_b 9.160633
_cell_length_c 16.763975
_cell_angle_alpha 90.000000
_cell_angle_beta 129.574638
_cell_angle_gamma 90.000000
_cell_volume 1997.475710
_symmetry_space_group_name_H-M "P 2/M"
_symmetry_group_IT_number 10
_symmetry_cell_setting 'monoclinic'
loop_
_space_group_symop_operation_xyz
x,y,z
-x,y,-z
-x,-y,-z
x,-y,z
loop_
_atom_site_type_symbol
_atom_site_label
_atom_site_fract_x
_atom_site_fract_y
_atom_site_fract_z
Si Si1 0.452651 0.166485 0.673881
Si Si2 0.546884 0.828060 0.149550
Si Si3 0.402496 0.329322 0.488166
Si Si4 0.995696 0.331436 0.086291
Si Si5 0.222629 0.332510 0.255564
Si Si6 0.340421 0.171900 0.932390
Si Si7 0.690222 0.166827 0.833323
Si Si8 0.208398 0.673494 0.962863
O O1 0.429216 0.234698 0.746760
O O2 0.392915 0.256164 0.568352
O O3 0.572766 0.179005 0.731853
O O4 0.414609 0.000000 0.644639
O O5 0.639760 0.791061 0.148338
O O6 0.532137 0.000000 0.148875
O O7 0.438953 0.769877 0.045482
O O8 0.500000 0.269003 0.500000
O O9 0.416569 0.500000 0.510850
O O10 0.296108 0.290287 0.375766
O O11 0.968172 0.500000 0.056323
O O12 0.103069 0.310336 0.202516
O O13 0.903676 0.266154 0.081331
O O14 0.000000 0.259914 0.000000
O O15 0.243307 0.500000 0.242293
O O16 0.240712 0.226885 0.193415
O O17 0.323511 0.000000 0.933599
O O18 0.238859 0.258368 0.896435
O O19 0.707279 0.265803 0.921568
O O20 0.720857 0.000000 0.871806
O O21 0.213282 0.500000 0.960532
#
# Coordination Sequence:
#
# PCOD8059873 Si02
#       8
#     4   4   4   4   4   4   4   4
#     4  10  19  31  47  67  92 125 159 183 218 274
#     4   8  15  29  48  67  90 124 154 181 222 281
#     4  10  20  31  46  69  93 119 153 193 232 265
#     4   9  17  30  48  66  87 124 160 183 222 278
#     4  10  19  34  49  63  91 125 158 191 227 273
#     4   9  16  30  49  67  92 121 153 186 225 277
#     4  11  20  29  45  68  94 123 157 191 226 264
#     4  11  20  30  46  68  94 124 158 190 225 270
#
# _framework density 16.020220999999999
#
# number of rings (size 3 to 8) (size 9 to 14) (size 15 to 20)
#    0.000    2.250    3.750    1.500    0.000    1.250 
#    0.000    3.750    0.000    0.000    0.000    0.875 
#    0.000    7.000    0.000    0.000    0.000    0.000 
#
# Total GULP energy -396645.575785 kJ/mol
# GULP energy per Si atom -12395.174243 kJ/mol
# Density = 1.598376 g / cm^3
# Si number density = 16.020221 Si / 1000 Ang^3
#
#
#
# Elastic Constant Matrix: (Units=GPa)
#
#
# Indices 1 2 3 4 5 6 
#
# 1 118.8264 33.8807 40.0918 0.0000 -9.5719 0.0000
# 2 33.8807 43.1869 20.9383 0.0000 -3.6841 0.0000
# 3 40.0918 20.9383 79.6821 0.0000 -5.6127 0.0000
# 4 0.0000 0.0000 0.0000 15.4967 0.0000 -4.1199
# 5 -9.5719 -3.6841 -5.6127 0.0000 26.6824 0.0000
# 6 0.0000 0.0000 0.0000 -4.1199 0.0000 22.6698
#
#
#
# Elastic Compliance Matrix: (Units=1/GPa)
#
#
# Indices 1 2 3 4 5 6 
#
# 1 0.012036 -0.007311 -0.003960 0.000000 0.002475 0.000000
# 2 -0.007311 0.031108 -0.004444 0.000000 0.000738 0.000000
# 3 -0.003960 -0.004444 0.015801 0.000000 0.001290 0.000000
# 4 0.000000 0.000000 0.000000 0.067806 0.000000 0.012323
# 5 0.002475 0.000738 0.001290 0.000000 0.038739 0.000000
# 6 0.000000 0.000000 0.000000 0.012323 0.000000 0.046351
#
#
# Mechanical properties :
#
#
# Convention : Reuss Voigt Hill
#
# Bulk Modulus (GPa) = 36.34431 47.94633 42.14532
# Shear Modulus (GPa) = 19.80644 22.75541 21.28093
#
# Velocity S-wave (km/s) = 3.51998 3.77293 3.64865
# Velocity P-wave (km/s) = 6.26547 6.99812 6.64190
#
# Compressibility (1/GPa) = 0.02751462
#
# Stress axis : x y z
#
# Youngs Moduli (GPa) = 83.08558 32.14580 63.28692
#
# Poissons Ratio (x) = 0.23502 0.25063
# Poissons Ratio (y) = 0.60744 0.28124
# Poissons Ratio (z) = 0.32904 0.14285
#
# Static dielectric constant tensor:
#      x y z
#    x 3.185860 0.000000 -0.122210 
#    y 0.000000 2.853760 0.000000 
#    z -0.122210 0.000000 2.947900 
# 
# 
# High freq. dielectric constant tensor:
#      x y z
#    x 1.611120 0.000000 -0.008270 
#    y 0.000000 1.595660 0.000000 
#    z -0.008270 0.000000 1.589200 
# 
# From -- ./inp_files/78526.got.cif
#   From: 2010.06.25/outbox.cif.g09.slc.cpg/sg10_40_cif.got.tgz:78526.got - 2010.06.27 22:07:45.
