data_PCOD8059009
_publ_section_title
;
Structure prediction by ZEFSAII (Michael W. Deem and Ramdas Pophale) SiO2 
 PCOD8059009
Probable space group: P 2/M
;
_chemical_formula_sum "Si O2"
_cell_formula_units_Z 32
_cell_length_a 12.202142
_cell_length_b 13.981274
_cell_length_c 14.558625
_cell_angle_alpha 90.000000
_cell_angle_beta 44.608198
_cell_angle_gamma 90.000000
_cell_volume 1744.206796
_symmetry_space_group_name_H-M "P 2/M"
_symmetry_group_IT_number 10
_symmetry_cell_setting 'monoclinic'
loop_
_space_group_symop_operation_xyz
x,y,z
-x,y,-z
-x,-y,-z
x,-y,z
loop_
_atom_site_type_symbol
_atom_site_label
_atom_site_fract_x
_atom_site_fract_y
_atom_site_fract_z
Si Si1 0.730226 0.386475 0.178002
Si Si2 0.390479 0.388353 0.430050
Si Si3 0.841398 0.611863 0.780169
Si Si4 0.663450 0.293806 0.035079
Si Si5 0.321011 0.893110 0.077607
Si Si6 0.307989 0.297792 0.300334
Si Si7 0.862535 0.386705 0.285121
Si Si8 0.175680 0.894144 0.359217
O O1 0.728229 0.500000 0.156967
O O2 0.565649 0.348687 0.317679
O O3 0.761837 0.328171 0.065726
O O4 0.860959 0.361129 0.177104
O O5 0.403600 0.500000 0.433345
O O6 0.289836 0.363889 0.399876
O O7 0.297377 0.346867 0.573387
O O8 0.854643 0.500000 0.751115
O O9 0.820512 0.667420 0.696683
O O10 0.989939 0.654836 0.747546
O O11 0.694803 0.633853 0.932654
O O12 0.480437 0.304683 0.157952
O O13 0.716731 0.185675 0.977766
O O14 0.201045 0.878668 0.234265
O O15 0.300294 0.000000 0.048846
O O16 0.500000 0.876695 0.000000
O O17 0.275225 0.188015 0.349788
O O18 0.868673 0.500000 0.291922
O O19 0.000000 0.884614 0.500000
O O20 0.239941 0.000000 0.346738
#
# Coordination Sequence:
#
# PCOD8059009 Si02
#       8
#     4   4   4   4   4   4   4   4
#     4   9  18  33  52  72 100 135 181 229 260 302
#     4   9  18  31  50  74 102 138 176 215 265 317
#     4  11  22  32  46  71 107 141 173 213 261 314
#     4  11  20  33  50  77 101 137 177 213 264 314
#     4  10  18  33  54  76 105 137 171 213 259 314
#     4  11  21  32  50  76 107 138 170 212 265 328
#     4   9  19  34  49  69  97 139 185 223 262 304
#     4  10  21  35  53  77 107 140 173 214 262 315
#
# _framework density 18.346447999999999
#
# number of rings (size 3 to 8) (size 9 to 14) (size 15 to 20)
#    0.000    2.000    2.500    1.500    1.750    4.000 
#    0.000    3.750    0.000    0.000    0.000    3.500 
#    0.000    4.000    0.000    0.000    0.000    0.000 
#
# Total GULP energy -396540.421370 kJ/mol
# GULP energy per Si atom -12391.888168 kJ/mol
# Density = 1.830469 g / cm^3
# Si number density = 18.346448 Si / 1000 Ang^3
#
#
#
# Elastic Constant Matrix: (Units=GPa)
#
#
# Indices 1 2 3 4 5 6 
#
# 1 96.1591 21.6200 16.2460 0.0000 9.9014 0.0000
# 2 21.6200 52.5652 21.4144 0.0000 -0.1873 0.0000
# 3 16.2460 21.4144 57.1010 0.0000 13.6568 0.0000
# 4 0.0000 0.0000 0.0000 23.5966 0.0000 -0.1033
# 5 9.9014 -0.1873 13.6568 0.0000 21.1401 0.0000
# 6 0.0000 0.0000 0.0000 -0.1033 0.0000 10.1143
#
#
#
# Elastic Compliance Matrix: (Units=1/GPa)
#
#
# Indices 1 2 3 4 5 6 
#
# 1 0.012116 -0.004883 -0.000294 0.000000 -0.005528 0.000000
# 2 -0.004883 0.025247 -0.010266 0.000000 0.009143 0.000000
# 3 -0.000294 -0.010266 0.025352 0.000000 -0.016331 0.000000
# 4 0.000000 0.000000 0.000000 0.042381 0.000000 0.000433
# 5 -0.005528 0.009143 -0.016331 0.000000 0.060524 0.000000
# 6 0.000000 0.000000 0.000000 0.000433 0.000000 0.098874
#
#
# Mechanical properties :
#
#
# Convention : Reuss Voigt Hill
#
# Bulk Modulus (GPa) = 31.41660 36.04291 33.72975
# Shear Modulus (GPa) = 16.34039 20.73988 18.54013
#
# Velocity S-wave (km/s) = 2.98763 3.36587 3.18237
# Velocity P-wave (km/s) = 5.39096 5.89863 5.65050
#
# Compressibility (1/GPa) = 0.03183031
#
# Stress axis : x y z
#
# Youngs Moduli (GPa) = 82.53367 39.60835 39.44443
#
# Poissons Ratio (x) = 0.19343 0.01158
# Poissons Ratio (y) = 0.40305 0.40492
# Poissons Ratio (z) = 0.02423 0.40660
#
# Static dielectric constant tensor:
#      x y z
#    x 3.367650 0.000000 0.073080 
#    y 0.000000 3.403920 0.000000 
#    z 0.073080 0.000000 3.718570 
# 
# 
# High freq. dielectric constant tensor:
#      x y z
#    x 1.685870 0.000000 0.002790 
#    y 0.000000 1.684090 0.000000 
#    z 0.002790 0.000000 1.728690 
# 
# From -- ./inp_files/65074.got.cif
#   From: 2010.06.25/outbox.cif.g09.slc.cpg/sg10_33_cif.got.tgz:65074.got - 2010.06.27 22:07:45.
