data_PCOD8059875
_publ_section_title
;
Structure prediction by ZEFSAII (Michael W. Deem and Ramdas Pophale) SiO2 
 PCOD8059875
Probable space group: P 2/M
;
_chemical_formula_sum "Si O2"
_cell_formula_units_Z 20
_cell_length_a 12.696327
_cell_length_b 9.316601
_cell_length_c 14.411405
_cell_angle_alpha 90.000000
_cell_angle_beta 44.341346
_cell_angle_gamma 90.000000
_cell_volume 1191.452062
_symmetry_space_group_name_H-M "P 2/M"
_symmetry_group_IT_number 10
_symmetry_cell_setting 'monoclinic'
loop_
_space_group_symop_operation_xyz
x,y,z
-x,y,-z
-x,-y,-z
x,-y,z
loop_
_atom_site_type_symbol
_atom_site_label
_atom_site_fract_x
_atom_site_fract_y
_atom_site_fract_z
Si Si1 0.034552 0.828975 0.704083
Si Si2 0.088497 0.332851 0.851718
Si Si3 0.148966 0.156857 0.345729
Si Si4 0.435090 0.667829 0.640028
Si Si5 0.676577 0.828961 0.594977
O O1 0.012176 0.755427 0.817020
O O2 0.197275 0.785942 0.560210
O O3 0.901019 0.767840 0.719675
O O4 0.021591 0.000000 0.721621
O O5 0.074797 0.500000 0.836052
O O6 0.261414 0.287589 0.755745
O O7 0.000000 0.291942 0.000000
O O8 0.273908 0.231916 0.333598
O O9 0.000000 0.137477 0.500000
O O10 0.212295 0.000000 0.280182
O O11 0.500000 0.715524 0.500000
O O12 0.460044 0.500000 0.641679
O O13 0.520633 0.754075 0.666684
O O14 0.656489 0.000000 0.610903
#
# Coordination Sequence:
#
# PCOD8059875 Si02
#       5
#     4   4   4   4   4
#     4   9  16  28  48  71  95 121 152 190 227 269
#     4  10  21  35  48  64  92 128 158 187 230 277
#     4   7  12  24  42  67  96 121 144 180 231 273
#     4  10  19  31  47  67  93 122 153 193 233 267
#     4   9  16  27  47  73  97 120 149 186 230 277
#
# _framework density 16.786238999999998
#
# number of rings (size 3 to 8) (size 9 to 14) (size 15 to 20)
#    0.000    3.000    2.000    2.400    0.000    1.600 
#    0.000    1.000    0.000    4.800    0.000    8.400 
#    0.000    0.000    0.000    0.000    0.000    0.000 
#
# Total GULP energy -247793.839580 kJ/mol
# GULP energy per Si atom -12389.691979 kJ/mol
# Density = 1.674803 g / cm^3
# Si number density = 16.786239 Si / 1000 Ang^3
#
#
#
# Elastic Constant Matrix: (Units=GPa)
#
#
# Indices 1 2 3 4 5 6 
#
# 1 174.0267 47.5431 60.5319 0.0000 19.7378 0.0000
# 2 47.5431 30.4416 23.8193 0.0000 8.7392 0.0000
# 3 60.5319 23.8193 82.9169 0.0000 6.6995 0.0000
# 4 0.0000 0.0000 0.0000 12.9953 0.0000 -4.2346
# 5 19.7378 8.7392 6.6995 0.0000 20.7936 0.0000
# 6 0.0000 0.0000 0.0000 -4.2346 0.0000 4.0096
#
#
#
# Elastic Compliance Matrix: (Units=1/GPa)
#
#
# Indices 1 2 3 4 5 6 
#
# 1 0.011205 -0.013231 -0.004075 0.000000 -0.003762 0.000000
# 2 -0.013231 0.062559 -0.007395 0.000000 -0.011350 0.000000
# 3 -0.004075 -0.007395 0.017039 0.000000 0.001486 0.000000
# 4 0.000000 0.000000 0.000000 0.117328 0.000000 0.123911
# 5 -0.003762 -0.011350 0.001486 0.000000 0.055954 0.000000
# 6 0.000000 0.000000 0.000000 0.123911 0.000000 0.380266
#
#
# Mechanical properties :
#
#
# Convention : Reuss Voigt Hill
#
# Bulk Modulus (GPa) = 24.15406 61.24153 42.69780
# Shear Modulus (GPa) = 7.06660 17.92577 12.49618
#
# Velocity S-wave (km/s) = 2.05400 3.27140 2.73138
# Velocity P-wave (km/s) = 4.47724 7.12964 5.95304
#
# Compressibility (1/GPa) = 0.04140090
#
# Stress axis : x y z
#
# Youngs Moduli (GPa) = 89.24495 15.98499 58.68718
#
# Poissons Ratio (x) = 0.21150 0.23916
# Poissons Ratio (y) = 1.18081 0.43398
# Poissons Ratio (z) = 0.36369 0.11821
#
# Static dielectric constant tensor:
#      x y z
#    x 3.517220 0.000000 0.111610 
#    y 0.000000 2.818970 0.000000 
#    z 0.111610 0.000000 2.814960 
# 
# 
# High freq. dielectric constant tensor:
#      x y z
#    x 1.669740 0.000000 0.010480 
#    y 0.000000 1.617290 0.000000 
#    z 0.010480 0.000000 1.602310 
# 
# From -- ./inp_files/23084.got.cif
#   From: 2010.06.25/outbox.cif.g09.slc.cpg/sg10_12_cif.got.tgz:23084.got - 2010.06.27 22:07:45.
