data_PCOD8059913
_publ_section_title
;
Structure prediction by ZEFSAII (Michael W. Deem and Ramdas Pophale) SiO2 
 PCOD8059913
Probable space group: P 2/M
;
_chemical_formula_sum "Si O2"
_cell_formula_units_Z 28
_cell_length_a 24.678216
_cell_length_b 8.959109
_cell_length_c 18.972666
_cell_angle_alpha 90.000000
_cell_angle_beta 21.057971
_cell_angle_gamma 90.000000
_cell_volume 1507.228459
_symmetry_space_group_name_H-M "P 2/M"
_symmetry_group_IT_number 10
_symmetry_cell_setting 'monoclinic'
loop_
_space_group_symop_operation_xyz
x,y,z
-x,y,-z
-x,-y,-z
x,-y,z
loop_
_atom_site_type_symbol
_atom_site_label
_atom_site_fract_x
_atom_site_fract_y
_atom_site_fract_z
Si Si1 0.351884 0.829265 0.215459
Si Si2 0.814385 0.825071 0.447295
Si Si3 0.145454 0.177863 0.077327
Si Si4 0.554281 0.826244 0.360950
Si Si5 0.579347 0.827734 0.620742
Si Si6 0.831264 0.829867 0.697215
Si Si7 0.293230 0.674543 0.024373
O O1 0.293266 0.755626 0.360191
O O2 0.213429 0.815760 0.329879
O O3 0.397295 0.000000 0.176508
O O4 0.500000 0.751274 0.000000
O O5 0.742622 0.792363 0.457189
O O6 0.985288 0.761424 0.241840
O O7 0.826239 0.000000 0.448064
O O8 0.169459 0.242238 0.126343
O O9 0.150428 0.000000 0.076023
O O10 0.283056 0.238402 0.861163
O O11 0.500000 0.749150 0.500000
O O12 0.425212 0.798225 0.457987
O O13 0.577439 0.000000 0.346719
O O14 0.533605 0.000000 0.691286
O O15 0.461670 0.718500 0.799559
O O16 0.725758 0.724718 0.872071
O O17 0.000000 0.770851 0.500000
O O18 0.815332 0.000000 0.743203
O O19 0.270112 0.500000 0.044064
#
# Coordination Sequence:
#
# PCOD8059913 Si02
#       7
#     4   4   4   4   4   4   4
#     4   9  16  25  41  65  89 113 149 199 241 272
#     4   9  16  28  48  73  94 118 161 207 242 280
#     4   9  17  31  51  71  94 126 162 200 240 287
#     4   8  14  26  46  73 102 128 154 188 233 284
#     4   9  17  31  52  72  93 124 160 196 234 283
#     4  10  19  31  48  67  88 120 162 205 246 285
#     4  11  21  32  47  68  96 128 163 201 241 288
#
# _framework density 18.577144000000001
#
# number of rings (size 3 to 8) (size 9 to 14) (size 15 to 20)
#    0.000    2.714    0.000    3.857    0.000    4.857 
#    0.000    1.429    0.000   15.000    0.000    0.000 
#    0.000    9.143    0.000    0.000    0.000    0.000 
#
# Total GULP energy -347010.268231 kJ/mol
# GULP energy per Si atom -12393.223865 kJ/mol
# Density = 1.853486 g / cm^3
# Si number density = 18.577144 Si / 1000 Ang^3
#
#
#
# Elastic Constant Matrix: (Units=GPa)
#
#
# Indices 1 2 3 4 5 6 
#
# 1 119.1326 12.0775 55.3694 0.0000 -2.3957 0.0000
# 2 12.0775 32.9672 7.2199 0.0000 2.4214 0.0000
# 3 55.3694 7.2199 83.2017 0.0000 -6.1563 0.0000
# 4 0.0000 0.0000 0.0000 2.4070 0.0000 -5.2663
# 5 -2.3957 2.4214 -6.1563 0.0000 37.7591 0.0000
# 6 0.0000 0.0000 0.0000 -5.2663 0.0000 1.2042
#
#
#
# Elastic Compliance Matrix: (Units=1/GPa)
#
#
# Indices 1 2 3 4 5 6 
#
# 1 0.012404 -0.002758 -0.008041 0.000000 -0.000347 0.000000
# 2 -0.002758 0.031759 -0.001098 0.000000 -0.002391 0.000000
# 3 -0.008041 -0.001098 0.017646 0.000000 0.002437 0.000000
# 4 0.000000 0.000000 0.000000 -0.048487 0.000000 -0.212049
# 5 -0.000347 -0.002391 0.002437 0.000000 0.027012 0.000000
# 6 0.000000 0.000000 0.000000 -0.212049 0.000000 -0.096921
#
#
# Mechanical properties :
#
#
# Convention : Reuss Voigt Hill
#
# Bulk Modulus (GPa) = 26.30445 42.73723 34.52084
# Shear Modulus (GPa) = -248.48164 18.98305 -114.74930
#
# Velocity S-wave (km/s) = -11.57787 3.20011 -7.86786
# Velocity P-wave (km/s) = 12.82728 6.05883 7.99467
#
# Compressibility (1/GPa) = 0.03801639
#
# Stress axis : x y z
#
# Youngs Moduli (GPa) = 80.62076 31.48678 56.67122
#
# Poissons Ratio (x) = 0.08683 0.45569
# Poissons Ratio (y) = 0.22232 0.06221
# Poissons Ratio (z) = 0.64826 0.03456
#
# Static dielectric constant tensor:
#      x y z
#    x 3.586530 0.000000 -0.002480 
#    y 0.000000 2.828520 0.000000 
#    z -0.002480 0.000000 3.593190 
# 
# 
# High freq. dielectric constant tensor:
#      x y z
#    x 1.727470 0.000000 -0.009980 
#    y 0.000000 1.655390 0.000000 
#    z -0.009980 0.000000 1.712860 
# 
# From -- ./inp_files/85608.got.cif
#   From: 2010.06.25/outbox.cif.g09.slc.cpg/sg10_43_cif.got.tgz:85608.got - 2010.06.27 22:07:45.
