data_PCOD8059304
_publ_section_title
;
Structure prediction by ZEFSAII (Michael W. Deem and Ramdas Pophale) SiO2 
 PCOD8059304
Probable space group: P 2/M
;
_chemical_formula_sum "Si O2"
_cell_formula_units_Z 28
_cell_length_a 21.622672
_cell_length_b 9.210661
_cell_length_c 33.258487
_cell_angle_alpha 90.000000
_cell_angle_beta 17.028555
_cell_angle_gamma 90.000000
_cell_volume 1939.747990
_symmetry_space_group_name_H-M "P 2/M"
_symmetry_group_IT_number 10
_symmetry_cell_setting 'monoclinic'
loop_
_space_group_symop_operation_xyz
x,y,z
-x,y,-z
-x,-y,-z
x,-y,z
loop_
_atom_site_type_symbol
_atom_site_label
_atom_site_fract_x
_atom_site_fract_y
_atom_site_fract_z
Si Si1 0.734393 0.169555 0.341131
Si Si2 0.462939 0.166827 0.697888
Si Si3 0.154693 0.835914 0.588918
Si Si4 0.851877 0.166608 0.178166
Si Si5 0.838060 0.664123 0.064031
Si Si6 0.974807 0.672547 0.258340
Si Si7 0.712804 0.165091 0.886974
O O1 0.500000 0.215138 0.500000
O O2 0.765085 0.210003 0.275586
O O3 0.904939 0.264981 0.258998
O O4 0.775530 0.000000 0.324183
O O5 0.705383 0.211342 0.536542
O O6 0.333038 0.200612 0.738282
O O7 0.381148 0.260807 0.786276
O O8 0.442238 0.000000 0.723743
O O9 0.192379 0.730097 0.603894
O O10 0.902799 0.833135 0.735389
O O11 0.225136 0.000000 0.557735
O O12 0.921033 0.000000 0.133310
O O13 0.061387 0.258320 0.037265
O O14 0.787120 0.500000 0.083903
O O15 0.000000 0.677086 0.000000
O O16 0.981533 0.500000 0.253258
O O17 0.208648 0.736565 0.124158
O O18 0.670931 0.000000 0.927857
O O19 0.500000 0.231389 0.000000
#
# Coordination Sequence:
#
# PCOD8059304 Si02
#       7
#     4   4   4   4   4   4   4
#     4  10  19  31  45  59  80 113 152 185 209 241
#     4   9  15  26  43  59  77 103 139 179 211 245
#     4   8  15  27  42  60  82 108 139 170 205 245
#     4   9  17  27  41  57  74 105 146 179 208 240
#     4   9  17  27  38  54  78 105 133 171 215 254
#     4  10  19  28  40  61  88 114 140 173 212 253
#     4   8  15  29  47  63  83 112 143 174 210 252
#
# _framework density 14.434865
#
# number of rings (size 3 to 8) (size 9 to 14) (size 15 to 20)
#    0.857    2.143    0.000    2.143    0.000    5.714 
#    0.000    2.857    0.000    0.000    0.000    0.000 
#    0.000    1.143    0.000   13.143    0.000    3.714 
#
# Total GULP energy -346923.873744 kJ/mol
# GULP energy per Si atom -12390.138348 kJ/mol
# Density = 1.440201 g / cm^3
# Si number density = 14.434865 Si / 1000 Ang^3
#
#
#
# Elastic Constant Matrix: (Units=GPa)
#
#
# Indices 1 2 3 4 5 6 
#
# 1 52.2145 34.6176 38.4474 0.0000 -0.8278 0.0000
# 2 34.6176 78.2400 42.1468 0.0000 3.0384 0.0000
# 3 38.4474 42.1468 97.7326 0.0000 10.4518 0.0000
# 4 0.0000 0.0000 0.0000 13.3959 0.0000 1.2766
# 5 -0.8278 3.0384 10.4518 0.0000 22.2757 0.0000
# 6 0.0000 0.0000 0.0000 1.2766 0.0000 12.2029
#
#
#
# Elastic Compliance Matrix: (Units=1/GPa)
#
#
# Indices 1 2 3 4 5 6 
#
# 1 0.032557 -0.009607 -0.009406 0.000000 0.006934 0.000000
# 2 -0.009607 0.019512 -0.004540 0.000000 -0.000888 0.000000
# 3 -0.009406 -0.004540 0.016699 0.000000 -0.007566 0.000000
# 4 0.000000 0.000000 0.000000 0.075401 0.000000 -0.007888
# 5 0.006934 -0.000888 -0.007566 0.000000 0.048821 0.000000
# 6 0.000000 0.000000 0.000000 -0.007888 0.000000 0.082773
#
#
# Mechanical properties :
#
#
# Convention : Reuss Voigt Hill
#
# Bulk Modulus (GPa) = 46.16482 50.95673 48.56078
# Shear Modulus (GPa) = 15.14729 17.10659 16.12694
#
# Velocity S-wave (km/s) = 3.24289 3.44625 3.34611
# Velocity P-wave (km/s) = 6.78769 7.15634 6.97445
#
# Compressibility (1/GPa) = 0.02166152
#
# Stress axis : x y z
#
# Youngs Moduli (GPa) = 30.71496 51.25008 59.88265
#
# Poissons Ratio (x) = 0.49238 0.56327
# Poissons Ratio (y) = 0.29509 0.27187
# Poissons Ratio (z) = 0.28891 0.23268
#
# Static dielectric constant tensor:
#      x y z
#    x 2.455630 0.000000 0.059610 
#    y 0.000000 2.765410 0.000000 
#    z 0.059610 0.000000 2.889620 
# 
# 
# High freq. dielectric constant tensor:
#      x y z
#    x 1.499720 0.000000 0.008050 
#    y 0.000000 1.551260 0.000000 
#    z 0.008050 0.000000 1.546560 
# 
# From -- ./inp_files/52434.got.cif
#   From: 2010.06.25/outbox.cif.g09.slc.cpg/sg10_27_cif.got.tgz:52434.got - 2010.06.27 22:07:45.
