data_PCOD8059364
_publ_section_title
;
Structure prediction by ZEFSAII (Michael W. Deem and Ramdas Pophale) SiO2 
 PCOD8059364
Probable space group: P 2/M
;
_chemical_formula_sum "Si O2"
_cell_formula_units_Z 32
_cell_length_a 15.770142
_cell_length_b 8.959564
_cell_length_c 30.202823
_cell_angle_alpha 90.000000
_cell_angle_beta 29.739648
_cell_angle_gamma 90.000000
_cell_volume 2116.917361
_symmetry_space_group_name_H-M "P 2/M"
_symmetry_group_IT_number 10
_symmetry_cell_setting 'monoclinic'
loop_
_space_group_symop_operation_xyz
x,y,z
-x,y,-z
-x,-y,-z
x,-y,z
loop_
_atom_site_type_symbol
_atom_site_label
_atom_site_fract_x
_atom_site_fract_y
_atom_site_fract_z
Si Si1 0.889546 0.674083 0.315611
Si Si2 0.386942 0.168057 0.507582
Si Si3 0.154273 0.823171 0.832149
Si Si4 0.591928 0.171414 0.026294
Si Si5 0.329127 0.324683 0.670727
Si Si6 0.202497 0.835959 0.906763
Si Si7 0.792526 0.674901 0.008697
Si Si8 0.237553 0.828695 0.143052
O O1 0.873161 0.500000 0.332486
O O2 0.795272 0.758392 0.398575
O O3 0.805588 0.715984 0.306622
O O4 0.085966 0.721209 0.226432
O O5 0.500000 0.169661 0.500000
O O6 0.482809 0.263990 0.426646
O O7 0.358190 0.000000 0.503273
O O8 0.271703 0.756412 0.741064
O O9 0.247715 0.782415 0.836420
O O10 0.965193 0.755407 0.915133
O O11 0.136105 0.000000 0.834700
O O12 0.642166 0.279338 0.043557
O O13 0.704369 0.213665 0.932637
O O14 0.624979 0.000000 0.024646
O O15 0.392924 0.197402 0.106370
O O16 0.340176 0.500000 0.673987
O O17 0.281551 0.000000 0.880589
O O18 0.267065 0.721044 0.914729
O O19 0.000000 0.847932 0.000000
O O20 0.823781 0.500000 0.993094
O O21 0.175902 0.000000 0.172554
#
# Coordination Sequence:
#
# PCOD8059364 Si02
#       8
#     4   4   4   4   4   4   4   4
#     4  10  19  29  42  61  86 114 141 174 215 253
#     4   9  17  29  44  60  80 110 145 176 205 244
#     4  10  19  30  44  61  83 113 146 175 206 248
#     4   9  18  32  46  60  82 111 144 180 213 247
#     4  10  19  29  42  63  89 113 139 173 213 252
#     4   8  16  30  44  58  79 109 142 174 207 245
#     4  11  20  28  42  63  85 111 142 175 214 254
#     4   9  18  31  46  62  80 109 147 181 211 246
#
# _framework density 15.11632
#
# number of rings (size 3 to 8) (size 9 to 14) (size 15 to 20)
#    0.000    2.500    0.000    4.875    0.000    8.750 
#    0.000    1.250    0.000    0.000    0.000    0.000 
#    0.000    1.000    0.000   10.500    0.000    5.000 
#
# Total GULP energy -396775.323214 kJ/mol
# GULP energy per Si atom -12399.228850 kJ/mol
# Density = 1.508191 g / cm^3
# Si number density = 15.116320 Si / 1000 Ang^3
#
#
#
# Elastic Constant Matrix: (Units=GPa)
#
#
# Indices 1 2 3 4 5 6 
#
# 1 76.5361 44.9836 37.0282 0.0000 12.5705 0.0000
# 2 44.9836 92.2057 43.8818 0.0000 9.4968 0.0000
# 3 37.0282 43.8818 90.9074 0.0000 8.3982 0.0000
# 4 0.0000 0.0000 0.0000 25.5214 0.0000 1.5185
# 5 12.5705 9.4968 8.3982 0.0000 19.3518 0.0000
# 6 0.0000 0.0000 0.0000 1.5185 0.0000 18.4717
#
#
#
# Elastic Compliance Matrix: (Units=1/GPa)
#
#
# Indices 1 2 3 4 5 6 
#
# 1 0.020682 -0.007277 -0.004167 0.000000 -0.008055 0.000000
# 2 -0.007277 0.016964 -0.005096 0.000000 -0.001386 0.000000
# 3 -0.004167 -0.005096 0.015290 0.000000 -0.001427 0.000000
# 4 0.000000 0.000000 0.000000 0.039375 0.000000 -0.003237
# 5 -0.008055 -0.001386 -0.001427 0.000000 0.058207 0.000000
# 6 0.000000 0.000000 0.000000 -0.003237 0.000000 0.054403
#
#
# Mechanical properties :
#
#
# Convention : Reuss Voigt Hill
#
# Bulk Modulus (GPa) = 50.36851 56.82626 53.59738
# Shear Modulus (GPa) = 20.43992 21.58602 21.01297
#
# Velocity S-wave (km/s) = 3.68118 3.78298 3.73243
# Velocity P-wave (km/s) = 7.17364 7.53363 7.35584
#
# Compressibility (1/GPa) = 0.01985367
#
# Stress axis : x y z
#
# Youngs Moduli (GPa) = 48.35170 58.94943 65.40418
#
# Poissons Ratio (x) = 0.42897 0.27256
# Poissons Ratio (y) = 0.35186 0.33333
# Poissons Ratio (z) = 0.20149 0.30043
#
# Static dielectric constant tensor:
#      x y z
#    x 2.859920 0.000000 0.198980 
#    y 0.000000 2.963680 0.000000 
#    z 0.198980 0.000000 2.831150 
# 
# 
# High freq. dielectric constant tensor:
#      x y z
#    x 1.551820 0.000000 0.014100 
#    y 0.000000 1.590370 0.000000 
#    z 0.014100 0.000000 1.559630 
# 
# From -- ./inp_files/66064.got.cif
#   From: 2010.06.25/outbox.cif.g09.slc.cpg/sg10_34_cif.got.tgz:66064.got - 2010.06.27 22:07:45.
