data_PCOD8059599
_publ_section_title
;
Structure prediction by ZEFSAII (Michael W. Deem and Ramdas Pophale) SiO2 
 PCOD8059599
Probable space group: P 2/M
;
_chemical_formula_sum "Si O2"
_cell_formula_units_Z 32
_cell_length_a 23.096478
_cell_length_b 13.598136
_cell_length_c 19.174008
_cell_angle_alpha 90.000000
_cell_angle_beta 162.377643
_cell_angle_gamma 90.000000
_cell_volume 1823.099789
_symmetry_space_group_name_H-M "P 2/M"
_symmetry_group_IT_number 10
_symmetry_cell_setting 'monoclinic'
loop_
_space_group_symop_operation_xyz
x,y,z
-x,y,-z
-x,-y,-z
x,-y,z
loop_
_atom_site_type_symbol
_atom_site_label
_atom_site_fract_x
_atom_site_fract_y
_atom_site_fract_z
Si Si1 0.498377 0.707079 0.079898
Si Si2 0.977496 0.108260 0.550056
Si Si3 0.359266 0.112951 0.547273
Si Si4 0.555008 0.114516 0.637291
Si Si5 0.129575 0.386177 0.715132
Si Si6 0.028166 0.886649 0.828628
Si Si7 0.407460 0.110291 0.055306
Si Si8 0.909413 0.259745 0.571630
O O1 0.437865 0.820622 0.023105
O O2 0.709285 0.683931 0.355925
O O3 0.500000 0.681558 0.000000
O O4 0.349122 0.637485 0.948970
O O5 0.838640 0.175191 0.436157
O O6 0.000000 0.156274 0.500000
O O7 0.887000 0.000000 0.439430
O O8 0.186837 0.107394 0.826326
O O9 0.426762 0.162705 0.552114
O O10 0.133122 0.124737 0.297246
O O11 0.470426 0.158145 0.741328
O O12 0.425762 0.000000 0.621047
O O13 0.500000 0.164515 0.500000
O O14 0.505606 0.000000 0.575577
O O15 0.775998 0.133303 0.906999
O O16 0.108873 0.500000 0.709853
O O17 0.000000 0.357278 0.500000
O O18 0.065327 0.327616 0.711353
O O19 0.999253 0.799171 0.739728
O O20 0.020675 0.000000 0.788800
O O21 0.478026 0.000000 0.117165
#
# Coordination Sequence:
#
# PCOD8059599 Si02
#       8
#     4   4   4   4   4   4   4   4
#     4  12  23  35  56  80 102 134 182 223 267 323
#     4  10  19  30  46  68 100 138 171 207 253 300
#     4   9  17  30  45  67 101 140 177 212 249 289
#     4   9  18  31  48  72 104 146 191 221 241 284
#     4  11  25  44  59  73  97 130 176 234 286 326
#     4  10  20  32  51  78 108 145 178 208 256 310
#     4  10  19  32  48  71 108 145 174 212 257 306
#     4  12  21  34  56  77 102 134 174 219 267 320
#
# _framework density 17.552522
#
# number of rings (size 3 to 8) (size 9 to 14) (size 15 to 20)
#    0.000    1.625    3.750    2.250    0.000    4.000 
#    0.000    2.500    0.000    0.000    0.000    0.000 
#    0.000    0.500    0.000    2.375    0.000    0.125 
#
# Total GULP energy -396562.092351 kJ/mol
# GULP energy per Si atom -12392.565386 kJ/mol
# Density = 1.751257 g / cm^3
# Si number density = 17.552522 Si / 1000 Ang^3
#
#
#
# Elastic Constant Matrix: (Units=GPa)
#
#
# Indices 1 2 3 4 5 6 
#
# 1 86.8037 25.0298 50.6517 0.0000 4.0388 0.0000
# 2 25.0298 53.1623 20.6624 0.0000 -0.2332 0.0000
# 3 50.6517 20.6624 95.7713 0.0000 5.8666 0.0000
# 4 0.0000 0.0000 0.0000 2.8094 0.0000 -4.1964
# 5 4.0388 -0.2332 5.8666 0.0000 29.7261 0.0000
# 6 0.0000 0.0000 0.0000 -4.1964 0.0000 8.8167
#
#
#
# Elastic Compliance Matrix: (Units=1/GPa)
#
#
# Indices 1 2 3 4 5 6 
#
# 1 0.017899 -0.005208 -0.008292 0.000000 -0.000836 0.000000
# 2 -0.005208 0.022080 -0.002088 0.000000 0.001293 0.000000
# 3 -0.008292 -0.002088 0.015396 0.000000 -0.001928 0.000000
# 4 0.000000 0.000000 0.000000 1.231453 0.000000 0.586124
# 5 -0.000836 0.001293 -0.001928 0.000000 0.034145 0.000000
# 6 0.000000 0.000000 0.000000 0.586124 0.000000 0.392393
#
#
# Mechanical properties :
#
#
# Convention : Reuss Voigt Hill
#
# Bulk Modulus (GPa) = 41.32560 47.60278 44.46419
# Shear Modulus (GPa) = 2.85289 17.56334 10.20812
#
# Velocity S-wave (km/s) = 1.27627 3.16668 2.41420
# Velocity P-wave (km/s) = 5.07611 6.36786 5.75832
#
# Compressibility (1/GPa) = 0.02419807
#
# Stress axis : x y z
#
# Youngs Moduli (GPa) = 55.86792 45.29020 64.95384
#
# Poissons Ratio (x) = 0.23588 0.53858
# Poissons Ratio (y) = 0.29098 0.13564
# Poissons Ratio (z) = 0.46324 0.09458
#
# Static dielectric constant tensor:
#      x y z
#    x 3.403080 0.000000 0.140030 
#    y 0.000000 2.921810 0.000000 
#    z 0.140030 0.000000 3.327330 
# 
# 
# High freq. dielectric constant tensor:
#      x y z
#    x 1.671130 0.000000 0.023300 
#    y 0.000000 1.622810 0.000000 
#    z 0.023300 0.000000 1.680830 
# 
# From -- ./inp_files/79759.got.cif
#   From: 2010.06.25/outbox.cif.g09.slc.cpg/sg10_40_cif.got.tgz:79759.got - 2010.06.27 22:07:45.
