data_PCOD8059690
_publ_section_title
;
Structure prediction by ZEFSAII (Michael W. Deem and Ramdas Pophale) SiO2 
 PCOD8059690
Probable space group: P 2/M
;
_chemical_formula_sum "Si O2"
_cell_formula_units_Z 32
_cell_length_a 15.853678
_cell_length_b 9.141665
_cell_length_c 28.298823
_cell_angle_alpha 90.000000
_cell_angle_beta 26.810807
_cell_angle_gamma 90.000000
_cell_volume 1849.883753
_symmetry_space_group_name_H-M "P 2/M"
_symmetry_group_IT_number 10
_symmetry_cell_setting 'monoclinic'
loop_
_space_group_symop_operation_xyz
x,y,z
-x,y,-z
-x,-y,-z
x,-y,z
loop_
_atom_site_type_symbol
_atom_site_label
_atom_site_fract_x
_atom_site_fract_y
_atom_site_fract_z
Si Si1 0.291770 0.325922 0.854115
Si Si2 1.000000 0.833557 0.826764
Si Si3 0.706902 0.674295 0.646549
Si Si4 0.000000 0.674354 0.681604
Si Si5 0.285466 0.829765 0.603564
Si Si6 0.714535 0.829765 0.889030
Si Si7 0.000001 0.673550 0.574861
Si Si8 0.999999 0.672884 0.075561
O O1 0.299144 0.500000 0.850428
O O2 0.499231 0.257256 0.750385
O O3 0.183230 0.272567 0.861370
O O4 0.183228 0.272567 0.955401
O O5 0.815184 0.799141 0.888563
O O6 0.000002 0.732671 0.872020
O O7 0.184817 0.799146 0.703746
O O8 0.999996 0.000000 0.844011
O O9 0.697087 0.500000 0.651457
O O10 0.815711 0.728913 0.639039
O O11 0.815710 0.728913 0.545251
O O12 0.999999 0.500000 0.684756
O O13 0.812673 0.735035 0.799452
O O14 0.000001 0.733871 0.627968
O O15 0.187327 0.735034 0.612126
O O16 0.500000 0.780082 0.500000
O O17 0.266741 0.000000 0.599181
O O18 0.733263 0.000000 0.865922
O O19 0.500000 0.780083 0.000000
O O20 0.000001 0.500000 0.575660
O O21 0.999999 0.500000 0.079134
#
# Coordination Sequence:
#
# PCOD8059690 Si02
#       8
#     4   4   4   4   4   4   4   4
#     4   8  15  27  42  61  87 120 154 184 216 268
#     4   9  18  32  49  69  91 117 154 196 235 277
#     4   8  13  25  42  59  88 126 154 178 218 272
#     4  10  19  30  47  76 105 121 148 199 249 283
#     4   9  19  36  53  67  90 129 169 196 227 283
#     4   9  19  36  53  67  90 129 169 196 227 283
#     4   8  15  25  39  64  94 121 149 183 226 278
#     4   9  17  29  45  67  92 117 149 186 227 274
#
# _framework density 17.298385
#
# number of rings (size 3 to 8) (size 9 to 14) (size 15 to 20)
#    0.000    3.250    0.000    2.625    0.000    4.500 
#    0.000    3.750    0.000    0.000    0.000   10.500 
#    0.000    0.000    0.000    0.000    0.000    0.000 
#
# Total GULP energy -396666.149831 kJ/mol
# GULP energy per Si atom -12395.817182 kJ/mol
# Density = 1.725901 g / cm^3
# Si number density = 17.298385 Si / 1000 Ang^3
#
#
#
# Elastic Constant Matrix: (Units=GPa)
#
#
# Indices 1 2 3 4 5 6 
#
# 1 140.0891 39.3712 103.2482 0.0000 7.6654 0.0000
# 2 39.3712 34.9638 34.4503 0.0000 3.6380 0.0000
# 3 103.2482 34.4503 156.6830 0.0000 -19.9311 0.0000
# 4 0.0000 0.0000 0.0000 16.5056 0.0000 -4.3325
# 5 7.6654 3.6380 -19.9311 0.0000 33.6342 0.0000
# 6 0.0000 0.0000 0.0000 -4.3325 0.0000 10.6438
#
#
#
# Elastic Compliance Matrix: (Units=1/GPa)
#
#
# Indices 1 2 3 4 5 6 
#
# 1 0.018835 -0.008410 -0.011889 0.000000 -0.010428 0.000000
# 2 -0.008410 0.043248 -0.004671 0.000000 -0.005529 0.000000
# 3 -0.011889 -0.004671 0.016929 0.000000 0.013246 0.000000
# 4 0.000000 0.000000 0.000000 0.067833 0.000000 0.027611
# 5 -0.010428 -0.005529 0.013246 0.000000 0.040556 0.000000
# 6 0.000000 0.000000 0.000000 0.027611 0.000000 0.105191
#
#
# Mechanical properties :
#
#
# Convention : Reuss Voigt Hill
#
# Bulk Modulus (GPa) = 34.39617 76.20835 55.30226
# Shear Modulus (GPa) = 14.19566 22.46779 18.33173
#
# Velocity S-wave (km/s) = 2.86778 3.60785 3.25889
# Velocity P-wave (km/s) = 5.55813 7.84259 6.79702
#
# Compressibility (1/GPa) = 0.02907301
#
# Stress axis : x y z
#
# Youngs Moduli (GPa) = 53.09374 23.12233 59.07185
#
# Poissons Ratio (x) = 0.19445 0.70229
# Poissons Ratio (y) = 0.44650 0.27591
# Poissons Ratio (z) = 0.63122 0.10800
#
# Static dielectric constant tensor:
#      x y z
#    x 3.359580 0.000000 -0.123810 
#    y 0.000000 2.810230 0.000000 
#    z -0.123810 0.000000 3.527070 
# 
# 
# High freq. dielectric constant tensor:
#      x y z
#    x 1.671520 0.000000 -0.002940 
#    y 0.000000 1.627440 0.000000 
#    z -0.002940 0.000000 1.675500 
# 
# From -- ./inp_files/93103.got.cif
#   From: 2010.06.25/outbox.cif.g09.slc.cpg/sg10_47_cif.got.tgz:93103.got - 2010.06.27 22:07:45.
