data_PCOD8059865
_publ_section_title
;
Structure prediction by ZEFSAII (Michael W. Deem and Ramdas Pophale) SiO2 
 PCOD8059865
Probable space group: P 2/M
;
_chemical_formula_sum "Si O2"
_cell_formula_units_Z 32
_cell_length_a 20.376593
_cell_length_b 8.566378
_cell_length_c 12.419290
_cell_angle_alpha 90.000000
_cell_angle_beta 125.901490
_cell_angle_gamma 90.000000
_cell_volume 1756.000933
_symmetry_space_group_name_H-M "P 2/M"
_symmetry_group_IT_number 10
_symmetry_cell_setting 'monoclinic'
loop_
_space_group_symop_operation_xyz
x,y,z
-x,y,-z
-x,-y,-z
x,-y,z
loop_
_atom_site_type_symbol
_atom_site_label
_atom_site_fract_x
_atom_site_fract_y
_atom_site_fract_z
Si Si1 0.029595 0.685847 0.144101
Si Si2 0.125212 0.313999 0.887357
Si Si3 0.704849 0.315018 0.352339
Si Si4 0.382501 0.316295 0.113866
Si Si5 0.469223 0.182273 0.854021
Si Si6 0.789995 0.313617 0.646819
Si Si7 0.263123 0.684747 0.176792
Si Si8 0.239192 0.684863 0.818764
O O1 0.032671 0.500000 0.142660
O O2 0.118137 0.751569 0.258933
O O3 0.965808 0.744032 0.174244
O O4 0.000000 0.749975 0.000000
O O5 0.127970 0.500000 0.892083
O O6 0.157663 0.254380 0.801511
O O7 0.185780 0.248591 0.037404
O O8 0.711234 0.500000 0.360516
O O9 0.611469 0.270595 0.257453
O O10 0.746481 0.244039 0.499223
O O11 0.753093 0.246812 0.294536
O O12 0.400841 0.500000 0.124966
O O13 0.464433 0.221116 0.173025
O O14 0.346718 0.268486 0.196975
O O15 0.318004 0.263873 0.961685
O O16 0.451047 0.000000 0.839973
O O17 0.500000 0.243020 0.000000
O O18 0.790813 0.500000 0.643963
O O19 0.740070 0.253264 0.703565
O O20 0.255388 0.500000 0.169013
O O21 0.236600 0.500000 0.811185
#
# Coordination Sequence:
#
# PCOD8059865 Si02
#       8
#     4   4   4   4   4   4   4   4
#     4   9  13  19  34  58  92 128 155 182 223 267
#     4   8  12  19  34  57  87 122 154 183 217 262
#     4  10  19  31  47  66  94 126 153 186 227 276
#     4   9  16  28  49  70  89 117 152 188 225 269
#     4  11  22  34  49  70  92 113 148 196 235 273
#     4   9  16  25  39  64  95 126 158 187 220 266
#     4   8  13  23  40  64  90 118 154 189 219 259
#     4   8  14  24  39  61  87 118 152 182 221 268
#
# _framework density 18.223224999999999
#
# number of rings (size 3 to 8) (size 9 to 14) (size 15 to 20)
#    0.000    3.000    2.500    1.875    0.000    0.500 
#    0.000    1.250    0.000    8.250    0.000    0.000 
#    0.000    6.500    0.000    0.500    0.000    0.000 
#
# Total GULP energy -396507.937493 kJ/mol
# GULP energy per Si atom -12390.873047 kJ/mol
# Density = 1.818175 g / cm^3
# Si number density = 18.223225 Si / 1000 Ang^3
#
#
#
# Elastic Constant Matrix: (Units=GPa)
#
#
# Indices 1 2 3 4 5 6 
#
# 1 181.3592 3.6030 82.4155 0.0000 -18.8778 0.0000
# 2 3.6030 5.0962 4.4886 0.0000 -2.5013 0.0000
# 3 82.4155 4.4886 127.8695 0.0000 -13.6132 0.0000
# 4 0.0000 0.0000 0.0000 4.9207 0.0000 -2.9932
# 5 -18.8778 -2.5013 -13.6132 0.0000 29.5374 0.0000
# 6 0.0000 0.0000 0.0000 -2.9932 0.0000 0.0923
#
#
#
# Elastic Compliance Matrix: (Units=1/GPa)
#
#
# Indices 1 2 3 4 5 6 
#
# 1 0.008025 0.000030 -0.004866 0.000000 0.002889 0.000000
# 2 0.000030 0.208644 -0.005742 0.000000 0.015041 0.000000
# 3 -0.004866 -0.005742 0.011331 0.000000 0.001626 0.000000
# 4 0.000000 0.000000 0.000000 -0.010847 0.000000 -0.351917
# 5 0.002889 0.015041 0.001626 0.000000 0.037725 0.000000
# 6 0.000000 0.000000 0.000000 -0.351917 0.000000 -0.578529
#
#
# Mechanical properties :
#
#
# Convention : Reuss Voigt Hill
#
# Bulk Modulus (GPa) = 4.83454 55.03768 29.93611
# Shear Modulus (GPa) = -21.40908 21.83125 0.21108
#
# Velocity S-wave (km/s) = -3.43129 3.46495 0.34071
# Velocity P-wave (km/s) = 3.61104 6.80260 4.07650
#
# Compressibility (1/GPa) = 0.20684497
#
# Stress axis : x y z
#
# Youngs Moduli (GPa) = 124.60554 4.79285 88.24987
#
# Poissons Ratio (x) = -0.00014 0.42943
# Poissons Ratio (y) = -0.00372 0.50672
# Poissons Ratio (z) = 0.60633 0.02752
#
# Static dielectric constant tensor:
#      x y z
#    x 3.913710 0.000000 -0.290600 
#    y 0.000000 2.649920 0.000000 
#    z -0.290600 0.000000 3.420850 
# 
# 
# High freq. dielectric constant tensor:
#      x y z
#    x 1.729700 0.000000 -0.010130 
#    y 0.000000 1.635970 0.000000 
#    z -0.010130 0.000000 1.678170 
# 
# From -- ./inp_files/55369.got.cif
#   From: 2010.06.25/outbox.cif.g09.slc.cpg/sg10_28_cif.got.tgz:55369.got - 2010.06.27 22:07:45.
