data_PCOD8059714
_publ_section_title
;
Structure prediction by ZEFSAII (Michael W. Deem and Ramdas Pophale) SiO2 
 PCOD8059714
Probable space group: P 2/M
;
_chemical_formula_sum "Si O2"
_cell_formula_units_Z 32
_cell_length_a 14.436056
_cell_length_b 20.835286
_cell_length_c 14.439537
_cell_angle_alpha 90.000000
_cell_angle_beta 20.339618
_cell_angle_gamma 90.000000
_cell_volume 1509.597528
_symmetry_space_group_name_H-M "P 2/M"
_symmetry_group_IT_number 10
_symmetry_cell_setting 'monoclinic'
loop_
_space_group_symop_operation_xyz
x,y,z
-x,y,-z
-x,-y,-z
x,-y,z
loop_
_atom_site_type_symbol
_atom_site_label
_atom_site_fract_x
_atom_site_fract_y
_atom_site_fract_z
Si Si1 0.269782 0.071724 0.770137
Si Si2 0.825177 0.929591 0.527435
Si Si3 0.149719 0.791074 0.445032
Si Si4 0.271702 0.099559 0.971662
Si Si5 0.721604 0.575622 0.222360
Si Si6 0.938642 0.575623 0.450464
Si Si7 0.705817 0.237440 0.996377
Si Si8 0.617714 0.379656 0.110737
O O1 0.500000 0.109855 0.500000
O O2 0.321527 0.065585 0.828960
O O3 0.249173 0.000000 0.746014
O O4 0.000000 0.110197 0.000000
O O5 0.902243 0.868059 0.516688
O O6 0.507296 0.926877 0.814744
O O7 0.894277 0.000000 0.506348
O O8 0.986413 0.921488 0.279809
O O9 0.000000 0.757746 0.500000
O O10 0.996593 0.762370 0.676909
O O11 0.461073 0.772911 0.153223
O O12 0.298756 0.176537 0.930513
O O13 0.500000 0.604547 0.500000
O O14 0.727932 0.500000 0.226929
O O15 0.661138 0.589301 0.170777
O O16 0.000000 0.604521 0.000000
O O17 0.887123 0.500000 0.495774
O O18 0.677128 0.609970 0.654322
O O19 0.000000 0.596869 0.500000
O O20 0.182837 0.593004 0.154043
O O21 0.665760 0.304397 0.085316
#
# Coordination Sequence:
#
# PCOD8059714 Si02
#       8
#     4   4   4   4   4   4   4   4
#     4  10  19  30  48  74  99 128 170 218 270 326
#     4  10  19  32  54  77  99 137 179 222 281 332
#     4  10  21  37  55  78 111 144 183 236 277 322
#     4  10  20  36  51  72 107 139 173 221 268 324
#     4  10  21  38  61  89 118 150 192 241 295 348
#     4  11  24  40  61  93 127 158 195 241 297 352
#     4  10  23  38  56  80 108 149 192 219 267 334
#     4  12  23  40  64  89 122 162 200 244 288 345
#
# _framework density 21.197703000000001
#
# number of rings (size 3 to 8) (size 9 to 14) (size 15 to 20)
#    0.000    1.625    0.000    5.250    0.000    6.250 
#    0.000    1.250    0.000    4.500    0.000    0.000 
#    0.000    0.000    0.000    0.000    0.000    0.000 
#
# Total GULP energy -396450.393501 kJ/mol
# GULP energy per Si atom -12389.074797 kJ/mol
# Density = 2.114946 g / cm^3
# Si number density = 21.197703 Si / 1000 Ang^3
#
#
#
# Elastic Constant Matrix: (Units=GPa)
#
#
# Indices 1 2 3 4 5 6 
#
# 1 102.4789 -5.8780 33.6348 0.0000 1.5196 0.0000
# 2 -5.8780 81.0027 8.5459 0.0000 -3.3997 0.0000
# 3 33.6348 8.5459 117.5760 0.0000 -7.2224 0.0000
# 4 0.0000 0.0000 0.0000 10.3286 0.0000 -6.8147
# 5 1.5196 -3.3997 -7.2224 0.0000 30.5901 0.0000
# 6 0.0000 0.0000 0.0000 -6.8147 0.0000 4.1661
#
#
#
# Elastic Compliance Matrix: (Units=1/GPa)
#
#
# Indices 1 2 3 4 5 6 
#
# 1 0.010913 0.001087 -0.003274 0.000000 -0.001194 0.000000
# 2 0.001087 0.012592 -0.001160 0.000000 0.001071 0.000000
# 3 -0.003274 -0.001160 0.009668 0.000000 0.002316 0.000000
# 4 0.000000 0.000000 0.000000 -1.221808 0.000000 -1.998579
# 5 -0.001194 0.001071 0.002316 0.000000 0.033416 0.000000
# 6 0.000000 0.000000 0.000000 -1.998579 0.000000 -3.029152
#
#
# Mechanical properties :
#
#
# Convention : Reuss Voigt Hill
#
# Bulk Modulus (GPa) = 37.76725 41.51811 39.64268
# Shear Modulus (GPa) = -1.19937 26.66728 12.73395
#
# Velocity S-wave (km/s) = -0.75301 3.55072 2.45362
# Velocity P-wave (km/s) = 4.13513 6.03645 5.17388
#
# Compressibility (1/GPa) = 0.02647797
#
# Stress axis : x y z
#
# Youngs Moduli (GPa) = 91.63544 79.41835 103.42953
#
# Poissons Ratio (x) = -0.08634 0.33865
# Poissons Ratio (y) = -0.09963 0.12002
# Poissons Ratio (z) = 0.30003 0.09216
#
# Static dielectric constant tensor:
#      x y z
#    x 3.547860 0.000000 -0.105270 
#    y 0.000000 3.892160 0.000000 
#    z -0.105270 0.000000 4.198070 
# 
# 
# High freq. dielectric constant tensor:
#      x y z
#    x 1.808870 0.000000 -0.008510 
#    y 0.000000 1.818690 0.000000 
#    z -0.008510 0.000000 1.855330 
# 
# From -- ./inp_files/67930.got.cif
#   From: 2010.06.25/outbox.cif.g09.slc.cpg/sg10_34_cif.got.tgz:67930.got - 2010.06.27 22:07:45.
