data_PCOD8059923
_publ_section_title
;
Structure prediction by ZEFSAII (Michael W. Deem and Ramdas Pophale) SiO2 
 PCOD8059923
Probable space group: P 2/M
;
_chemical_formula_sum "Si O2"
_cell_formula_units_Z 32
_cell_length_a 36.485733
_cell_length_b 8.308070
_cell_length_c 5.235546
_cell_angle_alpha 90.000000
_cell_angle_beta 81.749818
_cell_angle_gamma 90.000000
_cell_volume 1570.605956
_symmetry_space_group_name_H-M "P 2/M"
_symmetry_group_IT_number 10
_symmetry_cell_setting 'monoclinic'
loop_
_space_group_symop_operation_xyz
x,y,z
-x,y,-z
-x,-y,-z
x,-y,z
loop_
_atom_site_type_symbol
_atom_site_label
_atom_site_fract_x
_atom_site_fract_y
_atom_site_fract_z
Si Si1 0.646431 0.808069 0.603570
Si Si2 0.144210 0.192432 0.105789
Si Si3 0.022571 0.311374 0.727428
Si Si4 0.395391 0.808059 0.854609
Si Si5 0.479087 0.808061 0.770913
Si Si6 0.104280 0.188021 0.645719
Si Si7 0.771878 0.191790 0.978123
Si Si8 0.269861 0.191973 0.480138
O O1 0.625522 0.741810 0.374475
O O2 0.688282 0.741940 0.561718
O O3 0.646403 0.000000 0.603598
O O4 0.625522 0.741809 0.874483
O O5 0.123263 0.263335 0.374891
O O6 0.186195 0.256451 0.063805
O O7 0.143199 0.000000 0.106799
O O8 0.123264 0.263336 0.878580
O O9 0.030902 0.500000 0.719095
O O10 0.060835 0.217972 0.689166
O O11 0.000000 0.258546 0.500000
O O12 0.000000 0.258548 0.000000
O O13 0.437239 0.741853 0.812761
O O14 0.395377 0.000000 0.854624
O O15 0.500000 0.741821 0.500000
O O16 0.479099 0.000000 0.770900
O O17 0.500000 0.741821 0.000000
O O18 0.112063 0.000000 0.637937
O O19 0.751047 0.258446 0.748874
O O20 0.771547 0.000000 0.978453
O O21 0.751047 0.258447 0.249032
O O22 0.269801 0.000000 0.480199
#
# Coordination Sequence:
#
# PCOD8059923 Si02
#       8
#     4   4   4   4   4   4   4   4
#     4   9  15  21  27  36  49  65  88 115 145 184
#     4   9  17  28  42  62  86 109 134 166 202 237
#     4  10  21  36  52  70  93 120 148 178 213 252
#     4   9  15  21  27  33  43  58  76 107 148 187
#     4   9  15  21  27  33  39  49  69  98 138 191
#     4  10  19  31  48  69  91 115 144 177 211 247
#     4   9  15  23  34  48  68  92 115 140 172 208
#     4   9  15  21  30  43  59  82 109 133 159 200
#
# _framework density 20.374303000000001
#
# number of rings (size 3 to 8) (size 9 to 14) (size 15 to 20)
#    0.000    2.750    0.000    3.000    0.000    9.500 
#    0.000    0.000    0.000    0.000    0.000    0.000 
#    0.000    0.000    0.000    0.000    0.000    0.000 
#
# Total GULP energy -396792.542079 kJ/mol
# GULP energy per Si atom -12399.766940 kJ/mol
# Density = 2.032793 g / cm^3
# Si number density = 20.374303 Si / 1000 Ang^3
#
#
#
# Elastic Constant Matrix: (Units=GPa)
#
#
# Indices 1 2 3 4 5 6 
#
# 1 205.5670 0.0869 120.5850 0.0000 5.6449 0.0000
# 2 0.0869 1.8253 3.1571 0.0000 0.9965 0.0000
# 3 120.5850 3.1571 236.8206 0.0000 4.5011 0.0000
# 4 0.0000 0.0000 0.0000 -1.1006 0.0000 0.6309
# 5 5.6449 0.9965 4.5011 0.0000 50.8139 0.0000
# 6 0.0000 0.0000 0.0000 0.6309 0.0000 -3.0441
#
#
#
# Elastic Compliance Matrix: (Units=1/GPa)
#
#
# Indices 1 2 3 4 5 6 
#
# 1 0.007016 0.006288 -0.003645 0.000000 -0.000580 0.000000
# 2 0.006288 0.571909 -0.010617 0.000000 -0.010973 0.000000
# 3 -0.003645 -0.010617 0.006219 0.000000 0.000062 0.000000
# 4 0.000000 0.000000 0.000000 -1.031108 0.000000 -0.213690
# 5 -0.000580 -0.010973 0.000062 0.000000 0.019954 0.000000
# 6 0.000000 0.000000 0.000000 -0.213690 0.000000 -0.372786
#
#
# Mechanical properties :
#
#
# Convention : Reuss Voigt Hill
#
# Bulk Modulus (GPa) = 1.75687 76.87455 39.31571
# Shear Modulus (GPa) = -8.43009 30.69275 11.13133
#
# Velocity S-wave (km/s) = -2.03632 3.88550 2.33993
# Velocity P-wave (km/s) = 2.15977 7.61200 5.16130
#
# Compressibility (1/GPa) = 0.56919424
#
# Stress axis : x y z
#
# Youngs Moduli (GPa) = 142.52727 1.74853 160.79481
#
# Poissons Ratio (x) = -0.01099 0.58615
# Poissons Ratio (y) = -0.89616 1.70720
# Poissons Ratio (z) = 0.51956 0.01856
#
# Static dielectric constant tensor:
#      x y z
#    x 3.870790 0.000000 0.098980 
#    y 0.000000 2.727700 0.000000 
#    z 0.098980 0.000000 4.175740 
# 
# 
# High freq. dielectric constant tensor:
#      x y z
#    x 1.814700 0.000000 0.001310 
#    y 0.000000 1.705360 0.000000 
#    z 0.001310 0.000000 1.818720 
# 
# From -- ./inp_files/13704.got.cif
#   From: 2010.06.25/outbox.cif.g09.slc.cpg/sg10_7_cif.got.tgz:13704.got - 2010.06.27 22:07:45.
