data_PCOD8059028
_publ_section_title
;
Structure prediction by ZEFSAII (Michael W. Deem and Ramdas Pophale) SiO2 
 PCOD8059028
Probable space group: P 2/M
;
_chemical_formula_sum "Si O2"
_cell_formula_units_Z 32
_cell_length_a 8.446246
_cell_length_b 17.261842
_cell_length_c 23.558560
_cell_angle_alpha 90.000000
_cell_angle_beta 30.653697
_cell_angle_gamma 90.000000
_cell_volume 1751.218006
_symmetry_space_group_name_H-M "P 2/M"
_symmetry_group_IT_number 10
_symmetry_cell_setting 'monoclinic'
loop_
_space_group_symop_operation_xyz
x,y,z
-x,y,-z
-x,-y,-z
x,-y,z
loop_
_atom_site_type_symbol
_atom_site_label
_atom_site_fract_x
_atom_site_fract_y
_atom_site_fract_z
Si Si1 0.299076 0.914531 0.443759
Si Si2 0.642447 0.757079 0.718046
Si Si3 0.651942 0.238422 0.512289
Si Si4 0.190757 0.817530 0.068341
Si Si5 0.370456 0.086165 0.769407
Si Si6 0.285606 0.411292 0.120466
Si Si7 0.762693 0.705353 0.258244
Si Si8 0.672552 0.300930 0.074785
O O1 0.364469 0.854217 0.473606
O O2 0.588671 0.916187 0.311290
O O3 0.000000 0.887319 0.500000
O O4 0.241666 0.000000 0.487986
O O5 0.607301 0.850178 0.721351
O O6 0.432590 0.706010 0.740062
O O7 0.540848 0.740683 0.813175
O O8 0.994946 0.732277 0.598076
O O9 0.500000 0.260617 0.500000
O O10 0.471263 0.281852 0.617878
O O11 0.982299 0.887671 0.108522
O O12 0.014601 0.773914 0.174343
O O13 0.500000 0.853254 0.000000
O O14 0.261285 0.758354 0.996217
O O15 0.431087 0.000000 0.776565
O O16 0.223111 0.500000 0.155489
O O17 0.470700 0.373311 0.115586
O O18 0.948714 0.374022 0.211481
O O19 0.500000 0.401335 0.000000
O O20 0.000000 0.329745 0.000000
#
# Coordination Sequence:
#
# PCOD8059028 Si02
#       8
#     4   4   4   4   4   4   4   4
#     4  10  18  33  55  77 110 150 194 250 304 342
#     4  11  22  36  61  86 115 159 205 244 287 350
#     4  12  23  34  57  89 117 150 201 252 292 358
#     4  11  20  35  60  81 113 158 194 248 285 351
#     4  10  20  34  56  82 112 155 202 247 296 342
#     4  11  22  38  63  94 124 153 186 238 300 353
#     4  11  19  40  59  84 115 153 196 239 291 353
#     4  12  20  36  59  92 119 156 194 241 290 346
#
# _framework density 18.272997
#
# number of rings (size 3 to 8) (size 9 to 14) (size 15 to 20)
#    0.000    1.000    8.750    1.125    0.000    0.750 
#    0.000    1.875    0.000    4.875    0.000    0.000 
#    0.000    0.000    0.000    0.000    0.000    0.000 
#
# Total GULP energy -396709.960085 kJ/mol
# GULP energy per Si atom -12397.186253 kJ/mol
# Density = 1.823141 g / cm^3
# Si number density = 18.272997 Si / 1000 Ang^3
#
#
#
# Elastic Constant Matrix: (Units=GPa)
#
#
# Indices 1 2 3 4 5 6 
#
# 1 83.5283 42.0519 34.9248 0.0000 -13.0047 0.0000
# 2 42.0519 102.7719 44.3019 0.0000 -6.5238 0.0000
# 3 34.9248 44.3019 119.1593 0.0000 -10.6489 0.0000
# 4 0.0000 0.0000 0.0000 20.5563 0.0000 -2.6116
# 5 -13.0047 -6.5238 -10.6489 0.0000 32.2267 0.0000
# 6 0.0000 0.0000 0.0000 -2.6116 0.0000 19.4616
#
#
#
# Elastic Compliance Matrix: (Units=1/GPa)
#
#
# Indices 1 2 3 4 5 6 
#
# 1 0.016422 -0.005390 -0.002385 0.000000 0.004748 0.000000
# 2 -0.005390 0.013385 -0.003451 0.000000 -0.000606 0.000000
# 3 -0.002385 -0.003451 0.010537 0.000000 0.001821 0.000000
# 4 0.000000 0.000000 0.000000 0.049491 0.000000 0.006641
# 5 0.004748 -0.000606 0.001821 0.000000 0.033425 0.000000
# 6 0.000000 0.000000 0.000000 0.006641 0.000000 0.052274
#
#
# Mechanical properties :
#
#
# Convention : Reuss Voigt Hill
#
# Bulk Modulus (GPa) = 55.89005 60.89074 58.39040
# Shear Modulus (GPa) = 24.51594 26.72765 25.62180
#
# Velocity S-wave (km/s) = 3.66683 3.82866 3.74861
# Velocity P-wave (km/s) = 6.96994 7.27598 7.12460
#
# Compressibility (1/GPa) = 0.01789227
#
# Stress axis : x y z
#
# Youngs Moduli (GPa) = 60.89417 74.71175 94.90590
#
# Poissons Ratio (x) = 0.40270 0.22634
# Poissons Ratio (y) = 0.32822 0.32749
# Poissons Ratio (z) = 0.14523 0.25780
#
# Static dielectric constant tensor:
#      x y z
#    x 3.367480 0.000000 -0.131590 
#    y 0.000000 3.271000 0.000000 
#    z -0.131590 0.000000 3.661740 
# 
# 
# High freq. dielectric constant tensor:
#      x y z
#    x 1.697030 0.000000 -0.007500 
#    y 0.000000 1.678890 0.000000 
#    z -0.007500 0.000000 1.724160 
# 
# From -- ./inp_files/54161.got.cif
#   From: 2010.06.25/outbox.cif.g09.slc.cpg/sg10_28_cif.got.tgz:54161.got - 2010.06.27 22:07:45.
