data_PCOD8059034
_publ_section_title
;
Structure prediction by ZEFSAII (Michael W. Deem and Ramdas Pophale) SiO2 
 PCOD8059034
Probable space group: P 2/M
;
_chemical_formula_sum "Si O2"
_cell_formula_units_Z 32
_cell_length_a 15.511788
_cell_length_b 8.530537
_cell_length_c 14.495009
_cell_angle_alpha 90.000000
_cell_angle_beta 125.885587
_cell_angle_gamma 90.000000
_cell_volume 1553.971778
_symmetry_space_group_name_H-M "P 2/M"
_symmetry_group_IT_number 10
_symmetry_cell_setting 'monoclinic'
loop_
_space_group_symop_operation_xyz
x,y,z
-x,y,-z
-x,-y,-z
x,-y,z
loop_
_atom_site_type_symbol
_atom_site_label
_atom_site_fract_x
_atom_site_fract_y
_atom_site_fract_z
Si Si1 0.416763 0.182691 0.020564
Si Si2 0.728095 0.181703 0.423275
Si Si3 0.900836 0.182648 0.382465
Si Si4 0.502412 0.321072 0.255192
Si Si5 0.593738 0.179968 0.631327
Si Si6 0.177924 0.812775 0.861336
Si Si7 0.194893 0.185151 0.333651
Si Si8 0.007950 0.186843 0.900451
O O1 0.463735 0.207571 0.150670
O O2 0.406960 0.000000 0.993212
O O3 0.500000 0.259454 0.000000
O O4 0.298040 0.256651 0.938318
O O5 0.792777 0.211773 0.370778
O O6 0.623762 0.286381 0.356725
O O7 0.800504 0.233346 0.555830
O O8 0.693945 0.000000 0.412093
O O9 0.883130 0.252091 0.268497
O O10 0.000000 0.261690 0.500000
O O11 0.926651 0.000000 0.388578
O O12 0.490452 0.500000 0.216315
O O13 0.428131 0.289652 0.295810
O O14 0.500000 0.195444 0.500000
O O15 0.700610 0.246992 0.652670
O O16 0.606160 0.000000 0.671699
O O17 0.115376 0.758008 0.914709
O O18 0.181516 0.000000 0.859614
O O19 0.090691 0.256833 0.219871
O O20 0.190170 0.000000 0.322326
O O21 0.003850 0.000000 0.900876
O O22 0.000000 0.253603 0.000000
#
# Coordination Sequence:
#
# PCOD8059034 Si02
#       8
#     4   4   4   4   4   4   4   4
#     4  10  21  38  60  83 109 146 190 232 275 327
#     4  10  18  33  55  79 108 143 183 225 274 332
#     4   9  16  27  50  82 113 138 167 221 283 329
#     4  12  25  37  53  80 113 147 186 230 283 335
#     4  10  19  35  57  81 108 142 186 231 278 333
#     4   9  17  29  46  75 110 141 177 220 270 328
#     4   9  17  29  49  76 107 141 177 220 270 327
#     4   9  17  27  42  72 112 144 170 214 276 330
#
# _framework density 20.592395
#
# number of rings (size 3 to 8) (size 9 to 14) (size 15 to 20)
#    0.000    2.250    1.250    2.625    1.750    5.500 
#    0.000    0.000    0.000    0.375    0.000    4.375 
#    0.000    0.000    0.000    0.000    0.000    0.000 
#
# Total GULP energy -396729.002230 kJ/mol
# GULP energy per Si atom -12397.781320 kJ/mol
# Density = 2.054553 g / cm^3
# Si number density = 20.592395 Si / 1000 Ang^3
#
#
#
# Elastic Constant Matrix: (Units=GPa)
#
#
# Indices 1 2 3 4 5 6 
#
# 1 142.9486 13.2624 69.0609 0.0000 -2.3121 0.0000
# 2 13.2624 15.7682 3.4997 0.0000 -0.4107 0.0000
# 3 69.0609 3.4997 135.4194 0.0000 -7.0149 0.0000
# 4 0.0000 0.0000 0.0000 8.8824 0.0000 -5.6980
# 5 -2.3121 -0.4107 -7.0149 0.0000 40.9587 0.0000
# 6 0.0000 0.0000 0.0000 -5.6980 0.0000 10.0918
#
#
#
# Elastic Compliance Matrix: (Units=1/GPa)
#
#
# Indices 1 2 3 4 5 6 
#
# 1 0.010073 -0.007380 -0.004965 0.000000 -0.000356 0.000000
# 2 -0.007380 0.069196 0.002007 0.000000 0.000621 0.000000
# 3 -0.004965 0.002007 0.009939 0.000000 0.001442 0.000000
# 4 0.000000 0.000000 0.000000 0.176516 0.000000 0.099664
# 5 -0.000356 0.000621 0.001442 0.000000 0.024648 0.000000
# 6 0.000000 0.000000 0.000000 0.099664 0.000000 0.155363
#
#
# Mechanical properties :
#
#
# Convention : Reuss Voigt Hill
#
# Bulk Modulus (GPa) = 14.59121 51.75358 33.17240
# Shear Modulus (GPa) = 10.21964 25.87411 18.04687
#
# Velocity S-wave (km/s) = 2.23016 3.54854 2.96359
# Velocity P-wave (km/s) = 3.70575 6.47893 5.27774
#
# Compressibility (1/GPa) = 0.06853441
#
# Stress axis : x y z
#
# Youngs Moduli (GPa) = 99.27570 14.45167 100.61187
#
# Poissons Ratio (x) = 0.10665 0.49951
# Poissons Ratio (y) = 0.73261 -0.20196
# Poissons Ratio (z) = 0.49287 -0.02901
#
# Static dielectric constant tensor:
#      x y z
#    x 3.896540 0.000000 0.052520 
#    y 0.000000 2.966920 0.000000 
#    z 0.052520 0.000000 3.910390 
# 
# 
# High freq. dielectric constant tensor:
#      x y z
#    x 1.823180 0.000000 -0.002360 
#    y 0.000000 1.724990 0.000000 
#    z -0.002360 0.000000 1.817140 
# 
# From -- ./inp_files/66608.got.cif
#   From: 2010.06.25/outbox.cif.g09.slc.cpg/sg10_34_cif.got.tgz:66608.got - 2010.06.27 22:07:45.
