data_PCOD8059995
_publ_section_title
;
Structure prediction by ZEFSAII (Michael W. Deem and Ramdas Pophale) SiO2 
 PCOD8059995
Probable space group: P 2/M
;
_chemical_formula_sum "Si O2"
_cell_formula_units_Z 30
_cell_length_a 18.676001
_cell_length_b 9.920263
_cell_length_c 16.973031
_cell_angle_alpha 90.000000
_cell_angle_beta 150.355379
_cell_angle_gamma 90.000000
_cell_volume 1555.382311
_symmetry_space_group_name_H-M "P 2/M"
_symmetry_group_IT_number 10
_symmetry_cell_setting 'monoclinic'
loop_
_space_group_symop_operation_xyz
x,y,z
-x,y,-z
-x,-y,-z
x,-y,z
loop_
_atom_site_type_symbol
_atom_site_label
_atom_site_fract_x
_atom_site_fract_y
_atom_site_fract_z
Si Si1 0.992805 0.853576 0.401445
Si Si2 0.500000 0.244557 0.000000
Si Si3 0.318784 0.850359 0.244066
Si Si4 0.366445 0.349863 0.593257
Si Si5 0.337538 0.150940 0.437754
Si Si6 0.307527 0.646575 0.107559
Si Si7 0.741218 0.654243 0.116351
Si Si8 0.679758 0.847491 0.314220
O O1 0.151480 0.809684 0.525358
O O2 0.000000 0.871678 0.500000
O O3 0.877798 0.741231 0.271091
O O4 0.949621 0.000000 0.323395
O O5 0.395678 0.332184 0.956288
O O6 0.396007 0.156177 0.844257
O O7 0.489757 0.853797 0.394135
O O8 0.283698 0.803082 0.299708
O O9 0.240129 0.751404 0.106109
O O10 0.255632 0.000000 0.169833
O O11 0.295711 0.500000 0.538316
O O12 0.277403 0.258868 0.444553
O O13 0.525163 0.372577 0.710542
O O14 0.386456 0.266773 0.693177
O O15 0.279022 0.000000 0.401208
O O16 0.230518 0.500000 0.042486
O O17 0.296721 0.701385 0.008225
O O18 0.790331 0.500000 0.165140
O O19 0.656425 0.000000 0.324411
#
# Coordination Sequence:
#
# PCOD8059995 Si02
#       8
#     4   2   4   4   4   4   4   4
#     4  10  22  41  57  76 105 138 182 230 268 319
#     4  12  22  38  58  84 108 138 180 226 270 322
#     4   8  14  25  43  68  98 136 175 211 255 311
#     4  10  19  31  48  74 107 138 174 218 265 317
#     4   8  14  26  43  67 101 136 173 212 256 312
#     4   9  18  31  45  71 107 137 171 217 264 312
#     4  11  23  38  56  80 109 145 181 222 269 319
#     4  11  23  38  57  79 106 141 181 225 273 318
#
# _framework density 19.287863000000002
#
# number of rings (size 3 to 8) (size 9 to 14) (size 15 to 20)
#    0.000    2.267    2.667    1.600    0.000    3.467 
#    0.000    2.667    0.000    0.000    0.000    0.933 
#    0.000    7.467    0.000    0.000    0.000    0.000 
#
# Total GULP energy -371687.659990 kJ/mol
# GULP energy per Si atom -12389.588666 kJ/mol
# Density = 1.924396 g / cm^3
# Si number density = 19.287863 Si / 1000 Ang^3
#
#
#
# Elastic Constant Matrix: (Units=GPa)
#
#
# Indices 1 2 3 4 5 6 
#
# 1 62.8257 55.2356 41.0765 0.0000 -31.8178 0.0000
# 2 55.2356 137.3696 55.2305 0.0000 -22.7595 0.0000
# 3 41.0765 55.2305 74.7645 0.0000 -12.7474 0.0000
# 4 0.0000 0.0000 0.0000 26.0131 0.0000 -9.3671
# 5 -31.8178 -22.7595 -12.7474 0.0000 34.2948 0.0000
# 6 0.0000 0.0000 0.0000 -9.3671 0.0000 25.5716
#
#
#
# Elastic Compliance Matrix: (Units=1/GPa)
#
#
# Indices 1 2 3 4 5 6 
#
# 1 0.053328 -0.008544 -0.016568 0.000000 0.037648 0.000000
# 2 -0.008544 0.012355 -0.004683 0.000000 -0.001468 0.000000
# 3 -0.016568 -0.004683 0.024329 0.000000 -0.009436 0.000000
# 4 0.000000 0.000000 0.000000 0.044283 0.000000 0.016221
# 5 0.037648 -0.001468 -0.009436 0.000000 0.059605 0.000000
# 6 0.000000 0.000000 0.000000 0.016221 0.000000 0.045048
#
#
# Mechanical properties :
#
#
# Convention : Reuss Voigt Hill
#
# Bulk Modulus (GPa) = 32.87238 64.22721 48.54979
# Shear Modulus (GPa) = 16.19811 25.40371 20.80091
#
# Velocity S-wave (km/s) = 2.90109 3.63310 3.28753
# Velocity P-wave (km/s) = 5.31994 7.13938 6.29574
#
# Compressibility (1/GPa) = 0.03042068
#
# Stress axis : x y z
#
# Youngs Moduli (GPa) = 18.75194 80.94139 41.10384
#
# Poissons Ratio (x) = 0.69156 0.68102
# Poissons Ratio (y) = 0.16022 0.19249
# Poissons Ratio (z) = 0.31069 0.37904
#
# Static dielectric constant tensor:
#      x y z
#    x 3.411820 0.000000 -0.302450 
#    y 0.000000 3.918300 0.000000 
#    z -0.302450 0.000000 3.130750 
# 
# 
# High freq. dielectric constant tensor:
#      x y z
#    x 1.732500 0.000000 -0.030030 
#    y 0.000000 1.760120 0.000000 
#    z -0.030030 0.000000 1.714250 
# 
# From -- ./inp_files/79391.got.cif
#   From: 2010.06.25/outbox.cif.g09.slc.cpg/sg10_40_cif.got.tgz:79391.got - 2010.06.27 22:07:45.
