data_PCOD8059322
_publ_section_title
;
Structure prediction by ZEFSAII (Michael W. Deem and Ramdas Pophale) SiO2 
 PCOD8059322
Probable space group: P 2/M
;
_chemical_formula_sum "Si O2"
_cell_formula_units_Z 32
_cell_length_a 8.768685
_cell_length_b 13.513781
_cell_length_c 18.385136
_cell_angle_alpha 90.000000
_cell_angle_beta 132.028189
_cell_angle_gamma 90.000000
_cell_volume 1618.300495
_symmetry_space_group_name_H-M "P 2/M"
_symmetry_group_IT_number 10
_symmetry_cell_setting 'monoclinic'
loop_
_space_group_symop_operation_xyz
x,y,z
-x,y,-z
-x,-y,-z
x,-y,z
loop_
_atom_site_type_symbol
_atom_site_label
_atom_site_fract_x
_atom_site_fract_y
_atom_site_fract_z
Si Si1 0.819626 0.617164 0.728730
Si Si2 0.066113 0.762249 0.725723
Si Si3 0.168306 0.115725 0.615599
Si Si4 0.894461 0.614415 0.041715
Si Si5 0.559569 0.243225 0.726671
Si Si6 0.517330 0.274628 0.871696
Si Si7 0.923953 0.109909 0.807513
Si Si8 0.805683 0.891026 0.977481
O O1 0.784960 0.500000 0.707260
O O2 0.604529 0.673549 0.678345
O O3 0.918065 0.664857 0.686561
O O4 0.969802 0.643901 0.845064
O O5 0.084514 0.813297 0.653260
O O6 0.285015 0.722304 0.825579
O O7 0.966671 0.846539 0.742615
O O8 0.368626 0.171179 0.647284
O O9 0.000000 0.115576 0.500000
O O10 0.211820 0.000000 0.652717
O O11 0.849495 0.500000 0.028008
O O12 0.669347 0.664394 0.972629
O O13 0.000000 0.647350 0.000000
O O14 0.524835 0.307183 0.789317
O O15 0.755526 0.171959 0.798107
O O16 0.589135 0.160651 0.895236
O O17 0.139388 0.108962 0.919632
O O18 0.837016 0.000000 0.768941
O O19 0.779346 0.000000 0.935691
O O20 0.000000 0.838467 0.000000
#
# Coordination Sequence:
#
# PCOD8059322 Si02
#       8
#     4   4   4   4   4   4   4   4
#     4  10  21  38  57  83 120 158 195 237 278 320
#     4  10  23  36  54  81 112 149 181 229 291 345
#     4  10  22  42  66  90 114 138 173 230 294 356
#     4  10  19  31  52  80 110 148 199 245 275 307
#     4  10  19  33  59  84 105 146 192 229 278 335
#     4  11  19  31  49  73 108 146 191 236 273 317
#     4  10  19  32  48  73 109 145 185 228 272 327
#     4  10  19  28  43  69 104 148 192 229 263 315
#
# _framework density 19.773831000000001
#
# number of rings (size 3 to 8) (size 9 to 14) (size 15 to 20)
#    0.000    1.875    2.500    2.625    0.000    5.000 
#    0.000    6.875    0.000    9.000    0.000    0.000 
#    0.000    0.000    0.000    0.000    0.000    0.000 
#
# Total GULP energy -396479.793786 kJ/mol
# GULP energy per Si atom -12389.993556 kJ/mol
# Density = 1.972882 g / cm^3
# Si number density = 19.773831 Si / 1000 Ang^3
#
#
#
# Elastic Constant Matrix: (Units=GPa)
#
#
# Indices 1 2 3 4 5 6 
#
# 1 85.5500 49.6711 18.3233 0.0000 7.7239 0.0000
# 2 49.6711 129.7668 19.5939 0.0000 6.5577 0.0000
# 3 18.3233 19.5939 45.2950 0.0000 3.2247 0.0000
# 4 0.0000 0.0000 0.0000 22.5392 0.0000 -0.7857
# 5 7.7239 6.5577 3.2247 0.0000 17.9296 0.0000
# 6 0.0000 0.0000 0.0000 -0.7857 0.0000 23.2439
#
#
#
# Elastic Compliance Matrix: (Units=1/GPa)
#
#
# Indices 1 2 3 4 5 6 
#
# 1 0.015990 -0.005323 -0.003864 0.000000 -0.004247 0.000000
# 2 -0.005323 0.010120 -0.002152 0.000000 -0.001021 0.000000
# 3 -0.003864 -0.002152 0.024713 0.000000 -0.001993 0.000000
# 4 0.000000 0.000000 0.000000 0.044419 0.000000 0.001501
# 5 -0.004247 -0.001021 -0.001993 0.000000 0.058335 0.000000
# 6 0.000000 0.000000 0.000000 0.001501 0.000000 0.043073
#
#
# Mechanical properties :
#
#
# Convention : Reuss Voigt Hill
#
# Bulk Modulus (GPa) = 35.52762 48.42094 41.97428
# Shear Modulus (GPa) = 21.86173 24.27746 23.06959
#
# Velocity S-wave (km/s) = 3.32865 3.50774 3.41937
# Velocity P-wave (km/s) = 5.72531 6.39892 6.07146
#
# Compressibility (1/GPa) = 0.02814711
#
# Stress axis : x y z
#
# Youngs Moduli (GPa) = 62.53737 98.81393 40.46401
#
# Poissons Ratio (x) = 0.52595 0.15635
# Poissons Ratio (y) = 0.33287 0.08707
# Poissons Ratio (z) = 0.24163 0.21263
#
# Static dielectric constant tensor:
#      x y z
#    x 3.658800 0.000000 0.111400 
#    y 0.000000 3.739350 0.000000 
#    z 0.111400 0.000000 3.192410 
# 
# 
# High freq. dielectric constant tensor:
#      x y z
#    x 1.768840 0.000000 0.006080 
#    y 0.000000 1.779670 0.000000 
#    z 0.006080 0.000000 1.724490 
# 
# From -- ./inp_files/70791.got.cif
#   From: 2010.06.25/outbox.cif.g09.slc.cpg/sg10_36_cif.got.tgz:70791.got - 2010.06.27 22:07:45.
