data_PCOD8059794
_publ_section_title
;
Structure prediction by ZEFSAII (Michael W. Deem and Ramdas Pophale) SiO2 
 PCOD8059794
Probable space group: P 2/M
;
_chemical_formula_sum "Si O2"
_cell_formula_units_Z 26
_cell_length_a 9.244617
_cell_length_b 14.861189
_cell_length_c 13.197903
_cell_angle_alpha 90.000000
_cell_angle_beta 129.457747
_cell_angle_gamma 90.000000
_cell_volume 1399.965335
_symmetry_space_group_name_H-M "P 2/M"
_symmetry_group_IT_number 10
_symmetry_cell_setting 'monoclinic'
loop_
_space_group_symop_operation_xyz
x,y,z
-x,y,-z
-x,-y,-z
x,-y,z
loop_
_atom_site_type_symbol
_atom_site_label
_atom_site_fract_x
_atom_site_fract_y
_atom_site_fract_z
Si Si1 0.402252 0.899981 0.736635
Si Si2 0.000000 0.847369 0.500000
Si Si3 0.345106 0.260137 0.853803
Si Si4 0.203676 0.600719 0.626409
Si Si5 0.058250 0.233937 0.307598
Si Si6 0.303734 0.398642 0.451021
Si Si7 0.353506 0.104223 0.348240
O O1 0.186791 0.905310 0.602208
O O2 0.427508 0.829363 0.838057
O O3 0.546668 0.871151 0.712741
O O4 0.453654 0.000000 0.798366
O O5 0.048147 0.788982 0.422381
O O6 0.298852 0.335126 0.750051
O O7 0.154156 0.236687 0.829390
O O8 0.500000 0.297645 0.000000
O O9 0.186182 0.500000 0.664855
O O10 0.331062 0.601924 0.583882
O O11 0.000000 0.635389 0.500000
O O12 0.143279 0.333763 0.336620
O O13 0.168703 0.163162 0.286711
O O14 0.500000 0.360949 0.500000
O O15 0.259861 0.500000 0.392680
O O16 0.500000 0.128201 0.500000
O O17 0.293113 0.000000 0.325382
#
# Coordination Sequence:
#
# PCOD8059794 Si02
#       7
#     4   2   4   4   4   4   4
#     4  10  21  36  56  81 116 153 190 236 287 342
#     4  10  19  30  51  88 112 144 185 230 285 334
#     4  11  25  40  57  85 116 155 199 235 287 344
#     4  10  20  38  62  88 116 146 187 237 285 339
#     4  11  20  33  55  78 117 153 180 235 283 333
#     4  10  20  32  55  90 118 143 179 226 285 341
#     4  10  20  33  54  88 117 145 188 241 297 344
#
# _framework density 18.571888999999999
#
# number of rings (size 3 to 8) (size 9 to 14) (size 15 to 20)
#    0.000    1.692    3.077    2.538    3.231    3.077 
#    0.000    0.769    0.000    1.846    0.000    3.231 
#    0.000    0.000    0.000    0.000    0.000    0.000 
#
# Total GULP energy -322297.374354 kJ/mol
# GULP energy per Si atom -12396.052860 kJ/mol
# Density = 1.852962 g / cm^3
# Si number density = 18.571889 Si / 1000 Ang^3
#
#
#
# Elastic Constant Matrix: (Units=GPa)
#
#
# Indices 1 2 3 4 5 6 
#
# 1 124.3675 46.2606 38.8743 0.0000 21.5470 0.0000
# 2 46.2606 105.9413 41.3810 0.0000 6.0823 0.0000
# 3 38.8743 41.3810 100.1257 0.0000 6.9951 0.0000
# 4 0.0000 0.0000 0.0000 8.6363 0.0000 0.1072
# 5 21.5470 6.0823 6.9951 0.0000 17.8513 0.0000
# 6 0.0000 0.0000 0.0000 0.1072 0.0000 26.5487
#
#
#
# Elastic Compliance Matrix: (Units=1/GPa)
#
#
# Indices 1 2 3 4 5 6 
#
# 1 0.012383 -0.003751 -0.002367 0.000000 -0.012741 0.000000
# 2 -0.003751 0.012467 -0.003820 0.000000 0.001777 0.000000
# 3 -0.002367 -0.003820 0.012538 0.000000 -0.000754 0.000000
# 4 0.000000 0.000000 0.000000 0.115796 0.000000 -0.000468
# 5 -0.012741 0.001777 -0.000754 0.000000 0.071088 0.000000
# 6 0.000000 0.000000 0.000000 -0.000468 0.000000 0.037668
#
#
# Mechanical properties :
#
#
# Convention : Reuss Voigt Hill
#
# Bulk Modulus (GPa) = 57.10669 64.82958 60.96813
# Shear Modulus (GPa) = 17.38183 24.20183 20.79183
#
# Velocity S-wave (km/s) = 3.06260 3.61382 3.34957
# Velocity P-wave (km/s) = 6.58193 7.23852 6.91802
#
# Compressibility (1/GPa) = 0.01751108
#
# Stress axis : x y z
#
# Youngs Moduli (GPa) = 80.75264 80.20901 79.75608
#
# Poissons Ratio (x) = 0.30088 0.18882
# Poissons Ratio (y) = 0.30292 0.30470
# Poissons Ratio (z) = 0.19118 0.30643
#
# Static dielectric constant tensor:
#      x y z
#    x 3.750930 0.000000 0.233450 
#    y 0.000000 3.508960 0.000000 
#    z 0.233450 0.000000 3.027210 
# 
# 
# High freq. dielectric constant tensor:
#      x y z
#    x 1.735800 0.000000 0.018690 
#    y 0.000000 1.736400 0.000000 
#    z 0.018690 0.000000 1.664490 
# 
# From -- ./inp_files/62091.got.cif
#   From: 2010.06.25/outbox.cif.g09.slc.cpg/sg10_32_cif.got.tgz:62091.got - 2010.06.27 22:07:45.
