data_PCOD8059321
_publ_section_title
;
Structure prediction by ZEFSAII (Michael W. Deem and Ramdas Pophale) SiO2 
 PCOD8059321
Probable space group: P 2/M
;
_chemical_formula_sum "Si O2"
_cell_formula_units_Z 32
_cell_length_a 14.290609
_cell_length_b 9.311274
_cell_length_c 15.405294
_cell_angle_alpha 90.000000
_cell_angle_beta 90.710957
_cell_angle_gamma 90.000000
_cell_volume 2049.728780
_symmetry_space_group_name_H-M "P 2/M"
_symmetry_group_IT_number 10
_symmetry_cell_setting 'monoclinic'
loop_
_space_group_symop_operation_xyz
x,y,z
-x,y,-z
-x,-y,-z
x,-y,z
loop_
_atom_site_type_symbol
_atom_site_label
_atom_site_fract_x
_atom_site_fract_y
_atom_site_fract_z
Si Si1 0.602270 0.833376 0.836414
Si Si2 0.388672 0.658123 0.000944
Si Si3 0.393704 0.331347 0.483536
Si Si4 0.893548 0.169987 0.398198
Si Si5 0.099107 0.169228 0.405312
Si Si6 0.281697 0.331173 0.653177
Si Si7 0.411877 0.331138 0.812680
Si Si8 0.709247 0.833603 0.665740
O O1 0.644861 0.770393 0.926602
O O2 0.508347 0.754569 0.805302
O O3 0.681025 0.808345 0.764722
O O4 0.579408 0.000000 0.850183
O O5 0.348667 0.500000 0.023606
O O6 0.500000 0.652903 0.000000
O O7 0.358371 0.704211 0.903036
O O8 0.500000 0.283862 0.500000
O O9 0.386241 0.500000 0.466920
O O10 0.333222 0.283375 0.565678
O O11 0.359009 0.253301 0.397222
O O12 0.880498 0.223913 0.497109
O O13 0.817106 0.250531 0.338918
O O14 0.997659 0.221096 0.369011
O O15 0.879036 0.000000 0.387865
O O16 0.183353 0.220804 0.343953
O O17 0.092461 0.000000 0.411006
O O18 0.263445 0.500000 0.655465
O O19 0.345051 0.281680 0.734440
O O20 0.436355 0.500000 0.807638
O O21 0.701155 0.000000 0.639227
#
# Coordination Sequence:
#
# PCOD8059321 Si02
#       8
#     4   4   4   4   4   4   4   4
#     4  10  19  28  43  68  92 114 143 185 225 249
#     4   8  15  29  47  63  82 115 151 178 213 262
#     4  10  20  31  42  59  87 122 152 176 207 248
#     4   9  16  29  49  65  81 112 149 182 219 262
#     4   8  15  29  47  64  83 112 148 182 216 261
#     4  10  19  30  44  65  90 114 144 184 221 251
#     4   9  18  32  47  62  87 123 152 174 211 265
#     4  10  19  31  45  63  88 117 148 179 214 258
#
# _framework density 15.611822
#
# number of rings (size 3 to 8) (size 9 to 14) (size 15 to 20)
#    0.000    2.750    1.250    2.625    0.000    5.000 
#    0.000    1.875    0.000    0.000    0.000    0.875 
#    0.000    7.000    0.000    0.000    0.000    0.000 
#
# Total GULP energy -396666.106138 kJ/mol
# GULP energy per Si atom -12395.815817 kJ/mol
# Density = 1.557629 g / cm^3
# Si number density = 15.611822 Si / 1000 Ang^3
#
#
#
# Elastic Constant Matrix: (Units=GPa)
#
#
# Indices 1 2 3 4 5 6 
#
# 1 91.2010 33.1677 34.9907 0.0000 -13.6036 0.0000
# 2 33.1677 44.9798 32.2370 0.0000 -5.3025 0.0000
# 3 34.9907 32.2370 81.4755 0.0000 -9.0191 0.0000
# 4 0.0000 0.0000 0.0000 16.6112 0.0000 5.6956
# 5 -13.6036 -5.3025 -9.0191 0.0000 14.5570 0.0000
# 6 0.0000 0.0000 0.0000 5.6956 0.0000 18.4062
#
#
#
# Elastic Compliance Matrix: (Units=1/GPa)
#
#
# Indices 1 2 3 4 5 6 
#
# 1 0.016955 -0.009578 -0.002281 0.000000 0.010943 0.000000
# 2 -0.009578 0.036658 -0.010633 0.000000 -0.002186 0.000000
# 3 -0.002281 -0.010633 0.018032 0.000000 0.005168 0.000000
# 4 0.000000 0.000000 0.000000 0.067346 0.000000 -0.020839
# 5 0.010943 -0.002186 0.005168 0.000000 0.081327 0.000000
# 6 0.000000 0.000000 0.000000 -0.020839 0.000000 0.060778
#
#
# Mechanical properties :
#
#
# Convention : Reuss Voigt Hill
#
# Bulk Modulus (GPa) = 37.50603 46.49411 42.00007
# Shear Modulus (GPa) = 14.92683 17.73227 16.32955
#
# Velocity S-wave (km/s) = 3.09548 3.37385 3.23766
# Velocity P-wave (km/s) = 6.07061 6.70993 6.39826
#
# Compressibility (1/GPa) = 0.02666238
#
# Stress axis : x y z
#
# Youngs Moduli (GPa) = 58.97814 27.27926 55.45660
#
# Poissons Ratio (x) = 0.26129 0.12647
# Poissons Ratio (y) = 0.56491 0.58965
# Poissons Ratio (z) = 0.13451 0.29005
#
# Static dielectric constant tensor:
#      x y z
#    x 3.012280 0.000000 -0.045380 
#    y 0.000000 2.871600 0.000000 
#    z -0.045380 0.000000 3.155900 
# 
# 
# High freq. dielectric constant tensor:
#      x y z
#    x 1.580540 0.000000 -0.001820 
#    y 0.000000 1.589700 0.000000 
#    z -0.001820 0.000000 1.590110 
# 
# From -- ./inp_files/66039.got.cif
#   From: 2010.06.25/outbox.cif.g09.slc.cpg/sg10_34_cif.got.tgz:66039.got - 2010.06.27 22:07:45.
