data_PCOD8059977
_publ_section_title
;
Structure prediction by ZEFSAII (Michael W. Deem and Ramdas Pophale) SiO2 
 PCOD8059977
Probable space group: P 2/M
;
_chemical_formula_sum "Si O2"
_cell_formula_units_Z 24
_cell_length_a 10.299312
_cell_length_b 10.371491
_cell_length_c 19.743314
_cell_angle_alpha 90.000000
_cell_angle_beta 42.939380
_cell_angle_gamma 90.000000
_cell_volume 1436.678276
_symmetry_space_group_name_H-M "P 2/M"
_symmetry_group_IT_number 10
_symmetry_cell_setting 'monoclinic'
loop_
_space_group_symop_operation_xyz
x,y,z
-x,y,-z
-x,-y,-z
x,-y,z
loop_
_atom_site_type_symbol
_atom_site_label
_atom_site_fract_x
_atom_site_fract_y
_atom_site_fract_z
Si Si1 0.673036 0.854261 0.388321
Si Si2 0.143935 0.641207 0.503888
Si Si3 0.401038 0.853557 0.214231
Si Si4 0.951284 0.730222 0.703926
Si Si5 0.425058 0.646007 0.101792
Si Si6 0.571152 0.145163 0.641338
O O1 0.500000 0.794281 0.500000
O O2 0.625006 0.848489 0.326331
O O3 0.873416 0.783177 0.319762
O O4 0.702490 0.000000 0.402296
O O5 0.238232 0.500000 0.455290
O O6 0.294960 0.755308 0.449024
O O7 0.000000 0.676525 0.500000
O O8 0.031717 0.633108 0.617178
O O9 0.172535 0.841038 0.288234
O O10 0.508925 0.749075 0.124656
O O11 0.457607 0.816195 0.269519
O O12 0.465592 0.000000 0.173049
O O13 0.806649 0.653673 0.808979
O O14 0.490662 0.500000 0.094446
O O15 0.500000 0.687958 0.000000
O O16 0.657578 0.000000 0.604444
#
# Coordination Sequence:
#
# PCOD8059977 Si02
#       6
#     4   4   4   4   4   4
#     4  10  19  31  48  72 108 145 172 203 248 299
#     4  11  20  31  47  71 103 137 171 210 254 296
#     4   9  19  32  52  78 101 128 171 216 251 297
#     4  10  19  31  51  75 100 132 171 210 250 300
#     4   9  19  36  58  79 100 128 166 216 269 310
#     4  10  20  33  49  73 104 140 174 204 246 301
#
# _framework density 16.705200999999999
#
# number of rings (size 3 to 8) (size 9 to 14) (size 15 to 20)
#    1.000    1.167    3.333    1.000    0.000    2.000 
#    0.000    2.500    0.000    1.000    0.000    5.833 
#    0.000    0.000    0.000    0.000    0.000    0.000 
#
# Total GULP energy -297320.356752 kJ/mol
# GULP energy per Si atom -12388.348198 kJ/mol
# Density = 1.666718 g / cm^3
# Si number density = 16.705201 Si / 1000 Ang^3
#
#
#
# Elastic Constant Matrix: (Units=GPa)
#
#
# Indices 1 2 3 4 5 6 
#
# 1 104.9864 31.7134 38.2367 0.0000 11.8345 0.0000
# 2 31.7134 76.7559 30.4002 0.0000 12.6989 0.0000
# 3 38.2367 30.4002 76.3170 0.0000 23.6237 0.0000
# 4 0.0000 0.0000 0.0000 26.3511 0.0000 -2.0403
# 5 11.8345 12.6989 23.6237 0.0000 21.5074 0.0000
# 6 0.0000 0.0000 0.0000 -2.0403 0.0000 38.4844
#
#
#
# Elastic Compliance Matrix: (Units=1/GPa)
#
#
# Indices 1 2 3 4 5 6 
#
# 1 0.012258 -0.003163 -0.005109 0.000000 0.000734 0.000000
# 2 -0.003163 0.016469 -0.003795 0.000000 -0.003816 0.000000
# 3 -0.005109 -0.003795 0.023653 0.000000 -0.020929 0.000000
# 4 0.000000 0.000000 0.000000 0.038106 0.000000 0.002020
# 5 0.000734 -0.003816 -0.020929 0.000000 0.071333 0.000000
# 6 0.000000 0.000000 0.000000 0.002020 0.000000 0.026092
#
#
# Mechanical properties :
#
#
# Convention : Reuss Voigt Hill
#
# Bulk Modulus (GPa) = 35.40104 50.97332 43.18718
# Shear Modulus (GPa) = 22.57749 27.78253 25.18001
#
# Velocity S-wave (km/s) = 3.68030 4.08254 3.88663
# Velocity P-wave (km/s) = 6.26874 7.26654 6.78600
#
# Compressibility (1/GPa) = 0.02824776
#
# Stress axis : x y z
#
# Youngs Moduli (GPa) = 81.57627 60.71908 42.27790
#
# Poissons Ratio (x) = 0.19204 0.21601
# Poissons Ratio (y) = 0.25801 0.16043
# Poissons Ratio (z) = 0.41679 0.23040
#
# Static dielectric constant tensor:
#      x y z
#    x 3.099440 0.000000 0.125130 
#    y 0.000000 3.086960 0.000000 
#    z 0.125130 0.000000 2.817640 
# 
# 
# High freq. dielectric constant tensor:
#      x y z
#    x 1.639530 0.000000 0.018300 
#    y 0.000000 1.646770 0.000000 
#    z 0.018300 0.000000 1.603670 
# 
# From -- ./inp_files/82411.got.cif
#   From: 2010.06.25/outbox.cif.g09.slc.cpg/sg10_42_cif.got.tgz:82411.got - 2010.06.27 22:07:45.
