data_PCOD8059145
_publ_section_title
;
Structure prediction by ZEFSAII (Michael W. Deem and Ramdas Pophale) SiO2 
 PCOD8059145
Probable space group: P 2/M
;
_chemical_formula_sum "Si O2"
_cell_formula_units_Z 32
_cell_length_a 26.160257
_cell_length_b 8.529676
_cell_length_c 20.290410
_cell_angle_alpha 90.000000
_cell_angle_beta 21.297077
_cell_angle_gamma 90.000000
_cell_volume 1644.430891
_symmetry_space_group_name_H-M "P 2/M"
_symmetry_group_IT_number 10
_symmetry_cell_setting 'monoclinic'
loop_
_space_group_symop_operation_xyz
x,y,z
-x,y,-z
-x,-y,-z
x,-y,z
loop_
_atom_site_type_symbol
_atom_site_label
_atom_site_fract_x
_atom_site_fract_y
_atom_site_fract_z
Si Si1 0.841569 0.186709 0.190049
Si Si2 0.310023 0.186115 0.121387
Si Si3 0.652883 0.318615 0.154652
Si Si4 0.180104 0.813454 0.412201
Si Si5 0.860015 0.185876 0.801870
Si Si6 0.635819 0.815120 0.548039
Si Si7 0.618213 0.812838 0.715958
Si Si8 0.342559 0.816775 0.711446
O O1 0.757014 0.254896 0.354863
O O2 0.763756 0.241979 0.217288
O O3 0.842427 0.000000 0.192220
O O4 0.000000 0.254234 0.000000
O O5 0.250761 0.255494 0.261021
O O6 0.209081 0.240429 0.183621
O O7 0.313816 0.000000 0.120785
O O8 0.466388 0.252193 0.920958
O O9 0.617680 0.500000 0.188560
O O10 0.517185 0.220396 0.296754
O O11 0.694957 0.280755 0.178825
O O12 0.785118 0.271975 0.951723
O O13 0.264954 0.749659 0.373622
O O14 0.020398 0.755572 0.608902
O O15 0.185637 0.000000 0.403254
O O16 0.847111 0.000000 0.827178
O O17 0.653318 0.746496 0.600849
O O18 0.651351 0.000000 0.531701
O O19 0.615025 0.000000 0.718653
O O20 0.500000 0.778631 0.500000
O O21 0.323560 0.000000 0.749448
#
# Coordination Sequence:
#
# PCOD8059145 Si02
#       8
#     4   4   4   4   4   4   4   4
#     4   9  18  32  55  86 114 137 169 214 260 310
#     4   9  15  26  47  76 111 141 170 215 271 320
#     4  12  24  36  54  79 107 141 183 225 265 310
#     4   9  17  27  45  80 115 138 168 219 274 319
#     4  10  19  33  53  78 106 140 179 220 267 316
#     4  10  18  34  56  78 106 140 179 218 264 313
#     4   9  16  26  47  78 110 140 171 215 269 321
#     4  10  19  35  60  86 109 138 173 214 261 310
#
# _framework density 19.459620000000001
#
# number of rings (size 3 to 8) (size 9 to 14) (size 15 to 20)
#    0.000    2.250    2.500    1.875    0.000    4.250 
#    0.000    3.750    0.000    5.250    0.000    0.875 
#    0.000    0.000    0.000    0.000    0.000    0.000 
#
# Total GULP energy -396809.504667 kJ/mol
# GULP energy per Si atom -12400.297021 kJ/mol
# Density = 1.941533 g / cm^3
# Si number density = 19.459620 Si / 1000 Ang^3
#
#
#
# Elastic Constant Matrix: (Units=GPa)
#
#
# Indices 1 2 3 4 5 6 
#
# 1 182.7175 9.2217 100.2735 0.0000 4.2217 0.0000
# 2 9.2217 9.3872 4.5908 0.0000 4.9551 0.0000
# 3 100.2735 4.5908 164.3425 0.0000 0.8847 0.0000
# 4 0.0000 0.0000 0.0000 2.0648 0.0000 -1.4215
# 5 4.2217 4.9551 0.8847 0.0000 46.2394 0.0000
# 6 0.0000 0.0000 0.0000 -1.4215 0.0000 -0.0407
#
#
#
# Elastic Compliance Matrix: (Units=1/GPa)
#
#
# Indices 1 2 3 4 5 6 
#
# 1 0.008541 -0.005895 -0.005046 0.000000 -0.000052 0.000000
# 2 -0.005895 0.118575 0.000350 0.000000 -0.012175 0.000000
# 3 -0.005046 0.000350 0.009153 0.000000 0.000248 0.000000
# 4 0.000000 0.000000 0.000000 0.019314 0.000000 -0.675406
# 5 -0.000052 -0.012175 0.000248 0.000000 0.022931 0.000000
# 6 0.000000 0.000000 0.000000 -0.675406 0.000000 -0.981030
#
#
# Mechanical properties :
#
#
# Convention : Reuss Voigt Hill
#
# Bulk Modulus (GPa) = 8.68917 64.95770 36.82343
# Shear Modulus (GPa) = -6.72974 25.81013 9.54020
#
# Velocity S-wave (km/s) = -1.86167 3.64585 2.21657
# Velocity P-wave (km/s) = 0.38231 7.15375 5.05124
#
# Compressibility (1/GPa) = 0.11508576
#
# Stress axis : x y z
#
# Youngs Moduli (GPa) = 117.08179 8.43349 109.25668
#
# Poissons Ratio (x) = 0.04972 0.55135
# Poissons Ratio (y) = 0.69024 -0.03827
# Poissons Ratio (z) = 0.59084 -0.00295
#
# Static dielectric constant tensor:
#      x y z
#    x 3.847750 0.000000 0.117710 
#    y 0.000000 2.856040 0.000000 
#    z 0.117710 0.000000 3.777890 
# 
# 
# High freq. dielectric constant tensor:
#      x y z
#    x 1.773780 0.000000 0.006550 
#    y 0.000000 1.690960 0.000000 
#    z 0.006550 0.000000 1.767060 
# 
# From -- ./inp_files/86751.got.cif
#   From: 2010.06.25/outbox.cif.g09.slc.cpg/sg10_44_cif.got.tgz:86751.got - 2010.06.27 22:07:45.
