data_PCOD8059110
_publ_section_title
;
Structure prediction by ZEFSAII (Michael W. Deem and Ramdas Pophale) SiO2 
 PCOD8059110
Probable space group: P 2/M
;
_chemical_formula_sum "Si O2"
_cell_formula_units_Z 32
_cell_length_a 29.037030
_cell_length_b 8.824933
_cell_length_c 12.246881
_cell_angle_alpha 90.000000
_cell_angle_beta 146.153680
_cell_angle_gamma 90.000000
_cell_volume 1747.908736
_symmetry_space_group_name_H-M "P 2/M"
_symmetry_group_IT_number 10
_symmetry_cell_setting 'monoclinic'
loop_
_space_group_symop_operation_xyz
x,y,z
-x,y,-z
-x,-y,-z
x,-y,z
loop_
_atom_site_type_symbol
_atom_site_label
_atom_site_fract_x
_atom_site_fract_y
_atom_site_fract_z
Si Si1 0.467664 0.177491 0.816961
Si Si2 0.763959 0.679630 0.448086
Si Si3 0.878618 0.319896 0.491497
Si Si4 0.214111 0.177538 0.065636
Si Si5 0.616915 0.676043 0.006300
Si Si6 0.960165 0.673826 0.303249
Si Si7 0.708186 0.320454 0.568815
Si Si8 0.736833 0.324122 0.051686
O O1 0.534640 0.225038 0.857896
O O2 0.385035 0.266114 0.626059
O O3 0.450092 0.000000 0.775263
O O4 0.500000 0.226164 0.000000
O O5 0.762822 0.500000 0.439611
O O6 0.846798 0.738160 0.547996
O O7 0.760859 0.735819 0.566681
O O8 0.683101 0.737812 0.224719
O O9 0.875837 0.500000 0.480767
O O10 0.815370 0.261059 0.274272
O O11 0.971932 0.265638 0.650909
O O12 0.247973 0.252828 0.240775
O O13 0.222591 0.000000 0.094502
O O14 0.119009 0.221141 0.861486
O O15 0.269632 0.231868 0.073248
O O16 0.596258 0.500000 0.985996
O O17 0.652989 0.700199 0.955631
O O18 0.934703 0.500000 0.229301
O O19 0.000000 0.688134 0.500000
O O20 0.708365 0.500000 0.577773
O O21 0.749723 0.500000 0.048172
#
# Coordination Sequence:
#
# PCOD8059110 Si02
#       8
#     4   4   4   4   4   4   4   4
#     4  11  22  35  54  84 121 151 180 221 275 334
#     4   8  15  29  53  84 109 135 177 232 279 314
#     4   8  14  28  54  85 111 133 173 233 280 316
#     4  12  25  38  53  78 118 153 183 224 281 343
#     4   9  17  32  58  87 111 138 183 235 273 318
#     4  10  18  33  59  85 109 142 187 231 272 323
#     4  11  22  38  60  80 107 147 195 235 272 324
#     4   9  17  34  58  83 110 142 184 230 276 324
#
# _framework density 18.307592
#
# number of rings (size 3 to 8) (size 9 to 14) (size 15 to 20)
#    0.000    2.250    2.500    3.375    0.000    1.250 
#    0.000    1.250    0.000    9.000    0.000    0.000 
#    0.000    0.000    0.000    0.000    0.000    0.000 
#
# Total GULP energy -396704.053952 kJ/mol
# GULP energy per Si atom -12397.001686 kJ/mol
# Density = 1.826592 g / cm^3
# Si number density = 18.307592 Si / 1000 Ang^3
#
#
#
# Elastic Constant Matrix: (Units=GPa)
#
#
# Indices 1 2 3 4 5 6 
#
# 1 152.4699 40.2415 50.4739 0.0000 -0.3636 0.0000
# 2 40.2415 53.9846 26.9290 0.0000 0.1094 0.0000
# 3 50.4739 26.9290 66.5556 0.0000 -6.4625 0.0000
# 4 0.0000 0.0000 0.0000 19.9741 0.0000 3.7794
# 5 -0.3636 0.1094 -6.4625 0.0000 25.3342 0.0000
# 6 0.0000 0.0000 0.0000 3.7794 0.0000 32.3297
#
#
#
# Elastic Compliance Matrix: (Units=1/GPa)
#
#
# Indices 1 2 3 4 5 6 
#
# 1 0.009557 -0.004315 -0.005626 0.000000 -0.001279 0.000000
# 2 -0.004315 0.025319 -0.007166 0.000000 -0.001999 0.000000
# 3 -0.005626 -0.007166 0.022750 0.000000 0.005753 0.000000
# 4 0.000000 0.000000 0.000000 0.051197 0.000000 -0.005985
# 5 -0.001279 -0.001999 0.005753 0.000000 0.040930 0.000000
# 6 0.000000 0.000000 0.000000 -0.005985 0.000000 0.031631
#
#
# Mechanical properties :
#
#
# Convention : Reuss Voigt Hill
#
# Bulk Modulus (GPa) = 42.71403 56.47765 49.59584
# Shear Modulus (GPa) = 22.38117 25.88532 24.13325
#
# Velocity S-wave (km/s) = 3.50023 3.76428 3.63465
# Velocity P-wave (km/s) = 6.30218 7.05757 6.69055
#
# Compressibility (1/GPa) = 0.02341151
#
# Stress axis : x y z
#
# Youngs Moduli (GPa) = 104.63609 39.49602 43.95651
#
# Poissons Ratio (x) = 0.17042 0.24730
# Poissons Ratio (y) = 0.45150 0.31500
# Poissons Ratio (z) = 0.58869 0.28303
#
# Static dielectric constant tensor:
#      x y z
#    x 3.940510 0.000000 0.112270 
#    y 0.000000 3.089740 0.000000 
#    z 0.112270 0.000000 4.054850 
# 
# 
# High freq. dielectric constant tensor:
#      x y z
#    x 1.731850 0.000000 0.006970 
#    y 0.000000 1.681440 0.000000 
#    z 0.006970 0.000000 1.681510 
# 
# From -- ./inp_files/58259.got.cif
#   From: 2010.06.25/outbox.cif.g09.slc.cpg/sg10_30_cif.got.tgz:58259.got - 2010.06.27 22:07:45.
