data_PCOD8059593
_publ_section_title
;
Structure prediction by ZEFSAII (Michael W. Deem and Ramdas Pophale) SiO2 
 PCOD8059593
Probable space group: P 2/M
;
_chemical_formula_sum "Si O2"
_cell_formula_units_Z 28
_cell_length_a 24.284992
_cell_length_b 9.248953
_cell_length_c 9.550545
_cell_angle_alpha 90.000000
_cell_angle_beta 44.806386
_cell_angle_gamma 90.000000
_cell_volume 1511.719292
_symmetry_space_group_name_H-M "P 2/M"
_symmetry_group_IT_number 10
_symmetry_cell_setting 'monoclinic'
loop_
_space_group_symop_operation_xyz
x,y,z
-x,y,-z
-x,-y,-z
x,-y,z
loop_
_atom_site_type_symbol
_atom_site_label
_atom_site_fract_x
_atom_site_fract_y
_atom_site_fract_z
Si Si1 0.679441 0.333265 0.506879
Si Si2 0.088497 0.833243 0.843748
Si Si3 0.569322 0.836589 0.283939
Si Si4 0.471968 0.836398 0.195189
Si Si5 0.212551 0.669885 0.435399
Si Si6 0.258030 0.831939 0.073470
Si Si7 0.201124 0.837169 0.881287
O O1 0.664117 0.500000 0.510238
O O2 0.599837 0.252565 0.615906
O O3 0.711279 0.301350 0.605845
O O4 0.740308 0.280836 0.282796
O O5 0.137547 0.739796 0.645017
O O6 0.118798 0.814813 0.949592
O O7 0.093684 0.000000 0.786457
O O8 0.000000 0.776549 0.000000
O O9 0.500000 0.757986 0.500000
O O10 0.545164 0.829508 0.166158
O O11 0.575209 0.000000 0.331517
O O12 0.657001 0.770690 0.133019
O O13 0.443217 0.000000 0.222492
O O14 0.500000 0.765266 0.000000
O O15 0.196854 0.500000 0.445213
O O16 0.226361 0.740424 0.259897
O O17 0.266476 0.000000 0.103627
O O18 0.195587 0.814242 0.059110
O O19 0.232397 0.000000 0.794519
#
# Coordination Sequence:
#
# PCOD8059593 Si02
#       7
#     4   4   4   4   4   4   4
#     4  10  20  33  49  70  98 133 171 210 253 302
#     4   9  18  35  59  84 107 131 164 207 252 301
#     4   9  17  29  46  69  96 127 166 213 260 300
#     4  10  19  30  46  67  91 124 168 215 258 298
#     4  10  21  35  52  76 106 139 172 207 251 305
#     4  10  19  33  54  77 102 134 173 216 258 301
#     4   9  18  33  55  79 100 128 167 207 249 299
#
# _framework density 18.521958000000001
#
# number of rings (size 3 to 8) (size 9 to 14) (size 15 to 20)
#    0.000    2.429    0.000    2.571    0.000    6.286 
#    0.000    1.429    0.000    6.000    0.000    0.000 
#    0.000    0.000    0.000    0.000    0.000    0.000 
#
# Total GULP energy -347082.813279 kJ/mol
# GULP energy per Si atom -12395.814760 kJ/mol
# Density = 1.847980 g / cm^3
# Si number density = 18.521958 Si / 1000 Ang^3
#
#
#
# Elastic Constant Matrix: (Units=GPa)
#
#
# Indices 1 2 3 4 5 6 
#
# 1 103.3945 35.2499 49.6770 0.0000 -1.7165 0.0000
# 2 35.2499 64.9691 33.0502 0.0000 -0.8473 0.0000
# 3 49.6770 33.0502 86.4715 0.0000 3.5909 0.0000
# 4 0.0000 0.0000 0.0000 239.9594 0.0000 -265.2210
# 5 -1.7165 -0.8473 3.5909 0.0000 34.3982 0.0000
# 6 0.0000 0.0000 0.0000 -265.2210 0.0000 338.7656
#
#
#
# Elastic Compliance Matrix: (Units=1/GPa)
#
#
# Indices 1 2 3 4 5 6 
#
# 1 0.014384 -0.004414 -0.006630 0.000000 0.001301 0.000000
# 2 -0.004414 0.020514 -0.005340 0.000000 0.000842 0.000000
# 3 -0.006630 -0.005340 0.017509 0.000000 -0.002290 0.000000
# 4 0.000000 0.000000 0.000000 0.030944 0.000000 0.024226
# 5 0.001301 0.000842 -0.002290 0.000000 0.029396 0.000000
# 6 0.000000 0.000000 0.000000 0.024226 0.000000 0.021918
#
#
# Mechanical properties :
#
#
# Convention : Reuss Voigt Hill
#
# Bulk Modulus (GPa) = 50.91890 54.53215 52.72553
# Shear Modulus (GPa) = 28.73881 131.74851 80.24366
#
# Velocity S-wave (km/s) = 3.94332 8.44307 6.58920
# Velocity P-wave (km/s) = 6.94865 11.16033 9.29615
#
# Compressibility (1/GPa) = 0.01963907
#
# Stress axis : x y z
#
# Youngs Moduli (GPa) = 69.52267 48.74629 57.11195
#
# Poissons Ratio (x) = 0.21518 0.37866
# Poissons Ratio (y) = 0.30690 0.30496
# Poissons Ratio (z) = 0.46095 0.26029
#
# Static dielectric constant tensor:
#      x y z
#    x 3.577020 0.000000 0.053830 
#    y 0.000000 3.230070 0.000000 
#    z 0.053830 0.000000 3.249090 
# 
# 
# High freq. dielectric constant tensor:
#      x y z
#    x 1.724470 0.000000 0.010740 
#    y 0.000000 1.696350 0.000000 
#    z 0.010740 0.000000 1.703270 
# 
# From -- ./inp_files/36903.got.cif
#   From: 2010.06.25/outbox.cif.g09.slc.cpg/sg10_19_cif.got.tgz:36903.got - 2010.06.27 22:07:45.
