data_PCOD8059611
_publ_section_title
;
Structure prediction by ZEFSAII (Michael W. Deem and Ramdas Pophale) SiO2 
 PCOD8059611
Probable space group: P 2/M
;
_chemical_formula_sum "Si O2"
_cell_formula_units_Z 32
_cell_length_a 25.721095
_cell_length_b 9.124926
_cell_length_c 14.446368
_cell_angle_alpha 90.000000
_cell_angle_beta 146.991016
_cell_angle_gamma 90.000000
_cell_volume 1847.102882
_symmetry_space_group_name_H-M "P 2/M"
_symmetry_group_IT_number 10
_symmetry_cell_setting 'monoclinic'
loop_
_space_group_symop_operation_xyz
x,y,z
-x,y,-z
-x,-y,-z
x,-y,z
loop_
_atom_site_type_symbol
_atom_site_label
_atom_site_fract_x
_atom_site_fract_y
_atom_site_fract_z
Si Si1 0.283430 0.327017 0.711542
Si Si2 0.109864 0.673710 0.770538
Si Si3 0.728284 0.826661 0.875183
Si Si4 0.365534 0.667850 0.641067
Si Si5 0.350075 0.667912 0.415671
Si Si6 0.458787 0.836871 0.040318
Si Si7 0.896200 0.673168 0.446698
Si Si8 0.470312 0.159539 0.351195
O O1 0.292394 0.500000 0.737390
O O2 0.298569 0.279917 0.626644
O O3 0.180067 0.269726 0.591446
O O4 0.361149 0.254294 0.895101
O O5 0.123597 0.500000 0.803368
O O6 0.132446 0.725872 0.699353
O O7 0.001905 0.725316 0.633224
O O8 0.176965 0.756855 0.942288
O O9 0.711693 0.763943 0.746994
O O10 0.640002 0.786339 0.811910
O O11 0.740059 0.000000 0.883060
O O12 0.396015 0.500000 0.703607
O O13 0.308696 0.684341 0.458818
O O14 0.462653 0.761103 0.777721
O O15 0.347980 0.500000 0.379140
O O16 0.460599 0.719104 0.589211
O O17 0.437996 0.000000 0.046602
O O18 0.500000 0.840707 0.000000
O O19 0.898124 0.500000 0.446167
O O20 0.500000 0.134369 0.500000
O O21 0.479223 0.000000 0.313927
#
# Coordination Sequence:
#
# PCOD8059611 Si02
#       8
#     4   4   4   4   4   4   4   4
#     4   9  16  30  50  69  93 124 155 188 229 274
#     4   9  17  32  52  73  94 115 147 190 233 278
#     4  10  20  33  48  68  94 124 155 187 230 278
#     4   9  18  30  45  67  95 126 159 192 224 264
#     4  10  19  30  46  69  94 123 160 195 225 262
#     4   9  17  28  42  63  91 122 156 190 223 261
#     4   8  16  31  52  74  93 116 147 187 235 280
#     4   8  16  30  44  61  89 121 151 185 224 265
#
# _framework density 17.324428000000001
#
# number of rings (size 3 to 8) (size 9 to 14) (size 15 to 20)
#    0.000    3.000    0.000    2.625    0.000    6.250 
#    0.000    6.250    0.000    0.750    0.000    5.250 
#    0.000    0.000    0.000    0.000    0.000    0.000 
#
# Total GULP energy -396545.401316 kJ/mol
# GULP energy per Si atom -12392.043791 kJ/mol
# Density = 1.728500 g / cm^3
# Si number density = 17.324428 Si / 1000 Ang^3
#
#
#
# Elastic Constant Matrix: (Units=GPa)
#
#
# Indices 1 2 3 4 5 6 
#
# 1 92.9217 35.3203 62.4164 0.0000 5.9186 0.0000
# 2 35.3203 69.0641 44.6698 0.0000 0.4575 0.0000
# 3 62.4164 44.6698 121.1403 0.0000 3.4429 0.0000
# 4 0.0000 0.0000 0.0000 462.2040 0.0000 105.7660
# 5 5.9186 0.4575 3.4429 0.0000 24.9842 0.0000
# 6 0.0000 0.0000 0.0000 105.7660 0.0000 32.2114
#
#
#
# Elastic Compliance Matrix: (Units=1/GPa)
#
#
# Indices 1 2 3 4 5 6 
#
# 1 0.017505 -0.004142 -0.007405 0.000000 -0.003050 0.000000
# 2 -0.004142 0.020004 -0.005280 0.000000 0.001343 0.000000
# 3 -0.007405 -0.005280 0.014020 0.000000 -0.000081 0.000000
# 4 0.000000 0.000000 0.000000 0.008702 0.000000 -0.028571
# 5 -0.003050 0.001343 -0.000081 0.000000 0.040735 0.000000
# 6 0.000000 0.000000 0.000000 -0.028571 0.000000 0.124859
#
#
# Mechanical properties :
#
#
# Convention : Reuss Voigt Hill
#
# Bulk Modulus (GPa) = 55.94987 63.10433 59.52710
# Shear Modulus (GPa) = 18.83696 113.26123 66.04910
#
# Velocity S-wave (km/s) = 3.30101 8.09435 6.18123
# Velocity P-wave (km/s) = 6.84795 11.12934 9.24004
#
# Compressibility (1/GPa) = 0.01787314
#
# Stress axis : x y z
#
# Youngs Moduli (GPa) = 57.12803 49.98978 71.32920
#
# Poissons Ratio (x) = 0.20708 0.52818
# Poissons Ratio (y) = 0.23665 0.37663
# Poissons Ratio (z) = 0.42302 0.26395
#
# Static dielectric constant tensor:
#      x y z
#    x 3.455620 0.000000 0.161500 
#    y 0.000000 3.194670 0.000000 
#    z 0.161500 0.000000 3.177850 
# 
# 
# High freq. dielectric constant tensor:
#      x y z
#    x 1.658430 0.000000 -0.007930 
#    y 0.000000 1.661050 0.000000 
#    z -0.007930 0.000000 1.651770 
# 
# From -- ./inp_files/72234.got.cif
#   From: 2010.06.25/outbox.cif.g09.slc.cpg/sg10_37_cif.got.tgz:72234.got - 2010.06.27 22:07:45.
