data_PCOD8059388
_publ_section_title
;
Structure prediction by ZEFSAII (Michael W. Deem and Ramdas Pophale) SiO2 
 PCOD8059388
Probable space group: P 2/M
;
_chemical_formula_sum "Si O2"
_cell_formula_units_Z 24
_cell_length_a 13.852371
_cell_length_b 9.274676
_cell_length_c 11.394581
_cell_angle_alpha 90.000000
_cell_angle_beta 78.819797
_cell_angle_gamma 90.000000
_cell_volume 1436.150854
_symmetry_space_group_name_H-M "P 2/M"
_symmetry_group_IT_number 10
_symmetry_cell_setting 'monoclinic'
loop_
_space_group_symop_operation_xyz
x,y,z
-x,y,-z
-x,-y,-z
x,-y,z
loop_
_atom_site_type_symbol
_atom_site_label
_atom_site_fract_x
_atom_site_fract_y
_atom_site_fract_z
Si Si1 0.912839 0.833180 0.604243
Si Si2 0.857333 0.329789 0.093179
Si Si3 0.531036 0.340517 0.627603
Si Si4 0.318606 0.329593 0.709741
Si Si5 0.291175 0.832794 0.476596
Si Si6 0.054431 0.329130 0.166212
O O1 0.810003 0.805634 0.565480
O O2 0.910879 0.745642 0.724222
O O3 0.000000 0.775856 0.500000
O O4 0.929821 0.000000 0.630190
O O5 0.864517 0.500000 0.089607
O O6 0.752134 0.277630 0.167824
O O7 0.944658 0.275613 0.158154
O O8 0.872710 0.276654 0.955971
O O9 0.500000 0.344517 0.500000
O O10 0.565118 0.500000 0.660501
O O11 0.431476 0.292325 0.720046
O O12 0.620320 0.229553 0.625528
O O13 0.308301 0.500000 0.687006
O O14 0.285023 0.247886 0.601249
O O15 0.312126 0.000000 0.494498
O O16 0.058980 0.500000 0.183676
#
# Coordination Sequence:
#
# PCOD8059388 Si02
#       6
#     4   4   4   4   4   4
#     4  10  21  34  45  62  92 123 148 178 217 260
#     4   8  15  29  48  70  93 113 140 183 225 258
#     4   8  15  27  43  64  88 115 146 180 219 261
#     4   9  16  28  47  68  91 117 144 178 221 265
#     4  10  19  29  43  64  91 120 147 181 221 257
#     4   9  17  30  49  70  90 115 147 181 218 260
#
# _framework density 16.711335999999999
#
# number of rings (size 3 to 8) (size 9 to 14) (size 15 to 20)
#    0.000    3.000    0.000    3.500    0.000    4.667 
#    0.000    2.500    0.000    1.000    0.000    7.000 
#    0.000    0.000    0.000    0.000    0.000    0.000 
#
# Total GULP energy -297458.708125 kJ/mol
# GULP energy per Si atom -12394.112839 kJ/mol
# Density = 1.667330 g / cm^3
# Si number density = 16.711336 Si / 1000 Ang^3
#
#
#
# Elastic Constant Matrix: (Units=GPa)
#
#
# Indices 1 2 3 4 5 6 
#
# 1 126.3624 48.1961 62.1141 0.0000 -30.8829 0.0000
# 2 48.1961 58.4190 43.6697 0.0000 -3.0579 0.0000
# 3 62.1141 43.6697 96.4928 0.0000 -17.9178 0.0000
# 4 0.0000 0.0000 0.0000 -4.0383 0.0000 0.7878
# 5 -30.8829 -3.0579 -17.9178 0.0000 30.4123 0.0000
# 6 0.0000 0.0000 0.0000 0.7878 0.0000 25.0368
#
#
#
# Elastic Compliance Matrix: (Units=1/GPa)
#
#
# Indices 1 2 3 4 5 6 
#
# 1 0.017340 -0.010894 -0.003554 0.000000 0.014419 0.000000
# 2 -0.010894 0.033360 -0.010685 0.000000 -0.014004 0.000000
# 3 -0.003554 -0.010685 0.018659 0.000000 0.006309 0.000000
# 4 0.000000 0.000000 0.000000 -0.246120 0.000000 0.007744
# 5 0.014419 -0.014004 0.006309 0.000000 0.049833 0.000000
# 6 0.000000 0.000000 0.000000 0.007744 0.000000 0.039698
#
#
# Mechanical properties :
#
#
# Convention : Reuss Voigt Hill
#
# Bulk Modulus (GPa) = 52.37942 65.47045 58.92494
# Shear Modulus (GPa) = -163.39948 18.76845 -72.31551
#
# Velocity S-wave (km/s) = -9.89898 3.35490 -6.58538
# Velocity P-wave (km/s) = 9.96200 7.36678 4.74194
#
# Compressibility (1/GPa) = 0.01909147
#
# Stress axis : x y z
#
# Youngs Moduli (GPa) = 57.67064 29.97616 53.59348
#
# Poissons Ratio (x) = 0.32655 0.19049
# Poissons Ratio (y) = 0.62825 0.57267
# Poissons Ratio (z) = 0.20498 0.32031
#
# Static dielectric constant tensor:
#      x y z
#    x 3.593820 0.000000 -0.504660 
#    y 0.000000 2.997260 0.000000 
#    z -0.504660 0.000000 3.131200 
# 
# 
# High freq. dielectric constant tensor:
#      x y z
#    x 1.650990 0.000000 -0.022730 
#    y 0.000000 1.627000 0.000000 
#    z -0.022730 0.000000 1.619140 
# 
# From -- ./inp_files/45160.got.cif
#   From: 2010.06.25/outbox.cif.g09.slc.cpg/sg10_23_cif.got.tgz:45160.got - 2010.06.27 22:07:45.
