data_PCOD8059722
_publ_section_title
;
Structure prediction by ZEFSAII (Michael W. Deem and Ramdas Pophale) SiO2 
 PCOD8059722
Probable space group: P 2/M
;
_chemical_formula_sum "Si O2"
_cell_formula_units_Z 32
_cell_length_a 24.334515
_cell_length_b 9.592222
_cell_length_c 24.334509
_cell_angle_alpha 90.000000
_cell_angle_beta 18.086530
_cell_angle_gamma 90.000000
_cell_volume 1763.438456
_symmetry_space_group_name_H-M "P 2/M"
_symmetry_group_IT_number 10
_symmetry_cell_setting 'monoclinic'
loop_
_space_group_symop_operation_xyz
x,y,z
-x,y,-z
-x,-y,-z
x,-y,z
loop_
_atom_site_type_symbol
_atom_site_label
_atom_site_fract_x
_atom_site_fract_y
_atom_site_fract_z
Si Si1 0.370506 0.160813 0.467944
Si Si2 0.032055 0.160813 0.129495
Si Si3 0.575560 0.654954 0.484713
Si Si4 0.570421 0.666437 0.070420
Si Si5 0.626075 0.838975 0.126073
Si Si6 0.225296 0.334507 0.336633
Si Si7 0.015287 0.654954 0.924440
Si Si8 0.836633 0.334507 0.725296
O O1 0.161684 0.199449 0.661683
O O2 0.472236 0.247063 0.418606
O O3 0.467438 0.195552 0.318912
O O4 0.394703 0.000000 0.460676
O O5 0.081394 0.247063 0.027765
O O6 0.039324 0.000000 0.105297
O O7 0.181087 0.195554 0.032563
O O8 0.500000 0.719963 0.500000
O O9 0.493900 0.500000 0.571431
O O10 0.783710 0.645066 0.283710
O O11 0.574209 0.500000 0.074209
O O12 0.600091 0.737577 0.100090
O O13 0.384724 0.721352 0.222349
O O14 0.722349 0.721353 0.884723
O O15 0.616581 0.000000 0.116577
O O16 0.232156 0.500000 0.328408
O O17 0.241669 0.278735 0.258331
O O18 0.039462 0.283571 0.539461
O O19 0.928569 0.500000 0.006100
O O20 0.000000 0.719963 0.000000
O O21 0.828409 0.500000 0.732154
#
# Coordination Sequence:
#
# PCOD8059722 Si02
#       8
#     4   4   4   4   4   4   4   4
#     4   9  19  36  53  68  90 123 163 201 235 280
#     4   9  19  36  53  68  90 123 163 201 235 280
#     4   9  18  31  48  73 100 123 148 186 240 295
#     4  10  19  30  48  76 100 124 166 208 240 284
#     4  10  22  37  51  69  96 132 168 202 246 290
#     4   8  14  26  46  73 104 133 160 198 246 288
#     4   9  18  31  48  73 100 123 148 186 240 295
#     4   8  14  26  46  73 104 133 160 198 246 288
#
# _framework density 18.146366
#
# number of rings (size 3 to 8) (size 9 to 14) (size 15 to 20)
#    0.000    3.000    0.000    1.125    1.750    4.000 
#    0.000    0.000    0.000    1.500    0.000    1.750 
#    0.000    0.000    0.000    0.000    0.000    0.000 
#
# Total GULP energy -396651.728312 kJ/mol
# GULP energy per Si atom -12395.366510 kJ/mol
# Density = 1.810506 g / cm^3
# Si number density = 18.146366 Si / 1000 Ang^3
#
#
#
# Elastic Constant Matrix: (Units=GPa)
#
#
# Indices 1 2 3 4 5 6 
#
# 1 156.0739 60.8493 77.3833 0.0000 5.5998 0.0000
# 2 60.8493 49.0902 36.8787 0.0000 4.3622 0.0000
# 3 77.3833 36.8787 106.3962 0.0000 3.4401 0.0000
# 4 0.0000 0.0000 0.0000 13.4323 0.0000 -3.9660
# 5 5.5998 4.3622 3.4401 0.0000 24.3517 0.0000
# 6 0.0000 0.0000 0.0000 -3.9660 0.0000 -8.3844
#
#
#
# Elastic Compliance Matrix: (Units=1/GPa)
#
#
# Indices 1 2 3 4 5 6 
#
# 1 0.014727 -0.013795 -0.005927 0.000000 -0.000078 0.000000
# 2 -0.013795 0.040783 -0.003987 0.000000 -0.003570 0.000000
# 3 -0.005927 -0.003987 0.015093 0.000000 -0.000055 0.000000
# 4 0.000000 0.000000 0.000000 0.065324 0.000000 -0.030899
# 5 -0.000078 -0.003570 -0.000055 0.000000 0.041730 0.000000
# 6 0.000000 0.000000 0.000000 -0.030899 0.000000 -0.104653
#
#
# Mechanical properties :
#
#
# Convention : Reuss Voigt Hill
#
# Bulk Modulus (GPa) = 43.13197 73.53144 58.33170
# Shear Modulus (GPa) = 39.01616 14.97653 26.99634
#
# Velocity S-wave (km/s) = 4.64193 2.87595 3.86126
# Velocity P-wave (km/s) = 7.24917 7.18592 7.21761
#
# Compressibility (1/GPa) = 0.02318466
#
# Stress axis : x y z
#
# Youngs Moduli (GPa) = 67.90162 24.51994 66.25402
#
# Poissons Ratio (x) = 0.33826 0.39269
# Poissons Ratio (y) = 0.93673 0.26416
# Poissons Ratio (z) = 0.40246 0.09776
#
# Static dielectric constant tensor:
#      x y z
#    x 3.353140 0.000000 -0.052580 
#    y 0.000000 3.213670 0.000000 
#    z -0.052580 0.000000 3.642090 
# 
# 
# High freq. dielectric constant tensor:
#      x y z
#    x 1.698990 0.000000 -0.002670 
#    y 0.000000 1.666200 0.000000 
#    z -0.002670 0.000000 1.713680 
# 
# From -- ./inp_files/86259.got.cif
#   From: 2010.06.25/outbox.cif.g09.slc.cpg/sg10_44_cif.got.tgz:86259.got - 2010.06.27 22:07:45.
