data_PCOD8059881
_publ_section_title
;
Structure prediction by ZEFSAII (Michael W. Deem and Ramdas Pophale) SiO2 
 PCOD8059881
Probable space group: P 2/M
;
_chemical_formula_sum "Si O2"
_cell_formula_units_Z 28
_cell_length_a 18.470866
_cell_length_b 9.196180
_cell_length_c 12.091811
_cell_angle_alpha 90.000000
_cell_angle_beta 50.825728
_cell_angle_gamma 90.000000
_cell_volume 1592.266077
_symmetry_space_group_name_H-M "P 2/M"
_symmetry_group_IT_number 10
_symmetry_cell_setting 'monoclinic'
loop_
_space_group_symop_operation_xyz
x,y,z
-x,y,-z
-x,-y,-z
x,-y,z
loop_
_atom_site_type_symbol
_atom_site_label
_atom_site_fract_x
_atom_site_fract_y
_atom_site_fract_z
Si Si1 0.504033 0.838858 0.126079
Si Si2 0.765670 0.335509 0.395294
Si Si3 0.606923 0.669690 0.378888
Si Si4 0.675121 0.666610 0.704365
Si Si5 0.688042 0.671043 0.942443
Si Si6 0.257485 0.829162 0.909696
Si Si7 0.103256 0.169602 0.881428
O O1 0.408394 0.766882 0.258999
O O2 0.587673 0.731976 0.077309
O O3 0.516556 0.000000 0.167302
O O4 0.500000 0.854786 0.000000
O O5 0.792774 0.500000 0.340485
O O6 0.667038 0.297289 0.431427
O O7 0.757283 0.312997 0.535712
O O8 0.850668 0.237298 0.272169
O O9 0.500000 0.720619 0.500000
O O10 0.610287 0.500000 0.343592
O O11 0.650689 0.761671 0.236398
O O12 0.639249 0.500000 0.742068
O O13 0.710960 0.710430 0.792414
O O14 0.691875 0.500000 0.959744
O O15 0.760412 0.753376 0.953597
O O16 0.165627 0.793195 0.927650
O O17 0.272736 0.000000 0.910434
O O18 0.097210 0.000000 0.864203
O O19 0.000000 0.234896 0.000000
#
# Coordination Sequence:
#
# PCOD8059881 Si02
#       7
#     4   4   4   4   4   4   4
#     4   9  17  28  42  64  94 131 175 212 239 273
#     4   9  18  32  50  75 102 127 164 205 244 294
#     4   9  18  31  47  69  98 133 165 197 243 295
#     4   9  18  31  47  69  99 137 172 204 243 290
#     4  10  19  31  47  67  98 137 174 206 242 289
#     4  10  20  33  50  74  99 125 164 208 250 296
#     4   9  19  37  58  77  98 124 156 201 258 313
#
# _framework density 17.585000000000001
#
# number of rings (size 3 to 8) (size 9 to 14) (size 15 to 20)
#    0.000    2.714    0.000    1.286    2.000    4.000 
#    0.000    0.000    0.000    0.857    0.000    6.000 
#    0.000    0.000    0.000    0.000    0.000    0.000 
#
# Total GULP energy -347114.623527 kJ/mol
# GULP energy per Si atom -12396.950840 kJ/mol
# Density = 1.754498 g / cm^3
# Si number density = 17.585000 Si / 1000 Ang^3
#
#
#
# Elastic Constant Matrix: (Units=GPa)
#
#
# Indices 1 2 3 4 5 6 
#
# 1 79.2339 40.8519 62.7360 0.0000 -3.4457 0.0000
# 2 40.8519 73.2598 47.8294 0.0000 2.9771 0.0000
# 3 62.7360 47.8294 109.2825 0.0000 0.8107 0.0000
# 4 0.0000 0.0000 0.0000 25.1196 0.0000 0.6895
# 5 -3.4457 2.9771 0.8107 0.0000 31.2857 0.0000
# 6 0.0000 0.0000 0.0000 0.6895 0.0000 22.3613
#
#
#
# Elastic Compliance Matrix: (Units=1/GPa)
#
#
# Indices 1 2 3 4 5 6 
#
# 1 0.025565 -0.006733 -0.011757 0.000000 0.003761 0.000000
# 2 -0.006733 0.020964 -0.005291 0.000000 -0.002599 0.000000
# 3 -0.011757 -0.005291 0.018225 0.000000 -0.001264 0.000000
# 4 0.000000 0.000000 0.000000 0.039843 0.000000 -0.001229
# 5 0.003761 -0.002599 -0.001264 0.000000 0.032658 0.000000
# 6 0.000000 0.000000 0.000000 -0.001229 0.000000 0.044758
#
#
# Mechanical properties :
#
#
# Convention : Reuss Voigt Hill
#
# Bulk Modulus (GPa) = 58.16512 62.73456 60.44984
# Shear Modulus (GPa) = 21.24883 23.11056 22.17970
#
# Velocity S-wave (km/s) = 3.47990 3.62915 3.55531
# Velocity P-wave (km/s) = 7.02102 7.30161 7.16269
#
# Compressibility (1/GPa) = 0.01719243
#
# Stress axis : x y z
#
# Youngs Moduli (GPa) = 39.11614 47.69975 54.86860
#
# Poissons Ratio (x) = 0.32114 0.64511
# Poissons Ratio (y) = 0.26335 0.29032
# Poissons Ratio (z) = 0.45990 0.25239
#
# Static dielectric constant tensor:
#      x y z
#    x 3.254250 0.000000 0.164430 
#    y 0.000000 3.368210 0.000000 
#    z 0.164430 0.000000 3.170340 
# 
# 
# High freq. dielectric constant tensor:
#      x y z
#    x 1.657840 0.000000 0.020580 
#    y 0.000000 1.685590 0.000000 
#    z 0.020580 0.000000 1.663850 
# 
# From -- ./inp_files/54717.got.cif
#   From: 2010.06.25/outbox.cif.g09.slc.cpg/sg10_28_cif.got.tgz:54717.got - 2010.06.27 22:07:45.
