data_PCOD8059215
_publ_section_title
;
Structure prediction by ZEFSAII (Michael W. Deem and Ramdas Pophale) SiO2 
 PCOD8059215
Probable space group: P 2/M
;
_chemical_formula_sum "Si O2"
_cell_formula_units_Z 32
_cell_length_a 12.660532
_cell_length_b 13.322558
_cell_length_c 15.101526
_cell_angle_alpha 90.000000
_cell_angle_beta 141.515013
_cell_angle_gamma 90.000000
_cell_volume 1585.137266
_symmetry_space_group_name_H-M "P 2/M"
_symmetry_group_IT_number 10
_symmetry_cell_setting 'monoclinic'
loop_
_space_group_symop_operation_xyz
x,y,z
-x,y,-z
-x,-y,-z
x,-y,z
loop_
_atom_site_type_symbol
_atom_site_label
_atom_site_fract_x
_atom_site_fract_y
_atom_site_fract_z
Si Si1 0.442867 0.885856 0.217264
Si Si2 0.617801 0.387682 0.433700
Si Si3 0.195055 0.384053 0.626243
Si Si4 0.268651 0.710384 0.178059
Si Si5 0.862789 0.709729 0.719248
Si Si6 0.208182 0.383395 0.961925
Si Si7 0.525110 0.256026 0.115024
Si Si8 0.645598 0.887393 0.527346
O O1 0.277576 0.821571 0.139396
O O2 0.518944 0.837665 0.177847
O O3 0.585610 0.883432 0.386868
O O4 0.385067 0.000000 0.160426
O O5 0.546067 0.500000 0.385600
O O6 0.731532 0.364820 0.422995
O O7 0.461513 0.311808 0.334785
O O8 0.731561 0.372383 0.595524
O O9 0.214626 0.500000 0.668012
O O10 0.295201 0.313559 0.760696
O O11 0.000000 0.350808 0.500000
O O12 0.142421 0.710367 0.177612
O O13 0.204117 0.628187 0.065736
O O14 0.812512 0.818384 0.647239
O O15 0.052522 0.678188 0.815777
O O16 0.192862 0.500000 0.926413
O O17 0.383988 0.339846 0.042488
O O18 0.500000 0.213234 0.000000
O O19 0.500000 0.849414 0.500000
O O20 0.698857 0.000000 0.589125
#
# Coordination Sequence:
#
# PCOD8059215 Si02
#       8
#     4   4   4   4   4   4   4   4
#     4  10  20  39  67  93 119 156 201 255 315 365
#     4  11  21  35  56  85 121 158 204 256 302 355
#     4  10  21  38  63  91 119 155 207 265 311 360
#     4  11  21  38  58  84 120 170 208 245 299 363
#     4  12  22  35  55  91 126 158 209 249 296 360
#     4  11  25  41  57  84 129 173 206 247 303 368
#     4  11  24  43  65  90 118 163 206 256 315 376
#     4  10  18  34  64  95 122 159 206 258 311 358
#
# _framework density 20.187525999999998
#
# number of rings (size 3 to 8) (size 9 to 14) (size 15 to 20)
#    0.000    1.250    5.000    1.875    1.750    4.250 
#    0.000    2.500    0.000    4.125    0.000    0.000 
#    0.000    0.000    0.000    0.000    0.000    0.000 
#
# Total GULP energy -396865.062228 kJ/mol
# GULP energy per Si atom -12402.033195 kJ/mol
# Density = 2.014158 g / cm^3
# Si number density = 20.187526 Si / 1000 Ang^3
#
#
#
# Elastic Constant Matrix: (Units=GPa)
#
#
# Indices 1 2 3 4 5 6 
#
# 1 69.4939 35.6240 29.7762 0.0000 -7.9841 0.0000
# 2 35.6240 120.5900 37.1617 0.0000 6.2375 0.0000
# 3 29.7762 37.1617 88.3857 0.0000 2.9622 0.0000
# 4 0.0000 0.0000 0.0000 32.2680 0.0000 0.5049
# 5 -7.9841 6.2375 2.9622 0.0000 44.1517 0.0000
# 6 0.0000 0.0000 0.0000 0.5049 0.0000 18.9560
#
#
#
# Elastic Compliance Matrix: (Units=1/GPa)
#
#
# Indices 1 2 3 4 5 6 
#
# 1 0.019210 -0.004439 -0.004753 0.000000 0.004420 0.000000
# 2 -0.004439 0.010604 -0.002893 0.000000 -0.002107 0.000000
# 3 -0.004753 -0.002893 0.014179 0.000000 -0.001402 0.000000
# 4 0.000000 0.000000 0.000000 0.031003 0.000000 -0.000826
# 5 0.004420 -0.002107 -0.001402 0.000000 0.023840 0.000000
# 6 0.000000 0.000000 0.000000 -0.000826 0.000000 0.052776
#
#
# Mechanical properties :
#
#
# Convention : Reuss Voigt Hill
#
# Bulk Modulus (GPa) = 50.44609 53.73261 52.08935
# Shear Modulus (GPa) = 27.41402 30.80231 29.10817
#
# Velocity S-wave (km/s) = 3.68906 3.91040 3.80134
# Velocity P-wave (km/s) = 6.57180 6.86023 6.71756
#
# Compressibility (1/GPa) = 0.01982314
#
# Stress axis : x y z
#
# Youngs Moduli (GPa) = 52.05746 94.30280 70.52875
#
# Poissons Ratio (x) = 0.41857 0.33525
# Poissons Ratio (y) = 0.23106 0.20401
# Poissons Ratio (z) = 0.24745 0.27278
#
# Static dielectric constant tensor:
#      x y z
#    x 3.574220 0.000000 -0.124080 
#    y 0.000000 3.729070 0.000000 
#    z -0.124080 0.000000 3.674120 
# 
# 
# High freq. dielectric constant tensor:
#      x y z
#    x 1.772830 0.000000 -0.012240 
#    y 0.000000 1.784670 0.000000 
#    z -0.012240 0.000000 1.787400 
# 
# From -- ./inp_files/65128.got.cif
#   From: 2010.06.25/outbox.cif.g09.slc.cpg/sg10_33_cif.got.tgz:65128.got - 2010.06.27 22:07:45.
