data_PCOD8059226
_publ_section_title
;
Structure prediction by ZEFSAII (Michael W. Deem and Ramdas Pophale) SiO2 
 PCOD8059226
Probable space group: P 2/M
;
_chemical_formula_sum "Si O2"
_cell_formula_units_Z 32
_cell_length_a 31.409279
_cell_length_b 8.938086
_cell_length_c 11.997046
_cell_angle_alpha 90.000000
_cell_angle_beta 30.174041
_cell_angle_gamma 90.000000
_cell_volume 1692.870642
_symmetry_space_group_name_H-M "P 2/M"
_symmetry_group_IT_number 10
_symmetry_cell_setting 'monoclinic'
loop_
_space_group_symop_operation_xyz
x,y,z
-x,y,-z
-x,-y,-z
x,-y,z
loop_
_atom_site_type_symbol
_atom_site_label
_atom_site_fract_x
_atom_site_fract_y
_atom_site_fract_z
Si Si1 0.630185 0.323660 0.960935
Si Si2 0.918701 0.676679 0.328114
Si Si3 0.249048 0.172097 0.687340
Si Si4 0.892549 0.324256 0.137486
Si Si5 0.774672 0.177731 0.782373
Si Si6 0.289604 0.177608 0.836076
Si Si7 0.478425 0.169179 0.420219
Si Si8 0.594555 0.172584 0.816319
O O1 0.643470 0.500000 0.938427
O O2 0.539992 0.278039 0.214575
O O3 0.704782 0.244896 0.859265
O O4 0.634031 0.272950 0.824387
O O5 0.906146 0.500000 0.372898
O O6 0.885425 0.728253 0.281837
O O7 0.867287 0.765780 0.538170
O O8 0.016855 0.723583 0.118681
O O9 0.183063 0.258856 0.762001
O O10 0.243257 0.231723 0.827892
O O11 0.345150 0.194994 0.427126
O O12 0.222866 0.000000 0.740686
O O13 0.885137 0.500000 0.150973
O O14 0.769229 0.000000 0.787146
O O15 0.759365 0.235356 0.943507
O O16 0.385249 0.239000 0.618110
O O17 0.295268 0.000000 0.826363
O O18 0.500000 0.166490 0.500000
O O19 0.485461 0.000000 0.355308
O O20 0.592635 0.000000 0.859491
O O21 0.500000 0.227470 0.000000
#
# Coordination Sequence:
#
# PCOD8059226 Si02
#       8
#     4   4   4   4   4   4   4   4
#     4  12  24  35  52  81 117 147 180 228 281 336
#     4   9  19  37  59  83 110 140 175 223 278 328
#     4  10  20  35  57  82 108 141 185 230 269 321
#     4   9  19  37  59  81 110 145 177 214 274 340
#     4  11  21  36  57  82 109 142 184 227 274 326
#     4   9  19  36  56  79 108 143 183 229 277 321
#     4  10  18  35  59  77 101 145 194 234 271 318
#     4  10  21  38  59  81 108 145 190 234 276 326
#
# _framework density 18.902802000000001
#
# number of rings (size 3 to 8) (size 9 to 14) (size 15 to 20)
#    0.000    2.000    1.250    3.750    0.000    6.000 
#    0.000    5.000    0.000    3.750    0.000    0.000 
#    0.000    0.000    0.000    0.000    0.000    0.000 
#
# Total GULP energy -396821.625011 kJ/mol
# GULP energy per Si atom -12400.675782 kJ/mol
# Density = 1.885978 g / cm^3
# Si number density = 18.902802 Si / 1000 Ang^3
#
#
#
# Elastic Constant Matrix: (Units=GPa)
#
#
# Indices 1 2 3 4 5 6 
#
# 1 88.9381 12.4097 41.7798 0.0000 -1.0537 0.0000
# 2 12.4097 43.2421 27.7420 0.0000 4.9654 0.0000
# 3 41.7798 27.7420 116.7317 0.0000 3.3929 0.0000
# 4 0.0000 0.0000 0.0000 31.5920 0.0000 -5.3625
# 5 -1.0537 4.9654 3.3929 0.0000 32.0966 0.0000
# 6 0.0000 0.0000 0.0000 -5.3625 0.0000 19.5699
#
#
#
# Elastic Compliance Matrix: (Units=1/GPa)
#
#
# Indices 1 2 3 4 5 6 
#
# 1 0.013585 -0.001044 -0.004646 0.000000 0.001099 0.000000
# 2 -0.001044 0.027775 -0.006120 0.000000 -0.003684 0.000000
# 3 -0.004646 -0.006120 0.011697 0.000000 -0.000442 0.000000
# 4 0.000000 0.000000 0.000000 0.033198 0.000000 0.009097
# 5 0.001099 -0.003684 -0.000442 0.000000 0.031809 0.000000
# 6 0.000000 0.000000 0.000000 0.009097 0.000000 0.053592
#
#
# Mechanical properties :
#
#
# Convention : Reuss Voigt Hill
#
# Bulk Modulus (GPa) = 33.97191 45.86390 39.91791
# Shear Modulus (GPa) = 24.37987 27.78370 26.08178
#
# Velocity S-wave (km/s) = 3.59520 3.83798 3.71857
# Velocity P-wave (km/s) = 5.93674 6.62992 6.29288
#
# Compressibility (1/GPa) = 0.02943608
#
# Stress axis : x y z
#
# Youngs Moduli (GPa) = 73.61051 36.00405 85.49305
#
# Poissons Ratio (x) = 0.03759 0.39720
# Poissons Ratio (y) = 0.07686 0.52322
# Poissons Ratio (z) = 0.34200 0.22035
#
# Static dielectric constant tensor:
#      x y z
#    x 3.583670 0.000000 0.096840 
#    y 0.000000 3.243130 0.000000 
#    z 0.096840 0.000000 3.576280 
# 
# 
# High freq. dielectric constant tensor:
#      x y z
#    x 1.734330 0.000000 0.004350 
#    y 0.000000 1.712020 0.000000 
#    z 0.004350 0.000000 1.742660 
# 
# From -- ./inp_files/58090.got.cif
#   From: 2010.06.25/outbox.cif.g09.slc.cpg/sg10_30_cif.got.tgz:58090.got - 2010.06.27 22:07:45.
