data_PCOD8059973
_publ_section_title
;
Structure prediction by ZEFSAII (Michael W. Deem and Ramdas Pophale) SiO2 
 PCOD8059973
Probable space group: P 2/M
;
_chemical_formula_sum "Si O2"
_cell_formula_units_Z 28
_cell_length_a 16.347656
_cell_length_b 8.865610
_cell_length_c 20.956358
_cell_angle_alpha 90.000000
_cell_angle_beta 151.750596
_cell_angle_gamma 90.000000
_cell_volume 1437.560280
_symmetry_space_group_name_H-M "P 2/M"
_symmetry_group_IT_number 10
_symmetry_cell_setting 'monoclinic'
loop_
_space_group_symop_operation_xyz
x,y,z
-x,y,-z
-x,-y,-z
x,-y,z
loop_
_atom_site_type_symbol
_atom_site_label
_atom_site_fract_x
_atom_site_fract_y
_atom_site_fract_z
Si Si1 0.633608 0.822725 0.699771
Si Si2 0.307403 0.178008 0.552868
Si Si3 0.525593 0.176763 0.818873
Si Si4 0.138526 0.329779 0.237474
Si Si5 0.012559 0.820765 0.742282
Si Si6 0.602606 0.177116 0.010906
Si Si7 0.802998 0.329249 0.929983
O O1 0.446466 0.763830 0.595873
O O2 0.684128 0.742444 0.667885
O O3 0.772030 0.780661 0.849330
O O4 0.636206 0.000000 0.689679
O O5 0.362894 0.228742 0.662808
O O6 0.115785 0.235770 0.402861
O O7 0.309845 0.000000 0.551515
O O8 0.492355 0.210445 0.870790
O O9 0.693959 0.270835 0.915589
O O10 0.565303 0.000000 0.835395
O O11 0.174004 0.500000 0.284637
O O12 0.065346 0.234385 0.245192
O O13 0.003126 0.325787 0.086197
O O14 0.021473 0.000000 0.752085
O O15 0.203711 0.753497 0.860709
O O16 0.621399 0.000000 0.035401
O O17 0.500000 0.250855 0.000000
O O18 0.746569 0.500000 0.873736
#
# Coordination Sequence:
#
# PCOD8059973 Si02
#       7
#     4   4   4   4   4   4   4
#     4  10  20  33  50  72 101 138 178 212 249 298
#     4   8  17  32  50  73 101 134 173 212 245 293
#     4   9  16  31  53  75 101 134 170 207 250 303
#     4  11  22  33  47  72 106 135 171 219 259 293
#     4  10  19  34  54  73  99 137 173 206 255 307
#     4   9  17  30  53  83 106 126 163 212 254 301
#     4  10  19  31  48  72 104 134 169 216 258 295
#
# _framework density 19.477443999999998
#
# number of rings (size 3 to 8) (size 9 to 14) (size 15 to 20)
#    0.000    2.429    1.429    2.571    0.000    4.000 
#    0.000    7.143    0.000    6.000    0.000    0.000 
#    0.000    5.714    0.000    0.000    0.000    0.000 
#
# Total GULP energy -347026.999666 kJ/mol
# GULP energy per Si atom -12393.821417 kJ/mol
# Density = 1.943311 g / cm^3
# Si number density = 19.477444 Si / 1000 Ang^3
#
#
#
# Elastic Constant Matrix: (Units=GPa)
#
#
# Indices 1 2 3 4 5 6 
#
# 1 136.0613 8.5502 57.9786 0.0000 6.2592 0.0000
# 2 8.5502 33.2479 14.1668 0.0000 3.3611 0.0000
# 3 57.9786 14.1668 114.5062 0.0000 -1.7095 0.0000
# 4 0.0000 0.0000 0.0000 10.8805 0.0000 -2.1649
# 5 6.2592 3.3611 -1.7095 0.0000 10.8746 0.0000
# 6 0.0000 0.0000 0.0000 -2.1649 0.0000 8.3833
#
#
#
# Elastic Compliance Matrix: (Units=1/GPa)
#
#
# Indices 1 2 3 4 5 6 
#
# 1 0.009804 0.000313 -0.005101 0.000000 -0.006542 0.000000
# 2 0.000313 0.032993 -0.004406 0.000000 -0.011070 0.000000
# 3 -0.005101 -0.004406 0.011953 0.000000 0.006177 0.000000
# 4 0.000000 0.000000 0.000000 0.096886 0.000000 0.025019
# 5 -0.006542 -0.011070 0.006177 0.000000 0.100116 0.000000
# 6 0.000000 0.000000 0.000000 0.025019 0.000000 0.125745
#
#
# Mechanical properties :
#
#
# Convention : Reuss Voigt Hill
#
# Bulk Modulus (GPa) = 27.49971 49.46742 38.48356
# Shear Modulus (GPa) = 12.25475 19.56899 15.91187
#
# Velocity S-wave (km/s) = 2.51106 3.17314 2.86131
# Velocity P-wave (km/s) = 4.74938 6.23518 5.54230
#
# Compressibility (1/GPa) = 0.03636402
#
# Stress axis : x y z
#
# Youngs Moduli (GPa) = 101.99457 30.30952 83.65975
#
# Poissons Ratio (x) = -0.00950 0.42673
# Poissons Ratio (y) = -0.03196 0.36859
# Poissons Ratio (z) = 0.52025 0.13354
#
# Static dielectric constant tensor:
#      x y z
#    x 3.562750 0.000000 -0.016280 
#    y 0.000000 3.293290 0.000000 
#    z -0.016280 0.000000 3.966230 
# 
# 
# High freq. dielectric constant tensor:
#      x y z
#    x 1.744890 0.000000 -0.010910 
#    y 0.000000 1.725480 0.000000 
#    z -0.010910 0.000000 1.755630 
# 
# From -- ./inp_files/70307.got.cif
#   From: 2010.06.25/outbox.cif.g09.slc.cpg/sg10_36_cif.got.tgz:70307.got - 2010.06.27 22:07:45.
