data_PCOD8059056
_publ_section_title
;
Structure prediction by ZEFSAII (Michael W. Deem and Ramdas Pophale) SiO2 
 PCOD8059056
Probable space group: P 2/M
;
_chemical_formula_sum "Si O2"
_cell_formula_units_Z 24
_cell_length_a 15.222921
_cell_length_b 8.035674
_cell_length_c 10.588904
_cell_angle_alpha 90.000000
_cell_angle_beta 78.665907
_cell_angle_gamma 90.000000
_cell_volume 1270.041691
_symmetry_space_group_name_H-M "P 2/M"
_symmetry_group_IT_number 10
_symmetry_cell_setting 'monoclinic'
loop_
_space_group_symop_operation_xyz
x,y,z
-x,y,-z
-x,-y,-z
x,-y,z
loop_
_atom_site_type_symbol
_atom_site_label
_atom_site_fract_x
_atom_site_fract_y
_atom_site_fract_z
Si Si1 0.701962 0.180529 0.160567
Si Si2 0.476332 0.310518 0.872239
Si Si3 0.258809 0.691728 0.577132
Si Si4 0.009070 0.000000 0.793125
Si Si5 0.144967 0.000000 0.984187
Si Si6 0.562633 0.697885 0.595546
Si Si7 0.943036 0.310429 0.391008
O O1 0.630638 0.307774 0.122605
O O2 0.735188 0.222315 0.290200
O O3 0.653732 0.000000 0.180416
O O4 0.791475 0.164755 0.047528
O O5 0.507963 0.500000 0.872952
O O6 0.529120 0.226338 0.739218
O O7 0.500000 0.222103 0.000000
O O8 0.278100 0.500000 0.596965
O O9 0.335318 0.757926 0.459299
O O10 0.161061 0.724374 0.545512
O O11 0.022623 0.170974 0.714083
O O12 0.074754 0.000000 0.891298
O O13 0.905718 0.000000 0.868412
O O14 0.500000 0.766012 0.500000
O O15 0.553768 0.500000 0.604527
O O16 0.953302 0.500000 0.333069
O O17 0.000000 0.290905 0.500000
#
# Coordination Sequence:
#
# PCOD8059056 Si02
#       7
#     4   4   4   2   2   4   4
#     4  10  19  35  54  76 108 141 185 232 280 334
#     4  10  20  35  55  79 110 151 188 224 283 345
#     4  10  18  33  56  79 107 143 189 240 285 335
#     4  11  19  42  62  79 119 155 185 249 300 353
#     4   9  22  36  59  80 107 151 195 237 296 347
#     4   9  16  29  53  80 106 139 182 229 275 330
#     4  10  21  37  60  88 116 151 194 242 299 355
#
# _framework density 18.897017999999999
#
# number of rings (size 3 to 8) (size 9 to 14) (size 15 to 20)
#    0.500    1.667    3.333    0.750    0.000    0.333 
#    3.000    5.000    0.000    0.000    0.000    0.000 
#    0.000    0.000    0.000    0.000    0.000    0.000 
#
# Total GULP energy -297354.233414 kJ/mol
# GULP energy per Si atom -12389.759726 kJ/mol
# Density = 1.885401 g / cm^3
# Si number density = 18.897018 Si / 1000 Ang^3
#
#
#
# Elastic Constant Matrix: (Units=GPa)
#
#
# Indices 1 2 3 4 5 6 
#
# 1 132.9393 22.5363 81.8855 0.0000 -11.9612 0.0000
# 2 22.5363 54.9287 37.6567 0.0000 -8.3961 0.0000
# 3 81.8855 37.6567 148.7983 0.0000 -20.3893 0.0000
# 4 0.0000 0.0000 0.0000 21.5722 0.0000 -6.7282
# 5 -11.9612 -8.3961 -20.3893 0.0000 41.6025 0.0000
# 6 0.0000 0.0000 0.0000 -6.7282 0.0000 29.5938
#
#
#
# Elastic Compliance Matrix: (Units=1/GPa)
#
#
# Indices 1 2 3 4 5 6 
#
# 1 0.011390 -0.000442 -0.006132 0.000000 0.000181 0.000000
# 2 -0.000442 0.022176 -0.005117 0.000000 0.001841 0.000000
# 3 -0.006132 -0.005117 0.011799 0.000000 0.002987 0.000000
# 4 0.000000 0.000000 0.000000 0.049894 0.000000 0.011343
# 5 0.000181 0.001841 0.002987 0.000000 0.025924 0.000000
# 6 0.000000 0.000000 0.000000 0.011343 0.000000 0.036370
#
#
# Mechanical properties :
#
#
# Convention : Reuss Voigt Hill
#
# Bulk Modulus (GPa) = 45.48641 68.98037 57.23339
# Shear Modulus (GPa) = 26.55877 31.52623 29.04250
#
# Velocity S-wave (km/s) = 3.75300 4.08894 3.92456
# Velocity P-wave (km/s) = 6.55003 7.67301 7.13365
#
# Compressibility (1/GPa) = 0.02198459
#
# Stress axis : x y z
#
# Youngs Moduli (GPa) = 87.79465 45.09410 84.75332
#
# Poissons Ratio (x) = 0.01994 0.51967
# Poissons Ratio (y) = 0.03881 0.43365
# Poissons Ratio (z) = 0.53832 0.23073
#
# Static dielectric constant tensor:
#      x y z
#    x 3.577620 0.000000 -0.187120 
#    y 0.000000 3.289040 0.000000 
#    z -0.187120 0.000000 3.653870 
# 
# 
# High freq. dielectric constant tensor:
#      x y z
#    x 1.740650 0.000000 -0.006220 
#    y 0.000000 1.712460 0.000000 
#    z -0.006220 0.000000 1.722410 
# 
# From -- ./inp_files/48675.got.cif
#   From: 2010.06.25/outbox.cif.g09.slc.cpg/sg10_25_cif.got.tgz:48675.got - 2010.06.27 22:07:45.
