data_PCOD8059166
_publ_section_title
;
Structure prediction by ZEFSAII (Michael W. Deem and Ramdas Pophale) SiO2 
 PCOD8059166
Probable space group: P 2/M
;
_chemical_formula_sum "Si O2"
_cell_formula_units_Z 20
_cell_length_a 12.116674
_cell_length_b 10.771400
_cell_length_c 12.406013
_cell_angle_alpha 90.000000
_cell_angle_beta 40.292183
_cell_angle_gamma 90.000000
_cell_volume 1047.082933
_symmetry_space_group_name_H-M "P 2/M"
_symmetry_group_IT_number 10
_symmetry_cell_setting 'monoclinic'
loop_
_space_group_symop_operation_xyz
x,y,z
-x,y,-z
-x,-y,-z
x,-y,z
loop_
_atom_site_type_symbol
_atom_site_label
_atom_site_fract_x
_atom_site_fract_y
_atom_site_fract_z
Si Si1 0.500000 0.690866 0.500000
Si Si2 0.173147 0.355785 0.436582
Si Si3 0.138602 0.366258 0.704775
Si Si4 0.368095 0.134414 0.775135
Si Si5 0.570129 0.142717 0.829709
Si Si6 0.000000 0.789178 0.000000
O O1 0.668641 0.611815 0.395735
O O2 0.525804 0.770649 0.374068
O O3 0.245783 0.500000 0.381502
O O4 0.138073 0.309676 0.585111
O O5 0.294903 0.252049 0.293805
O O6 0.000000 0.352864 0.500000
O O7 0.048826 0.500000 0.766973
O O8 0.028987 0.287966 0.869774
O O9 0.409355 0.161160 0.869364
O O10 0.166200 0.131038 0.902375
O O11 0.439176 0.000000 0.689884
O O12 0.644139 0.000000 0.764148
O O13 0.500000 0.166045 0.000000
#
# Coordination Sequence:
#
# PCOD8059166 Si02
#       6
#     2   4   4   4   4   2
#     4  10  18  34  58  80 104 146 182 232 278 342
#     4  10  22  40  61  84 114 149 190 236 283 334
#     4  10  20  36  55  81 112 145 185 231 280 335
#     4  10  20  36  55  81 112 145 185 231 280 335
#     4  10  22  40  61  84 114 149 190 236 283 334
#     4  10  22  34  54  84 112 150 182 228 280 336
#
# _framework density 19.100684999999999
#
# number of rings (size 3 to 8) (size 9 to 14) (size 15 to 20)
#    0.000    2.000    2.000    1.200    2.800    0.800 
#    0.000    2.000    0.000    0.000    0.000    0.000 
#    0.000    0.000    0.000    0.000    0.000    0.000 
#
# Total GULP energy -247789.696001 kJ/mol
# GULP energy per Si atom -12389.484800 kJ/mol
# Density = 1.905721 g / cm^3
# Si number density = 19.100685 Si / 1000 Ang^3
#
#
#
# Elastic Constant Matrix: (Units=GPa)
#
#
# Indices 1 2 3 4 5 6 
#
# 1 96.3513 32.1025 34.0319 0.0000 23.9557 0.0000
# 2 32.1025 116.9181 55.7685 0.0000 14.8808 0.0000
# 3 34.0319 55.7685 92.5262 0.0000 27.2029 0.0000
# 4 0.0000 0.0000 0.0000 38.0462 0.0000 4.1884
# 5 23.9557 14.8808 27.2029 0.0000 38.7948 0.0000
# 6 0.0000 0.0000 0.0000 4.1884 0.0000 42.4158
#
#
#
# Elastic Compliance Matrix: (Units=1/GPa)
#
#
# Indices 1 2 3 4 5 6 
#
# 1 0.013209 -0.001948 -0.001897 0.000000 -0.006079 0.000000
# 2 -0.001948 0.012302 -0.007136 0.000000 0.001488 0.000000
# 3 -0.001897 -0.007136 0.018464 0.000000 -0.009038 0.000000
# 4 0.000000 0.000000 0.000000 0.026573 0.000000 -0.002624
# 5 -0.006079 0.001488 -0.009038 0.000000 0.035298 0.000000
# 6 0.000000 0.000000 0.000000 -0.002624 0.000000 0.023835
#
#
# Mechanical properties :
#
#
# Convention : Reuss Voigt Hill
#
# Bulk Modulus (GPa) = 45.42714 61.06683 53.24699
# Shear Modulus (GPa) = 31.45042 36.11088 33.78065
#
# Velocity S-wave (km/s) = 4.06218 4.35277 4.20998
# Velocity P-wave (km/s) = 6.77026 7.56984 7.18119
#
# Compressibility (1/GPa) = 0.02201327
#
# Stress axis : x y z
#
# Youngs Moduli (GPa) = 75.70418 81.28578 54.16057
#
# Poissons Ratio (x) = 0.15838 0.10273
# Poissons Ratio (y) = 0.14750 0.38648
# Poissons Ratio (z) = 0.14359 0.58004
#
# Static dielectric constant tensor:
#      x y z
#    x 3.637710 0.000000 0.144350 
#    y 0.000000 3.610780 0.000000 
#    z 0.144350 0.000000 3.332710 
# 
# 
# High freq. dielectric constant tensor:
#      x y z
#    x 1.757820 0.000000 0.016800 
#    y 0.000000 1.748750 0.000000 
#    z 0.016800 0.000000 1.727240 
# 
# From -- ./inp_files/23423.got.cif
#   From: 2010.06.25/outbox.cif.g09.slc.cpg/sg10_12_cif.got.tgz:23423.got - 2010.06.27 22:07:45.
