data_PCOD8059646
_publ_section_title
;
Structure prediction by ZEFSAII (Michael W. Deem and Ramdas Pophale) SiO2 
 PCOD8059646
Probable space group: P 2/M
;
_chemical_formula_sum "Si O2"
_cell_formula_units_Z 32
_cell_length_a 24.187916
_cell_length_b 9.274349
_cell_length_c 17.820635
_cell_angle_alpha 90.000000
_cell_angle_beta 152.543092
_cell_angle_gamma 90.000000
_cell_volume 1843.243160
_symmetry_space_group_name_H-M "P 2/M"
_symmetry_group_IT_number 10
_symmetry_cell_setting 'monoclinic'
loop_
_space_group_symop_operation_xyz
x,y,z
-x,y,-z
-x,-y,-z
x,-y,z
loop_
_atom_site_type_symbol
_atom_site_label
_atom_site_fract_x
_atom_site_fract_y
_atom_site_fract_z
Si Si1 0.141664 0.842124 0.662148
Si Si2 0.982821 0.665084 0.063120
Si Si3 0.368065 0.165442 0.497417
Si Si4 0.362701 0.166810 0.202567
Si Si5 0.177369 0.831371 0.387758
Si Si6 0.893754 0.171558 0.538928
Si Si7 0.706623 0.665940 0.738514
Si Si8 0.162274 0.172577 0.847820
O O1 0.164100 0.762593 0.608304
O O2 0.190245 0.764929 0.796904
O O3 0.000000 0.858994 0.500000
O O4 0.202025 0.000000 0.731283
O O5 0.026305 0.500000 0.118233
O O6 0.062087 0.756797 0.214250
O O7 0.846493 0.682174 0.924946
O O8 0.000000 0.726274 0.000000
O O9 0.508765 0.186893 0.682223
O O10 0.299070 0.209958 0.490764
O O11 0.321567 0.266557 0.375651
O O12 0.339726 0.000000 0.441393
O O13 0.366849 0.253084 0.285403
O O14 0.336735 0.000000 0.190011
O O15 0.262118 0.231676 0.025685
O O16 0.186268 0.781951 0.485768
O O17 0.151307 0.000000 0.352319
O O18 0.030900 0.225899 0.716183
O O19 0.897177 0.000000 0.532912
O O20 0.666441 0.500000 0.688487
O O21 0.167721 0.000000 0.851171
#
# Coordination Sequence:
#
# PCOD8059646 Si02
#       8
#     4   4   4   4   4   4   4   4
#     4   7  10  18  35  61  91 116 138 173 222 268
#     4  10  20  34  48  65  91 118 143 182 234 276
#     4  10  21  34  46  63  90 124 156 190 229 263
#     4  10  20  33  48  66  91 120 154 193 227 263
#     4  10  19  30  47  69  92 121 156 188 221 266
#     4   8  13  22  39  66  93 113 142 185 224 262
#     4  11  22  35  51  68  87 114 152 193 232 275
#     4   8  13  23  41  64  89 117 146 178 223 272
#
# _framework density 17.360706
#
# number of rings (size 3 to 8) (size 9 to 14) (size 15 to 20)
#    0.000    2.750    1.250    3.000    0.000    4.250 
#    0.000    0.000    0.000    0.750    0.000    6.125 
#    0.000    5.000    0.000    3.375    0.000    4.750 
#
# Total GULP energy -396530.441907 kJ/mol
# GULP energy per Si atom -12391.576310 kJ/mol
# Density = 1.732119 g / cm^3
# Si number density = 17.360706 Si / 1000 Ang^3
#
#
#
# Elastic Constant Matrix: (Units=GPa)
#
#
# Indices 1 2 3 4 5 6 
#
# 1 154.5708 33.4519 52.7937 0.0000 -17.9246 0.0000
# 2 33.4519 35.1431 20.3721 0.0000 -2.8229 0.0000
# 3 52.7937 20.3721 50.1794 0.0000 -3.9170 0.0000
# 4 0.0000 0.0000 0.0000 6.0708 0.0000 6.8096
# 5 -17.9246 -2.8229 -3.9170 0.0000 27.1973 0.0000
# 6 0.0000 0.0000 0.0000 6.8096 0.0000 5.8699
#
#
#
# Elastic Compliance Matrix: (Units=1/GPa)
#
#
# Indices 1 2 3 4 5 6 
#
# 1 0.011480 -0.004874 -0.009657 0.000000 0.005669 0.000000
# 2 -0.004874 0.039361 -0.010906 0.000000 -0.000698 0.000000
# 3 -0.009657 -0.010906 0.034317 0.000000 -0.002554 0.000000
# 4 0.000000 0.000000 0.000000 -0.546768 0.000000 0.634297
# 5 0.005669 -0.000698 -0.002554 0.000000 0.040065 0.000000
# 6 0.000000 0.000000 0.000000 0.634297 0.000000 -0.565477
#
#
# Mechanical properties :
#
#
# Convention : Reuss Voigt Hill
#
# Bulk Modulus (GPa) = 29.16870 50.34763 39.75816
# Shear Modulus (GPa) = -5.40704 16.71264 5.65280
#
# Velocity S-wave (km/s) = -1.76672 3.10606 1.80642
# Velocity P-wave (km/s) = 3.56038 6.47513 5.22512
#
# Compressibility (1/GPa) = 0.03428333
#
# Stress axis : x y z
#
# Youngs Moduli (GPa) = 87.10690 25.40591 29.14033
#
# Poissons Ratio (x) = 0.12384 0.28140
# Poissons Ratio (y) = 0.42459 0.31781
# Poissons Ratio (z) = 0.84117 0.27708
#
# Static dielectric constant tensor:
#      x y z
#    x 3.617170 0.000000 -0.209590 
#    y 0.000000 2.850750 0.000000 
#    z -0.209590 0.000000 3.213750 
# 
# 
# High freq. dielectric constant tensor:
#      x y z
#    x 1.681840 0.000000 -0.012140 
#    y 0.000000 1.623700 0.000000 
#    z -0.012140 0.000000 1.650460 
# 
# From -- ./inp_files/54887.got.cif
#   From: 2010.06.25/outbox.cif.g09.slc.cpg/sg10_28_cif.got.tgz:54887.got - 2010.06.27 22:07:45.
