data_PCOD8059628
_publ_section_title
;
Structure prediction by ZEFSAII (Michael W. Deem and Ramdas Pophale) SiO2 
 PCOD8059628
Probable space group: P 2/M
;
_chemical_formula_sum "Si O2"
_cell_formula_units_Z 30
_cell_length_a 5.095665
_cell_length_b 22.814509
_cell_length_c 13.699806
_cell_angle_alpha 90.000000
_cell_angle_beta 78.192215
_cell_angle_gamma 90.000000
_cell_volume 1558.970657
_symmetry_space_group_name_H-M "P 2/M"
_symmetry_group_IT_number 10
_symmetry_cell_setting 'monoclinic'
loop_
_space_group_symop_operation_xyz
x,y,z
-x,y,-z
-x,-y,-z
x,-y,z
loop_
_atom_site_type_symbol
_atom_site_label
_atom_site_fract_x
_atom_site_fract_y
_atom_site_fract_z
Si Si1 0.168772 0.432207 0.767791
Si Si2 0.292785 0.859557 0.432313
Si Si3 0.881387 0.383807 0.617281
Si Si4 0.041088 0.069631 0.888368
Si Si5 0.418151 0.432887 0.109183
Si Si6 0.290929 0.270032 0.433921
Si Si7 0.708444 0.500000 0.569757
Si Si8 0.393275 0.069568 0.232855
O O1 0.220367 0.500000 0.730852
O O2 0.124733 0.392399 0.674775
O O3 0.897486 0.426818 0.851846
O O4 0.410947 0.404946 0.814018
O O5 0.500000 0.879017 0.500000
O O6 0.370622 0.794060 0.386458
O O7 0.309802 0.903935 0.342058
O O8 0.000000 0.863192 0.500000
O O9 0.722457 0.322355 0.646662
O O10 0.681233 0.441141 0.639173
O O11 0.000000 0.380210 0.500000
O O12 0.316297 0.092633 0.821021
O O13 0.805330 0.091796 0.836417
O O14 0.044718 0.000000 0.894964
O O15 0.000000 0.095986 0.000000
O O16 0.515655 0.500000 0.098409
O O17 0.500000 0.402843 0.000000
O O18 0.500000 0.290751 0.500000
O O19 0.000000 0.260837 0.500000
O O20 0.500000 0.500000 0.500000
O O21 0.000000 0.500000 0.500000
O O22 0.382950 0.000000 0.244990
#
# Coordination Sequence:
#
# PCOD8059628 Si02
#       8
#     4   4   4   4   4   4   2   4
#     4  10  19  30  46  71  94 121 152 185 234 287
#     4  10  20  34  50  70  99 134 174 217 253 291
#     4  10  20  34  48  72 102 131 157 193 237 300
#     4   9  17  30  48  73 106 138 168 207 252 303
#     4   9  18  32  48  65  90 120 154 193 231 274
#     4   9  19  34  50  66  91 131 172 204 236 284
#     4  10  20  30  44  64  93 130 153 180 232 284
#     4  10  19  30  48  75 104 137 174 209 255 303
#
# _framework density 19.243466000000002
#
# number of rings (size 3 to 8) (size 9 to 14) (size 15 to 20)
#    0.000    2.400    0.667    2.000    0.000    8.000 
#    0.000    0.000    0.000    0.000    0.000    3.733 
#    0.000    0.000    0.000    0.000    0.000    0.000 
#
# Total GULP energy -371867.487171 kJ/mol
# GULP energy per Si atom -12395.582906 kJ/mol
# Density = 1.919967 g / cm^3
# Si number density = 19.243466 Si / 1000 Ang^3
#
#
#
# Elastic Constant Matrix: (Units=GPa)
#
#
# Indices 1 2 3 4 5 6 
#
# 1 69.1960 17.4543 12.4055 0.0000 19.4979 0.0000
# 2 17.4543 59.1561 36.2594 0.0000 5.5657 0.0000
# 3 12.4055 36.2594 106.3742 0.0000 13.1626 0.0000
# 4 0.0000 0.0000 0.0000 7.6482 0.0000 5.1763
# 5 19.4979 5.5657 13.1626 0.0000 35.8843 0.0000
# 6 0.0000 0.0000 0.0000 5.1763 0.0000 15.0146
#
#
#
# Elastic Compliance Matrix: (Units=1/GPa)
#
#
# Indices 1 2 3 4 5 6 
#
# 1 0.018214 -0.004931 0.000719 0.000000 -0.009396 0.000000
# 2 -0.004931 0.022720 -0.007401 0.000000 0.001870 0.000000
# 3 0.000719 -0.007401 0.012304 0.000000 -0.003756 0.000000
# 4 0.000000 0.000000 0.000000 0.170542 0.000000 -0.058794
# 5 -0.009396 0.001870 -0.003756 0.000000 0.034060 0.000000
# 6 0.000000 0.000000 0.000000 -0.058794 0.000000 0.086871
#
#
# Mechanical properties :
#
#
# Convention : Reuss Voigt Hill
#
# Bulk Modulus (GPa) = 33.31872 40.77385 37.04628
# Shear Modulus (GPa) = 13.22959 22.94989 18.08974
#
# Velocity S-wave (km/s) = 2.62484 3.45716 3.06934
# Velocity P-wave (km/s) = 5.15153 6.09675 5.64396
#
# Compressibility (1/GPa) = 0.03001316
#
# Stress axis : x y z
#
# Youngs Moduli (GPa) = 54.90262 44.01479 81.27210
#
# Poissons Ratio (x) = 0.21704 -0.05846
# Poissons Ratio (y) = 0.27073 0.60147
# Poissons Ratio (z) = -0.03949 0.32574
#
# Static dielectric constant tensor:
#      x y z
#    x 3.715090 0.000000 0.182680 
#    y 0.000000 3.938600 0.000000 
#    z 0.182680 0.000000 3.523840 
# 
# 
# High freq. dielectric constant tensor:
#      x y z
#    x 1.771230 0.000000 0.012190 
#    y 0.000000 1.698070 0.000000 
#    z 0.012190 0.000000 1.740890 
# 
# From -- ./inp_files/39967.got.cif
#   From: 2010.06.25/outbox.cif.g09.slc.cpg/sg10_20_cif.got.tgz:39967.got - 2010.06.27 22:07:45.
