data_PCOD8059733
_publ_section_title
;
Structure prediction by ZEFSAII (Michael W. Deem and Ramdas Pophale) SiO2 
 PCOD8059733
Probable space group: P 2/M
;
_chemical_formula_sum "Si O2"
_cell_formula_units_Z 32
_cell_length_a 14.220299
_cell_length_b 9.155636
_cell_length_c 12.395657
_cell_angle_alpha 90.000000
_cell_angle_beta 97.753985
_cell_angle_gamma 90.000000
_cell_volume 1599.107154
_symmetry_space_group_name_H-M "P 2/M"
_symmetry_group_IT_number 10
_symmetry_cell_setting 'monoclinic'
loop_
_space_group_symop_operation_xyz
x,y,z
-x,y,-z
-x,-y,-z
x,-y,z
loop_
_atom_site_type_symbol
_atom_site_label
_atom_site_fract_x
_atom_site_fract_y
_atom_site_fract_z
Si Si1 0.393469 0.826864 0.018411
Si Si2 0.881065 0.839179 0.489298
Si Si3 0.866296 0.332252 0.702914
Si Si4 0.928305 0.332082 0.298763
Si Si5 0.274451 0.671566 0.822407
Si Si6 0.392328 0.657208 0.457177
Si Si7 0.679728 0.669244 0.786751
Si Si8 0.681238 0.159137 0.367384
O O1 0.312404 0.753554 0.932923
O O2 0.382343 0.000000 0.010181
O O3 0.500000 0.779102 0.000000
O O4 0.370926 0.772205 0.134767
O O5 0.847135 0.752855 0.589180
O O6 0.951727 0.756358 0.414885
O O7 0.793035 0.856752 0.395749
O O8 0.920089 0.000000 0.527747
O O9 0.845998 0.500000 0.672062
O O10 0.790683 0.284335 0.783275
O O11 0.975925 0.309755 0.758318
O O12 0.914872 0.500000 0.332103
O O13 0.836657 0.286510 0.213865
O O14 0.289233 0.500000 0.839467
O O15 0.338944 0.726840 0.732098
O O16 0.500000 0.634434 0.500000
O O17 0.340493 0.500000 0.471199
O O18 0.378272 0.700262 0.331047
O O19 0.356436 0.787109 0.524905
O O20 0.673082 0.500000 0.822510
O O21 0.636273 0.000000 0.332953
#
# Coordination Sequence:
#
# PCOD8059733 Si02
#       8
#     4   4   4   4   4   4   4   4
#     4  11  26  46  66  88 115 149 192 244 299 354
#     4  10  19  30  48  79 119 160 198 235 279 338
#     4  10  19  34  56  82 116 155 197 240 287 344
#     4   9  19  34  55  84 116 154 196 241 288 338
#     4  10  21  39  63  87 115 151 198 246 291 342
#     4  10  21  36  56  86 119 152 195 241 290 347
#     4  10  22  40  62  88 119 157 200 244 291 347
#     4  10  20  34  54  83 119 157 193 235 292 348
#
# _framework density 20.011165999999999
#
# number of rings (size 3 to 8) (size 9 to 14) (size 15 to 20)
#    0.000    2.000    1.250    1.875    1.750    5.750 
#    0.000    0.625    0.000    3.750    0.000    0.000 
#    0.000    0.000    0.000    0.000    0.000    0.000 
#
# Total GULP energy -396553.622674 kJ/mol
# GULP energy per Si atom -12392.300709 kJ/mol
# Density = 1.996562 g / cm^3
# Si number density = 20.011166 Si / 1000 Ang^3
#
#
#
# Elastic Constant Matrix: (Units=GPa)
#
#
# Indices 1 2 3 4 5 6 
#
# 1 107.3098 42.7275 50.7121 0.0000 -8.6700 0.0000
# 2 42.7275 97.1858 46.6826 0.0000 -8.9072 0.0000
# 3 50.7121 46.6826 100.0407 0.0000 -7.0723 0.0000
# 4 0.0000 0.0000 0.0000 29.4639 0.0000 -0.3094
# 5 -8.6700 -8.9072 -7.0723 0.0000 32.0196 0.0000
# 6 0.0000 0.0000 0.0000 -0.3094 0.0000 19.1355
#
#
#
# Elastic Compliance Matrix: (Units=1/GPa)
#
#
# Indices 1 2 3 4 5 6 
#
# 1 0.013097 -0.003196 -0.005039 0.000000 0.001544 0.000000
# 2 -0.003196 0.014220 -0.004873 0.000000 0.002014 0.000000
# 3 -0.005039 -0.004873 0.014864 0.000000 0.000563 0.000000
# 4 0.000000 0.000000 0.000000 0.033946 0.000000 0.000549
# 5 0.001544 0.002014 0.000563 0.000000 0.032334 0.000000
# 6 0.000000 0.000000 0.000000 0.000549 0.000000 0.052268
#
#
# Mechanical properties :
#
#
# Convention : Reuss Voigt Hill
#
# Bulk Modulus (GPa) = 62.63519 64.97564 63.80541
# Shear Modulus (GPa) = 26.00566 27.08474 26.54520
#
# Velocity S-wave (km/s) = 3.60885 3.68296 3.64609
# Velocity P-wave (km/s) = 6.98091 7.11518 7.04836
#
# Compressibility (1/GPa) = 0.01596547
#
# Stress axis : x y z
#
# Youngs Moduli (GPa) = 76.35090 70.32272 67.27791
#
# Poissons Ratio (x) = 0.22479 0.33898
# Poissons Ratio (y) = 0.24406 0.32784
# Poissons Ratio (z) = 0.38469 0.34268
#
# Static dielectric constant tensor:
#      x y z
#    x 3.689700 0.000000 0.054910 
#    y 0.000000 3.913430 0.000000 
#    z 0.054910 0.000000 3.354590 
# 
# 
# High freq. dielectric constant tensor:
#      x y z
#    x 1.792960 0.000000 0.005420 
#    y 0.000000 1.783820 0.000000 
#    z 0.005420 0.000000 1.754540 
# 
# From -- ./inp_files/49849.got.cif
#   From: 2010.06.25/outbox.cif.g09.slc.cpg/sg10_25_cif.got.tgz:49849.got - 2010.06.27 22:07:45.
