data_PCOD8059022
_publ_section_title
;
Structure prediction by ZEFSAII (Michael W. Deem and Ramdas Pophale) SiO2 
 PCOD8059022
Probable space group: P 2/M
;
_chemical_formula_sum "Si O2"
_cell_formula_units_Z 28
_cell_length_a 19.779839
_cell_length_b 8.866964
_cell_length_c 22.727956
_cell_angle_alpha 90.000000
_cell_angle_beta 159.440809
_cell_angle_gamma 90.000000
_cell_volume 1399.849938
_symmetry_space_group_name_H-M "P 2/M"
_symmetry_group_IT_number 10
_symmetry_cell_setting 'monoclinic'
loop_
_space_group_symop_operation_xyz
x,y,z
-x,y,-z
-x,-y,-z
x,-y,z
loop_
_atom_site_type_symbol
_atom_site_label
_atom_site_fract_x
_atom_site_fract_y
_atom_site_fract_z
Si Si1 0.051975 0.327429 0.400360
Si Si2 0.761425 0.822918 0.970106
Si Si3 0.830132 0.322399 0.905164
Si Si4 0.430638 0.320159 0.766827
Si Si5 0.621965 0.679737 0.043708
Si Si6 0.464527 0.320792 0.535977
Si Si7 0.906192 0.326164 0.697743
O O1 0.015660 0.500000 0.387068
O O2 0.208658 0.263695 0.575275
O O3 0.150252 0.310455 0.416470
O O4 0.838743 0.251236 0.227352
O O5 0.855781 0.763799 0.986938
O O6 0.556347 0.746960 0.816007
O O7 0.734591 0.000000 0.946055
O O8 0.906063 0.774952 0.139755
O O9 0.833460 0.500000 0.920477
O O10 0.633125 0.265692 0.715748
O O11 0.000000 0.275267 0.000000
O O12 0.439853 0.500000 0.769970
O O13 0.513077 0.260214 0.896365
O O14 0.631276 0.500000 0.047224
O O15 0.500000 0.735485 0.000000
O O16 0.500000 0.252203 0.500000
O O17 0.463394 0.500000 0.531521
O O18 0.264853 0.262833 0.400645
O O19 0.954338 0.500000 0.752387
#
# Coordination Sequence:
#
# PCOD8059022 Si02
#       7
#     4   4   4   4   4   4   4
#     4   9  17  30  53  84 111 144 187 229 279 335
#     4  12  24  36  53  79 112 147 187 233 282 332
#     4  10  20  36  59  83 107 141 184 228 280 338
#     4  10  19  35  59  82 111 149 188 230 277 333
#     4   9  17  30  52  87 123 146 175 229 287 334
#     4   9  17  30  52  82 107 132 176 230 276 325
#     4  10  18  33  55  76 105 142 185 232 276 330
#
# _framework density 20.002144999999999
#
# number of rings (size 3 to 8) (size 9 to 14) (size 15 to 20)
#    0.000    2.143    1.429    3.000    0.000    5.429 
#    0.000    5.714    0.000    2.143    0.000    1.000 
#    0.000    0.000    0.000    0.000    0.000    0.000 
#
# Total GULP energy -347112.266182 kJ/mol
# GULP energy per Si atom -12396.866649 kJ/mol
# Density = 1.995662 g / cm^3
# Si number density = 20.002145 Si / 1000 Ang^3
#
#
#
# Elastic Constant Matrix: (Units=GPa)
#
#
# Indices 1 2 3 4 5 6 
#
# 1 114.8357 20.3137 62.4716 0.0000 9.7443 0.0000
# 2 20.3137 33.2473 21.9518 0.0000 -1.0679 0.0000
# 3 62.4716 21.9518 171.4053 0.0000 3.0081 0.0000
# 4 0.0000 0.0000 0.0000 4.9936 0.0000 0.4749
# 5 9.7443 -1.0679 3.0081 0.0000 32.9283 0.0000
# 6 0.0000 0.0000 0.0000 0.4749 0.0000 5.2963
#
#
#
# Elastic Compliance Matrix: (Units=1/GPa)
#
#
# Indices 1 2 3 4 5 6 
#
# 1 0.011836 -0.004948 -0.003622 0.000000 -0.003332 0.000000
# 2 -0.004948 0.034993 -0.002728 0.000000 0.002848 0.000000
# 3 -0.003622 -0.002728 0.007498 0.000000 0.000298 0.000000
# 4 0.000000 0.000000 0.000000 0.201978 0.000000 -0.018112
# 5 -0.003332 0.002848 0.000298 0.000000 0.031420 0.000000
# 6 0.000000 0.000000 0.000000 -0.018112 0.000000 0.190436
#
#
# Mechanical properties :
#
#
# Convention : Reuss Voigt Hill
#
# Bulk Modulus (GPa) = 31.51326 58.77360 45.14343
# Shear Modulus (GPa) = 9.77830 22.96038 16.36934
#
# Velocity S-wave (km/s) = 2.21342 3.39174 2.86384
# Velocity P-wave (km/s) = 4.72456 6.69223 5.79256
#
# Compressibility (1/GPa) = 0.03173267
#
# Stress axis : x y z
#
# Youngs Moduli (GPa) = 84.48540 28.57676 133.36255
#
# Poissons Ratio (x) = 0.14138 0.48302
# Poissons Ratio (y) = 0.41800 0.36386
# Poissons Ratio (z) = 0.30599 0.07797
#
# Static dielectric constant tensor:
#      x y z
#    x 3.708080 0.000000 0.022550 
#    y 0.000000 2.968960 0.000000 
#    z 0.022550 0.000000 3.975920 
# 
# 
# High freq. dielectric constant tensor:
#      x y z
#    x 1.784460 0.000000 0.000020 
#    y 0.000000 1.706420 0.000000 
#    z 0.000020 0.000000 1.799510 
# 
# From -- ./inp_files/90416.got.cif
#   From: 2010.06.25/outbox.cif.g09.slc.cpg/sg10_46_cif.got.tgz:90416.got - 2010.06.27 22:07:45.
