data_PCOD8059197
_publ_section_title
;
Structure prediction by ZEFSAII (Michael W. Deem and Ramdas Pophale) SiO2 
 PCOD8059197
Probable space group: P 2/M
;
_chemical_formula_sum "Si O2"
_cell_formula_units_Z 32
_cell_length_a 28.245819
_cell_length_b 8.948220
_cell_length_c 22.177601
_cell_angle_alpha 90.000000
_cell_angle_beta 161.722667
_cell_angle_gamma 90.000000
_cell_volume 1757.942822
_symmetry_space_group_name_H-M "P 2/M"
_symmetry_group_IT_number 10
_symmetry_cell_setting 'monoclinic'
loop_
_space_group_symop_operation_xyz
x,y,z
-x,y,-z
-x,-y,-z
x,-y,z
loop_
_atom_site_type_symbol
_atom_site_label
_atom_site_fract_x
_atom_site_fract_y
_atom_site_fract_z
Si Si1 0.707192 0.825112 0.801715
Si Si2 0.452440 0.671171 0.873561
Si Si3 0.148018 0.823692 0.471029
Si Si4 0.375648 0.825795 0.432687
Si Si5 0.009826 0.323001 0.414162
Si Si6 0.987596 0.676684 0.806967
Si Si7 0.768506 0.323989 0.214820
Si Si8 0.123106 0.323635 0.196071
O O1 0.553468 0.788265 0.652026
O O2 0.687647 0.774880 0.708798
O O3 0.745053 0.000000 0.851626
O O4 0.840484 0.730810 0.993061
O O5 0.407651 0.500000 0.803935
O O6 0.314885 0.779333 0.693649
O O7 0.500000 0.683878 0.000000
O O8 0.594526 0.728080 0.005122
O O9 0.024499 0.761773 0.368748
O O10 0.118174 0.752820 0.370119
O O11 0.133567 0.000000 0.449451
O O12 0.287960 0.739851 0.379383
O O13 0.348394 0.000000 0.408544
O O14 0.022784 0.500000 0.418331
O O15 0.140144 0.262252 0.616789
O O16 0.848446 0.278422 0.248696
O O17 0.981800 0.500000 0.792028
O O18 0.923452 0.729463 0.793822
O O19 0.776723 0.500000 0.232423
O O20 0.131721 0.500000 0.202354
O O21 0.000000 0.260107 0.000000
#
# Coordination Sequence:
#
# PCOD8059197 Si02
#       8
#     4   4   4   4   4   4   4   4
#     4   9  18  34  54  82 114 143 179 222 268 329
#     4  10  18  34  60  86 111 144 185 230 276 327
#     4  12  25  38  53  79 115 152 188 229 278 335
#     4   9  18  32  55  84 114 145 177 217 273 334
#     4   9  16  33  57  82 109 141 182 223 269 328
#     4  11  23  39  58  79 108 149 190 231 281 335
#     4   8  15  29  57  88 109 134 178 229 270 318
#     4  10  20  35  55  84 114 140 184 240 281 322
#
# _framework density 18.203094
#
# number of rings (size 3 to 8) (size 9 to 14) (size 15 to 20)
#    0.000    2.250    2.500    3.000    0.000    2.000 
#    0.000    4.375    0.000    1.500    0.000    0.000 
#    0.000    0.000    0.000    0.000    0.000    0.000 
#
# Total GULP energy -396778.375697 kJ/mol
# GULP energy per Si atom -12399.324241 kJ/mol
# Density = 1.816166 g / cm^3
# Si number density = 18.203094 Si / 1000 Ang^3
#
#
#
# Elastic Constant Matrix: (Units=GPa)
#
#
# Indices 1 2 3 4 5 6 
#
# 1 127.5813 44.7151 53.5690 0.0000 13.4764 0.0000
# 2 44.7151 62.1916 32.5679 0.0000 0.8142 0.0000
# 3 53.5690 32.5679 79.1718 0.0000 12.3088 0.0000
# 4 0.0000 0.0000 0.0000 28.3431 0.0000 2.2976
# 5 13.4764 0.8142 12.3088 0.0000 31.7185 0.0000
# 6 0.0000 0.0000 0.0000 2.2976 0.0000 18.5967
#
#
#
# Elastic Compliance Matrix: (Units=1/GPa)
#
#
# Indices 1 2 3 4 5 6 
#
# 1 0.012647 -0.006145 -0.005554 0.000000 -0.003060 0.000000
# 2 -0.006145 0.023737 -0.006298 0.000000 0.004445 0.000000
# 3 -0.005554 -0.006298 0.019781 0.000000 -0.005155 0.000000
# 4 0.000000 0.000000 0.000000 0.035639 0.000000 -0.004403
# 5 -0.003060 0.004445 -0.005155 0.000000 0.034714 0.000000
# 6 0.000000 0.000000 0.000000 -0.004403 0.000000 0.054317
#
#
# Mechanical properties :
#
#
# Convention : Reuss Voigt Hill
#
# Bulk Modulus (GPa) = 49.57353 58.96097 54.26725
# Shear Modulus (GPa) = 22.36626 24.93785 23.65205
#
# Velocity S-wave (km/s) = 3.50909 3.70534 3.60855
# Velocity P-wave (km/s) = 6.61143 7.12510 6.87306
#
# Compressibility (1/GPa) = 0.02017206
#
# Stress axis : x y z
#
# Youngs Moduli (GPa) = 79.07094 42.12805 50.55457
#
# Poissons Ratio (x) = 0.25886 0.28076
# Poissons Ratio (y) = 0.48586 0.31839
# Poissons Ratio (z) = 0.43913 0.26532
#
# Static dielectric constant tensor:
#      x y z
#    x 3.593780 0.000000 0.434520 
#    y 0.000000 3.095500 0.000000 
#    z 0.434520 0.000000 3.730960 
# 
# 
# High freq. dielectric constant tensor:
#      x y z
#    x 1.705380 0.000000 0.020780 
#    y 0.000000 1.684670 0.000000 
#    z 0.020780 0.000000 1.696080 
# 
# From -- ./inp_files/86978.got.cif
#   From: 2010.06.25/outbox.cif.g09.slc.cpg/sg10_44_cif.got.tgz:86978.got - 2010.06.27 22:07:45.
