data_PCOD8059147
_publ_section_title
;
Structure prediction by ZEFSAII (Michael W. Deem and Ramdas Pophale) SiO2 
 PCOD8059147
Probable space group: P 2/M
;
_chemical_formula_sum "Si O2"
_cell_formula_units_Z 32
_cell_length_a 27.271626
_cell_length_b 8.639165
_cell_length_c 21.239273
_cell_angle_alpha 90.000000
_cell_angle_beta 160.562712
_cell_angle_gamma 90.000000
_cell_volume 1665.225382
_symmetry_space_group_name_H-M "P 2/M"
_symmetry_group_IT_number 10
_symmetry_cell_setting 'monoclinic'
loop_
_space_group_symop_operation_xyz
x,y,z
-x,y,-z
-x,-y,-z
x,-y,z
loop_
_atom_site_type_symbol
_atom_site_label
_atom_site_fract_x
_atom_site_fract_y
_atom_site_fract_z
Si Si1 0.177950 0.678237 0.875581
Si Si2 0.492527 0.683718 0.721156
Si Si3 0.051038 0.182125 0.494967
Si Si4 0.438899 0.317249 0.517081
Si Si5 0.950251 0.322228 0.143568
Si Si6 0.276709 0.316190 0.568337
Si Si7 0.288464 0.819360 0.223548
Si Si8 0.655290 0.816240 0.214348
O O1 0.159992 0.500000 0.833177
O O2 0.068453 0.780782 0.702403
O O3 0.143763 0.698802 0.907346
O O4 0.342680 0.742549 0.064160
O O5 0.496577 0.500000 0.723305
O O6 0.434543 0.744343 0.583539
O O7 0.385670 0.745209 0.646160
O O8 0.000000 0.255674 0.500000
O O9 0.210896 0.248330 0.667239
O O10 0.064055 0.000000 0.517979
O O11 0.412571 0.500000 0.481118
O O12 0.597885 0.278834 0.680601
O O13 0.309965 0.229594 0.322494
O O14 0.955256 0.500000 0.127890
O O15 0.114032 0.258094 0.353420
O O16 0.876127 0.222397 0.998240
O O17 0.280298 0.500000 0.579828
O O18 0.327291 0.242708 0.694275
O O19 0.320254 0.000000 0.253799
O O20 0.657503 0.000000 0.217798
O O21 0.500000 0.752820 0.000000
#
# Coordination Sequence:
#
# PCOD8059147 Si02
#       8
#     4   4   4   4   4   4   4   4
#     4  10  19  35  57  82 108 137 181 230 273 316
#     4   9  19  35  56  82 110 139 176 226 273 319
#     4  10  22  38  55  79 111 144 181 222 267 321
#     4  10  18  34  56  79 112 148 181 222 276 324
#     4  10  19  35  57  80 106 143 183 222 272 325
#     4  10  21  38  59  82 108 139 182 228 268 320
#     4  11  21  32  52  83 114 143 183 228 270 318
#     4  10  22  39  56  77 110 148 181 217 268 329
#
# _framework density 19.216619999999999
#
# number of rings (size 3 to 8) (size 9 to 14) (size 15 to 20)
#    0.000    2.000    2.500    2.250    1.750    1.500 
#    0.000    1.875    0.000    3.750    0.000    0.000 
#    0.000    0.000    0.000    0.000    0.000    0.000 
#
# Total GULP energy -396823.728637 kJ/mol
# GULP energy per Si atom -12400.741520 kJ/mol
# Density = 1.917288 g / cm^3
# Si number density = 19.216620 Si / 1000 Ang^3
#
#
#
# Elastic Constant Matrix: (Units=GPa)
#
#
# Indices 1 2 3 4 5 6 
#
# 1 126.9023 15.9182 74.5535 0.0000 1.8567 0.0000
# 2 15.9182 24.9347 20.9793 0.0000 -3.7486 0.0000
# 3 74.5535 20.9793 167.9747 0.0000 -8.6507 0.0000
# 4 0.0000 0.0000 0.0000 21.4319 0.0000 2.8888
# 5 1.8567 -3.7486 -8.6507 0.0000 33.0318 0.0000
# 6 0.0000 0.0000 0.0000 2.8888 0.0000 3.0940
#
#
#
# Elastic Compliance Matrix: (Units=1/GPa)
#
#
# Indices 1 2 3 4 5 6 
#
# 1 0.011043 -0.003535 -0.004574 0.000000 -0.002220 0.000000
# 2 -0.003535 0.046389 -0.003997 0.000000 0.004416 0.000000
# 3 -0.004574 -0.003997 0.008588 0.000000 0.002053 0.000000
# 4 0.000000 0.000000 0.000000 0.053377 0.000000 -0.049836
# 5 -0.002220 0.004416 0.002053 0.000000 0.031437 0.000000
# 6 0.000000 0.000000 0.000000 -0.049836 0.000000 0.369734
#
#
# Mechanical properties :
#
#
# Convention : Reuss Voigt Hill
#
# Bulk Modulus (GPa) = 23.91936 60.30154 42.11045
# Shear Modulus (GPa) = 8.94907 25.40225 17.17566
#
# Velocity S-wave (km/s) = 2.16034 3.63972 2.99288
# Velocity P-wave (km/s) = 4.32400 7.00796 5.82273
#
# Compressibility (1/GPa) = 0.04180713
#
# Stress axis : x y z
#
# Youngs Moduli (GPa) = 90.55271 21.55702 116.43535
#
# Poissons Ratio (x) = 0.07621 0.53260
# Poissons Ratio (y) = 0.32011 0.46543
# Poissons Ratio (z) = 0.41421 0.08617
#
# Static dielectric constant tensor:
#      x y z
#    x 3.701930 0.000000 0.046540 
#    y 0.000000 3.234150 0.000000 
#    z 0.046540 0.000000 3.734930 
# 
# 
# High freq. dielectric constant tensor:
#      x y z
#    x 1.742590 0.000000 -0.009680 
#    y 0.000000 1.723430 0.000000 
#    z -0.009680 0.000000 1.759070 
# 
# From -- ./inp_files/86967.got.cif
#   From: 2010.06.25/outbox.cif.g09.slc.cpg/sg10_44_cif.got.tgz:86967.got - 2010.06.27 22:07:45.
