data_PCOD8059067
_publ_section_title
;
Structure prediction by ZEFSAII (Michael W. Deem and Ramdas Pophale) SiO2 
 PCOD8059067
Probable space group: P 2/M
;
_chemical_formula_sum "Si O2"
_cell_formula_units_Z 32
_cell_length_a 12.246646
_cell_length_b 8.998082
_cell_length_c 19.914486
_cell_angle_alpha 90.000000
_cell_angle_beta 54.816342
_cell_angle_gamma 90.000000
_cell_volume 1793.587797
_symmetry_space_group_name_H-M "P 2/M"
_symmetry_group_IT_number 10
_symmetry_cell_setting 'monoclinic'
loop_
_space_group_symop_operation_xyz
x,y,z
-x,y,-z
-x,-y,-z
x,-y,z
loop_
_atom_site_type_symbol
_atom_site_label
_atom_site_fract_x
_atom_site_fract_y
_atom_site_fract_z
Si Si1 0.146387 0.325167 0.206228
Si Si2 0.664435 0.671990 0.745058
Si Si3 0.390230 0.175680 0.873485
Si Si4 0.387973 0.329914 0.384110
Si Si5 0.644393 0.675633 0.977465
Si Si6 0.320461 0.671803 0.768004
Si Si7 0.646258 0.175154 0.470429
Si Si8 0.848784 0.325524 0.298138
O O1 0.136407 0.500000 0.201083
O O2 0.204838 0.282990 0.258850
O O3 0.244490 0.264015 0.113832
O O4 0.997951 0.258505 0.251770
O O5 0.624794 0.500000 0.772618
O O6 0.542126 0.770834 0.813088
O O7 0.694297 0.697361 0.655697
O O8 0.302468 0.230782 0.841256
O O9 0.385848 0.000000 0.878245
O O10 0.326042 0.242462 0.963331
O O11 0.376074 0.500000 0.412030
O O12 0.541920 0.285596 0.317868
O O13 0.325762 0.226162 0.463298
O O14 0.653728 0.500000 0.985565
O O15 0.500000 0.720604 0.000000
O O16 0.324621 0.500000 0.788273
O O17 0.199618 0.707163 0.760454
O O18 0.500000 0.232234 0.500000
O O19 0.756952 0.244070 0.383838
O O20 0.657001 0.000000 0.461949
O O21 0.842233 0.500000 0.316359
#
# Coordination Sequence:
#
# PCOD8059067 Si02
#       8
#     4   4   4   4   4   4   4   4
#     4   9  18  34  58  83 105 135 177 220 267 317
#     4   9  17  34  55  79 108 138 174 217 268 316
#     4  11  21  31  50  80 110 139 177 220 260 310
#     4   9  17  30  53  79 102 133 174 222 263 304
#     4  10  18  33  57  80 106 140 176 221 268 310
#     4   9  18  33  53  77 105 137 174 218 269 312
#     4  11  22  34  51  77 109 141 176 216 263 319
#     4  10  20  36  58  81 105 136 178 224 264 313
#
# _framework density 17.841335000000001
#
# number of rings (size 3 to 8) (size 9 to 14) (size 15 to 20)
#    0.000    2.250    2.500    2.250    0.000    3.250 
#    0.000    2.500    0.000    7.500    0.000    0.000 
#    0.000    0.000    0.000    0.000    0.000    0.000 
#
# Total GULP energy -396816.299501 kJ/mol
# GULP energy per Si atom -12400.509359 kJ/mol
# Density = 1.780073 g / cm^3
# Si number density = 17.841335 Si / 1000 Ang^3
#
#
#
# Elastic Constant Matrix: (Units=GPa)
#
#
# Indices 1 2 3 4 5 6 
#
# 1 137.4906 38.7921 74.8362 0.0000 4.1712 0.0000
# 2 38.7921 59.4453 48.7181 0.0000 7.2462 0.0000
# 3 74.8362 48.7181 125.9114 0.0000 7.0281 0.0000
# 4 0.0000 0.0000 0.0000 7.6332 0.0000 -3.9141
# 5 4.1712 7.2462 7.0281 0.0000 30.0945 0.0000
# 6 0.0000 0.0000 0.0000 -3.9141 0.0000 7.7542
#
#
#
# Elastic Compliance Matrix: (Units=1/GPa)
#
#
# Indices 1 2 3 4 5 6 
#
# 1 0.011039 -0.002721 -0.005532 0.000000 0.000417 0.000000
# 2 -0.002721 0.025730 -0.008119 0.000000 -0.003922 0.000000
# 3 -0.005532 -0.008119 0.014407 0.000000 -0.000643 0.000000
# 4 0.000000 0.000000 0.000000 0.176756 0.000000 0.089221
# 5 0.000417 -0.003922 -0.000643 0.000000 0.034265 0.000000
# 6 0.000000 0.000000 0.000000 0.089221 0.000000 0.173997
#
#
# Mechanical properties :
#
#
# Convention : Reuss Voigt Hill
#
# Bulk Modulus (GPa) = 54.25239 71.94891 63.10065
# Shear Modulus (GPa) = 10.52446 19.79646 15.16046
#
# Velocity S-wave (km/s) = 2.43140 3.33466 2.91819
# Velocity P-wave (km/s) = 6.19327 7.43244 6.84097
#
# Compressibility (1/GPa) = 0.01843237
#
# Stress axis : x y z
#
# Youngs Moduli (GPa) = 90.58627 38.86485 69.40956
#
# Poissons Ratio (x) = 0.10576 0.38394
# Poissons Ratio (y) = 0.24651 0.56356
# Poissons Ratio (z) = 0.50108 0.31555
#
# Static dielectric constant tensor:
#      x y z
#    x 3.503990 0.000000 0.162510 
#    y 0.000000 3.056510 0.000000 
#    z 0.162510 0.000000 3.283310 
# 
# 
# High freq. dielectric constant tensor:
#      x y z
#    x 1.685070 0.000000 0.022840 
#    y 0.000000 1.668580 0.000000 
#    z 0.022840 0.000000 1.684470 
# 
# From -- ./inp_files/79990.got.cif
#   From: 2010.06.25/outbox.cif.g09.slc.cpg/sg10_40_cif.got.tgz:79990.got - 2010.06.27 22:07:45.
