data_PCOD8059079
_publ_section_title
;
Structure prediction by ZEFSAII (Michael W. Deem and Ramdas Pophale) SiO2 
 PCOD8059079
Probable space group: P 2/M
;
_chemical_formula_sum "Si O2"
_cell_formula_units_Z 28
_cell_length_a 9.633638
_cell_length_b 8.819658
_cell_length_c 27.707633
_cell_angle_alpha 90.000000
_cell_angle_beta 141.344643
_cell_angle_gamma 90.000000
_cell_volume 1470.507958
_symmetry_space_group_name_H-M "P 2/M"
_symmetry_group_IT_number 10
_symmetry_cell_setting 'monoclinic'
loop_
_space_group_symop_operation_xyz
x,y,z
-x,y,-z
-x,-y,-z
x,-y,z
loop_
_atom_site_type_symbol
_atom_site_label
_atom_site_fract_x
_atom_site_fract_y
_atom_site_fract_z
Si Si1 0.157943 0.677592 0.632830
Si Si2 0.744616 0.823357 0.053014
Si Si3 0.540250 0.821074 0.364473
Si Si4 0.167617 0.320719 0.203433
Si Si5 0.463315 0.678628 0.196045
Si Si6 0.647356 0.677282 0.493858
Si Si7 0.760713 0.330534 0.958132
O O1 0.192241 0.500000 0.632339
O O2 0.253621 0.760020 0.611442
O O3 0.294606 0.727384 0.718047
O O4 0.903659 0.719461 0.573874
O O5 0.913982 0.734924 0.134135
O O6 0.780850 0.000000 0.071555
O O7 0.500000 0.768501 0.000000
O O8 0.778101 0.785165 0.006400
O O9 0.303915 0.753429 0.284079
O O10 0.568619 0.775026 0.427483
O O11 0.535270 0.000000 0.358259
O O12 0.177045 0.500000 0.212486
O O13 0.278372 0.263914 0.183602
O O14 0.440416 0.500000 0.186034
O O15 0.412286 0.740521 0.128434
O O16 0.500000 0.723047 0.500000
O O17 0.620895 0.500000 0.474641
O O18 0.687358 0.500000 0.955428
O O19 0.000000 0.343979 0.000000
#
# Coordination Sequence:
#
# PCOD8059079 Si02
#       7
#     4   4   4   4   4   4   4
#     4   9  18  35  59  83 111 148 192 239 278 324
#     4  11  24  39  53  78 120 158 189 229 281 335
#     4  11  22  36  58  87 116 146 183 229 288 345
#     4  10  19  37  62  84 109 144 191 237 279 329
#     4   8  15  30  54  83 109 134 178 242 288 317
#     4  10  21  38  58  82 115 152 194 235 278 331
#     4  10  18  33  57  83 109 142 190 239 282 329
#
# _framework density 19.041039999999999
#
# number of rings (size 3 to 8) (size 9 to 14) (size 15 to 20)
#    0.000    2.143    1.429    3.429    0.000    4.000 
#    2.571    0.714    0.000    0.000    0.000    0.000 
#    0.000    0.000    0.000    0.000    0.000    0.000 
#
# Total GULP energy -347152.924393 kJ/mol
# GULP energy per Si atom -12398.318728 kJ/mol
# Density = 1.899770 g / cm^3
# Si number density = 19.041040 Si / 1000 Ang^3
#
#
#
# Elastic Constant Matrix: (Units=GPa)
#
#
# Indices 1 2 3 4 5 6 
#
# 1 82.8484 37.9839 64.3350 0.0000 13.4703 0.0000
# 2 37.9839 75.4113 52.2530 0.0000 7.4951 0.0000
# 3 64.3350 52.2530 159.4741 0.0000 10.6647 0.0000
# 4 0.0000 0.0000 0.0000 25.8654 0.0000 1.4092
# 5 13.4703 7.4951 10.6647 0.0000 28.0659 0.0000
# 6 0.0000 0.0000 0.0000 1.4092 0.0000 19.9647
#
#
#
# Elastic Compliance Matrix: (Units=1/GPa)
#
#
# Indices 1 2 3 4 5 6 
#
# 1 0.020151 -0.005435 -0.005950 0.000000 -0.005959 0.000000
# 2 -0.005435 0.018795 -0.003904 0.000000 -0.000927 0.000000
# 3 -0.005950 -0.003904 0.009942 0.000000 0.000120 0.000000
# 4 0.000000 0.000000 0.000000 0.038811 0.000000 -0.002740
# 5 -0.005959 -0.000927 0.000120 0.000000 0.038693 0.000000
# 6 0.000000 0.000000 0.000000 -0.002740 0.000000 0.050282
#
#
# Mechanical properties :
#
#
# Convention : Reuss Voigt Hill
#
# Bulk Modulus (GPa) = 54.61192 69.65306 62.13249
# Shear Modulus (GPa) = 23.43502 25.65664 24.54583
#
# Velocity S-wave (km/s) = 3.51203 3.67473 3.59430
# Velocity P-wave (km/s) = 6.72229 7.39356 7.06590
#
# Compressibility (1/GPa) = 0.01831102
#
# Stress axis : x y z
#
# Youngs Moduli (GPa) = 49.62414 53.20480 100.58207
#
# Poissons Ratio (x) = 0.28916 0.59848
# Poissons Ratio (y) = 0.26970 0.39266
# Poissons Ratio (z) = 0.29527 0.20771
#
# Static dielectric constant tensor:
#      x y z
#    x 3.086460 0.000000 0.143150 
#    y 0.000000 3.277760 0.000000 
#    z 0.143150 0.000000 3.896300 
# 
# 
# High freq. dielectric constant tensor:
#      x y z
#    x 1.715540 0.000000 0.000000 
#    y 0.000000 1.721870 0.000000 
#    z 0.000000 0.000000 1.762160 
# 
# From -- ./inp_files/92105.got.cif
#   From: 2010.06.25/outbox.cif.g09.slc.cpg/sg10_47_cif.got.tgz:92105.got - 2010.06.27 22:07:45.
