data_PCOD8059003
_publ_section_title
;
Structure prediction by ZEFSAII (Michael W. Deem and Ramdas Pophale) SiO2 
 PCOD8059003
Probable space group: P 2/M
;
_chemical_formula_sum "Si O2"
_cell_formula_units_Z 18
_cell_length_a 11.242102
_cell_length_b 9.469200
_cell_length_c 8.694031
_cell_angle_alpha 90.000000
_cell_angle_beta 80.072130
_cell_angle_gamma 90.000000
_cell_volume 911.652870
_symmetry_space_group_name_H-M "P 2/M"
_symmetry_group_IT_number 10
_symmetry_cell_setting 'monoclinic'
loop_
_space_group_symop_operation_xyz
x,y,z
-x,y,-z
-x,-y,-z
x,-y,z
loop_
_atom_site_type_symbol
_atom_site_label
_atom_site_fract_x
_atom_site_fract_y
_atom_site_fract_z
Si Si1 0.170262 0.000000 0.598273
Si Si2 0.672810 0.500000 0.356826
Si Si3 0.372465 0.792098 0.493845
Si Si4 0.137341 0.500000 0.452347
Si Si5 0.096643 0.000000 0.262877
Si Si6 0.640617 0.500000 0.003602
Si Si7 0.248135 0.263063 0.225346
O O1 0.257533 0.864875 0.604667
O O2 0.121099 0.000000 0.437452
O O3 0.049876 0.000000 0.734761
O O4 0.608586 0.635999 0.443031
O O5 0.810229 0.500000 0.386727
O O6 0.667202 0.500000 0.176352
O O7 0.500000 0.870797 0.500000
O O8 0.354445 0.797885 0.311766
O O9 0.171059 0.359292 0.355898
O O10 0.000000 0.500000 0.500000
O O11 0.161522 0.139394 0.176240
O O12 0.698051 0.356493 0.923917
O O13 0.500000 0.500000 0.000000
#
# Coordination Sequence:
#
# PCOD8059003 Si02
#       7
#     2   2   4   2   2   2   4
#     4   9  19  30  55  81 105 142 172 227 280 323
#     4  10  21  32  55  81 108 142 184 221 279 315
#     4  10  18  33  53  83 110 136 180 230 274 323
#     4   9  19  33  58  84 109 138 180 230 274 324
#     4   9  18  34  54  79 109 137 187 222 271 328
#     4  11  21  39  56  79 113 151 184 223 273 328
#     4   9  20  34  56  82 107 144 182 224 276 323
#
# _framework density 19.744354999999999
#
# number of rings (size 3 to 8) (size 9 to 14) (size 15 to 20)
#    0.000    2.444    0.000    2.667    9.333    0.000 
#    0.000    3.889    0.000    1.333    0.000    0.000 
#    0.000    0.000    0.000    0.000    0.000    0.000 
#
# Total GULP energy -223016.979044 kJ/mol
# GULP energy per Si atom -12389.832169 kJ/mol
# Density = 1.969942 g / cm^3
# Si number density = 19.744355 Si / 1000 Ang^3
#
#
#
# Elastic Constant Matrix: (Units=GPa)
#
#
# Indices 1 2 3 4 5 6 
#
# 1 165.9994 49.2812 35.1146 0.0000 -10.1900 0.0000
# 2 49.2812 130.4284 24.2867 0.0000 -8.3312 0.0000
# 3 35.1146 24.2867 73.6626 0.0000 3.9869 0.0000
# 4 0.0000 0.0000 0.0000 10.9124 0.0000 -7.1513
# 5 -10.1900 -8.3312 3.9869 0.0000 19.5021 0.0000
# 6 0.0000 0.0000 0.0000 -7.1513 0.0000 3.0223
#
#
#
# Elastic Compliance Matrix: (Units=1/GPa)
#
#
# Indices 1 2 3 4 5 6 
#
# 1 0.007510 -0.002022 -0.003113 0.000000 0.003697 0.000000
# 2 -0.002022 0.009048 -0.002196 0.000000 0.003258 0.000000
# 3 -0.003113 -0.002196 0.016100 0.000000 -0.005856 0.000000
# 4 0.000000 0.000000 0.000000 -0.166420 0.000000 -0.393781
# 5 0.003697 0.003258 -0.005856 0.000000 0.055797 0.000000
# 6 0.000000 0.000000 0.000000 -0.393781 0.000000 -0.600884
#
#
# Mechanical properties :
#
#
# Convention : Reuss Voigt Hill
#
# Bulk Modulus (GPa) = 55.56621 65.27285 60.41953
# Shear Modulus (GPa) = -7.59661 24.11455 8.25897
#
# Velocity S-wave (km/s) = -1.96363 3.49856 2.04745
# Velocity P-wave (km/s) = 4.80238 7.03211 6.02136
#
# Compressibility (1/GPa) = 0.01799655
#
# Stress axis : x y z
#
# Youngs Moduli (GPa) = 133.15883 110.52351 62.11000
#
# Poissons Ratio (x) = 0.22344 0.19338
# Poissons Ratio (y) = 0.26920 0.13638
# Poissons Ratio (z) = 0.41458 0.24268
#
# Static dielectric constant tensor:
#      x y z
#    x 4.033960 0.000000 0.119030 
#    y 0.000000 3.983120 0.000000 
#    z 0.119030 0.000000 3.136050 
# 
# 
# High freq. dielectric constant tensor:
#      x y z
#    x 1.783070 0.000000 -0.000160 
#    y 0.000000 1.785550 0.000000 
#    z -0.000160 0.000000 1.715010 
# 
# From -- ./inp_files/22228.got.cif
#   From: 2010.06.25/outbox.cif.g09.slc.cpg/sg10_12_cif.got.tgz:22228.got - 2010.06.27 22:07:45.
