data_PCOD8059711
_publ_section_title
;
Structure prediction by ZEFSAII (Michael W. Deem and Ramdas Pophale) SiO2 
 PCOD8059711
Probable space group: P 2/M
;
_chemical_formula_sum "Si O2"
_cell_formula_units_Z 30
_cell_length_a 26.096891
_cell_length_b 12.709740
_cell_length_c 26.096912
_cell_angle_alpha 90.000000
_cell_angle_beta 168.549752
_cell_angle_gamma 90.000000
_cell_volume 1718.352127
_symmetry_space_group_name_H-M "P 2/M"
_symmetry_group_IT_number 10
_symmetry_cell_setting 'monoclinic'
loop_
_space_group_symop_operation_xyz
x,y,z
-x,y,-z
-x,-y,-z
x,-y,z
loop_
_atom_site_type_symbol
_atom_site_label
_atom_site_fract_x
_atom_site_fract_y
_atom_site_fract_z
Si Si1 0.894209 0.375582 0.605781
Si Si2 0.732912 0.500000 0.767093
Si Si3 0.530231 0.757797 0.969809
Si Si4 0.694774 0.307800 0.805236
Si Si5 0.266735 0.121845 0.233268
Si Si6 0.030317 0.884587 0.469721
Si Si7 0.165208 0.374369 0.334798
Si Si8 0.422514 0.624018 0.077484
O O1 0.896959 0.500000 0.603034
O O2 0.864542 0.342694 0.635432
O O3 0.159119 0.328265 0.842654
O O4 0.657346 0.328264 0.340879
O O5 0.500000 0.500000 0.500000
O O6 0.716649 0.394998 0.783369
O O7 0.000000 0.500000 0.000000
O O8 0.547147 0.652229 0.952852
O O9 0.785825 0.823389 0.208112
O O10 0.500000 0.726790 0.000000
O O11 0.291970 0.823418 0.714258
O O12 0.707564 0.192589 0.792451
O O13 0.427069 0.321660 0.572247
O O14 0.927739 0.321664 0.072922
O O15 0.500000 0.149409 0.500000
O O16 0.275472 0.000000 0.224535
O O17 0.000000 0.149405 0.000000
O O18 0.000000 0.897285 0.500000
O O19 0.043308 0.000000 0.456681
O O20 0.169821 0.500000 0.330193
O O21 0.420618 0.500000 0.079374
#
# Coordination Sequence:
#
# PCOD8059711 Si02
#       8
#     4   2   4   4   4   4   4   4
#     4   9  19  33  52  70  98 134 170 213 255 296
#     4  12  22  32  46  72 114 146 160 184 245 320
#     4  10  19  30  48  74 103 133 165 207 250 303
#     4  12  21  34  53  79 107 138 172 210 257 308
#     4  10  21  38  56  75 103 141 183 218 243 285
#     4   9  17  30  47  69  96 126 162 204 247 289
#     4  11  20  35  52  79 106 129 166 217 263 310
#     4  10  19  33  49  73 101 136 172 203 246 309
#
# _framework density 17.458587000000001
#
# number of rings (size 3 to 8) (size 9 to 14) (size 15 to 20)
#    0.000    1.733    1.333    4.400    0.000    4.000 
#    0.000    0.000    0.000    4.800    0.000   18.667 
#    0.000    0.000    0.000    0.000    0.000    0.000 
#
# Total GULP energy -372042.079801 kJ/mol
# GULP energy per Si atom -12401.402660 kJ/mol
# Density = 1.741885 g / cm^3
# Si number density = 17.458587 Si / 1000 Ang^3
#
#
#
# Elastic Constant Matrix: (Units=GPa)
#
#
# Indices 1 2 3 4 5 6 
#
# 1 122.3572 44.7852 67.4777 0.0000 11.0408 0.0000
# 2 44.7852 60.5283 36.1866 0.0000 -0.7271 0.0000
# 3 67.4777 36.1866 185.2505 0.0000 -5.3799 0.0000
# 4 0.0000 0.0000 0.0000 27.4522 0.0000 0.5991
# 5 11.0408 -0.7271 -5.3799 0.0000 88.5570 0.0000
# 6 0.0000 0.0000 0.0000 0.5991 0.0000 20.5999
#
#
#
# Elastic Compliance Matrix: (Units=1/GPa)
#
#
# Indices 1 2 3 4 5 6 
#
# 1 0.012947 -0.007643 -0.003278 0.000000 -0.001876 0.000000
# 2 -0.007643 0.023218 -0.001721 0.000000 0.001039 0.000000
# 3 -0.003278 -0.001721 0.006952 0.000000 0.000817 0.000000
# 4 0.000000 0.000000 0.000000 0.036450 0.000000 -0.001060
# 5 -0.001876 0.001039 0.000817 0.000000 0.011584 0.000000
# 6 0.000000 0.000000 0.000000 -0.001060 0.000000 0.048575
#
#
# Mechanical properties :
#
#
# Convention : Reuss Voigt Hill
#
# Bulk Modulus (GPa) = 56.07405 73.89276 64.98341
# Shear Modulus (GPa) = 29.24788 41.96760 35.60774
#
# Velocity S-wave (km/s) = 4.09745 4.90821 4.52104
# Velocity P-wave (km/s) = 7.38739 8.63349 8.03463
#
# Compressibility (1/GPa) = 0.01783356
#
# Stress axis : x y z
#
# Youngs Moduli (GPa) = 77.23860 43.07090 143.84575
#
# Poissons Ratio (x) = 0.32917 0.47146
# Poissons Ratio (y) = 0.59030 0.24760
# Poissons Ratio (z) = 0.25315 0.07414
#
# Static dielectric constant tensor:
#      x y z
#    x 3.172280 0.000000 0.045790 
#    y 0.000000 3.105150 0.000000 
#    z 0.045790 0.000000 3.692460 
# 
# 
# High freq. dielectric constant tensor:
#      x y z
#    x 1.666340 0.000000 0.003340 
#    y 0.000000 1.649190 0.000000 
#    z 0.003340 0.000000 1.704200 
# 
# From -- ./inp_files/94073.got.cif
#   From: 2010.06.25/outbox.cif.g09.slc.cpg/sg10_48_cif.got.tgz:94073.got - 2010.06.27 22:07:45.
