data_PCOD8059224
_publ_section_title
;
Structure prediction by ZEFSAII (Michael W. Deem and Ramdas Pophale) SiO2 
 PCOD8059224
Probable space group: P 2/M
;
_chemical_formula_sum "Si O2"
_cell_formula_units_Z 28
_cell_length_a 10.045942
_cell_length_b 8.495136
_cell_length_c 26.273423
_cell_angle_alpha 90.000000
_cell_angle_beta 140.926902
_cell_angle_gamma 90.000000
_cell_volume 1413.294914
_symmetry_space_group_name_H-M "P 2/M"
_symmetry_group_IT_number 10
_symmetry_cell_setting 'monoclinic'
loop_
_space_group_symop_operation_xyz
x,y,z
-x,y,-z
-x,-y,-z
x,-y,z
loop_
_atom_site_type_symbol
_atom_site_label
_atom_site_fract_x
_atom_site_fract_y
_atom_site_fract_z
Si Si1 0.539561 0.187730 0.068419
Si Si2 0.172079 0.812912 0.509603
Si Si3 0.235399 0.187194 0.065930
Si Si4 0.968705 0.814538 0.245215
Si Si5 0.504194 0.815340 0.241182
Si Si6 0.614886 0.184557 0.683084
Si Si7 0.944150 0.682494 0.348916
O O1 0.348968 0.246575 0.048154
O O2 0.760199 0.255447 0.155822
O O3 0.545100 0.000000 0.069516
O O4 0.500000 0.254377 0.000000
O O5 0.400106 0.747675 0.594878
O O6 0.000000 0.758437 0.500000
O O7 0.126986 0.734034 0.441921
O O8 0.167232 0.000000 0.502048
O O9 0.367687 0.247279 0.153506
O O10 0.224711 0.000000 0.063748
O O11 0.000000 0.258681 0.000000
O O12 0.967875 0.779169 0.304341
O O13 0.178081 0.739373 0.281607
O O14 0.968004 0.000000 0.236908
O O15 0.373989 0.778919 0.253609
O O16 0.721116 0.720788 0.308555
O O17 0.558185 0.000000 0.252312
O O18 0.614376 0.000000 0.672963
O O19 0.964210 0.500000 0.342201
#
# Coordination Sequence:
#
# PCOD8059224 Si02
#       7
#     4   4   4   4   4   4   4
#     4   9  17  28  47  79 114 143 172 220 277 324
#     4  10  19  36  60  84 110 139 181 232 283 334
#     4   9  17  27  47  82 115 140 172 223 279 325
#     4  10  20  37  57  81 113 148 185 224 276 334
#     4  10  18  35  58  83 113 147 186 228 278 329
#     4   9  19  33  57  86 107 138 184 232 275 330
#     4  12  24  37  56  81 111 151 191 227 272 327
#
# _framework density 19.811858000000001
#
# number of rings (size 3 to 8) (size 9 to 14) (size 15 to 20)
#    0.000    2.143    2.857    1.286    2.000    0.857 
#    0.000    4.286    0.000    0.857    0.000    0.000 
#    0.000    0.000    0.000    0.000    0.000    0.000 
#
# Total GULP energy -347204.588307 kJ/mol
# GULP energy per Si atom -12400.163868 kJ/mol
# Density = 1.976677 g / cm^3
# Si number density = 19.811858 Si / 1000 Ang^3
#
#
#
# Elastic Constant Matrix: (Units=GPa)
#
#
# Indices 1 2 3 4 5 6 
#
# 1 148.5892 2.6551 85.6753 0.0000 6.8653 0.0000
# 2 2.6551 13.7325 9.1044 0.0000 3.1218 0.0000
# 3 85.6753 9.1044 155.1852 0.0000 -4.1529 0.0000
# 4 0.0000 0.0000 0.0000 2.6147 0.0000 0.8345
# 5 6.8653 3.1218 -4.1529 0.0000 44.4277 0.0000
# 6 0.0000 0.0000 0.0000 0.8345 0.0000 2.8226
#
#
#
# Elastic Compliance Matrix: (Units=1/GPa)
#
#
# Indices 1 2 3 4 5 6 
#
# 1 0.010135 0.002401 -0.005797 0.000000 -0.002277 0.000000
# 2 0.002401 0.077832 -0.006063 0.000000 -0.006407 0.000000
# 3 -0.005797 -0.006063 0.010061 0.000000 0.002262 0.000000
# 4 0.000000 0.000000 0.000000 0.422301 0.000000 -0.124846
# 5 -0.002277 -0.006407 0.002262 0.000000 0.023522 0.000000
# 6 0.000000 0.000000 0.000000 -0.124846 0.000000 0.391189
#
#
# Mechanical properties :
#
#
# Convention : Reuss Voigt Hill
#
# Bulk Modulus (GPa) = 12.64079 56.93074 34.78576
# Shear Modulus (GPa) = 5.10034 24.64447 14.87240
#
# Velocity S-wave (km/s) = 1.60623 3.53076 2.74283
# Velocity P-wave (km/s) = 3.13596 6.73942 5.25614
#
# Compressibility (1/GPa) = 0.07910900
#
# Stress axis : x y z
#
# Youngs Moduli (GPa) = 98.66997 12.84821 99.39707
#
# Poissons Ratio (x) = -0.03085 0.57621
# Poissons Ratio (y) = -0.23694 0.60269
# Poissons Ratio (z) = 0.57200 0.07790
#
# Static dielectric constant tensor:
#      x y z
#    x 3.778300 0.000000 0.116440 
#    y 0.000000 2.970730 0.000000 
#    z 0.116440 0.000000 3.921450 
# 
# 
# High freq. dielectric constant tensor:
#      x y z
#    x 1.782220 0.000000 -0.003190 
#    y 0.000000 1.708870 0.000000 
#    z -0.003190 0.000000 1.786180 
# 
# From -- ./inp_files/79317.got.cif
#   From: 2010.06.25/outbox.cif.g09.slc.cpg/sg10_40_cif.got.tgz:79317.got - 2010.06.27 22:07:45.
