data_PCOD8059074
_publ_section_title
;
Structure prediction by ZEFSAII (Michael W. Deem and Ramdas Pophale) SiO2 
 PCOD8059074
Probable space group: P 2/M
;
_chemical_formula_sum "Si O2"
_cell_formula_units_Z 32
_cell_length_a 24.991574
_cell_length_b 9.215148
_cell_length_c 20.227717
_cell_angle_alpha 90.000000
_cell_angle_beta 157.521205
_cell_angle_gamma 90.000000
_cell_volume 1781.124227
_symmetry_space_group_name_H-M "P 2/M"
_symmetry_group_IT_number 10
_symmetry_cell_setting 'monoclinic'
loop_
_space_group_symop_operation_xyz
x,y,z
-x,y,-z
-x,-y,-z
x,-y,z
loop_
_atom_site_type_symbol
_atom_site_label
_atom_site_fract_x
_atom_site_fract_y
_atom_site_fract_z
Si Si1 0.774459 0.171261 0.619221
Si Si2 0.152939 0.827931 0.159113
Si Si3 0.671858 0.668326 0.028374
Si Si4 0.351764 0.667668 0.640851
Si Si5 0.155867 0.830459 0.880375
Si Si6 0.091535 0.828139 0.950447
Si Si7 0.842350 0.167033 0.330813
Si Si8 0.843415 0.835568 0.483454
O O1 0.746996 0.218765 0.665328
O O2 0.663224 0.253478 0.446899
O O3 0.930303 0.219744 0.775161
O O4 0.753223 0.000000 0.586114
O O5 0.146166 0.000000 0.151022
O O6 0.187456 0.775016 0.123139
O O7 0.000000 0.765579 0.000000
O O8 0.711535 0.500000 0.071195
O O9 0.726670 0.743051 0.024412
O O10 0.737294 0.737671 0.168335
O O11 0.506700 0.693580 0.844706
O O12 0.318155 0.500000 0.591817
O O13 0.244071 0.728469 0.571295
O O14 0.153238 0.767092 0.952361
O O15 0.007482 0.801133 0.676279
O O16 0.194239 0.000000 0.922414
O O17 0.093374 0.000000 0.947998
O O18 0.797191 0.185459 0.355144
O O19 0.000000 0.223120 0.500000
O O20 0.831420 0.000000 0.294927
O O21 0.814933 0.000000 0.475106
#
# Coordination Sequence:
#
# PCOD8059074 Si02
#       8
#     4   4   4   4   4   4   4   4
#     4   9  15  28  51  76 104 138 175 214 259 312
#     4   7  11  20  41  75 107 132 162 208 265 311
#     4  11  25  40  53  75 108 145 181 214 256 313
#     4  11  24  38  51  74 111 147 179 217 257 305
#     4  10  18  33  57  82 107 135 173 221 266 311
#     4   8  13  24  47  80 109 130 163 216 269 311
#     4  10  20  38  61  83 107 132 167 218 267 313
#     4  10  20  36  60  85 105 131 172 218 264 315
#
# _framework density 17.966179
#
# number of rings (size 3 to 8) (size 9 to 14) (size 15 to 20)
#    0.000    2.500    2.500    2.250    0.000    3.750 
#    0.000    2.500    0.000    4.875    0.000    5.250 
#    0.000    0.000    0.000    0.000    0.000    0.000 
#
# Total GULP energy -396568.022243 kJ/mol
# GULP energy per Si atom -12392.750695 kJ/mol
# Density = 1.792529 g / cm^3
# Si number density = 17.966179 Si / 1000 Ang^3
#
#
#
# Elastic Constant Matrix: (Units=GPa)
#
#
# Indices 1 2 3 4 5 6 
#
# 1 78.9603 28.8535 26.0500 0.0000 -26.2804 0.0000
# 2 28.8535 65.6868 40.5215 0.0000 -6.0705 0.0000
# 3 26.0500 40.5215 65.1360 0.0000 -18.0378 0.0000
# 4 0.0000 0.0000 0.0000 13.7941 0.0000 12.7231
# 5 -26.2804 -6.0705 -18.0378 0.0000 29.9424 0.0000
# 6 0.0000 0.0000 0.0000 12.7231 0.0000 6.1315
#
#
#
# Elastic Compliance Matrix: (Units=1/GPa)
#
#
# Indices 1 2 3 4 5 6 
#
# 1 0.021280 -0.008954 0.002076 0.000000 0.018113 0.000000
# 2 -0.008954 0.029139 -0.018108 0.000000 -0.012860 0.000000
# 3 0.002076 -0.018108 0.030336 0.000000 0.016426 0.000000
# 4 0.000000 0.000000 0.000000 -0.079321 0.000000 0.164595
# 5 0.018113 -0.012860 0.016426 0.000000 0.056583 0.000000
# 6 0.000000 0.000000 0.000000 0.164595 0.000000 -0.178450
#
#
# Mechanical properties :
#
#
# Convention : Reuss Voigt Hill
#
# Bulk Modulus (GPa) = 32.48568 44.51478 38.50023
# Shear Modulus (GPa) = -83.05646 17.59746 -32.72950
#
# Velocity S-wave (km/s) = -6.80659 3.13305 -4.27280
# Velocity P-wave (km/s) = 6.60697 6.15783 1.69312
#
# Compressibility (1/GPa) = 0.03078280
#
# Stress axis : x y z
#
# Youngs Moduli (GPa) = 46.99196 34.31838 32.96420
#
# Poissons Ratio (x) = 0.30729 -0.06842
# Poissons Ratio (y) = 0.42077 0.59691
# Poissons Ratio (z) = -0.09753 0.62143
#
# Static dielectric constant tensor:
#      x y z
#    x 3.628260 0.000000 -0.416470 
#    y 0.000000 3.031990 0.000000 
#    z -0.416470 0.000000 3.253870 
# 
# 
# High freq. dielectric constant tensor:
#      x y z
#    x 1.704430 0.000000 -0.030580 
#    y 0.000000 1.662680 0.000000 
#    z -0.030580 0.000000 1.677390 
# 
# From -- ./inp_files/86990.got.cif
#   From: 2010.06.25/outbox.cif.g09.slc.cpg/sg10_44_cif.got.tgz:86990.got - 2010.06.27 22:07:45.
