data_PCOD8059712
_publ_section_title
;
Structure prediction by ZEFSAII (Michael W. Deem and Ramdas Pophale) SiO2 
 PCOD8059712
Probable space group: P 2/M
;
_chemical_formula_sum "Si O2"
_cell_formula_units_Z 28
_cell_length_a 21.228157
_cell_length_b 9.367095
_cell_length_c 19.768393
_cell_angle_alpha 90.000000
_cell_angle_beta 21.337170
_cell_angle_gamma 90.000000
_cell_volume 1430.268651
_symmetry_space_group_name_H-M "P 2/M"
_symmetry_group_IT_number 10
_symmetry_cell_setting 'monoclinic'
loop_
_space_group_symop_operation_xyz
x,y,z
-x,y,-z
-x,-y,-z
x,-y,z
loop_
_atom_site_type_symbol
_atom_site_label
_atom_site_fract_x
_atom_site_fract_y
_atom_site_fract_z
Si Si1 0.295082 0.164289 0.003884
Si Si2 0.500111 0.669269 0.575157
Si Si3 0.294301 0.660057 0.131158
Si Si4 0.295427 0.164283 0.405729
Si Si5 0.193895 0.663639 0.635889
Si Si6 0.705572 0.660049 0.719753
Si Si7 0.194093 0.336350 0.976250
O O1 0.223343 0.232072 0.145409
O O2 0.203563 0.243019 0.033881
O O3 0.240071 0.000000 0.058019
O O4 0.499828 0.184642 0.792234
O O5 0.500000 0.736671 0.500000
O O6 0.499833 0.500000 0.569826
O O7 0.671817 0.722383 0.442540
O O8 0.328738 0.722601 0.785860
O O9 0.228482 0.500000 0.180600
O O10 0.227276 0.707169 0.272815
O O11 0.499935 0.662455 0.925239
O O12 0.203934 0.242939 0.558799
O O13 0.223570 0.232060 0.407853
O O14 0.240426 0.000000 0.461610
O O15 0.239485 0.500000 0.571534
O O16 0.999795 0.675583 0.859979
O O17 0.771375 0.500000 0.637528
O O18 0.239622 0.500000 0.949463
#
# Coordination Sequence:
#
# PCOD8059712 Si02
#       7
#     4   4   4   4   4   4   4
#     4  10  19  30  48  74 105 143 183 224 270 317
#     4   9  18  34  57  85 114 139 168 215 267 314
#     4   8  14  25  43  69 101 138 180 225 272 321
#     4  10  19  30  48  74 105 143 183 224 270 317
#     4  10  20  34  55  81 108 142 180 217 263 317
#     4   8  14  25  43  69 101 138 180 225 272 321
#     4  10  20  34  55  81 108 142 180 217 263 317
#
# _framework density 19.576740999999998
#
# number of rings (size 3 to 8) (size 9 to 14) (size 15 to 20)
#    0.000    2.714    1.429    1.714    0.000    2.857 
#    0.000    5.714    0.000    2.571    0.000    8.000 
#    0.000    0.000    0.000    0.000    0.000    0.000 
#
# Total GULP energy -347128.433712 kJ/mol
# GULP energy per Si atom -12397.444061 kJ/mol
# Density = 1.953218 g / cm^3
# Si number density = 19.576741 Si / 1000 Ang^3
#
#
#
# Elastic Constant Matrix: (Units=GPa)
#
#
# Indices 1 2 3 4 5 6 
#
# 1 133.2210 58.3049 74.5337 0.0000 32.5582 0.0000
# 2 58.3049 90.0124 37.7951 0.0000 12.4940 0.0000
# 3 74.5337 37.7951 79.1954 0.0000 -0.3099 0.0000
# 4 0.0000 0.0000 0.0000 10.6702 0.0000 -3.3061
# 5 32.5582 12.4940 -0.3099 0.0000 22.6295 0.0000
# 6 0.0000 0.0000 0.0000 -3.3061 0.0000 5.2367
#
#
#
# Elastic Compliance Matrix: (Units=1/GPa)
#
#
# Indices 1 2 3 4 5 6 
#
# 1 0.066268 -0.004474 -0.060599 0.000000 -0.093703 0.000000
# 2 -0.004474 0.015707 -0.003295 0.000000 -0.002281 0.000000
# 3 -0.060599 -0.003295 0.071584 0.000000 0.089987 0.000000
# 4 0.000000 0.000000 0.000000 0.116511 0.000000 0.073558
# 5 -0.093703 -0.002281 0.089987 0.000000 0.181497 0.000000
# 6 0.000000 0.000000 0.000000 0.073558 0.000000 0.237401
#
#
# Mechanical properties :
#
#
# Convention : Reuss Voigt Hill
#
# Bulk Modulus (GPa) = 59.43867 71.52181 65.48024
# Shear Modulus (GPa) = 6.01459 16.49361 11.25410
#
# Velocity S-wave (km/s) = 1.75470 2.90575 2.40025
# Velocity P-wave (km/s) = 5.87649 6.91890 6.41889
#
# Compressibility (1/GPa) = 0.01682406
#
# Stress axis : x y z
#
# Youngs Moduli (GPa) = 15.09017 63.66432 13.96966
#
# Poissons Ratio (x) = 0.28481 0.84655
# Poissons Ratio (y) = 0.06751 0.04603
# Poissons Ratio (z) = 0.91445 0.20976
#
# Static dielectric constant tensor:
#      x y z
#    x 3.719900 0.000000 0.162610 
#    y 0.000000 3.414450 0.000000 
#    z 0.162610 0.000000 3.452400 
# 
# 
# High freq. dielectric constant tensor:
#      x y z
#    x 1.759250 0.000000 0.005100 
#    y 0.000000 1.736020 0.000000 
#    z 0.005100 0.000000 1.750710 
# 
# From -- ./inp_files/86435.got.cif
#   From: 2010.06.25/outbox.cif.g09.slc.cpg/sg10_44_cif.got.tgz:86435.got - 2010.06.27 22:07:45.
