data_PCOD8059990
_publ_section_title
;
Structure prediction by ZEFSAII (Michael W. Deem and Ramdas Pophale) SiO2 
 PCOD8059990
Probable space group: P 2/M
;
_chemical_formula_sum "Si O2"
_cell_formula_units_Z 32
_cell_length_a 25.415661
_cell_length_b 8.946078
_cell_length_c 16.573765
_cell_angle_alpha 90.000000
_cell_angle_beta 153.923083
_cell_angle_gamma 90.000000
_cell_volume 1656.496661
_symmetry_space_group_name_H-M "P 2/M"
_symmetry_group_IT_number 10
_symmetry_cell_setting 'monoclinic'
loop_
_space_group_symop_operation_xyz
x,y,z
-x,y,-z
-x,-y,-z
x,-y,z
loop_
_atom_site_type_symbol
_atom_site_label
_atom_site_fract_x
_atom_site_fract_y
_atom_site_fract_z
Si Si1 0.748746 0.822870 0.487358
Si Si2 0.777452 0.176091 0.266157
Si Si3 0.612691 0.170458 0.601391
Si Si4 0.336596 0.676189 0.038486
Si Si5 0.608853 0.324625 0.428657
Si Si6 0.780671 0.827535 0.976465
Si Si7 0.048752 0.176868 0.354947
Si Si8 0.366273 0.661551 0.807064
O O1 0.719362 0.756975 0.535006
O O2 0.872442 0.768319 0.613937
O O3 0.644199 0.755177 0.288999
O O4 0.742817 0.000000 0.483669
O O5 0.761915 0.251880 0.157559
O O6 0.893945 0.226861 0.479596
O O7 0.665045 0.230352 0.162433
O O8 0.776919 0.000000 0.252333
O O9 0.500000 0.217944 0.500000
O O10 0.622521 0.281747 0.540526
O O11 0.596718 0.000000 0.548478
O O12 0.733061 0.186733 0.819872
O O13 0.321685 0.500000 0.012739
O O14 0.304640 0.732156 0.083521
O O15 0.475538 0.721728 0.213146
O O16 0.627415 0.500000 0.444178
O O17 0.914970 0.759635 0.163813
O O18 0.778682 0.000000 0.002391
O O19 0.047242 0.000000 0.349658
O O20 0.295536 0.500000 0.709080
O O21 0.500000 0.614081 0.000000
#
# Coordination Sequence:
#
# PCOD8059990 Si02
#       8
#     4   4   4   4   4   4   4   4
#     4  10  20  35  56  80 108 143 188 230 265 319
#     4  10  20  34  53  77 107 146 191 229 265 317
#     4  10  20  36  60  89 111 135 180 229 276 330
#     4  11  23  36  52  81 116 147 184 227 279 331
#     4  11  23  37  56  82 116 150 179 222 282 336
#     4  10  20  38  62  82 108 143 181 228 278 331
#     4   8  18  37  58  81 108 145 187 226 272 321
#     4  10  19  31  48  73 108 145 182 225 278 330
#
# _framework density 19.317879000000001
#
# number of rings (size 3 to 8) (size 9 to 14) (size 15 to 20)
#    0.000    2.000    1.250    3.375    0.000    6.750 
#    0.000    6.875    0.000    3.750    0.000    0.000 
#    0.000    0.000    0.000    0.000    0.000    0.000 
#
# Total GULP energy -396543.921468 kJ/mol
# GULP energy per Si atom -12391.997546 kJ/mol
# Density = 1.927391 g / cm^3
# Si number density = 19.317879 Si / 1000 Ang^3
#
#
#
# Elastic Constant Matrix: (Units=GPa)
#
#
# Indices 1 2 3 4 5 6 
#
# 1 71.6012 28.1594 28.3303 0.0000 -10.3342 0.0000
# 2 28.1594 70.8677 30.8768 0.0000 -2.6104 0.0000
# 3 28.3303 30.8768 92.2605 0.0000 1.1160 0.0000
# 4 0.0000 0.0000 0.0000 -10.8958 0.0000 35.6749
# 5 -10.3342 -2.6104 1.1160 0.0000 24.9793 0.0000
# 6 0.0000 0.0000 0.0000 35.6749 0.0000 -31.2742
#
#
#
# Elastic Compliance Matrix: (Units=1/GPa)
#
#
# Indices 1 2 3 4 5 6 
#
# 1 0.018761 -0.005425 -0.004034 0.000000 0.007375 0.000000
# 2 -0.005425 0.018186 -0.004419 0.000000 -0.000147 0.000000
# 3 -0.004034 -0.004419 0.013590 0.000000 -0.002738 0.000000
# 4 0.000000 0.000000 0.000000 0.033558 0.000000 0.038280
# 5 0.007375 -0.000147 -0.002738 0.000000 0.043191 0.000000
# 6 0.000000 0.000000 0.000000 0.038280 0.000000 0.011692
#
#
# Mechanical properties :
#
#
# Convention : Reuss Voigt Hill
#
# Bulk Modulus (GPa) = 43.89812 45.49582 44.69697
# Shear Modulus (GPa) = 28.68169 6.38604 17.53386
#
# Velocity S-wave (km/s) = 3.85739 1.82015 3.01599
# Velocity P-wave (km/s) = 6.52784 5.29335 5.94274
#
# Compressibility (1/GPa) = 0.02278002
#
# Stress axis : x y z
#
# Youngs Moduli (GPa) = 53.30344 54.98635 73.58541
#
# Poissons Ratio (x) = 0.29831 0.29687
# Poissons Ratio (y) = 0.28918 0.32516
# Poissons Ratio (z) = 0.21504 0.24297
#
# Static dielectric constant tensor:
#      x y z
#    x 3.563700 0.000000 0.055880 
#    y 0.000000 3.421610 0.000000 
#    z 0.055880 0.000000 3.634300 
# 
# 
# High freq. dielectric constant tensor:
#      x y z
#    x 1.748310 0.000000 -0.005100 
#    y 0.000000 1.748690 0.000000 
#    z -0.005100 0.000000 1.739430 
# 
# From -- ./inp_files/71499.got.cif
#   From: 2010.06.25/outbox.cif.g09.slc.cpg/sg10_36_cif.got.tgz:71499.got - 2010.06.27 22:07:45.
