data_PCOD8059120
_publ_section_title
;
Structure prediction by ZEFSAII (Michael W. Deem and Ramdas Pophale) SiO2 
 PCOD8059120
Probable space group: P 2/M
;
_chemical_formula_sum "Si O2"
_cell_formula_units_Z 28
_cell_length_a 13.611432
_cell_length_b 9.216555
_cell_length_c 17.433133
_cell_angle_alpha 90.000000
_cell_angle_beta 43.913289
_cell_angle_gamma 90.000000
_cell_volume 1516.832102
_symmetry_space_group_name_H-M "P 2/M"
_symmetry_group_IT_number 10
_symmetry_cell_setting 'monoclinic'
loop_
_space_group_symop_operation_xyz
x,y,z
-x,y,-z
-x,-y,-z
x,-y,z
loop_
_atom_site_type_symbol
_atom_site_label
_atom_site_fract_x
_atom_site_fract_y
_atom_site_fract_z
Si Si1 0.648306 0.335517 0.806291
Si Si2 0.817659 0.829855 0.836482
Si Si3 0.288773 0.331139 0.401102
Si Si4 0.677346 0.332396 0.047344
Si Si5 0.338985 0.332009 0.612728
Si Si6 0.399710 0.670631 0.746459
Si Si7 0.134497 0.829189 0.613864
O O1 0.678684 0.500000 0.815939
O O2 0.708062 0.226774 0.835213
O O3 0.724743 0.305485 0.682160
O O4 0.481204 0.309791 0.894269
O O5 0.975176 0.785954 0.723908
O O6 0.797627 0.000000 0.855006
O O7 0.786937 0.760173 0.936343
O O8 0.270389 0.500000 0.432308
O O9 0.439783 0.268811 0.346006
O O10 0.167847 0.241060 0.512569
O O11 0.722494 0.500000 0.016666
O O12 0.685565 0.273214 0.130778
O O13 0.500000 0.299758 0.500000
O O14 0.302064 0.500000 0.617941
O O15 0.317319 0.291183 0.714720
O O16 0.236031 0.231888 0.622506
O O17 0.419357 0.500000 0.747003
O O18 0.156231 0.000000 0.596359
#
# Coordination Sequence:
#
# PCOD8059120 Si02
#       7
#     4   4   4   4   4   4   4
#     4   9  19  35  59  85 105 131 175 228 273 311
#     4  11  24  38  50  71 110 152 183 215 258 311
#     4   9  17  34  57  81 107 135 171 219 270 319
#     4   9  18  35  59  82 105 133 174 224 266 311
#     4  10  18  33  60  85 105 134 172 217 268 319
#     4   8  15  31  56  85 108 127 163 220 273 312
#     4  11  24  37  49  74 113 149 179 214 259 313
#
# _framework density 18.459523999999998
#
# number of rings (size 3 to 8) (size 9 to 14) (size 15 to 20)
#    0.000    2.429    1.429    3.000    0.000    6.000 
#    0.000    6.429    0.000    4.286    0.000    0.000 
#    0.000    0.000    0.000    0.000    0.000    0.000 
#
# Total GULP energy -347182.350214 kJ/mol
# GULP energy per Si atom -12399.369651 kJ/mol
# Density = 1.841751 g / cm^3
# Si number density = 18.459524 Si / 1000 Ang^3
#
#
#
# Elastic Constant Matrix: (Units=GPa)
#
#
# Indices 1 2 3 4 5 6 
#
# 1 30.4616 13.0738 17.6366 0.0000 12.7056 0.0000
# 2 13.0738 57.3833 50.5784 0.0000 1.3160 0.0000
# 3 17.6366 50.5784 127.7142 0.0000 15.4195 0.0000
# 4 0.0000 0.0000 0.0000 16.6831 0.0000 -14.6365
# 5 12.7056 1.3160 15.4195 0.0000 22.3564 0.0000
# 6 0.0000 0.0000 0.0000 -14.6365 0.0000 10.1343
#
#
#
# Elastic Compliance Matrix: (Units=1/GPa)
#
#
# Indices 1 2 3 4 5 6 
#
# 1 0.048673 -0.011501 0.001190 0.000000 -0.027806 0.000000
# 2 -0.011501 0.030317 -0.011990 0.000000 0.013021 0.000000
# 3 0.001190 -0.011990 0.013538 0.000000 -0.009308 0.000000
# 4 0.000000 0.000000 0.000000 -0.224434 0.000000 -0.324140
# 5 -0.027806 0.013021 -0.009308 0.000000 0.066186 0.000000
# 6 0.000000 0.000000 0.000000 -0.324140 0.000000 -0.369464
#
#
# Mechanical properties :
#
#
# Convention : Reuss Voigt Hill
#
# Bulk Modulus (GPa) = 20.86544 42.01517 31.44031
# Shear Modulus (GPa) = -13.34724 18.78612 2.71944
#
# Velocity S-wave (km/s) = -2.69188 3.19359 1.21507
# Velocity P-wave (km/s) = 1.29083 6.03397 4.36320
#
# Compressibility (1/GPa) = 0.04792614
#
# Stress axis : x y z
#
# Youngs Moduli (GPa) = 20.54530 32.98531 73.86723
#
# Poissons Ratio (x) = 0.37935 -0.08792
# Poissons Ratio (y) = 0.23629 0.88568
# Poissons Ratio (z) = -0.02445 0.39550
#
# Static dielectric constant tensor:
#      x y z
#    x 3.331080 0.000000 0.234910 
#    y 0.000000 3.160320 0.000000 
#    z 0.234910 0.000000 3.602120 
# 
# 
# High freq. dielectric constant tensor:
#      x y z
#    x 1.704990 0.000000 0.020390 
#    y 0.000000 1.693710 0.000000 
#    z 0.020390 0.000000 1.725640 
# 
# From -- ./inp_files/77702.got.cif
#   From: 2010.06.25/outbox.cif.g09.slc.cpg/sg10_39_cif.got.tgz:77702.got - 2010.06.27 22:07:45.
