data_PCOD8059360
_publ_section_title
;
Structure prediction by ZEFSAII (Michael W. Deem and Ramdas Pophale) SiO2 
 PCOD8059360
Probable space group: P 2/M
;
_chemical_formula_sum "Si O2"
_cell_formula_units_Z 32
_cell_length_a 26.742670
_cell_length_b 9.672852
_cell_length_c 13.301708
_cell_angle_alpha 90.000000
_cell_angle_beta 37.261559
_cell_angle_gamma 90.000000
_cell_volume 2083.283023
_symmetry_space_group_name_H-M "P 2/M"
_symmetry_group_IT_number 10
_symmetry_cell_setting 'monoclinic'
loop_
_space_group_symop_operation_xyz
x,y,z
-x,y,-z
-x,-y,-z
x,-y,z
loop_
_atom_site_type_symbol
_atom_site_label
_atom_site_fract_x
_atom_site_fract_y
_atom_site_fract_z
Si Si1 0.538127 0.158534 0.545239
Si Si2 0.499469 0.657947 0.793540
Si Si3 0.281889 0.847010 0.683665
Si Si4 0.583393 0.148636 0.927192
Si Si5 0.985589 0.155656 0.141965
Si Si6 0.847757 0.352952 0.338418
Si Si7 0.670639 0.254537 0.603989
Si Si8 0.868367 0.344619 0.072119
O O1 0.500000 0.200394 0.500000
O O2 0.500625 0.261065 0.687171
O O3 0.636738 0.177852 0.380090
O O4 0.516643 0.000000 0.608857
O O5 0.473988 0.500000 0.815128
O O6 0.588616 0.659142 0.706161
O O7 0.426934 0.728339 0.975804
O O8 0.305881 0.843593 0.527052
O O9 0.217059 0.730679 0.821201
O O10 0.244645 0.000000 0.762932
O O11 0.656070 0.172404 0.730559
O O12 0.600300 0.000000 0.953867
O O13 0.500000 0.136419 0.000000
O O14 0.896654 0.225355 0.310843
O O15 0.986365 0.000000 0.185162
O O16 0.000000 0.148399 0.000000
O O17 0.055256 0.248863 0.085888
O O18 0.874980 0.500000 0.343761
O O19 0.748940 0.349059 0.503670
O O20 0.875457 0.356333 0.179265
O O21 0.871067 0.500000 0.020161
#
# Coordination Sequence:
#
# PCOD8059360 Si02
#       8
#     4   4   4   4   4   4   4   4
#     4   9  18  32  47  61  79 104 132 163 201 243
#     4  10  19  29  42  60  80 103 133 168 204 240
#     4   9  16  26  41  59  77  99 131 167 198 231
#     4   9  17  28  41  56  76 104 136 168 200 234
#     4   9  16  24  34  48  67  94 129 164 194 225
#     4   9  16  24  34  49  71  99 129 161 196 231
#     4   9  17  26  40  57  78 105 137 168 197 232
#     4   9  16  25  36  50  71  98 127 159 195 233
#
# _framework density 15.360371000000001
#
# number of rings (size 3 to 8) (size 9 to 14) (size 15 to 20)
#    0.000    2.875    0.000    1.875    0.000   14.000 
#    0.000    0.000    0.000    0.000    0.000    0.000 
#    0.000    0.000    0.000    1.125    0.000   18.625 
#
# Total GULP energy -396481.407076 kJ/mol
# GULP energy per Si atom -12390.043971 kJ/mol
# Density = 1.532541 g / cm^3
# Si number density = 15.360371 Si / 1000 Ang^3
#
#
#
# Elastic Constant Matrix: (Units=GPa)
#
#
# Indices 1 2 3 4 5 6 
#
# 1 55.1545 44.3581 32.3936 0.0000 -6.3680 0.0000
# 2 44.3581 141.7346 37.5958 0.0000 -6.4766 0.0000
# 3 32.3936 37.5958 53.8081 0.0000 -9.8116 0.0000
# 4 0.0000 0.0000 0.0000 11.1616 0.0000 -2.3878
# 5 -6.3680 -6.4766 -9.8116 0.0000 13.9360 0.0000
# 6 0.0000 0.0000 0.0000 -2.3878 0.0000 14.6917
#
#
#
# Elastic Compliance Matrix: (Units=1/GPa)
#
#
# Indices 1 2 3 4 5 6 
#
# 1 0.031704 -0.005970 -0.014662 0.000000 0.001390 0.000000
# 2 -0.005970 0.009785 -0.003340 0.000000 -0.000532 0.000000
# 3 -0.014662 -0.003340 0.032400 0.000000 0.014559 0.000000
# 4 0.000000 0.000000 0.000000 0.092820 0.000000 0.015086
# 5 0.001390 -0.000532 0.014559 0.000000 0.082395 0.000000
# 6 0.000000 0.000000 0.000000 0.015086 0.000000 0.070518
#
#
# Mechanical properties :
#
#
# Convention : Reuss Voigt Hill
#
# Bulk Modulus (GPa) = 38.54210 53.26580 45.90395
# Shear Modulus (GPa) = 13.29032 17.04784 15.16908
#
# Velocity S-wave (km/s) = 2.94468 3.33507 3.14593
# Velocity P-wave (km/s) = 6.05870 7.04152 6.56852
#
# Compressibility (1/GPa) = 0.02594566
#
# Stress axis : x y z
#
# Youngs Moduli (GPa) = 31.54208 102.19278 30.86423
#
# Poissons Ratio (x) = 0.61004 0.45253
# Poissons Ratio (y) = 0.18829 0.10310
# Poissons Ratio (z) = 0.46247 0.34136
#
# Static dielectric constant tensor:
#      x y z
#    x 2.538550 0.000000 -0.191600 
#    y 0.000000 3.210080 0.000000 
#    z -0.191600 0.000000 2.981960 
# 
# 
# High freq. dielectric constant tensor:
#      x y z
#    x 1.526200 0.000000 -0.029340 
#    y 0.000000 1.607180 0.000000 
#    z -0.029340 0.000000 1.565150 
# 
# From -- ./inp_files/72531.got.cif
#   From: 2010.06.25/outbox.cif.g09.slc.cpg/sg10_37_cif.got.tgz:72531.got - 2010.06.27 22:07:45.
