data_PCOD8059266
_publ_section_title
;
Structure prediction by ZEFSAII (Michael W. Deem and Ramdas Pophale) SiO2 
 PCOD8059266
Probable space group: P 2/M
;
_chemical_formula_sum "Si O2"
_cell_formula_units_Z 28
_cell_length_a 15.052813
_cell_length_b 15.911428
_cell_length_c 9.271619
_cell_angle_alpha 90.000000
_cell_angle_beta 41.716048
_cell_angle_gamma 90.000000
_cell_volume 1477.715907
_symmetry_space_group_name_H-M "P 2/M"
_symmetry_group_IT_number 10
_symmetry_cell_setting 'monoclinic'
loop_
_space_group_symop_operation_xyz
x,y,z
-x,y,-z
-x,-y,-z
x,-y,z
loop_
_atom_site_type_symbol
_atom_site_label
_atom_site_fract_x
_atom_site_fract_y
_atom_site_fract_z
Si Si1 0.477450 0.724783 0.858501
Si Si2 0.126194 0.404566 0.946076
Si Si3 0.118926 0.093536 0.771937
Si Si4 0.230785 0.747483 0.976722
Si Si5 0.952182 0.097157 0.713839
Si Si6 0.413882 0.594564 0.472370
Si Si7 0.385624 0.829510 0.543644
O O1 0.546577 0.638321 0.725625
O O2 0.550088 0.797540 0.681502
O O3 0.500000 0.739275 0.000000
O O4 0.319855 0.726060 0.009422
O O5 0.114037 0.500000 0.025728
O O6 0.256216 0.399320 0.688172
O O7 0.134805 0.333353 0.062053
O O8 0.000000 0.382992 0.000000
O O9 0.268003 0.113127 0.632734
O O10 0.089317 0.103382 0.638743
O O11 0.105498 0.000000 0.844526
O O12 0.000000 0.145000 0.000000
O O13 0.155627 0.836193 0.095596
O O14 0.324210 0.756461 0.720706
O O15 0.000000 0.125165 0.500000
O O16 0.896412 0.000000 0.785234
O O17 0.500000 0.634813 0.500000
O O18 0.462703 0.500000 0.393687
O O19 0.500000 0.877191 0.500000
#
# Coordination Sequence:
#
# PCOD8059266 Si02
#       7
#     4   4   4   4   4   4   4
#     4  11  23  37  54  86 121 151 202 254 297 358
#     4  10  21  36  61  95 123 153 200 247 292 355
#     4  10  20  36  60  87 110 143 194 250 294 348
#     4  11  21  38  63  87 115 164 199 247 304 353
#     4  10  23  40  60  89 123 157 201 249 302 369
#     4  10  18  36  62  83 114 159 202 244 295 353
#     4  10  21  37  56  82 116 151 196 242 295 356
#
# _framework density 18.948162
#
# number of rings (size 3 to 8) (size 9 to 14) (size 15 to 20)
#    0.000    1.714    4.286    0.429    4.000    0.571 
#    0.000    2.143    0.000    1.286    0.000    0.000 
#    0.000    0.000    0.000    0.000    0.000    0.000 
#
# Total GULP energy -346866.659520 kJ/mol
# GULP energy per Si atom -12388.094983 kJ/mol
# Density = 1.890503 g / cm^3
# Si number density = 18.948162 Si / 1000 Ang^3
#
#
#
# Elastic Constant Matrix: (Units=GPa)
#
#
# Indices 1 2 3 4 5 6 
#
# 1 171.8157 59.0325 68.8184 0.0000 -9.7392 0.0000
# 2 59.0325 94.8025 38.7896 0.0000 -4.7557 0.0000
# 3 68.8184 38.7896 85.4930 0.0000 2.0336 0.0000
# 4 0.0000 0.0000 0.0000 19.8123 0.0000 -3.7349
# 5 -9.7392 -4.7557 2.0336 0.0000 40.9500 0.0000
# 6 0.0000 0.0000 0.0000 -3.7349 0.0000 27.6999
#
#
#
# Elastic Compliance Matrix: (Units=1/GPa)
#
#
# Indices 1 2 3 4 5 6 
#
# 1 0.009592 -0.003292 -0.006280 0.000000 0.002211 0.000000
# 2 -0.003292 0.014217 -0.003825 0.000000 0.001058 0.000000
# 3 -0.006280 -0.003825 0.018556 0.000000 -0.002859 0.000000
# 4 0.000000 0.000000 0.000000 0.051790 0.000000 0.006983
# 5 0.002211 0.001058 -0.002859 0.000000 0.025211 0.000000
# 6 0.000000 0.000000 0.000000 0.006983 0.000000 0.037043
#
#
# Mechanical properties :
#
#
# Convention : Reuss Voigt Hill
#
# Bulk Modulus (GPa) = 64.23016 76.15467 70.19242
# Shear Modulus (GPa) = 26.54029 30.05715 28.29872
#
# Velocity S-wave (km/s) = 3.74662 3.98714 3.86875
# Velocity P-wave (km/s) = 7.25863 7.84058 7.55521
#
# Compressibility (1/GPa) = 0.01556901
#
# Stress axis : x y z
#
# Youngs Moduli (GPa) = 104.25244 70.34029 53.89215
#
# Poissons Ratio (x) = 0.23159 0.33844
# Poissons Ratio (y) = 0.34325 0.20615
# Poissons Ratio (z) = 0.65471 0.26906
#
# Static dielectric constant tensor:
#      x y z
#    x 3.671400 0.000000 -0.193110 
#    y 0.000000 3.505760 0.000000 
#    z -0.193110 0.000000 3.335300 
# 
# 
# High freq. dielectric constant tensor:
#      x y z
#    x 1.746010 0.000000 -0.016170 
#    y 0.000000 1.735340 0.000000 
#    z -0.016170 0.000000 1.711230 
# 
# From -- ./inp_files/30071.got.cif
#   From: 2010.06.25/outbox.cif.g09.slc.cpg/sg10_16_cif.got.tgz:30071.got - 2010.06.27 22:07:45.
