data_PCOD8059740
_publ_section_title
;
Structure prediction by ZEFSAII (Michael W. Deem and Ramdas Pophale) SiO2 
 PCOD8059740
Probable space group: P 2/M
;
_chemical_formula_sum "Si O2"
_cell_formula_units_Z 32
_cell_length_a 14.520925
_cell_length_b 8.947690
_cell_length_c 15.727525
_cell_angle_alpha 90.000000
_cell_angle_beta 62.771303
_cell_angle_gamma 90.000000
_cell_volume 1817.016442
_symmetry_space_group_name_H-M "P 2/M"
_symmetry_group_IT_number 10
_symmetry_cell_setting 'monoclinic'
loop_
_space_group_symop_operation_xyz
x,y,z
-x,y,-z
-x,-y,-z
x,-y,z
loop_
_atom_site_type_symbol
_atom_site_label
_atom_site_fract_x
_atom_site_fract_y
_atom_site_fract_z
Si Si1 0.634683 0.823480 0.780314
Si Si2 0.925270 0.172552 0.217444
Si Si3 0.119601 0.326667 0.055994
Si Si4 0.844395 0.822293 0.609262
Si Si5 0.053900 0.822882 0.602092
Si Si6 0.426050 0.325980 0.842236
Si Si7 0.324972 0.329784 0.064302
Si Si8 0.768448 0.171900 0.141585
O O1 0.735860 0.758143 0.689514
O O2 0.535439 0.751000 0.777078
O O3 0.639788 0.780955 0.877037
O O4 0.626037 0.000000 0.775892
O O5 0.911002 0.232613 0.319758
O O6 0.815874 0.190373 0.215828
O O7 0.010027 0.272567 0.135519
O O8 0.962395 0.000000 0.200822
O O9 0.114394 0.500000 0.032736
O O10 0.205048 0.300550 0.092993
O O11 0.148364 0.235835 0.959749
O O12 0.865468 0.764950 0.503859
O O13 0.937977 0.764345 0.629934
O O14 0.840198 0.000000 0.613969
O O15 0.053017 0.000000 0.598530
O O16 0.434315 0.500000 0.819343
O O17 0.339977 0.258869 0.815519
O O18 0.394345 0.294541 0.952826
O O19 0.343164 0.500000 0.086825
O O20 0.747966 0.000000 0.127444
#
# Coordination Sequence:
#
# PCOD8059740 Si02
#       8
#     4   4   4   4   4   4   4   4
#     4  11  20  29  48  76  98 121 158 200 240 283
#     4  10  19  30  49  74  97 124 160 202 243 280
#     4  10  20  32  47  69 100 135 164 191 230 284
#     4   8  15  27  46  73 101 125 151 187 232 286
#     4   8  14  28  48  71 100 128 152 185 235 286
#     4  10  21  36  50  65  92 131 166 196 236 285
#     4   9  19  33  46  65  95 129 162 193 229 279
#     4  10  20  33  48  69  96 124 161 207 243 274
#
# _framework density 17.611287999999998
#
# number of rings (size 3 to 8) (size 9 to 14) (size 15 to 20)
#    0.000    2.500    0.000    4.500    0.000    8.000 
#    0.000    0.000    0.000    2.250    0.000   11.375 
#    0.000    0.000    0.000    0.000    0.000    0.000 
#
# Total GULP energy -396781.937905 kJ/mol
# GULP energy per Si atom -12399.435560 kJ/mol
# Density = 1.757120 g / cm^3
# Si number density = 17.611288 Si / 1000 Ang^3
#
#
#
# Elastic Constant Matrix: (Units=GPa)
#
#
# Indices 1 2 3 4 5 6 
#
# 1 119.0369 44.6777 68.3123 0.0000 -3.2629 0.0000
# 2 44.6777 68.2358 29.5832 0.0000 -1.6207 0.0000
# 3 68.3123 29.5832 84.1662 0.0000 0.8417 0.0000
# 4 0.0000 0.0000 0.0000 5.6712 0.0000 -5.1801
# 5 -3.2629 -1.6207 0.8417 0.0000 30.0383 0.0000
# 6 0.0000 0.0000 0.0000 -5.1801 0.0000 25.3366
#
#
#
# Elastic Compliance Matrix: (Units=1/GPa)
#
#
# Indices 1 2 3 4 5 6 
#
# 1 0.017904 -0.006333 -0.012325 0.000000 0.001949 0.000000
# 2 -0.006333 0.019567 -0.001741 0.000000 0.000417 0.000000
# 3 -0.012325 -0.001741 0.022518 0.000000 -0.002064 0.000000
# 4 0.000000 0.000000 0.000000 0.216818 0.000000 0.044329
# 5 0.001949 0.000417 -0.002064 0.000000 0.033583 0.000000
# 6 0.000000 0.000000 0.000000 0.044329 0.000000 0.048532
#
#
# Mechanical properties :
#
#
# Convention : Reuss Voigt Hill
#
# Bulk Modulus (GPa) = 52.11321 61.84281 56.97801
# Shear Modulus (GPa) = 12.31172 20.80027 16.55600
#
# Velocity S-wave (km/s) = 2.64688 3.44041 3.06940
# Velocity P-wave (km/s) = 6.24471 7.13958 6.70708
#
# Compressibility (1/GPa) = 0.01918899
#
# Stress axis : x y z
#
# Youngs Moduli (GPa) = 55.85237 51.10764 44.40971
#
# Poissons Ratio (x) = 0.32367 0.54736
# Poissons Ratio (y) = 0.35372 0.07733
# Poissons Ratio (z) = 0.68840 0.08899
#
# Static dielectric constant tensor:
#      x y z
#    x 3.419990 0.000000 -0.002580 
#    y 0.000000 3.090960 0.000000 
#    z -0.002580 0.000000 3.327190 
# 
# 
# High freq. dielectric constant tensor:
#      x y z
#    x 1.684880 0.000000 -0.001190 
#    y 0.000000 1.665230 0.000000 
#    z -0.001190 0.000000 1.658510 
# 
# From -- ./inp_files/66524.got.cif
#   From: 2010.06.25/outbox.cif.g09.slc.cpg/sg10_34_cif.got.tgz:66524.got - 2010.06.27 22:07:45.
