data_PCOD8059920
_publ_section_title
;
Structure prediction by ZEFSAII (Michael W. Deem and Ramdas Pophale) SiO2 
 PCOD8059920
Probable space group: P 2/M
;
_chemical_formula_sum "Si O2"
_cell_formula_units_Z 32
_cell_length_a 14.174277
_cell_length_b 9.398893
_cell_length_c 22.305416
_cell_angle_alpha 90.000000
_cell_angle_beta 37.507947
_cell_angle_gamma 90.000000
_cell_volume 1809.312434
_symmetry_space_group_name_H-M "P 2/M"
_symmetry_group_IT_number 10
_symmetry_cell_setting 'monoclinic'
loop_
_space_group_symop_operation_xyz
x,y,z
-x,y,-z
-x,-y,-z
x,-y,z
loop_
_atom_site_type_symbol
_atom_site_label
_atom_site_fract_x
_atom_site_fract_y
_atom_site_fract_z
Si Si1 0.433717 0.165656 0.661923
Si Si2 0.782041 0.665407 0.766875
Si Si3 0.136653 0.833568 0.387406
Si Si4 0.165850 0.667718 0.126914
Si Si5 0.823937 0.333718 0.276607
Si Si6 0.518653 0.162988 0.753818
Si Si7 0.433247 0.664812 0.906783
Si Si8 0.365325 0.655688 0.519479
O O1 0.278172 0.241211 0.717328
O O2 0.446241 0.193571 0.725825
O O3 0.589770 0.229063 0.553142
O O4 0.425757 0.000000 0.649745
O O5 0.825379 0.500000 0.737906
O O6 0.876877 0.750750 0.668620
O O7 0.828021 0.728703 0.808612
O O8 0.599003 0.690757 0.853078
O O9 0.299476 0.796725 0.337351
O O10 0.000000 0.780638 0.500000
O O11 0.119514 0.000000 0.382226
O O12 0.189050 0.500000 0.121133
O O13 0.003369 0.706220 0.176987
O O14 0.303674 0.730221 0.016563
O O15 0.790757 0.500000 0.280192
O O16 0.785961 0.299454 0.365928
O O17 0.421320 0.256246 0.849408
O O18 0.498055 0.000000 0.782986
O O19 0.400948 0.500000 0.910462
O O20 0.500000 0.646068 0.500000
O O21 0.341746 0.500000 0.501073
#
# Coordination Sequence:
#
# PCOD8059920 Si02
#       8
#     4   4   4   4   4   4   4   4
#     4  10  19  31  48  68  92 125 161 195 231 272
#     4   9  17  30  50  75  99 122 152 191 233 279
#     4   9  18  33  50  69  98 131 158 188 228 276
#     4   9  17  31  51  73  97 123 151 191 241 282
#     4   9  18  32  48  68  96 126 155 190 233 279
#     4   9  19  34  49  67  94 127 159 192 234 278
#     4   9  17  31  52  74  93 119 157 194 230 279
#     4   8  15  28  45  65  90 120 152 186 227 274
#
# _framework density 17.686275999999999
#
# number of rings (size 3 to 8) (size 9 to 14) (size 15 to 20)
#    0.000    3.000    0.000    1.500    0.000    6.000 
#    0.000    2.500    0.000    6.750    0.000    0.000 
#    0.000    0.000    0.000    0.000    0.000    0.000 
#
# Total GULP energy -396716.995005 kJ/mol
# GULP energy per Si atom -12397.406094 kJ/mol
# Density = 1.764602 g / cm^3
# Si number density = 17.686276 Si / 1000 Ang^3
#
#
#
# Elastic Constant Matrix: (Units=GPa)
#
#
# Indices 1 2 3 4 5 6 
#
# 1 80.3323 46.8258 56.2119 0.0000 13.9670 0.0000
# 2 46.8258 66.3307 53.5605 0.0000 11.8011 0.0000
# 3 56.2119 53.5605 147.5353 0.0000 7.1257 0.0000
# 4 0.0000 0.0000 0.0000 9.7272 0.0000 1.5981
# 5 13.9670 11.8011 7.1257 0.0000 22.6734 0.0000
# 6 0.0000 0.0000 0.0000 1.5981 0.0000 21.2659
#
#
#
# Elastic Compliance Matrix: (Units=1/GPa)
#
#
# Indices 1 2 3 4 5 6 
#
# 1 0.023675 -0.011966 -0.004339 0.000000 -0.006992 0.000000
# 2 -0.011966 0.029258 -0.005771 0.000000 -0.006044 0.000000
# 3 -0.004339 -0.005771 0.010410 0.000000 0.002405 0.000000
# 4 0.000000 0.000000 0.000000 0.104090 0.000000 -0.007822
# 5 -0.006992 -0.006044 0.002405 0.000000 0.050802 0.000000
# 6 0.000000 0.000000 0.000000 -0.007822 0.000000 0.047611
#
#
# Mechanical properties :
#
#
# Convention : Reuss Voigt Hill
#
# Bulk Modulus (GPa) = 52.10326 67.48831 59.79578
# Shear Modulus (GPa) = 15.80309 19.90664 17.85486
#
# Velocity S-wave (km/s) = 2.99243 3.35855 3.18076
# Velocity P-wave (km/s) = 6.43919 7.29940 6.88275
#
# Compressibility (1/GPa) = 0.01919266
#
# Stress axis : x y z
#
# Youngs Moduli (GPa) = 42.23919 34.17845 96.06228
#
# Poissons Ratio (x) = 0.40897 0.41677
# Poissons Ratio (y) = 0.50542 0.55436
# Poissons Ratio (z) = 0.18326 0.19724
#
# Static dielectric constant tensor:
#      x y z
#    x 3.110640 0.000000 -0.026130 
#    y 0.000000 3.166230 0.000000 
#    z -0.026130 0.000000 3.596200 
# 
# 
# High freq. dielectric constant tensor:
#      x y z
#    x 1.670450 0.000000 0.000270 
#    y 0.000000 1.665990 0.000000 
#    z 0.000270 0.000000 1.686720 
# 
# From -- ./inp_files/84702.got.cif
#   From: 2010.06.25/outbox.cif.g09.slc.cpg/sg10_43_cif.got.tgz:84702.got - 2010.06.27 22:07:45.
