data_PCOD8059878
_publ_section_title
;
Structure prediction by ZEFSAII (Michael W. Deem and Ramdas Pophale) SiO2 
 PCOD8059878
Probable space group: P 2/M
;
_chemical_formula_sum "Si O2"
_cell_formula_units_Z 26
_cell_length_a 27.130588
_cell_length_b 9.256734
_cell_length_c 11.656839
_cell_angle_alpha 90.000000
_cell_angle_beta 31.570084
_cell_angle_gamma 90.000000
_cell_volume 1532.669752
_symmetry_space_group_name_H-M "P 2/M"
_symmetry_group_IT_number 10
_symmetry_cell_setting 'monoclinic'
loop_
_space_group_symop_operation_xyz
x,y,z
-x,y,-z
-x,-y,-z
x,-y,z
loop_
_atom_site_type_symbol
_atom_site_label
_atom_site_fract_x
_atom_site_fract_y
_atom_site_fract_z
Si Si1 0.806285 0.670037 0.009327
Si Si2 0.357825 0.342603 0.969986
Si Si3 0.632946 0.162359 0.435244
Si Si4 0.011301 0.659947 0.614006
Si Si5 0.500000 0.753587 0.500000
Si Si6 0.511196 0.336112 0.846907
Si Si7 0.186708 0.170725 0.244561
O O1 0.790733 0.500000 0.017594
O O2 0.722812 0.733215 0.250496
O O3 0.907585 0.697374 0.870587
O O4 0.803253 0.754667 0.896994
O O5 0.308671 0.500000 0.059167
O O6 0.279913 0.216795 0.128416
O O7 0.431624 0.338642 0.717511
O O8 0.410062 0.327336 0.987103
O O9 0.568120 0.155505 0.449097
O O10 0.578550 0.221590 0.652921
O O11 0.666980 0.000000 0.392473
O O12 0.042859 0.500000 0.591226
O O13 0.000000 0.663686 0.500000
O O14 0.090794 0.773849 0.496942
O O15 0.551430 0.500000 0.757576
O O16 0.500000 0.288121 0.000000
O O17 0.182470 0.000000 0.240396
#
# Coordination Sequence:
#
# PCOD8059878 Si02
#       7
#     4   4   4   4   2   4   4
#     4  10  19  31  47  67  95 130 167 199 234 283
#     4  10  19  31  50  71  95 128 164 199 241 286
#     4  11  21  31  48  73 102 130 159 198 244 290
#     4   8  16  30  45  62  90 129 165 197 231 278
#     4  10  20  30  46  68 100 130 160 196 236 284
#     4   9  20  38  55  71  93 125 168 209 242 283
#     4  11  20  28  43  69 100 130 160 196 239 288
#
# _framework density 16.963861999999999
#
# number of rings (size 3 to 8) (size 9 to 14) (size 15 to 20)
#    0.000    2.154    1.538    3.692    0.000    7.385 
#    0.000    0.000    0.000    0.000    0.000    1.077 
#    0.000    8.615    0.000    0.000    0.000    0.000 
#
# Total GULP energy -322208.661502 kJ/mol
# GULP energy per Si atom -12392.640827 kJ/mol
# Density = 1.692525 g / cm^3
# Si number density = 16.963862 Si / 1000 Ang^3
#
#
#
# Elastic Constant Matrix: (Units=GPa)
#
#
# Indices 1 2 3 4 5 6 
#
# 1 68.6601 39.4845 49.7908 0.0000 1.2233 0.0000
# 2 39.4845 139.4305 56.6874 0.0000 -14.8297 0.0000
# 3 49.7908 56.6874 88.7757 0.0000 -18.3534 0.0000
# 4 0.0000 0.0000 0.0000 19.3147 0.0000 -2.6674
# 5 1.2233 -14.8297 -18.3534 0.0000 28.6739 0.0000
# 6 0.0000 0.0000 0.0000 -2.6674 0.0000 14.5520
#
#
#
# Elastic Compliance Matrix: (Units=1/GPa)
#
#
# Indices 1 2 3 4 5 6 
#
# 1 0.028908 -0.002566 -0.017407 0.000000 -0.013703 0.000000
# 2 -0.002566 0.009951 -0.004412 0.000000 0.002432 0.000000
# 3 -0.017407 -0.004412 0.027115 0.000000 0.015816 0.000000
# 4 0.000000 0.000000 0.000000 0.053119 0.000000 0.009737
# 5 -0.013703 0.002432 0.015816 0.000000 0.046841 0.000000
# 6 0.000000 0.000000 0.000000 0.009737 0.000000 0.070504
#
#
# Mechanical properties :
#
#
# Convention : Reuss Voigt Hill
#
# Bulk Modulus (GPa) = 58.13312 65.42129 61.77720
# Shear Modulus (GPa) = 17.18550 22.56837 19.87694
#
# Velocity S-wave (km/s) = 3.18632 3.65139 3.42676
# Velocity P-wave (km/s) = 6.91954 7.51170 7.22170
#
# Compressibility (1/GPa) = 0.01720190
#
# Stress axis : x y z
#
# Youngs Moduli (GPa) = 34.59253 100.48936 36.88052
#
# Poissons Ratio (x) = 0.25790 0.64199
# Poissons Ratio (y) = 0.08878 0.16272
# Poissons Ratio (z) = 0.60217 0.44337
#
# Static dielectric constant tensor:
#      x y z
#    x 3.034560 0.000000 -0.446780 
#    y 0.000000 3.187440 0.000000 
#    z -0.446780 0.000000 3.378780 
# 
# 
# High freq. dielectric constant tensor:
#      x y z
#    x 1.614640 0.000000 -0.033090 
#    y 0.000000 1.660150 0.000000 
#    z -0.033090 0.000000 1.644120 
# 
# From -- ./inp_files/48726.got.cif
#   From: 2010.06.25/outbox.cif.g09.slc.cpg/sg10_25_cif.got.tgz:48726.got - 2010.06.27 22:07:45.
