data_PCOD8059107
_publ_section_title
;
Structure prediction by ZEFSAII (Michael W. Deem and Ramdas Pophale) SiO2 
 PCOD8059107
Probable space group: P 2/M
;
_chemical_formula_sum "Si O2"
_cell_formula_units_Z 28
_cell_length_a 18.570201
_cell_length_b 9.085811
_cell_length_c 13.529334
_cell_angle_alpha 90.000000
_cell_angle_beta 37.221015
_cell_angle_gamma 90.000000
_cell_volume 1380.810264
_symmetry_space_group_name_H-M "P 2/M"
_symmetry_group_IT_number 10
_symmetry_cell_setting 'monoclinic'
loop_
_space_group_symop_operation_xyz
x,y,z
-x,y,-z
-x,-y,-z
x,-y,z
loop_
_atom_site_type_symbol
_atom_site_label
_atom_site_fract_x
_atom_site_fract_y
_atom_site_fract_z
Si Si1 0.635419 0.331845 0.585473
Si Si2 0.567817 0.667837 0.334145
Si Si3 0.829308 0.325183 0.051122
Si Si4 0.013707 0.834987 0.736805
Si Si5 0.889214 0.326959 0.551268
Si Si6 0.375599 0.326505 0.180881
Si Si7 0.824403 0.165523 0.252916
O O1 0.682654 0.500000 0.532606
O O2 0.499970 0.322199 0.695795
O O3 0.638740 0.264973 0.691992
O O4 0.708837 0.238106 0.427222
O O5 0.500000 0.746469 0.500000
O O6 0.590135 0.500000 0.342051
O O7 0.696809 0.737762 0.179606
O O8 0.844390 0.500000 0.034796
O O9 0.873318 0.260353 0.107683
O O10 0.895998 0.261312 0.882041
O O11 0.098348 0.755947 0.565774
O O12 0.074076 0.838269 0.776856
O O13 0.983765 0.000000 0.732934
O O14 0.900934 0.500000 0.520211
O O15 0.751302 0.290678 0.737980
O O16 0.000000 0.274110 0.500000
O O17 0.393698 0.500000 0.166041
O O18 0.500000 0.258888 0.000000
O O19 0.794069 0.000000 0.250888
#
# Coordination Sequence:
#
# PCOD8059107 Si02
#       7
#     4   4   4   4   4   4   4
#     4  10  18  33  59  82 108 148 191 230 279 345
#     4   9  17  31  52  81 111 142 185 235 283 331
#     4  11  22  36  58  86 117 152 194 241 288 341
#     4  11  24  40  57  81 118 157 195 238 288 345
#     4  10  21  38  63  92 117 146 194 250 298 349
#     4   9  18  33  57  88 115 142 184 239 295 347
#     4  11  22  36  55  81 115 153 194 236 281 336
#
# _framework density 20.277947000000001
#
# number of rings (size 3 to 8) (size 9 to 14) (size 15 to 20)
#    0.000    1.857    2.857    1.714    0.000    4.857 
#    0.000    6.429    0.000    1.714    0.000    0.000 
#    0.000    0.000    0.000    0.000    0.000    0.000 
#
# Total GULP energy -346941.992001 kJ/mol
# GULP energy per Si atom -12390.785429 kJ/mol
# Density = 2.023179 g / cm^3
# Si number density = 20.277947 Si / 1000 Ang^3
#
#
#
# Elastic Constant Matrix: (Units=GPa)
#
#
# Indices 1 2 3 4 5 6 
#
# 1 74.7992 12.3397 29.9511 0.0000 -16.3088 0.0000
# 2 12.3397 69.4659 38.1613 0.0000 -4.8666 0.0000
# 3 29.9511 38.1613 134.8719 0.0000 -15.8107 0.0000
# 4 0.0000 0.0000 0.0000 9.6586 0.0000 3.7546
# 5 -16.3088 -4.8666 -15.8107 0.0000 29.9924 0.0000
# 6 0.0000 0.0000 0.0000 3.7546 0.0000 9.4979
#
#
#
# Elastic Compliance Matrix: (Units=1/GPa)
#
#
# Indices 1 2 3 4 5 6 
#
# 1 0.016104 -0.001012 -0.002433 0.000000 0.007310 0.000000
# 2 -0.001012 0.017110 -0.004642 0.000000 -0.000221 0.000000
# 3 -0.002433 -0.004642 0.009619 0.000000 0.002995 0.000000
# 4 0.000000 0.000000 0.000000 0.122334 0.000000 -0.048360
# 5 0.007310 -0.000221 0.002995 0.000000 0.038859 0.000000
# 6 0.000000 0.000000 0.000000 -0.048360 0.000000 0.124404
#
#
# Mechanical properties :
#
#
# Convention : Reuss Voigt Hill
#
# Bulk Modulus (GPa) = 37.51100 48.89346 43.20223
# Shear Modulus (GPa) = 14.14456 23.07543 18.61000
#
# Velocity S-wave (km/s) = 2.64395 3.37702 3.03272
# Velocity P-wave (km/s) = 5.27818 6.27453 5.79780
#
# Compressibility (1/GPa) = 0.02665884
#
# Stress axis : x y z
#
# Youngs Moduli (GPa) = 62.09582 58.44481 103.95719
#
# Poissons Ratio (x) = 0.05914 0.25293
# Poissons Ratio (y) = 0.06284 0.48261
# Poissons Ratio (z) = 0.15108 0.27133
#
# Static dielectric constant tensor:
#      x y z
#    x 3.705960 0.000000 -0.210590 
#    y 0.000000 3.449420 0.000000 
#    z -0.210590 0.000000 3.926200 
# 
# 
# High freq. dielectric constant tensor:
#      x y z
#    x 1.787180 0.000000 -0.014740 
#    y 0.000000 1.755850 0.000000 
#    z -0.014740 0.000000 1.799460 
# 
# From -- ./inp_files/49318.got.cif
#   From: 2010.06.25/outbox.cif.g09.slc.cpg/sg10_25_cif.got.tgz:49318.got - 2010.06.27 22:07:45.
