data_PCOD8059063
_publ_section_title
;
Structure prediction by ZEFSAII (Michael W. Deem and Ramdas Pophale) SiO2 
 PCOD8059063
Probable space group: P 2/M
;
_chemical_formula_sum "Si O2"
_cell_formula_units_Z 28
_cell_length_a 15.278438
_cell_length_b 8.576941
_cell_length_c 11.877633
_cell_angle_alpha 90.000000
_cell_angle_beta 118.692596
_cell_angle_gamma 90.000000
_cell_volume 1365.349923
_symmetry_space_group_name_H-M "P 2/M"
_symmetry_group_IT_number 10
_symmetry_cell_setting 'monoclinic'
loop_
_space_group_symop_operation_xyz
x,y,z
-x,y,-z
-x,-y,-z
x,-y,z
loop_
_atom_site_type_symbol
_atom_site_label
_atom_site_fract_x
_atom_site_fract_y
_atom_site_fract_z
Si Si1 0.304791 0.680507 0.244246
Si Si2 0.790593 0.318942 0.043095
Si Si3 0.387142 0.683785 0.909510
Si Si4 0.179380 0.685036 0.370959
Si Si5 0.005306 0.817542 0.872662
Si Si6 0.309301 0.179792 0.630915
Si Si7 0.516085 0.673595 0.378883
O O1 0.325612 0.500000 0.280278
O O2 0.261492 0.751242 0.332979
O O3 0.411789 0.747199 0.268838
O O4 0.224520 0.706940 0.098533
O O5 0.808839 0.500000 0.084585
O O6 0.694030 0.252977 0.050202
O O7 0.890300 0.220068 0.125722
O O8 0.394789 0.500000 0.926607
O O9 0.341745 0.727110 0.761346
O O10 0.500000 0.753059 0.000000
O O11 0.183037 0.500000 0.384198
O O12 0.072673 0.733821 0.257639
O O13 0.206379 0.757724 0.510256
O O14 0.984101 0.000000 0.857887
O O15 0.000000 0.756526 0.000000
O O16 0.397038 0.206251 0.595349
O O17 0.296002 0.000000 0.653234
O O18 0.500000 0.658583 0.500000
O O19 0.539816 0.500000 0.342683
#
# Coordination Sequence:
#
# PCOD8059063 Si02
#       7
#     4   4   4   4   4   4   4
#     4   9  17  31  56  88 117 149 196 253 303 348
#     4  10  20  37  63  92 118 156 211 260 303 357
#     4  10  22  43  70  93 119 160 213 263 301 356
#     4  11  21  38  63  88 118 159 208 255 298 358
#     4  11  23  38  58  91 132 168 198 245 314 377
#     4  12  25  39  57  87 129 166 200 250 315 377
#     4  10  18  33  56  83 115 155 203 249 297 357
#
# _framework density 20.507563000000001
#
# number of rings (size 3 to 8) (size 9 to 14) (size 15 to 20)
#    0.000    1.571    2.857    3.000    0.000    4.000 
#    0.000    2.857    0.000    4.286    0.000    0.000 
#    0.000    0.000    0.000    0.000    0.000    0.000 
#
# Total GULP energy -346965.585378 kJ/mol
# GULP energy per Si atom -12391.628049 kJ/mol
# Density = 2.046089 g / cm^3
# Si number density = 20.507563 Si / 1000 Ang^3
#
#
#
# Elastic Constant Matrix: (Units=GPa)
#
#
# Indices 1 2 3 4 5 6 
#
# 1 103.4207 16.1253 41.5613 0.0000 13.3401 0.0000
# 2 16.1253 28.8832 7.6246 0.0000 4.6691 0.0000
# 3 41.5613 7.6246 110.0090 0.0000 14.3545 0.0000
# 4 0.0000 0.0000 0.0000 21.4753 0.0000 -0.5620
# 5 13.3401 4.6691 14.3545 0.0000 33.8970 0.0000
# 6 0.0000 0.0000 0.0000 -0.5620 0.0000 13.2226
#
#
#
# Elastic Compliance Matrix: (Units=1/GPa)
#
#
# Indices 1 2 3 4 5 6 
#
# 1 0.012451 -0.005499 -0.004004 0.000000 -0.002447 0.000000
# 2 -0.005499 0.038228 -0.000177 0.000000 -0.003027 0.000000
# 3 -0.004004 -0.000177 0.011015 0.000000 -0.003064 0.000000
# 4 0.000000 0.000000 0.000000 0.046617 0.000000 0.001981
# 5 -0.002447 -0.003027 -0.003064 0.000000 0.032179 0.000000
# 6 0.000000 0.000000 0.000000 0.001981 0.000000 0.075712
#
#
# Mechanical properties :
#
#
# Convention : Reuss Voigt Hill
#
# Bulk Modulus (GPa) = 23.62113 41.43725 32.52919
# Shear Modulus (GPa) = 20.02616 25.51909 22.77262
#
# Velocity S-wave (km/s) = 3.12833 3.53140 3.33596
# Velocity P-wave (km/s) = 4.95902 6.07268 5.54388
#
# Compressibility (1/GPa) = 0.04233498
#
# Stress axis : x y z
#
# Youngs Moduli (GPa) = 80.31341 26.15868 90.78636
#
# Poissons Ratio (x) = 0.14385 0.36347
# Poissons Ratio (y) = 0.44164 0.01608
# Poissons Ratio (z) = 0.32154 0.00463
#
# Static dielectric constant tensor:
#      x y z
#    x 3.905400 0.000000 0.283720 
#    y 0.000000 3.391130 0.000000 
#    z 0.283720 0.000000 3.964280 
# 
# 
# High freq. dielectric constant tensor:
#      x y z
#    x 1.795060 0.000000 0.017620 
#    y 0.000000 1.767390 0.000000 
#    z 0.017620 0.000000 1.811540 
# 
# From -- ./inp_files/50056.got.cif
#   From: 2010.06.25/outbox.cif.g09.slc.cpg/sg10_26_cif.got.tgz:50056.got - 2010.06.27 22:07:45.
