data_PCOD8059112
_publ_section_title
;
Structure prediction by ZEFSAII (Michael W. Deem and Ramdas Pophale) SiO2 
 PCOD8059112
Probable space group: P 2/M
;
_chemical_formula_sum "Si O2"
_cell_formula_units_Z 26
_cell_length_a 16.554246
_cell_length_b 7.935671
_cell_length_c 21.967946
_cell_angle_alpha 90.000000
_cell_angle_beta 154.778064
_cell_angle_gamma 90.000000
_cell_volume 1229.759587
_symmetry_space_group_name_H-M "P 2/M"
_symmetry_group_IT_number 10
_symmetry_cell_setting 'monoclinic'
loop_
_space_group_symop_operation_xyz
x,y,z
-x,y,-z
-x,-y,-z
x,-y,z
loop_
_atom_site_type_symbol
_atom_site_label
_atom_site_fract_x
_atom_site_fract_y
_atom_site_fract_z
Si Si1 0.940478 0.301903 0.363712
Si Si2 0.578044 0.179690 0.422654
Si Si3 0.626855 0.812513 0.838020
Si Si4 0.976349 0.186203 0.256695
Si Si5 0.704506 0.302192 0.317033
Si Si6 0.101929 0.500000 0.002916
Si Si7 0.015409 0.500000 0.209944
Si Si8 0.557415 0.500000 0.471720
O O1 0.958621 0.500000 0.365047
O O2 0.767363 0.258789 0.291145
O O3 0.892218 0.216000 0.266525
O O4 0.135875 0.233874 0.526966
O O5 0.538014 0.193183 0.324438
O O6 0.798795 0.192473 0.584728
O O7 0.468846 0.333337 0.380765
O O8 0.500435 0.000000 0.395353
O O9 0.505231 0.776399 0.816026
O O10 0.779445 0.671200 0.924450
O O11 0.721779 0.000000 0.906043
O O12 0.908954 0.329549 0.161889
O O13 0.911369 0.000000 0.189370
O O14 0.686822 0.500000 0.314549
O O15 0.000000 0.500000 0.000000
O O16 0.962806 0.500000 0.848868
O O17 0.217104 0.500000 0.380304
O O18 0.500000 0.500000 0.500000
#
# Coordination Sequence:
#
# PCOD8059112 Si02
#       8
#     4   4   4   4   4   2   2   2
#     4   9  16  27  51  93 136 166 196 231 280 349
#     4   9  19  33  54  89 119 147 184 228 290 354
#     4  11  22  39  65  89 118 158 200 245 296 357
#     4  10  18  33  59  87 124 162 189 227 286 352
#     4   9  17  29  53  91 132 168 196 234 287 348
#     4  12  29  48  68  82 109 152 205 261 313 348
#     4  10  24  42  57  84 112 149 197 247 293 357
#     4  10  21  34  61  84 110 142 179 230 306 377
#
# _framework density 21.142344999999999
#
# number of rings (size 3 to 8) (size 9 to 14) (size 15 to 20)
#    0.000    2.154    3.077    1.385    2.154    1.846 
#    0.000    1.538    0.000    1.846    0.000    2.154 
#    0.000    0.000    0.000    0.000    0.000    0.000 
#
# Total GULP energy -322110.555507 kJ/mol
# GULP energy per Si atom -12388.867519 kJ/mol
# Density = 2.109422 g / cm^3
# Si number density = 21.142345 Si / 1000 Ang^3
#
#
#
# Elastic Constant Matrix: (Units=GPa)
#
#
# Indices 1 2 3 4 5 6 
#
# 1 119.1389 61.0715 4.2315 0.0000 -5.0397 0.0000
# 2 61.0715 169.0015 20.5013 0.0000 2.2506 0.0000
# 3 4.2315 20.5013 18.9807 0.0000 -1.5854 0.0000
# 4 0.0000 0.0000 0.0000 13.4548 0.0000 -4.4009
# 5 -5.0397 2.2506 -1.5854 0.0000 30.1172 0.0000
# 6 0.0000 0.0000 0.0000 -4.4009 0.0000 -8.3930
#
#
#
# Elastic Compliance Matrix: (Units=1/GPa)
#
#
# Indices 1 2 3 4 5 6 
#
# 1 0.010508 -0.004102 0.002270 0.000000 0.002184 0.000000
# 2 -0.004102 0.008435 -0.008343 0.000000 -0.001756 0.000000
# 3 0.002270 -0.008343 0.061544 0.000000 0.004243 0.000000
# 4 0.000000 0.000000 0.000000 0.063442 0.000000 -0.033266
# 5 0.002184 -0.001756 0.004243 0.000000 0.033924 0.000000
# 6 0.000000 0.000000 0.000000 -0.033266 0.000000 -0.101704
#
#
# Mechanical properties :
#
#
# Convention : Reuss Voigt Hill
#
# Bulk Modulus (GPa) = 16.62828 53.19221 34.91024
# Shear Modulus (GPa) = 42.90239 21.79025 32.34632
#
# Velocity S-wave (km/s) = 4.50957 3.21385 3.91568
# Velocity P-wave (km/s) = 5.91582 6.24383 6.08204
#
# Compressibility (1/GPa) = 0.06013853
#
# Stress axis : x y z
#
# Youngs Moduli (GPa) = 95.16658 118.55720 16.24842
#
# Poissons Ratio (x) = 0.48628 -0.03689
# Poissons Ratio (y) = 0.39034 0.13556
# Poissons Ratio (z) = -0.21604 0.98909
#
# Static dielectric constant tensor:
#      x y z
#    x 3.793050 0.000000 -0.095670 
#    y 0.000000 4.329790 0.000000 
#    z -0.095670 0.000000 3.292980 
# 
# 
# High freq. dielectric constant tensor:
#      x y z
#    x 1.823740 0.000000 -0.009640 
#    y 0.000000 1.843690 0.000000 
#    z -0.009640 0.000000 1.776740 
# 
# From -- ./inp_files/84818.got.cif
#   From: 2010.06.25/outbox.cif.g09.slc.cpg/sg10_43_cif.got.tgz:84818.got - 2010.06.27 22:07:45.
