data_PCOD8059645
_publ_section_title
;
Structure prediction by ZEFSAII (Michael W. Deem and Ramdas Pophale) SiO2 
 PCOD8059645
Probable space group: P 2/M
;
_chemical_formula_sum "Si O2"
_cell_formula_units_Z 32
_cell_length_a 11.540920
_cell_length_b 9.154725
_cell_length_c 19.024037
_cell_angle_alpha 90.000000
_cell_angle_beta 65.077706
_cell_angle_gamma 90.000000
_cell_volume 1822.796965
_symmetry_space_group_name_H-M "P 2/M"
_symmetry_group_IT_number 10
_symmetry_cell_setting 'monoclinic'
loop_
_space_group_symop_operation_xyz
x,y,z
-x,y,-z
-x,-y,-z
x,-y,z
loop_
_atom_site_type_symbol
_atom_site_label
_atom_site_fract_x
_atom_site_fract_y
_atom_site_fract_z
Si Si1 0.643717 0.164955 0.881045
Si Si2 0.880545 0.329789 0.987455
Si Si3 0.097723 0.168973 0.678167
Si Si4 0.895613 0.669379 0.470267
Si Si5 0.110094 0.329480 0.178528
Si Si6 0.618706 0.830745 0.397858
Si Si7 0.635885 0.835946 0.050047
Si Si8 0.386455 0.330302 0.453021
O O1 0.756101 0.269362 0.824080
O O2 0.504591 0.219344 0.888552
O O3 0.670226 0.000000 0.848333
O O4 0.640762 0.169568 0.965308
O O5 0.868305 0.500000 0.003908
O O6 0.900821 0.292076 0.900817
O O7 0.749778 0.261976 0.051825
O O8 0.000000 0.264329 0.000000
O O9 0.085724 0.233196 0.603296
O O10 0.241787 0.185873 0.672893
O O11 0.007603 0.253045 0.754337
O O12 0.057907 0.000000 0.684843
O O13 0.913347 0.500000 0.444182
O O14 0.755779 0.692486 0.542384
O O15 0.000000 0.719691 0.500000
O O16 0.104625 0.500000 0.195322
O O17 0.622346 0.734608 0.466879
O O18 0.499836 0.760353 0.383190
O O19 0.589599 0.000000 0.421385
O O20 0.657169 0.000000 0.071720
O O21 0.424136 0.500000 0.444619
#
# Coordination Sequence:
#
# PCOD8059645 Si02
#       8
#     4   4   4   4   4   4   4   4
#     4   8  14  26  43  64  91 117 146 187 229 268
#     4   9  18  31  46  67  95 123 152 189 231 273
#     4  10  20  32  47  68  94 123 153 188 229 271
#     4   9  18  32  49  70  96 123 152 187 225 269
#     4  10  19  30  47  69  92 121 154 188 228 273
#     4   9  16  26  41  62  88 116 147 185 225 262
#     4   8  14  25  43  66  89 116 149 186 227 269
#     4   9  15  24  42  66  89 114 145 183 224 262
#
# _framework density 17.555437999999999
#
# number of rings (size 3 to 8) (size 9 to 14) (size 15 to 20)
#    0.000    3.000    0.000    3.000    0.000    3.500 
#    0.000    2.500    0.000    1.500    0.000    5.250 
#    0.000    0.000    0.000    0.000    0.000    0.000 
#
# Total GULP energy -396450.291151 kJ/mol
# GULP energy per Si atom -12389.071598 kJ/mol
# Density = 1.751548 g / cm^3
# Si number density = 17.555438 Si / 1000 Ang^3
#
#
#
# Elastic Constant Matrix: (Units=GPa)
#
#
# Indices 1 2 3 4 5 6 
#
# 1 150.3919 64.5101 47.5858 0.0000 -37.2927 0.0000
# 2 64.5101 96.4694 48.2918 0.0000 -24.4093 0.0000
# 3 47.5858 48.2918 52.6520 0.0000 -28.4624 0.0000
# 4 0.0000 0.0000 0.0000 19.5037 0.0000 -9.8275
# 5 -37.2927 -24.4093 -28.4624 0.0000 29.5595 0.0000
# 6 0.0000 0.0000 0.0000 -9.8275 0.0000 27.8876
#
#
#
# Elastic Compliance Matrix: (Units=1/GPa)
#
#
# Indices 1 2 3 4 5 6 
#
# 1 0.011310 -0.004842 -0.000477 0.000000 0.009811 0.000000
# 2 -0.004842 0.021313 -0.018687 0.000000 -0.006502 0.000000
# 3 -0.000477 -0.018687 0.058180 0.000000 0.039987 0.000000
# 4 0.000000 0.000000 0.000000 0.062342 0.000000 0.021969
# 5 0.009811 -0.006502 0.039987 0.000000 0.079341 0.000000
# 6 0.000000 0.000000 0.000000 0.021969 0.000000 0.043600
#
#
# Mechanical properties :
#
#
# Convention : Reuss Voigt Hill
#
# Bulk Modulus (GPa) = 23.36999 68.92097 46.14548
# Shear Modulus (GPa) = 14.77709 24.66521 19.72115
#
# Velocity S-wave (km/s) = 2.90442 3.75239 3.35530
# Velocity P-wave (km/s) = 4.95869 7.62353 6.43066
#
# Compressibility (1/GPa) = 0.04278991
#
# Stress axis : x y z
#
# Youngs Moduli (GPa) = 88.41702 46.91949 17.18817
#
# Poissons Ratio (x) = 0.22717 0.00821
# Poissons Ratio (y) = 0.42809 0.32120
# Poissons Ratio (z) = 0.04221 0.87680
#
# Static dielectric constant tensor:
#      x y z
#    x 4.051070 0.000000 -0.637730 
#    y 0.000000 3.351010 0.000000 
#    z -0.637730 0.000000 2.956550 
# 
# 
# High freq. dielectric constant tensor:
#      x y z
#    x 1.685690 0.000000 -0.043680 
#    y 0.000000 1.685760 0.000000 
#    z -0.043680 0.000000 1.626360 
# 
# From -- ./inp_files/83360.got.cif
#   From: 2010.06.25/outbox.cif.g09.slc.cpg/sg10_42_cif.got.tgz:83360.got - 2010.06.27 22:07:45.
