data_PCOD8059782
_publ_section_title
;
Structure prediction by ZEFSAII (Michael W. Deem and Ramdas Pophale) SiO2 
 PCOD8059782
Probable space group: P 2/M
;
_chemical_formula_sum "Si O2"
_cell_formula_units_Z 32
_cell_length_a 23.759730
_cell_length_b 9.077944
_cell_length_c 17.386929
_cell_angle_alpha 90.000000
_cell_angle_beta 27.807002
_cell_angle_gamma 90.000000
_cell_volume 1749.438307
_symmetry_space_group_name_H-M "P 2/M"
_symmetry_group_IT_number 10
_symmetry_cell_setting 'monoclinic'
loop_
_space_group_symop_operation_xyz
x,y,z
-x,y,-z
-x,-y,-z
x,-y,z
loop_
_atom_site_type_symbol
_atom_site_label
_atom_site_fract_x
_atom_site_fract_y
_atom_site_fract_z
Si Si1 0.521990 0.173439 0.557199
Si Si2 0.869547 0.670445 0.986611
Si Si3 0.641769 0.337904 0.841389
Si Si4 0.207871 0.826679 0.764671
Si Si5 0.297236 0.171592 0.924306
Si Si6 0.863528 0.669602 0.295030
Si Si7 0.349142 0.674829 0.337406
Si Si8 0.601617 0.829257 0.036591
O O1 0.500000 0.245149 0.500000
O O2 0.655365 0.213676 0.425296
O O3 0.421682 0.233431 0.737049
O O4 0.507568 0.000000 0.568104
O O5 0.833732 0.500000 0.037516
O O6 0.818249 0.756023 0.121757
O O7 0.814200 0.737278 0.975455
O O8 0.013291 0.690525 0.806745
O O9 0.693198 0.500000 0.799910
O O10 0.695382 0.280588 0.695172
O O11 0.500000 0.348057 0.000000
O O12 0.669945 0.228673 0.877717
O O13 0.123987 0.761002 0.799097
O O14 0.185485 0.000000 0.798579
O O15 0.306251 0.198305 0.004621
O O16 0.277752 0.000000 0.928560
O O17 0.842800 0.500000 0.297715
O O18 0.753932 0.729515 0.479630
O O19 0.368539 0.500000 0.317526
O O20 0.475271 0.749750 0.206711
O O21 0.571800 0.000000 0.062105
#
# Coordination Sequence:
#
# PCOD8059782 Si02
#       8
#     4   4   4   4   4   4   4   4
#     4   9  16  30  51  71  95 127 160 199 243 287
#     4  11  23  37  52  71  98 134 173 214 256 293
#     4   8  15  29  50  75 103 135 167 199 243 301
#     4  11  21  35  56  77  99 131 170 208 253 307
#     4  10  20  35  52  72 101 135 169 205 249 301
#     4  10  22  38  53  72 101 132 168 216 258 291
#     4   9  18  34  54  75 103 137 168 203 250 301
#     4  10  19  30  50  81 111 134 160 202 254 303
#
# _framework density 18.291585999999999
#
# number of rings (size 3 to 8) (size 9 to 14) (size 15 to 20)
#    0.000    2.250    1.250    3.000    0.000    7.250 
#    0.000    1.875    0.000    0.750    0.000    5.250 
#    0.000    0.000    0.000    0.000    0.000    0.000 
#
# Total GULP energy -396749.003605 kJ/mol
# GULP energy per Si atom -12398.406363 kJ/mol
# Density = 1.824995 g / cm^3
# Si number density = 18.291586 Si / 1000 Ang^3
#
#
#
# Elastic Constant Matrix: (Units=GPa)
#
#
# Indices 1 2 3 4 5 6 
#
# 1 121.3923 56.5211 37.1807 0.0000 6.6091 0.0000
# 2 56.5211 80.7813 30.8268 0.0000 -0.1418 0.0000
# 3 37.1807 30.8268 41.9546 0.0000 1.5416 0.0000
# 4 0.0000 0.0000 0.0000 20.7880 0.0000 0.5268
# 5 6.6091 -0.1418 1.5416 0.0000 26.6574 0.0000
# 6 0.0000 0.0000 0.0000 0.5268 0.0000 31.4786
#
#
#
# Elastic Compliance Matrix: (Units=1/GPa)
#
#
# Indices 1 2 3 4 5 6 
#
# 1 0.013799 -0.006999 -0.006974 0.000000 -0.003055 0.000000
# 2 -0.006999 0.020770 -0.009146 0.000000 0.002375 0.000000
# 3 -0.006974 -0.009146 0.036752 0.000000 -0.000445 0.000000
# 4 0.000000 0.000000 0.000000 0.048125 0.000000 -0.000805
# 5 -0.003055 0.002375 -0.000445 0.000000 0.038309 0.000000
# 6 0.000000 0.000000 0.000000 -0.000805 0.000000 0.031781
#
#
# Mechanical properties :
#
#
# Convention : Reuss Voigt Hill
#
# Bulk Modulus (GPa) = 39.86654 54.79838 47.33246
# Shear Modulus (GPa) = 20.48041 23.75813 22.11927
#
# Velocity S-wave (km/s) = 3.34977 3.60787 3.48121
# Velocity P-wave (km/s) = 6.06660 6.88324 6.48778
#
# Compressibility (1/GPa) = 0.02508369
#
# Stress axis : x y z
#
# Youngs Moduli (GPa) = 72.47013 48.14522 27.20909
#
# Poissons Ratio (x) = 0.33696 0.18975
# Poissons Ratio (y) = 0.50720 0.24886
# Poissons Ratio (z) = 0.50540 0.44035
#
# Static dielectric constant tensor:
#      x y z
#    x 3.477740 0.000000 0.192640 
#    y 0.000000 3.280330 0.000000 
#    z 0.192640 0.000000 3.415430 
# 
# 
# High freq. dielectric constant tensor:
#      x y z
#    x 1.710450 0.000000 0.011170 
#    y 0.000000 1.699430 0.000000 
#    z 0.011170 0.000000 1.687070 
# 
# From -- ./inp_files/79911.got.cif
#   From: 2010.06.25/outbox.cif.g09.slc.cpg/sg10_40_cif.got.tgz:79911.got - 2010.06.27 22:07:45.
