data_PCOD8059930
_publ_section_title
;
Structure prediction by ZEFSAII (Michael W. Deem and Ramdas Pophale) SiO2 
 PCOD8059930
Probable space group: P 2/M
;
_chemical_formula_sum "Si O2"
_cell_formula_units_Z 28
_cell_length_a 9.523654
_cell_length_b 9.211399
_cell_length_c 26.527128
_cell_angle_alpha 90.000000
_cell_angle_beta 39.491654
_cell_angle_gamma 90.000000
_cell_volume 1479.971008
_symmetry_space_group_name_H-M "P 2/M"
_symmetry_group_IT_number 10
_symmetry_cell_setting 'monoclinic'
loop_
_space_group_symop_operation_xyz
x,y,z
-x,y,-z
-x,-y,-z
x,-y,z
loop_
_atom_site_type_symbol
_atom_site_label
_atom_site_fract_x
_atom_site_fract_y
_atom_site_fract_z
Si Si1 0.764981 0.833630 0.676534
Si Si2 0.234538 0.331195 0.913289
Si Si3 0.065598 0.672453 0.748969
Si Si4 0.432779 0.666089 0.571892
Si Si5 0.659106 0.668320 0.229853
Si Si6 0.341280 0.167604 0.178365
Si Si7 0.094485 0.665573 0.525514
O O1 0.566253 0.757504 0.701381
O O2 0.742865 0.812556 0.741857
O O3 0.997017 0.759559 0.598232
O O4 0.767378 0.000000 0.659590
O O5 0.281843 0.500000 0.910314
O O6 0.232515 0.296529 0.854291
O O7 0.418669 0.240624 0.892531
O O8 0.000000 0.282255 0.000000
O O9 0.032384 0.500000 0.753748
O O10 0.224994 0.732828 0.659733
O O11 0.170005 0.714313 0.773989
O O12 0.830289 0.751668 0.810873
O O13 0.500000 0.743177 0.500000
O O14 0.371456 0.500000 0.576571
O O15 0.642232 0.678435 0.550562
O O16 0.596342 0.500000 0.252397
O O17 0.359099 0.000000 0.157470
O O18 0.018910 0.500000 0.554729
O O19 0.000000 0.729613 0.500000
#
# Coordination Sequence:
#
# PCOD8059930 Si02
#       7
#     4   4   4   4   4   4   4
#     4  10  20  33  49  71 100 135 174 212 253 305
#     4   9  18  35  59  83 104 129 165 208 252 299
#     4  10  19  33  53  75 100 132 171 213 255 299
#     4   9  17  28  44  67  93 124 164 208 251 291
#     4   9  18  33  54  78 102 131 169 212 256 303
#     4  10  21  35  52  76 105 137 170 203 246 304
#     4  10  19  31  48  69  94 127 170 219 264 303
#
# _framework density 18.919288999999999
#
# number of rings (size 3 to 8) (size 9 to 14) (size 15 to 20)
#    0.000    2.429    0.000    2.571    0.000    6.286 
#    0.000    1.429    0.000    6.857    0.000    0.000 
#    0.000    0.000    0.000    0.000    0.000    0.000 
#
# Total GULP energy -347197.719234 kJ/mol
# GULP energy per Si atom -12399.918544 kJ/mol
# Density = 1.887623 g / cm^3
# Si number density = 18.919289 Si / 1000 Ang^3
#
#
#
# Elastic Constant Matrix: (Units=GPa)
#
#
# Indices 1 2 3 4 5 6 
#
# 1 99.9683 29.8904 20.2834 0.0000 -14.5175 0.0000
# 2 29.8904 64.4493 27.2603 0.0000 -12.4090 0.0000
# 3 20.2834 27.2603 85.0959 0.0000 -16.4162 0.0000
# 4 0.0000 0.0000 0.0000 17.6035 0.0000 1.6248
# 5 -14.5175 -12.4090 -16.4162 0.0000 25.1715 0.0000
# 6 0.0000 0.0000 0.0000 1.6248 0.0000 15.1191
#
#
#
# Elastic Compliance Matrix: (Units=1/GPa)
#
#
# Indices 1 2 3 4 5 6 
#
# 1 0.012111 -0.004524 -0.000595 0.000000 0.004366 0.000000
# 2 -0.004524 0.020419 -0.004603 0.000000 0.004455 0.000000
# 3 -0.000595 -0.004603 0.014715 0.000000 0.006984 0.000000
# 4 0.000000 0.000000 0.000000 0.057376 0.000000 -0.006166
# 5 0.004366 0.004455 0.006984 0.000000 0.048997 0.000000
# 6 0.000000 0.000000 0.000000 -0.006166 0.000000 0.066804
#
#
# Mechanical properties :
#
#
# Convention : Reuss Voigt Hill
#
# Bulk Modulus (GPa) = 35.97172 44.93130 40.45151
# Shear Modulus (GPa) = 20.06947 23.05078 21.56012
#
# Velocity S-wave (km/s) = 3.26052 3.49431 3.37944
# Velocity P-wave (km/s) = 5.76447 6.33094 6.05433
#
# Compressibility (1/GPa) = 0.02779962
#
# Stress axis : x y z
#
# Youngs Moduli (GPa) = 82.57114 48.97350 67.95607
#
# Poissons Ratio (x) = 0.22158 0.04043
# Poissons Ratio (y) = 0.37358 0.31283
# Poissons Ratio (z) = 0.04913 0.22545
#
# Static dielectric constant tensor:
#      x y z
#    x 3.481790 0.000000 -0.012390 
#    y 0.000000 3.260290 0.000000 
#    z -0.012390 0.000000 3.405250 
# 
# 
# High freq. dielectric constant tensor:
#      x y z
#    x 1.739500 0.000000 -0.007140 
#    y 0.000000 1.709100 0.000000 
#    z -0.007140 0.000000 1.724810 
# 
# From -- ./inp_files/36975.got.cif
#   From: 2010.06.25/outbox.cif.g09.slc.cpg/sg10_19_cif.got.tgz:36975.got - 2010.06.27 22:07:45.
