data_PCOD8059892
_publ_section_title
;
Structure prediction by ZEFSAII (Michael W. Deem and Ramdas Pophale) SiO2 
 PCOD8059892
Probable space group: P 2/M
;
_chemical_formula_sum "Si O2"
_cell_formula_units_Z 32
_cell_length_a 11.133934
_cell_length_b 8.725865
_cell_length_c 20.807962
_cell_angle_alpha 90.000000
_cell_angle_beta 115.964400
_cell_angle_gamma 90.000000
_cell_volume 1817.516544
_symmetry_space_group_name_H-M "P 2/M"
_symmetry_group_IT_number 10
_symmetry_cell_setting 'monoclinic'
loop_
_space_group_symop_operation_xyz
x,y,z
-x,y,-z
-x,-y,-z
x,-y,z
loop_
_atom_site_type_symbol
_atom_site_label
_atom_site_fract_x
_atom_site_fract_y
_atom_site_fract_z
Si Si1 0.200071 0.323554 0.701239
Si Si2 0.517716 0.180404 0.599808
Si Si3 0.698290 0.680484 0.536961
Si Si4 0.497806 0.676464 0.269744
Si Si5 0.972914 0.178456 0.566748
Si Si6 0.273885 0.172033 0.844080
Si Si7 0.653308 0.327260 0.014845
Si Si8 0.420712 0.171965 0.126413
O O1 0.156562 0.500000 0.684932
O O2 0.347115 0.295527 0.708224
O O3 0.192679 0.274686 0.774145
O O4 0.103692 0.215345 0.638232
O O5 0.382561 0.263685 0.544667
O O6 0.642975 0.235228 0.587083
O O7 0.545562 0.222675 0.679806
O O8 0.498579 0.000000 0.587550
O O9 0.679418 0.500000 0.540682
O O10 0.852629 0.720398 0.565566
O O11 0.467096 0.500000 0.276845
O O12 0.408381 0.729691 0.188533
O O13 0.000000 0.225830 0.500000
O O14 0.937015 0.000000 0.564414
O O15 0.255950 0.241883 0.910955
O O16 0.428363 0.171960 0.862274
O O17 0.216089 0.000000 0.829903
O O18 0.705339 0.500000 0.020829
O O19 0.500000 0.323838 0.000000
O O20 0.672012 0.245570 0.950439
O O21 0.370955 0.000000 0.128316
#
# Coordination Sequence:
#
# PCOD8059892 Si02
#       8
#     4   4   4   4   4   4   4   4
#     4  10  20  32  47  68  95 127 162 199 238 284
#     4  11  21  35  54  74  97 124 157 196 239 285
#     4  11  22  37  55  74  96 123 158 197 238 283
#     4  10  19  31  47  69  97 128 162 198 239 284
#     4  11  23  37  53  73  98 127 159 196 238 283
#     4   9  16  26  40  58  84 119 157 195 234 279
#     4   9  15  23  36  55  82 117 155 193 233 278
#     4   9  16  25  38  59  87 120 157 194 234 280
#
# _framework density 17.606442000000001
#
# number of rings (size 3 to 8) (size 9 to 14) (size 15 to 20)
#    0.000    2.000    0.000    6.000    0.000    9.000 
#    0.000    0.000    0.000    0.000    0.000    0.000 
#    0.000    1.000    0.000   10.000    0.000    9.000 
#
# Total GULP energy -396881.492192 kJ/mol
# GULP energy per Si atom -12402.546631 kJ/mol
# Density = 1.756637 g / cm^3
# Si number density = 17.606442 Si / 1000 Ang^3
#
#
#
# Elastic Constant Matrix: (Units=GPa)
#
#
# Indices 1 2 3 4 5 6 
#
# 1 34.8539 20.8708 27.4906 0.0000 -7.0908 0.0000
# 2 20.8708 96.2826 31.4116 0.0000 -7.4518 0.0000
# 3 27.4906 31.4116 126.9625 0.0000 -21.3910 0.0000
# 4 0.0000 0.0000 0.0000 36.3329 0.0000 -3.0328
# 5 -7.0908 -7.4518 -21.3910 0.0000 16.4472 0.0000
# 6 0.0000 0.0000 0.0000 -3.0328 0.0000 20.2312
#
#
#
# Elastic Compliance Matrix: (Units=1/GPa)
#
#
# Indices 1 2 3 4 5 6 
#
# 1 0.038001 -0.005887 -0.005713 0.000000 0.006286 0.000000
# 2 -0.005887 0.012257 -0.001600 0.000000 0.000934 0.000000
# 3 -0.005713 -0.001600 0.011490 0.000000 0.011756 0.000000
# 4 0.000000 0.000000 0.000000 0.027872 0.000000 0.004178
# 5 0.006286 0.000934 0.011756 0.000000 0.079223 0.000000
# 6 0.000000 0.000000 0.000000 0.004178 0.000000 0.050055
#
#
# Mechanical properties :
#
#
# Convention : Reuss Voigt Hill
#
# Bulk Modulus (GPa) = 28.29067 46.40500 37.34783
# Shear Modulus (GPa) = 19.44922 26.49065 22.96994
#
# Velocity S-wave (km/s) = 3.32726 3.88313 3.61589
# Velocity P-wave (km/s) = 5.55555 6.82048 6.22025
#
# Compressibility (1/GPa) = 0.03534734
#
# Stress axis : x y z
#
# Youngs Moduli (GPa) = 26.31505 81.58875 87.03371
#
# Poissons Ratio (x) = 0.48032 0.49718
# Poissons Ratio (y) = 0.15492 0.13929
# Poissons Ratio (z) = 0.15033 0.13057
#
# Static dielectric constant tensor:
#      x y z
#    x 2.766270 0.000000 -0.175650 
#    y 0.000000 3.443790 0.000000 
#    z -0.175650 0.000000 3.405950 
# 
# 
# High freq. dielectric constant tensor:
#      x y z
#    x 1.616910 0.000000 -0.019940 
#    y 0.000000 1.702460 0.000000 
#    z -0.019940 0.000000 1.690670 
# 
# From -- ./inp_files/83377.got.cif
#   From: 2010.06.25/outbox.cif.g09.slc.cpg/sg10_42_cif.got.tgz:83377.got - 2010.06.27 22:07:45.
