data_PCOD8059250
_publ_section_title
;
Structure prediction by ZEFSAII (Michael W. Deem and Ramdas Pophale) SiO2 
 PCOD8059250
Probable space group: P 2/M
;
_chemical_formula_sum "Si O2"
_cell_formula_units_Z 28
_cell_length_a 9.288073
_cell_length_b 16.255349
_cell_length_c 21.546031
_cell_angle_alpha 90.000000
_cell_angle_beta 25.436099
_cell_angle_gamma 90.000000
_cell_volume 1397.193656
_symmetry_space_group_name_H-M "P 2/M"
_symmetry_group_IT_number 10
_symmetry_cell_setting 'monoclinic'
loop_
_space_group_symop_operation_xyz
x,y,z
-x,y,-z
-x,-y,-z
x,-y,z
loop_
_atom_site_type_symbol
_atom_site_label
_atom_site_fract_x
_atom_site_fract_y
_atom_site_fract_z
Si Si1 0.861180 0.910024 0.378587
Si Si2 0.719773 0.649928 0.470858
Si Si3 0.008284 0.500000 0.922465
Si Si4 0.694352 0.090615 0.580424
Si Si5 0.217051 0.753242 0.202256
Si Si6 0.743190 0.761010 0.274861
Si Si7 0.692705 0.500000 0.575052
Si Si8 0.096809 0.679073 0.034480
O O1 0.500000 0.872043 0.500000
O O2 0.870856 0.923560 0.446912
O O3 0.151007 0.846674 0.248226
O O4 0.914918 0.000000 0.324838
O O5 0.500000 0.614676 0.500000
O O6 0.561535 0.729887 0.564408
O O7 0.742387 0.579163 0.512656
O O8 0.065669 0.682884 0.306837
O O9 0.361868 0.500000 0.747386
O O10 0.000000 0.500000 0.000000
O O11 0.816601 0.584453 0.979826
O O12 0.358480 0.146521 0.706334
O O13 0.000000 0.131873 0.500000
O O14 0.590578 0.000000 0.647538
O O15 0.611292 0.738885 0.055447
O O16 0.082404 0.749597 0.183791
O O17 0.775758 0.707296 0.199593
O O18 0.000000 0.500000 0.500000
O O19 0.000000 0.688477 0.000000
#
# Coordination Sequence:
#
# PCOD8059250 Si02
#       8
#     4   4   2   4   4   4   2   4
#     4  10  18  35  63  95 125 159 203 255 307 362
#     4  10  22  39  63  91 125 153 200 260 309 363
#     4  10  24  47  60  85 127 161 207 254 312 385
#     4  10  21  35  60  95 130 163 202 255 313 366
#     4  11  22  39  62  95 123 163 205 252 308 367
#     4  11  21  41  62  90 125 161 208 255 301 373
#     4  12  25  39  67  94 120 158 206 263 320 367
#     4  11  26  42  65  84 124 167 207 255 312 375
#
# _framework density 20.040171999999998
#
# number of rings (size 3 to 8) (size 9 to 14) (size 15 to 20)
#    0.000    1.429    4.286    1.071    6.000    0.571 
#    0.000    2.857    0.000    2.571    0.000    0.000 
#    0.000    0.000    0.000    0.000    0.000    0.000 
#
# Total GULP energy -346884.889018 kJ/mol
# GULP energy per Si atom -12388.746036 kJ/mol
# Density = 1.999456 g / cm^3
# Si number density = 20.040172 Si / 1000 Ang^3
#
#
#
# Elastic Constant Matrix: (Units=GPa)
#
#
# Indices 1 2 3 4 5 6 
#
# 1 116.2273 44.0069 36.7717 0.0000 -0.5235 0.0000
# 2 44.0069 137.4017 33.0087 0.0000 -3.2258 0.0000
# 3 36.7717 33.0087 59.1181 0.0000 4.6559 0.0000
# 4 0.0000 0.0000 0.0000 30.3272 0.0000 3.3531
# 5 -0.5235 -3.2258 4.6559 0.0000 35.7245 0.0000
# 6 0.0000 0.0000 0.0000 3.3531 0.0000 30.2542
#
#
#
# Elastic Compliance Matrix: (Units=1/GPa)
#
#
# Indices 1 2 3 4 5 6 
#
# 1 0.011290 -0.002192 -0.005856 0.000000 0.000731 0.000000
# 2 -0.002192 0.008899 -0.003704 0.000000 0.001254 0.000000
# 3 -0.005856 -0.003704 0.022894 0.000000 -0.003404 0.000000
# 4 0.000000 0.000000 0.000000 0.033383 0.000000 -0.003700
# 5 0.000731 0.001254 -0.003404 0.000000 0.028560 0.000000
# 6 0.000000 0.000000 0.000000 -0.003700 0.000000 0.033463
#
#
# Mechanical properties :
#
#
# Convention : Reuss Voigt Hill
#
# Bulk Modulus (GPa) = 51.07576 60.03575 55.55576
# Shear Modulus (GPa) = 29.67014 32.52516 31.09765
#
# Velocity S-wave (km/s) = 3.85194 4.03302 3.94352
# Velocity P-wave (km/s) = 6.73241 7.19094 6.96545
#
# Compressibility (1/GPa) = 0.01957876
#
# Stress axis : x y z
#
# Youngs Moduli (GPa) = 88.57604 112.36815 43.67933
#
# Poissons Ratio (x) = 0.24630 0.25578
# Poissons Ratio (y) = 0.19415 0.16180
# Poissons Ratio (z) = 0.51870 0.41625
#
# Static dielectric constant tensor:
#      x y z
#    x 3.658180 0.000000 0.242210 
#    y 0.000000 3.910490 0.000000 
#    z 0.242210 0.000000 3.434770 
# 
# 
# High freq. dielectric constant tensor:
#      x y z
#    x 1.786680 0.000000 0.017520 
#    y 0.000000 1.795440 0.000000 
#    z 0.017520 0.000000 1.755060 
# 
# From -- ./inp_files/83004.got.cif
#   From: 2010.06.25/outbox.cif.g09.slc.cpg/sg10_42_cif.got.tgz:83004.got - 2010.06.27 22:07:45.
