data_PCOD8059140
_publ_section_title
;
Structure prediction by ZEFSAII (Michael W. Deem and Ramdas Pophale) SiO2 
 PCOD8059140
Probable space group: P 2/M
;
_chemical_formula_sum "Si O2"
_cell_formula_units_Z 32
_cell_length_a 15.840813
_cell_length_b 8.965612
_cell_length_c 24.513185
_cell_angle_alpha 90.000000
_cell_angle_beta 28.126304
_cell_angle_gamma 90.000000
_cell_volume 1641.202665
_symmetry_space_group_name_H-M "P 2/M"
_symmetry_group_IT_number 10
_symmetry_cell_setting 'monoclinic'
loop_
_space_group_symop_operation_xyz
x,y,z
-x,y,-z
-x,-y,-z
x,-y,z
loop_
_atom_site_type_symbol
_atom_site_label
_atom_site_fract_x
_atom_site_fract_y
_atom_site_fract_z
Si Si1 0.874264 0.321705 0.522949
Si Si2 0.186855 0.675994 0.866510
Si Si3 0.492416 0.674138 0.771163
Si Si4 0.702012 0.675994 0.399886
Si Si5 0.051311 0.323232 0.641572
Si Si6 0.103110 0.824389 0.808709
Si Si7 0.694911 0.323395 0.903535
Si Si8 0.747485 0.326259 0.996895
O O1 0.877370 0.500000 0.520119
O O2 0.681620 0.252873 0.648499
O O3 0.925404 0.260644 0.433354
O O4 0.000000 0.261969 0.500000
O O5 0.197774 0.500000 0.849817
O O6 0.340489 0.737842 0.818311
O O7 0.223320 0.760048 0.788992
O O8 0.000000 0.721661 0.000000
O O9 0.510280 0.500000 0.750358
O O10 0.437252 0.705378 0.865391
O O11 0.500000 0.730445 0.500000
O O12 0.716309 0.500000 0.382971
O O13 0.776371 0.719938 0.418205
O O14 0.837351 0.755221 0.282173
O O15 0.038091 0.500000 0.647717
O O16 0.861565 0.259258 0.773003
O O17 0.901413 0.772669 0.936321
O O18 0.119821 0.000000 0.796423
O O19 0.688425 0.500000 0.900214
O O20 0.725332 0.275428 0.947989
O O21 0.500000 0.254945 0.000000
O O22 0.801755 0.500000 0.971769
#
# Coordination Sequence:
#
# PCOD8059140 Si02
#       8
#     4   4   4   4   4   4   4   4
#     4   9  18  29  44  74 116 147 170 219 285 333
#     4  10  19  34  55  78 106 144 187 226 267 325
#     4   9  18  30  49  74 104 145 185 222 267 327
#     4  10  21  37  59  81 105 147 193 231 270 323
#     4   9  17  30  47  75 110 142 180 221 267 327
#     4  12  24  36  53  79 115 147 178 226 288 338
#     4   9  17  27  48  78 106 137 177 230 280 323
#     4  10  18  34  55  78 109 144 187 226 271 330
#
# _framework density 19.497896999999998
#
# number of rings (size 3 to 8) (size 9 to 14) (size 15 to 20)
#    0.000    2.250    2.500    1.125    3.500    0.500 
#    0.000    0.000    0.000    0.375    0.000    0.000 
#    0.000    2.500    0.000    0.000    0.000    0.000 
#
# Total GULP energy -396601.954639 kJ/mol
# GULP energy per Si atom -12393.811082 kJ/mol
# Density = 1.945352 g / cm^3
# Si number density = 19.497897 Si / 1000 Ang^3
#
#
#
# Elastic Constant Matrix: (Units=GPa)
#
#
# Indices 1 2 3 4 5 6 
#
# 1 157.7381 17.9874 90.6007 0.0000 5.4896 0.0000
# 2 17.9874 17.0542 10.5118 0.0000 3.2730 0.0000
# 3 90.6007 10.5118 152.5510 0.0000 -2.3742 0.0000
# 4 0.0000 0.0000 0.0000 2.7776 0.0000 0.8011
# 5 5.4896 3.2730 -2.3742 0.0000 42.7251 0.0000
# 6 0.0000 0.0000 0.0000 0.8011 0.0000 2.9564
#
#
#
# Elastic Compliance Matrix: (Units=1/GPa)
#
#
# Indices 1 2 3 4 5 6 
#
# 1 0.010525 -0.007335 -0.005762 0.000000 -0.001111 0.000000
# 2 -0.007335 0.067406 -0.000354 0.000000 -0.004241 0.000000
# 3 -0.005762 -0.000354 0.010023 0.000000 0.001324 0.000000
# 4 0.000000 0.000000 0.000000 0.390545 0.000000 -0.105831
# 5 -0.001111 -0.004241 0.001324 0.000000 0.023947 0.000000
# 6 0.000000 0.000000 0.000000 -0.105831 0.000000 0.366928
#
#
# Mechanical properties :
#
#
# Convention : Reuss Voigt Hill
#
# Bulk Modulus (GPa) = 16.38040 62.83813 39.60926
# Shear Modulus (GPa) = 5.45479 23.57471 14.51475
#
# Velocity S-wave (km/s) = 1.67443 3.48097 2.73138
# Velocity P-wave (km/s) = 3.48678 6.96091 5.50509
#
# Compressibility (1/GPa) = 0.06104857
#
# Stress axis : x y z
#
# Youngs Moduli (GPa) = 95.01614 14.83558 99.77541
#
# Poissons Ratio (x) = 0.10883 0.57494
# Poissons Ratio (y) = 0.69699 0.03533
# Poissons Ratio (z) = 0.54752 0.00525
#
# Static dielectric constant tensor:
#      x y z
#    x 3.866090 0.000000 -0.059900 
#    y 0.000000 2.826870 0.000000 
#    z -0.059900 0.000000 3.829960 
# 
# 
# High freq. dielectric constant tensor:
#      x y z
#    x 1.774630 0.000000 0.003170 
#    y 0.000000 1.680100 0.000000 
#    z 0.003170 0.000000 1.768650 
# 
# From -- ./inp_files/89484.got.cif
#   From: 2010.06.25/outbox.cif.g09.slc.cpg/sg10_45_cif.got.tgz:89484.got - 2010.06.27 22:07:45.
