data_PCOD8059232
_publ_section_title
;
Structure prediction by ZEFSAII (Michael W. Deem and Ramdas Pophale) SiO2 
 PCOD8059232
Probable space group: P 2/M
;
_chemical_formula_sum "Si O2"
_cell_formula_units_Z 32
_cell_length_a 9.748303
_cell_length_b 9.199132
_cell_length_c 19.092626
_cell_angle_alpha 90.000000
_cell_angle_beta 88.790472
_cell_angle_gamma 90.000000
_cell_volume 1711.767429
_symmetry_space_group_name_H-M "P 2/M"
_symmetry_group_IT_number 10
_symmetry_cell_setting 'monoclinic'
loop_
_space_group_symop_operation_xyz
x,y,z
-x,y,-z
-x,-y,-z
x,-y,z
loop_
_atom_site_type_symbol
_atom_site_label
_atom_site_fract_x
_atom_site_fract_y
_atom_site_fract_z
Si Si1 0.848771 0.327789 0.585648
Si Si2 0.282844 0.332667 0.708038
Si Si3 0.779202 0.831330 0.720344
Si Si4 0.903660 0.670409 0.066047
Si Si5 0.842158 0.670833 0.432006
Si Si6 0.058539 0.168917 0.795836
Si Si7 0.542562 0.332717 0.792349
Si Si8 0.592529 0.327570 0.061953
O O1 0.833140 0.500000 0.597679
O O2 0.760685 0.246655 0.645634
O O3 0.793417 0.276064 0.509529
O O4 0.006204 0.272947 0.589471
O O5 0.234915 0.500000 0.717562
O O6 0.264490 0.281454 0.627356
O O7 0.440776 0.314651 0.727394
O O8 0.193644 0.234718 0.759934
O O9 0.931270 0.802305 0.746482
O O10 0.675272 0.764145 0.777677
O O11 0.746004 0.000000 0.711798
O O12 0.902325 0.500000 0.083381
O O13 0.749126 0.727609 0.052759
O O14 0.969954 0.753546 0.130428
O O15 0.000000 0.707442 0.000000
O O16 0.855228 0.500000 0.438133
O O17 0.083031 0.000000 0.809176
O O18 0.587777 0.500000 0.800805
O O19 0.469282 0.274998 0.863478
O O20 0.591503 0.500000 0.058278
O O21 0.500000 0.262361 0.000000
#
# Coordination Sequence:
#
# PCOD8059232 Si02
#       8
#     4   4   4   4   4   4   4   4
#     4   9  16  31  55  83 110 141 181 227 283 329
#     4  10  18  35  60  85 109 139 186 235 276 327
#     4  11  24  38  52  78 115 152 189 227 270 325
#     4  10  21  37  60  87 111 140 181 230 278 322
#     4   8  15  28  54  86 111 136 175 233 284 327
#     4  11  23  37  55  80 114 150 185 227 275 325
#     4  10  21  36  58  82 108 146 186 227 277 326
#     4   9  18  34  55  84 114 137 173 224 273 326
#
# _framework density 18.694127999999999
#
# number of rings (size 3 to 8) (size 9 to 14) (size 15 to 20)
#    0.000    2.250    2.500    1.500    1.750    2.250 
#    0.000    2.500    0.000    4.500    0.000    0.000 
#    0.000    0.000    0.000    0.000    0.000    0.000 
#
# Total GULP energy -396773.604111 kJ/mol
# GULP energy per Si atom -12399.175128 kJ/mol
# Density = 1.865158 g / cm^3
# Si number density = 18.694128 Si / 1000 Ang^3
#
#
#
# Elastic Constant Matrix: (Units=GPa)
#
#
# Indices 1 2 3 4 5 6 
#
# 1 53.2974 26.8523 28.9656 0.0000 -13.4389 0.0000
# 2 26.8523 61.2198 39.4985 0.0000 -6.5490 0.0000
# 3 28.9656 39.4985 126.2829 0.0000 0.3106 0.0000
# 4 0.0000 0.0000 0.0000 7.1671 0.0000 4.6564
# 5 -13.4389 -6.5490 0.3106 0.0000 32.0753 0.0000
# 6 0.0000 0.0000 0.0000 4.6564 0.0000 17.8631
#
#
#
# Elastic Compliance Matrix: (Units=1/GPa)
#
#
# Indices 1 2 3 4 5 6 
#
# 1 0.027602 -0.008714 -0.003630 0.000000 0.009821 0.000000
# 2 -0.008714 0.023809 -0.005451 0.000000 0.001263 0.000000
# 3 -0.003630 -0.005451 0.010463 0.000000 -0.002735 0.000000
# 4 0.000000 0.000000 0.000000 0.167973 0.000000 -0.043786
# 5 0.009821 0.001263 -0.002735 0.000000 0.035576 0.000000
# 6 0.000000 0.000000 0.000000 -0.043786 0.000000 0.067395
#
#
# Mechanical properties :
#
#
# Convention : Reuss Voigt Hill
#
# Bulk Modulus (GPa) = 38.04657 47.93696 42.99177
# Shear Modulus (GPa) = 13.25663 21.12003 17.18833
#
# Velocity S-wave (km/s) = 2.66585 3.36485 3.03553
# Velocity P-wave (km/s) = 5.46553 6.38708 5.94419
#
# Compressibility (1/GPa) = 0.02628358
#
# Stress axis : x y z
#
# Youngs Moduli (GPa) = 36.22935 42.00069 95.57507
#
# Poissons Ratio (x) = 0.36601 0.34689
# Poissons Ratio (y) = 0.31572 0.52100
# Poissons Ratio (z) = 0.13150 0.22896
#
# Static dielectric constant tensor:
#      x y z
#    x 3.318300 0.000000 0.168760 
#    y 0.000000 3.109730 0.000000 
#    z 0.168760 0.000000 3.792810 
# 
# 
# High freq. dielectric constant tensor:
#      x y z
#    x 1.712780 0.000000 0.004950 
#    y 0.000000 1.690930 0.000000 
#    z 0.004950 0.000000 1.741560 
# 
# From -- ./inp_files/82011.got.cif
#   From: 2010.06.25/outbox.cif.g09.slc.cpg/sg10_42_cif.got.tgz:82011.got - 2010.06.27 22:07:45.
