data_PCOD8059630
_publ_section_title
;
Structure prediction by ZEFSAII (Michael W. Deem and Ramdas Pophale) SiO2 
 PCOD8059630
Probable space group: P 2/M
;
_chemical_formula_sum "Si O2"
_cell_formula_units_Z 28
_cell_length_a 16.357539
_cell_length_b 8.727657
_cell_length_c 18.330581
_cell_angle_alpha 90.000000
_cell_angle_beta 143.104350
_cell_angle_gamma 90.000000
_cell_volume 1571.097941
_symmetry_space_group_name_H-M "P 2/M"
_symmetry_group_IT_number 10
_symmetry_cell_setting 'monoclinic'
loop_
_space_group_symop_operation_xyz
x,y,z
-x,y,-z
-x,-y,-z
x,-y,z
loop_
_atom_site_type_symbol
_atom_site_label
_atom_site_fract_x
_atom_site_fract_y
_atom_site_fract_z
Si Si1 0.799560 0.672586 0.905264
Si Si2 0.980698 0.174979 0.745563
Si Si3 0.521835 0.678281 0.098941
Si Si4 0.285351 0.175180 0.017268
Si Si5 0.106375 0.327663 0.178967
Si Si6 0.798343 0.180406 0.341629
Si Si7 0.974792 0.679983 0.589792
O O1 0.741322 0.500000 0.868533
O O2 0.710526 0.782484 0.893661
O O3 0.796681 0.729991 0.818599
O O4 0.953193 0.674302 0.041904
O O5 0.942647 0.280892 0.650275
O O6 0.880591 0.219326 0.741062
O O7 0.953871 0.000000 0.705292
O O8 0.136398 0.203951 0.878505
O O9 0.558762 0.500000 0.132191
O O10 0.385032 0.713381 0.045170
O O11 0.641809 0.779322 0.218114
O O12 0.500000 0.726838 0.000000
O O13 0.331594 0.000000 0.041093
O O14 0.147873 0.500000 0.230841
O O15 0.886001 0.236341 0.334880
O O16 0.849628 0.263637 0.451219
O O17 0.816550 0.000000 0.363970
O O18 0.994490 0.500000 0.593855
#
# Coordination Sequence:
#
# PCOD8059630 Si02
#       7
#     4   4   4   4   4   4   4
#     4   8  14  26  43  63  92 128 164 200 239 289
#     4  10  19  30  46  72 103 132 164 203 247 289
#     4  11  23  37  53  73  98 130 166 201 239 287
#     4  10  20  31  46  70 100 133 166 202 245 291
#     4   8  14  25  42  65  93 127 163 199 242 289
#     4  11  22  37  55  74  98 126 160 202 247 289
#     4  11  21  35  54  74  98 128 164 201 240 289
#
# _framework density 17.821932
#
# number of rings (size 3 to 8) (size 9 to 14) (size 15 to 20)
#    0.000    2.143    0.000    6.429    0.000    5.714 
#    0.000    2.857    0.000    0.000    0.000    1.000 
#    0.000    8.000    0.000    0.000    0.000    0.000 
#
# Total GULP energy -347177.309270 kJ/mol
# GULP energy per Si atom -12399.189617 kJ/mol
# Density = 1.778137 g / cm^3
# Si number density = 17.821932 Si / 1000 Ang^3
#
#
#
# Elastic Constant Matrix: (Units=GPa)
#
#
# Indices 1 2 3 4 5 6 
#
# 1 114.2361 28.7458 32.6256 0.0000 -23.5173 0.0000
# 2 28.7458 72.8054 23.2269 0.0000 -7.0961 0.0000
# 3 32.6256 23.2269 45.9515 0.0000 -10.2502 0.0000
# 4 0.0000 0.0000 0.0000 23.1365 0.0000 -1.6930
# 5 -23.5173 -7.0961 -10.2502 0.0000 23.3091 0.0000
# 6 0.0000 0.0000 0.0000 -1.6930 0.0000 29.7001
#
#
#
# Elastic Compliance Matrix: (Units=1/GPa)
#
#
# Indices 1 2 3 4 5 6 
#
# 1 0.013051 -0.002310 -0.005897 0.000000 0.009872 0.000000
# 2 -0.002310 0.016832 -0.006924 0.000000 -0.000251 0.000000
# 3 -0.005897 -0.006924 0.030659 0.000000 0.005425 0.000000
# 4 0.000000 0.000000 0.000000 0.043403 0.000000 0.002474
# 5 0.009872 -0.000251 0.005425 0.000000 0.055171 0.000000
# 6 0.000000 0.000000 0.000000 0.002474 0.000000 0.033811
#
#
# Mechanical properties :
#
#
# Convention : Reuss Voigt Hill
#
# Bulk Modulus (GPa) = 33.02440 44.68774 38.85607
# Shear Modulus (GPa) = 21.43339 25.12213 23.27776
#
# Velocity S-wave (km/s) = 3.47167 3.75856 3.61796
# Velocity P-wave (km/s) = 5.88561 6.63059 6.26918
#
# Compressibility (1/GPa) = 0.03028064
#
# Stress axis : x y z
#
# Youngs Moduli (GPa) = 76.62024 59.41194 32.61702
#
# Poissons Ratio (x) = 0.13722 0.19234
# Poissons Ratio (y) = 0.17696 0.22584
# Poissons Ratio (z) = 0.45183 0.41137
#
# Static dielectric constant tensor:
#      x y z
#    x 3.554910 0.000000 -0.266450 
#    y 0.000000 3.364480 0.000000 
#    z -0.266450 0.000000 2.947420 
# 
# 
# High freq. dielectric constant tensor:
#      x y z
#    x 1.694540 0.000000 -0.024350 
#    y 0.000000 1.698880 0.000000 
#    z -0.024350 0.000000 1.644470 
# 
# From -- ./inp_files/77777.got.cif
#   From: 2010.06.25/outbox.cif.g09.slc.cpg/sg10_39_cif.got.tgz:77777.got - 2010.06.27 22:07:45.
