data_PCOD8059678
_publ_section_title
;
Structure prediction by ZEFSAII (Michael W. Deem and Ramdas Pophale) SiO2 
 PCOD8059678
Probable space group: P 2/M
;
_chemical_formula_sum "Si O2"
_cell_formula_units_Z 32
_cell_length_a 7.889945
_cell_length_b 13.164277
_cell_length_c 21.433149
_cell_angle_alpha 90.000000
_cell_angle_beta 123.516575
_cell_angle_gamma 90.000000
_cell_volume 1856.010282
_symmetry_space_group_name_H-M "P 2/M"
_symmetry_group_IT_number 10
_symmetry_cell_setting 'monoclinic'
loop_
_space_group_symop_operation_xyz
x,y,z
-x,y,-z
-x,-y,-z
x,-y,z
loop_
_atom_site_type_symbol
_atom_site_label
_atom_site_fract_x
_atom_site_fract_y
_atom_site_fract_z
Si Si1 0.800479 0.888928 0.000000
Si Si2 0.397313 0.749925 0.135200
Si Si3 0.368855 0.619614 0.912570
Si Si4 0.991712 0.250075 0.864799
Si Si5 0.088247 0.884416 0.263969
Si Si6 0.445596 0.880060 0.422002
Si Si7 0.179590 0.880060 0.577998
Si Si8 0.703660 0.884416 0.263969
O O1 0.852744 0.830217 0.073692
O O2 0.713906 0.000000 0.000000
O O3 0.631668 0.830217 0.926308
O O4 0.000000 0.900876 0.000000
O O5 0.522509 0.658153 0.129126
O O6 0.181798 0.711916 0.121199
O O7 0.520985 0.806376 0.215003
O O8 0.355096 0.500000 0.903398
O O9 0.135133 0.658153 0.870874
O O10 0.500000 0.651293 0.000000
O O11 0.875975 0.193624 0.784996
O O12 0.225078 0.849220 0.350765
O O13 0.854208 0.879588 0.236139
O O14 0.147446 0.000000 0.255767
O O15 0.500000 0.829803 0.500000
O O16 0.608064 0.839554 0.405376
O O17 0.458270 0.000000 0.432316
O O18 0.172783 0.849221 0.649235
O O19 0.000000 0.829803 0.500000
O O20 0.161320 0.000000 0.567684
O O21 0.619855 0.000000 0.255767
#
# Coordination Sequence:
#
# PCOD8059678 Si02
#       8
#     4   4   4   4   4   4   4   4
#     4   9  18  31  49  74 105 139 172 204 242 296
#     4  11  21  36  55  77 104 135 172 214 260 309
#     4  11  24  42  60  78 100 128 170 222 278 326
#     4  11  21  36  55  77 104 135 172 214 260 309
#     4  10  19  30  47  73 106 144 179 212 252 302
#     4   9  16  26  40  61  94 139 183 216 248 288
#     4   9  16  26  40  61  94 139 183 216 248 288
#     4  10  19  30  47  73 106 144 179 212 252 302
#
# _framework density 17.241284
#
# number of rings (size 3 to 8) (size 9 to 14) (size 15 to 20)
#    0.000    2.000    2.500    2.250    0.000    6.000 
#    0.000    1.875    0.000    0.000    0.000    0.000 
#    0.000    1.000    0.500    0.000    0.000    0.000 
#
# Total GULP energy -396659.986730 kJ/mol
# GULP energy per Si atom -12395.624585 kJ/mol
# Density = 1.720204 g / cm^3
# Si number density = 17.241284 Si / 1000 Ang^3
#
#
#
# Elastic Constant Matrix: (Units=GPa)
#
#
# Indices 1 2 3 4 5 6 
#
# 1 93.7840 31.8636 24.2541 0.0000 -0.0007 0.0000
# 2 31.8636 61.4763 32.4626 0.0000 0.0000 0.0000
# 3 24.2541 32.4626 106.8144 0.0000 0.0012 0.0000
# 4 0.0000 0.0000 0.0000 -1.4766 0.0000 -0.0007
# 5 -0.0007 0.0000 0.0012 0.0000 27.4531 0.0000
# 6 0.0000 0.0000 0.0000 -0.0007 0.0000 16.3338
#
#
#
# Elastic Compliance Matrix: (Units=1/GPa)
#
#
# Indices 1 2 3 4 5 6 
#
# 1 0.013046 -0.006191 -0.001081 0.000000 0.000000 0.000000
# 2 -0.006191 0.022314 -0.005376 0.000000 0.000000 0.000000
# 3 -0.001081 -0.005376 0.011241 0.000000 0.000000 0.000000
# 4 0.000000 0.000000 0.000000 -0.677226 0.000000 -0.000029
# 5 0.000000 0.000000 0.000000 0.000000 0.036426 0.000000
# 6 0.000000 0.000000 0.000000 -0.000029 0.000000 0.061223
#
#
# Mechanical properties :
#
#
# Convention : Reuss Voigt Hill
#
# Bulk Modulus (GPa) = 46.93545 48.80394 47.86970
# Shear Modulus (GPa) = -9.98842 20.02835 5.01996
#
# Velocity S-wave (km/s) = -2.40954 3.41200 1.70819
# Velocity P-wave (km/s) = 4.42048 6.62497 5.63164
#
# Compressibility (1/GPa) = 0.02130586
#
# Stress axis : x y z
#
# Youngs Moduli (GPa) = 76.65351 44.81500 88.95837
#
# Poissons Ratio (x) = 0.27745 0.09614
# Poissons Ratio (y) = 0.47456 0.47822
# Poissons Ratio (z) = 0.08284 0.24092
#
# Static dielectric constant tensor:
#      x y z
#    x 3.234660 0.000000 0.000000 
#    y 0.000000 2.762520 0.000000 
#    z 0.000000 0.000000 3.348100 
# 
# 
# High freq. dielectric constant tensor:
#      x y z
#    x 1.676050 0.000000 0.000000 
#    y 0.000000 1.595290 0.000000 
#    z 0.000000 0.000000 1.674850 
# 
# From -- ./inp_files/82643.got.cif
#   From: 2010.06.25/outbox.cif.g09.slc.cpg/sg10_42_cif.got.tgz:82643.got - 2010.06.27 22:07:45.
