data_PCOD8059757
_publ_section_title
;
Structure prediction by ZEFSAII (Michael W. Deem and Ramdas Pophale) SiO2 
 PCOD8059757
Probable space group: P 2/M
;
_chemical_formula_sum "Si O2"
_cell_formula_units_Z 24
_cell_length_a 12.417908
_cell_length_b 21.474893
_cell_length_c 10.186606
_cell_angle_alpha 90.000000
_cell_angle_beta 155.891578
_cell_angle_gamma 90.000000
_cell_volume 1109.592254
_symmetry_space_group_name_H-M "P 2/M"
_symmetry_group_IT_number 10
_symmetry_cell_setting 'monoclinic'
loop_
_space_group_symop_operation_xyz
x,y,z
-x,y,-z
-x,-y,-z
x,-y,z
loop_
_atom_site_type_symbol
_atom_site_label
_atom_site_fract_x
_atom_site_fract_y
_atom_site_fract_z
Si Si1 0.533725 0.428875 0.692721
Si Si2 0.229000 0.069794 0.858711
Si Si3 0.972046 0.368420 0.821327
Si Si4 0.486162 0.194987 0.129428
Si Si5 0.941742 0.227881 0.144138
Si Si6 0.209446 0.896119 0.129871
O O1 0.500000 0.418984 0.500000
O O2 0.492860 0.500000 0.690249
O O3 0.330844 0.385562 0.551411
O O4 0.830589 0.406001 0.055561
O O5 0.000000 0.086034 0.500000
O O6 0.336645 0.000000 0.953347
O O7 0.460560 0.119780 0.095148
O O8 0.131832 0.076032 0.901373
O O9 0.052262 0.296441 0.907910
O O10 0.000000 0.393923 0.000000
O O11 0.757228 0.207724 0.503569
O O12 0.500000 0.224081 0.000000
O O13 0.231977 0.225932 0.916204
O O14 0.807419 0.179510 0.893419
O O15 0.500000 0.916281 0.500000
O O16 0.000000 0.923513 0.000000
#
# Coordination Sequence:
#
# PCOD8059757 Si02
#       6
#     4   4   4   4   4   4
#     4   9  17  29  45  70 108 150 187 225 269 319
#     4  10  23  43  66  90 117 155 203 248 296 360
#     4  10  19  30  49  76 109 149 186 221 268 336
#     4  11  22  40  61  83 112 145 185 242 301 345
#     4  11  22  37  58  84 116 150 191 235 287 354
#     4  11  23  40  61  87 121 157 193 243 305 359
#
# _framework density 21.629567999999999
#
# number of rings (size 3 to 8) (size 9 to 14) (size 15 to 20)
#    0.000    1.667    0.000    6.500    0.000    5.000 
#    0.000    8.333    0.000    0.000    0.000    0.000 
#    0.000   46.667    0.000    0.000    0.000    0.000 
#
# Total GULP energy -297485.585626 kJ/mol
# GULP energy per Si atom -12395.232734 kJ/mol
# Density = 2.158034 g / cm^3
# Si number density = 21.629568 Si / 1000 Ang^3
#
#
#
# Elastic Constant Matrix: (Units=GPa)
#
#
# Indices 1 2 3 4 5 6 
#
# 1 108.1391 12.5754 48.8144 0.0000 15.2420 0.0000
# 2 12.5754 85.8397 25.9440 0.0000 22.5983 0.0000
# 3 48.8144 25.9440 108.3350 0.0000 24.0162 0.0000
# 4 0.0000 0.0000 0.0000 24.9229 0.0000 1.4036
# 5 15.2420 22.5983 24.0162 0.0000 45.8940 0.0000
# 6 0.0000 0.0000 0.0000 1.4036 0.0000 -12.7043
#
#
#
# Elastic Compliance Matrix: (Units=1/GPa)
#
#
# Indices 1 2 3 4 5 6 
#
# 1 0.011675 0.000153 -0.005001 0.000000 -0.001336 0.000000
# 2 0.000153 0.013770 -0.002095 0.000000 -0.005735 0.000000
# 3 -0.005001 -0.002095 0.012884 0.000000 -0.004049 0.000000
# 4 0.000000 0.000000 0.000000 0.039876 0.000000 0.004406
# 5 -0.001336 -0.005735 -0.004049 0.000000 0.027176 0.000000
# 6 0.000000 0.000000 0.000000 0.004406 0.000000 -0.078227
#
#
# Mechanical properties :
#
#
# Convention : Reuss Voigt Hill
#
# Bulk Modulus (GPa) = 40.91352 52.99793 46.95573
# Shear Modulus (GPa) = 101.64919 25.95450 63.80185
#
# Velocity S-wave (km/s) = 6.86276 3.46779 5.43705
# Velocity P-wave (km/s) = 9.04175 6.37102 7.82123
#
# Compressibility (1/GPa) = 0.02444180
#
# Stress axis : x y z
#
# Youngs Moduli (GPa) = 85.64978 72.62028 77.61822
#
# Poissons Ratio (x) = -0.01109 0.38819
# Poissons Ratio (y) = -0.01308 0.16263
# Poissons Ratio (z) = 0.42836 0.15215
#
# Static dielectric constant tensor:
#      x y z
#    x 4.054350 0.000000 0.321090 
#    y 0.000000 3.792920 0.000000 
#    z 0.321090 0.000000 3.891840 
# 
# 
# High freq. dielectric constant tensor:
#      x y z
#    x 1.840640 0.000000 0.033220 
#    y 0.000000 1.839860 0.000000 
#    z 0.033220 0.000000 1.837510 
# 
# From -- ./inp_files/52077.got.cif
#   From: 2010.06.25/outbox.cif.g09.slc.cpg/sg10_27_cif.got.tgz:52077.got - 2010.06.27 22:07:45.
