data_PCOD8059225
_publ_section_title
;
Structure prediction by ZEFSAII (Michael W. Deem and Ramdas Pophale) SiO2 
 PCOD8059225
Probable space group: P 2/M
;
_chemical_formula_sum "Si O2"
_cell_formula_units_Z 32
_cell_length_a 14.181923
_cell_length_b 17.713150
_cell_length_c 11.559691
_cell_angle_alpha 90.000000
_cell_angle_beta 149.088782
_cell_angle_gamma 90.000000
_cell_volume 1491.744788
_symmetry_space_group_name_H-M "P 2/M"
_symmetry_group_IT_number 10
_symmetry_cell_setting 'monoclinic'
loop_
_space_group_symop_operation_xyz
x,y,z
-x,y,-z
-x,-y,-z
x,-y,z
loop_
_atom_site_type_symbol
_atom_site_label
_atom_site_fract_x
_atom_site_fract_y
_atom_site_fract_z
Si Si1 0.531194 0.338823 0.407176
Si Si2 0.205911 0.195008 0.746207
Si Si3 0.241556 0.341888 0.925184
Si Si4 0.867741 0.913167 0.136046
Si Si5 0.553493 0.837306 0.682201
Si Si6 0.249151 0.156010 0.540903
Si Si7 0.712859 0.415721 0.249861
Si Si8 0.140501 0.679249 0.388642
O O1 0.500000 0.376337 0.500000
O O2 0.459102 0.252921 0.332864
O O3 0.745257 0.352761 0.600808
O O4 0.411297 0.375560 0.177802
O O5 0.294523 0.261499 0.918808
O O6 0.197421 0.117578 0.808447
O O7 0.314079 0.173600 0.741784
O O8 0.000000 0.223868 0.500000
O O9 0.186070 0.401104 0.766578
O O10 0.074749 0.338132 0.841437
O O11 0.088397 0.905835 0.359774
O O12 0.812246 0.000000 0.066394
O O13 0.760569 0.865416 0.924646
O O14 0.500000 0.869703 0.500000
O O15 0.420810 0.870239 0.643695
O O16 0.160752 0.231785 0.398931
O O17 0.759033 0.500000 0.343128
O O18 0.773139 0.351963 0.402379
O O19 0.500000 0.404329 0.000000
#
# Coordination Sequence:
#
# PCOD8059225 Si02
#       8
#     4   4   4   4   4   4   4   4
#     4  10  22  38  59  90 120 157 212 259 296 341
#     4  10  18  35  58  88 115 150 193 235 295 361
#     4  12  19  37  63  88 124 158 200 243 299 359
#     4  11  23  39  58  86 120 155 195 248 308 363
#     4  10  22  40  59  82 114 155 209 257 292 349
#     4  10  21  37  60  88 115 154 199 242 299 356
#     4  11  23  37  60  99 134 161 193 242 307 366
#     4  11  20  36  63  90 119 163 200 245 301 358
#
# _framework density 21.45139
#
# number of rings (size 3 to 8) (size 9 to 14) (size 15 to 20)
#    0.000    1.375    6.250    0.375    0.000    5.500 
#    0.000    5.000    0.000    1.500    0.000    1.750 
#    0.000    0.000    0.000    0.000    0.000    0.000 
#
# Total GULP energy -396662.838658 kJ/mol
# GULP energy per Si atom -12395.713708 kJ/mol
# Density = 2.140257 g / cm^3
# Si number density = 21.451390 Si / 1000 Ang^3
#
#
#
# Elastic Constant Matrix: (Units=GPa)
#
#
# Indices 1 2 3 4 5 6 
#
# 1 137.8842 0.0064 27.4486 0.0000 -7.2588 0.0000
# 2 0.0064 50.5061 5.4058 0.0000 3.8465 0.0000
# 3 27.4486 5.4058 59.1115 0.0000 -10.0095 0.0000
# 4 0.0000 0.0000 0.0000 14.7666 0.0000 4.5707
# 5 -7.2588 3.8465 -10.0095 0.0000 33.2381 0.0000
# 6 0.0000 0.0000 0.0000 4.5707 0.0000 14.4982
#
#
#
# Elastic Compliance Matrix: (Units=1/GPa)
#
#
# Indices 1 2 3 4 5 6 
#
# 1 0.008011 0.000343 -0.003648 0.000000 0.000611 0.000000
# 2 0.000343 0.020302 -0.002530 0.000000 -0.003036 0.000000
# 3 -0.003648 -0.002530 0.019765 0.000000 0.005448 0.000000
# 4 0.000000 0.000000 0.000000 0.075043 0.000000 -0.023658
# 5 0.000611 -0.003036 0.005448 0.000000 0.032212 0.000000
# 6 0.000000 0.000000 0.000000 -0.023658 0.000000 0.076433
#
#
# Mechanical properties :
#
#
# Convention : Reuss Voigt Hill
#
# Bulk Modulus (GPa) = 27.46671 34.80260 31.13466
# Shear Modulus (GPa) = 19.56411 26.80998 23.18705
#
# Velocity S-wave (km/s) = 3.02324 3.53909 3.29129
# Velocity P-wave (km/s) = 5.00186 5.74102 5.38414
#
# Compressibility (1/GPa) = 0.03640770
#
# Stress axis : x y z
#
# Youngs Moduli (GPa) = 124.83193 49.25725 50.59470
#
# Poissons Ratio (x) = -0.01689 0.18455
# Poissons Ratio (y) = -0.04280 0.12800
# Poissons Ratio (z) = 0.45534 0.12462
#
# Static dielectric constant tensor:
#      x y z
#    x 4.303550 0.000000 -0.003880 
#    y 0.000000 3.451300 0.000000 
#    z -0.003880 0.000000 3.870180 
# 
# 
# High freq. dielectric constant tensor:
#      x y z
#    x 1.844050 0.000000 0.006530 
#    y 0.000000 1.799080 0.000000 
#    z 0.006530 0.000000 1.836610 
# 
# From -- ./inp_files/52010.got.cif
#   From: 2010.06.25/outbox.cif.g09.slc.cpg/sg10_27_cif.got.tgz:52010.got - 2010.06.27 22:07:45.
