data_PCOD8059036
_publ_section_title
;
Structure prediction by ZEFSAII (Michael W. Deem and Ramdas Pophale) SiO2 
 PCOD8059036
Probable space group: P 2/M
;
_chemical_formula_sum "Si O2"
_cell_formula_units_Z 32
_cell_length_a 20.690424
_cell_length_b 9.265400
_cell_length_c 26.660716
_cell_angle_alpha 90.000000
_cell_angle_beta 160.156143
_cell_angle_gamma 90.000000
_cell_volume 1734.967894
_symmetry_space_group_name_H-M "P 2/M"
_symmetry_group_IT_number 10
_symmetry_cell_setting 'monoclinic'
loop_
_space_group_symop_operation_xyz
x,y,z
-x,y,-z
-x,-y,-z
x,-y,z
loop_
_atom_site_type_symbol
_atom_site_label
_atom_site_fract_x
_atom_site_fract_y
_atom_site_fract_z
Si Si1 0.779506 0.670084 0.333047
Si Si2 0.424968 0.671290 0.716271
Si Si3 0.848170 0.333545 0.035495
Si Si4 0.554493 0.168089 0.460284
Si Si5 0.507984 0.830192 0.064389
Si Si6 0.798514 0.832409 0.733473
Si Si7 0.848640 0.666528 0.152439
Si Si8 0.256040 0.330227 0.489220
O O1 0.747293 0.500000 0.301157
O O2 0.673851 0.729322 0.305496
O O3 0.695275 0.753995 0.223753
O O4 0.000000 0.707743 0.500000
O O5 0.427229 0.500000 0.720847
O O6 0.306935 0.724700 0.582027
O O7 0.640458 0.730016 0.870494
O O8 0.860656 0.500000 0.029935
O O9 0.890332 0.308411 0.124642
O O10 0.004282 0.252047 0.116020
O O11 0.336839 0.199531 0.317749
O O12 0.693533 0.219274 0.606252
O O13 0.598464 0.256299 0.442625
O O14 0.584520 0.000000 0.471231
O O15 0.518902 0.000000 0.082546
O O16 0.500000 0.793862 0.000000
O O17 0.320877 0.768148 0.954067
O O18 0.846094 0.000000 0.764610
O O19 0.792896 0.500000 0.122127
O O20 0.037894 0.713247 0.320307
O O21 0.285144 0.500000 0.504411
#
# Coordination Sequence:
#
# PCOD8059036 Si02
#       8
#     4   4   4   4   4   4   4   4
#     4  10  21  39  64  87 110 148 191 230 277 331
#     4   9  19  36  54  79 113 140 173 223 275 327
#     4  10  18  33  55  80 107 137 177 228 271 316
#     4   9  18  33  51  76 110 143 178 224 270 320
#     4  11  25  41  57  83 119 152 184 229 280 329
#     4   9  18  32  52  77 107 143 181 221 269 322
#     4  10  20  35  58  84 108 139 187 234 271 319
#     4  10  20  34  55  82 110 140 177 227 277 323
#
# _framework density 18.444144999999999
#
# number of rings (size 3 to 8) (size 9 to 14) (size 15 to 20)
#    0.000    2.250    2.500    1.125    1.750    2.750 
#    0.000    3.125    0.000    3.750    0.000    0.000 
#    0.000    0.000    0.000    0.000    0.000    0.000 
#
# Total GULP energy -396845.218795 kJ/mol
# GULP energy per Si atom -12401.413087 kJ/mol
# Density = 1.840217 g / cm^3
# Si number density = 18.444145 Si / 1000 Ang^3
#
#
#
# Elastic Constant Matrix: (Units=GPa)
#
#
# Indices 1 2 3 4 5 6 
#
# 1 76.3249 39.8467 49.8441 0.0000 2.0758 0.0000
# 2 39.8467 55.2589 46.7156 0.0000 4.8409 0.0000
# 3 49.8441 46.7156 147.8244 0.0000 2.6356 0.0000
# 4 0.0000 0.0000 0.0000 20.0706 0.0000 4.0206
# 5 2.0758 4.8409 2.6356 0.0000 36.5854 0.0000
# 6 0.0000 0.0000 0.0000 4.0206 0.0000 25.3293
#
#
#
# Elastic Compliance Matrix: (Units=1/GPa)
#
#
# Indices 1 2 3 4 5 6 
#
# 1 0.022152 -0.013253 -0.003294 0.000000 0.000734 0.000000
# 2 -0.013253 0.032894 -0.005870 0.000000 -0.003178 0.000000
# 3 -0.003294 -0.005870 0.009726 0.000000 0.000263 0.000000
# 4 0.000000 0.000000 0.000000 0.051460 0.000000 -0.008168
# 5 0.000734 -0.003178 0.000263 0.000000 0.027693 0.000000
# 6 0.000000 0.000000 0.000000 -0.008168 0.000000 0.040777
#
#
# Mechanical properties :
#
#
# Convention : Reuss Voigt Hill
#
# Bulk Modulus (GPa) = 50.15606 61.35789 55.75697
# Shear Modulus (GPa) = 21.17007 25.93052 23.55029
#
# Velocity S-wave (km/s) = 3.39159 3.75359 3.57717
# Velocity P-wave (km/s) = 6.52608 7.21977 6.88167
#
# Compressibility (1/GPa) = 0.01993777
#
# Stress axis : x y z
#
# Youngs Moduli (GPa) = 45.14208 30.40062 102.81916
#
# Poissons Ratio (x) = 0.40291 0.33871
# Poissons Ratio (y) = 0.59828 0.60352
# Poissons Ratio (z) = 0.14871 0.17844
#
# Static dielectric constant tensor:
#      x y z
#    x 3.389760 0.000000 -0.012890 
#    y 0.000000 3.163580 0.000000 
#    z -0.012890 0.000000 3.523940 
# 
# 
# High freq. dielectric constant tensor:
#      x y z
#    x 1.712530 0.000000 0.008420 
#    y 0.000000 1.693650 0.000000 
#    z 0.008420 0.000000 1.722280 
# 
# From -- ./inp_files/86961.got.cif
#   From: 2010.06.25/outbox.cif.g09.slc.cpg/sg10_44_cif.got.tgz:86961.got - 2010.06.27 22:07:45.
