data_PCOD8059731
_publ_section_title
;
Structure prediction by ZEFSAII (Michael W. Deem and Ramdas Pophale) SiO2 
 PCOD8059731
Probable space group: P 2/M
;
_chemical_formula_sum "Si O2"
_cell_formula_units_Z 32
_cell_length_a 18.265973
_cell_length_b 9.311377
_cell_length_c 10.289251
_cell_angle_alpha 90.000000
_cell_angle_beta 58.468997
_cell_angle_gamma 90.000000
_cell_volume 1491.633662
_symmetry_space_group_name_H-M "P 2/M"
_symmetry_group_IT_number 10
_symmetry_cell_setting 'monoclinic'
loop_
_space_group_symop_operation_xyz
x,y,z
-x,y,-z
-x,-y,-z
x,-y,z
loop_
_atom_site_type_symbol
_atom_site_label
_atom_site_fract_x
_atom_site_fract_y
_atom_site_fract_z
Si Si1 0.312139 0.657858 0.720168
Si Si2 0.596106 0.165491 0.940448
Si Si3 0.449580 0.343784 0.800457
Si Si4 0.775269 0.835662 0.706324
Si Si5 0.994163 0.162425 0.857723
Si Si6 0.796202 0.840276 0.986491
Si Si7 0.067845 0.670713 0.549572
Si Si8 0.427806 0.839660 0.455532
O O1 0.280035 0.500000 0.701326
O O2 0.401970 0.634114 0.709146
O O3 0.239734 0.726063 0.878053
O O4 0.337426 0.765169 0.579819
O O5 0.673352 0.187529 0.763118
O O6 0.591239 0.000000 0.986216
O O7 0.500000 0.224048 0.000000
O O8 0.618974 0.259619 0.046131
O O9 0.475366 0.500000 0.833562
O O10 0.535387 0.248464 0.701512
O O11 0.837267 0.727876 0.573446
O O12 0.804372 0.000000 0.652298
O O13 0.775436 0.799604 0.858529
O O14 0.045672 0.263710 0.710478
O O15 0.032321 0.000000 0.816723
O O16 0.897496 0.162593 0.902131
O O17 0.000000 0.222164 0.000000
O O18 0.760259 0.000000 0.052695
O O19 0.070870 0.500000 0.559284
O O20 0.000000 0.717707 0.500000
O O21 0.500000 0.847201 0.500000
O O22 0.405437 0.000000 0.428235
#
# Coordination Sequence:
#
# PCOD8059731 Si02
#       8
#     4   4   4   4   4   4   4   4
#     4  10  19  30  48  77 110 141 180 233 288 344
#     4  10  21  37  56  80 111 149 195 245 299 354
#     4  10  19  31  49  73 104 140 181 234 293 349
#     4  10  20  36  61  89 117 153 202 255 301 357
#     4  10  22  41  64  91 125 163 202 247 304 368
#     4  10  19  33  57  86 114 150 196 244 297 359
#     4  11  23  38  62  96 130 163 204 255 311 370
#     4   9  17  29  47  70  99 136 179 227 276 331
#
# _framework density 21.452988000000001
#
# number of rings (size 3 to 8) (size 9 to 14) (size 15 to 20)
#    0.000    2.000    2.500    1.500    0.000    5.000 
#    0.000    1.250    0.000    3.000    0.000    0.000 
#    0.000    0.000    0.000    0.000    0.000    0.000 
#
# Total GULP energy -396543.312638 kJ/mol
# GULP energy per Si atom -12391.978520 kJ/mol
# Density = 2.140416 g / cm^3
# Si number density = 21.452988 Si / 1000 Ang^3
#
#
#
# Elastic Constant Matrix: (Units=GPa)
#
#
# Indices 1 2 3 4 5 6 
#
# 1 50.1607 14.8218 21.1100 0.0000 -16.1120 0.0000
# 2 14.8218 141.2192 83.6770 0.0000 -8.8581 0.0000
# 3 21.1100 83.6770 143.6457 0.0000 -18.1620 0.0000
# 4 0.0000 0.0000 0.0000 3.0826 0.0000 -13.9773
# 5 -16.1120 -8.8581 -18.1620 0.0000 22.8120 0.0000
# 6 0.0000 0.0000 0.0000 -13.9773 0.0000 7.9116
#
#
#
# Elastic Compliance Matrix: (Units=1/GPa)
#
#
# Indices 1 2 3 4 5 6 
#
# 1 0.026243 -0.001038 -0.001067 0.000000 0.017283 0.000000
# 2 -0.001038 0.010872 -0.006382 0.000000 -0.001593 0.000000
# 3 -0.001067 -0.006382 0.011594 0.000000 0.006000 0.000000
# 4 0.000000 0.000000 0.000000 -0.046273 0.000000 -0.081750
# 5 0.017283 -0.001593 0.006000 0.000000 0.060202 0.000000
# 6 0.000000 0.000000 0.000000 -0.081750 0.000000 -0.018029
#
#
# Mechanical properties :
#
#
# Convention : Reuss Voigt Hill
#
# Bulk Modulus (GPa) = 31.51022 63.80482 47.65752
# Shear Modulus (GPa) = 69.29013 21.12237 45.20625
#
# Velocity S-wave (km/s) = 5.68935 3.14122 4.59543
# Velocity P-wave (km/s) = 7.60777 6.55459 7.10073
#
# Compressibility (1/GPa) = 0.03173574
#
# Stress axis : x y z
#
# Youngs Moduli (GPa) = 38.10537 91.98202 86.24821
#
# Poissons Ratio (x) = 0.09550 0.09200
# Poissons Ratio (y) = 0.03956 0.55042
# Poissons Ratio (z) = 0.04064 0.58701
#
# Static dielectric constant tensor:
#      x y z
#    x 3.910390 0.000000 -0.173000 
#    y 0.000000 4.053330 0.000000 
#    z -0.173000 0.000000 3.853470 
# 
# 
# High freq. dielectric constant tensor:
#      x y z
#    x 1.811910 0.000000 -0.012170 
#    y 0.000000 1.843860 0.000000 
#    z -0.012170 0.000000 1.843460 
# 
# From -- ./inp_files/55199.got.cif
#   From: 2010.06.25/outbox.cif.g09.slc.cpg/sg10_28_cif.got.tgz:55199.got - 2010.06.27 22:07:45.
