data_PCOD8059348
_publ_section_title
;
Structure prediction by ZEFSAII (Michael W. Deem and Ramdas Pophale) SiO2 
 PCOD8059348
Probable space group: P 2/M
;
_chemical_formula_sum "Si O2"
_cell_formula_units_Z 32
_cell_length_a 30.439205
_cell_length_b 9.000591
_cell_length_c 15.832733
_cell_angle_alpha 90.000000
_cell_angle_beta 149.877575
_cell_angle_gamma 90.000000
_cell_volume 2176.875304
_symmetry_space_group_name_H-M "P 2/M"
_symmetry_group_IT_number 10
_symmetry_cell_setting 'monoclinic'
loop_
_space_group_symop_operation_xyz
x,y,z
-x,y,-z
-x,-y,-z
x,-y,z
loop_
_atom_site_type_symbol
_atom_site_label
_atom_site_fract_x
_atom_site_fract_y
_atom_site_fract_z
Si Si1 0.995052 0.325271 0.799310
Si Si2 0.319143 0.322258 0.311485
Si Si3 0.978176 0.827891 0.599365
Si Si4 0.833506 0.824068 0.844260
Si Si5 0.695063 0.676627 0.903642
Si Si6 0.909717 0.836758 0.800590
Si Si7 0.491589 0.661899 0.386521
Si Si8 0.860258 0.171154 0.246691
O O1 0.008863 0.500000 0.826268
O O2 0.919077 0.279037 0.739483
O O3 0.962612 0.276658 0.653407
O O4 0.086901 0.247059 0.971423
O O5 0.314307 0.500000 0.313455
O O6 0.257292 0.242465 0.275358
O O7 0.290106 0.274196 0.168800
O O8 0.418315 0.260973 0.495712
O O9 0.068484 0.781298 0.704442
O O10 0.897888 0.799662 0.402387
O O11 0.981527 0.000000 0.632357
O O12 0.838978 0.784854 0.753155
O O13 0.837392 0.000000 0.865480
O O14 0.690072 0.500000 0.899972
O O15 0.602139 0.743496 0.785546
O O16 0.773108 0.733434 0.091536
O O17 0.885419 0.000000 0.723642
O O18 0.000000 0.848741 0.000000
O O19 0.500000 0.640309 0.500000
O O20 0.487846 0.500000 0.336985
O O21 0.835970 0.000000 0.194099
#
# Coordination Sequence:
#
# PCOD8059348 Si02
#       8
#     4   4   4   4   4   4   4   4
#     4  11  20  28  42  62  80 102 135 170 201 233
#     4   9  16  26  41  60  81 107 139 169 196 231
#     4   9  18  32  44  55  78 109 137 166 202 239
#     4  10  19  29  41  58  82 110 136 162 197 239
#     4   9  16  26  41  59  80 108 138 168 202 236
#     4   8  16  30  43  55  76 107 135 159 194 238
#     4   7  12  24  39  55  78 107 135 162 196 237
#     4   9  18  30  43  58  77 106 140 170 199 233
#
# _framework density 14.69997
#
# number of rings (size 3 to 8) (size 9 to 14) (size 15 to 20)
#    0.000    3.000    0.000    5.250    0.000    6.250 
#    0.000    1.875    0.000    2.250    0.000    0.000 
#    0.000    1.000    0.000   11.250    0.000    5.000 
#
# Total GULP energy -396493.166455 kJ/mol
# GULP energy per Si atom -12390.411452 kJ/mol
# Density = 1.466651 g / cm^3
# Si number density = 14.699970 Si / 1000 Ang^3
#
#
#
# Elastic Constant Matrix: (Units=GPa)
#
#
# Indices 1 2 3 4 5 6 
#
# 1 105.7631 42.8158 45.7952 0.0000 10.9905 0.0000
# 2 42.8158 57.4590 30.2646 0.0000 2.6996 0.0000
# 3 45.7952 30.2646 79.2957 0.0000 15.0239 0.0000
# 4 0.0000 0.0000 0.0000 11.8537 0.0000 -6.0237
# 5 10.9905 2.6996 15.0239 0.0000 22.8795 0.0000
# 6 0.0000 0.0000 0.0000 -6.0237 0.0000 13.4954
#
#
#
# Elastic Compliance Matrix: (Units=1/GPa)
#
#
# Indices 1 2 3 4 5 6 
#
# 1 0.015497 -0.008759 -0.005016 0.000000 -0.003117 0.000000
# 2 -0.008759 0.026954 -0.006194 0.000000 0.005095 0.000000
# 3 -0.005016 -0.006194 0.019732 0.000000 -0.009817 0.000000
# 4 0.000000 0.000000 0.000000 0.109110 0.000000 0.048702
# 5 -0.003117 0.005095 -0.009817 0.000000 0.051049 0.000000
# 6 0.000000 0.000000 0.000000 0.048702 0.000000 0.095837
#
#
# Mechanical properties :
#
#
# Convention : Reuss Voigt Hill
#
# Bulk Modulus (GPa) = 44.95610 53.36321 49.15966
# Shear Modulus (GPa) = 13.67864 17.88852 15.78358
#
# Velocity S-wave (km/s) = 3.05376 3.49221 3.28031
# Velocity P-wave (km/s) = 6.56374 7.25542 6.91823
#
# Compressibility (1/GPa) = 0.02224392
#
# Stress axis : x y z
#
# Youngs Moduli (GPa) = 64.52911 37.10067 50.67889
#
# Poissons Ratio (x) = 0.32496 0.25422
# Poissons Ratio (y) = 0.56521 0.31391
# Poissons Ratio (z) = 0.32370 0.22981
#
# Static dielectric constant tensor:
#      x y z
#    x 3.047850 0.000000 0.200980 
#    y 0.000000 2.701880 0.000000 
#    z 0.200980 0.000000 2.756950 
# 
# 
# High freq. dielectric constant tensor:
#      x y z
#    x 1.552510 0.000000 0.012580 
#    y 0.000000 1.551880 0.000000 
#    z 0.012580 0.000000 1.533590 
# 
# From -- ./inp_files/66175.got.cif
#   From: 2010.06.25/outbox.cif.g09.slc.cpg/sg10_34_cif.got.tgz:66175.got - 2010.06.27 22:07:45.
