data_PCOD8059815
_publ_section_title
;
Structure prediction by ZEFSAII (Michael W. Deem and Ramdas Pophale) SiO2 
 PCOD8059815
Probable space group: P 2/M
;
_chemical_formula_sum "Si O2"
_cell_formula_units_Z 32
_cell_length_a 15.211677
_cell_length_b 8.912447
_cell_length_c 14.160386
_cell_angle_alpha 90.000000
_cell_angle_beta 91.027325
_cell_angle_gamma 90.000000
_cell_volume 1919.461177
_symmetry_space_group_name_H-M "P 2/M"
_symmetry_group_IT_number 10
_symmetry_cell_setting 'monoclinic'
loop_
_space_group_symop_operation_xyz
x,y,z
-x,y,-z
-x,-y,-z
x,-y,z
loop_
_atom_site_type_symbol
_atom_site_label
_atom_site_fract_x
_atom_site_fract_y
_atom_site_fract_z
Si Si1 0.731724 0.176659 0.637442
Si Si2 0.877866 0.676161 0.739827
Si Si3 0.156551 0.832718 0.779141
Si Si4 0.012438 0.831288 0.614041
Si Si5 0.017457 0.677575 0.894438
Si Si6 0.719386 0.662649 0.339861
Si Si7 0.146001 0.333888 0.503343
Si Si8 0.397608 0.324158 0.491457
O O1 0.780435 0.247704 0.731575
O O2 0.788336 0.225632 0.549668
O O3 0.636188 0.243221 0.606022
O O4 0.724523 0.000000 0.651827
O O5 0.864761 0.500000 0.747067
O O6 0.930704 0.722683 0.644326
O O7 0.935327 0.736944 0.829023
O O8 0.086015 0.834308 0.694677
O O9 0.112002 0.740054 0.863573
O O10 0.252001 0.766762 0.748530
O O11 0.175453 0.000000 0.815904
O O12 0.057625 0.762636 0.519550
O O13 0.977086 0.000000 0.596055
O O14 0.022747 0.500000 0.886776
O O15 0.000000 0.733142 0.000000
O O16 0.684896 0.500000 0.301898
O O17 0.810874 0.635133 0.394795
O O18 0.647262 0.734251 0.411005
O O19 0.129984 0.500000 0.455834
O O20 0.500000 0.290597 0.500000
O O21 0.374801 0.500000 0.481160
#
# Coordination Sequence:
#
# PCOD8059815 Si02
#       8
#     4   4   4   4   4   4   4   4
#     4  11  21  31  43  61  86 114 146 183 221 259
#     4  10  19  31  45  60  82 113 147 181 219 263
#     4   9  16  25  40  62  88 117 146 179 218 260
#     4   9  16  26  39  58  83 110 144 183 219 252
#     4   9  18  32  49  67  87 114 149 188 227 266
#     4   8  14  25  42  62  85 114 146 181 217 254
#     4   9  16  27  41  57  79 111 150 184 216 252
#     4   9  18  33  51  69  90 118 152 187 224 266
#
# _framework density 16.671346
#
# number of rings (size 3 to 8) (size 9 to 14) (size 15 to 20)
#    0.000    2.750    0.000    3.375    0.000    7.500 
#    0.000    2.500    0.000    0.000    0.000    0.000 
#    0.000    1.000    0.000   11.500    0.000    4.875 
#
# Total GULP energy -396437.847740 kJ/mol
# GULP energy per Si atom -12388.682742 kJ/mol
# Density = 1.663340 g / cm^3
# Si number density = 16.671346 Si / 1000 Ang^3
#
#
#
# Elastic Constant Matrix: (Units=GPa)
#
#
# Indices 1 2 3 4 5 6 
#
# 1 85.1798 40.4950 27.8642 0.0000 -0.4320 0.0000
# 2 40.4950 77.7483 19.6292 0.0000 1.7942 0.0000
# 3 27.8642 19.6292 70.1223 0.0000 -5.8275 0.0000
# 4 0.0000 0.0000 0.0000 14.9376 0.0000 1.1420
# 5 -0.4320 1.7942 -5.8275 0.0000 18.6350 0.0000
# 6 0.0000 0.0000 0.0000 1.1420 0.0000 17.5125
#
#
#
# Elastic Compliance Matrix: (Units=1/GPa)
#
#
# Indices 1 2 3 4 5 6 
#
# 1 0.016862 -0.007615 -0.004595 0.000000 -0.000313 0.000000
# 2 -0.007615 0.017404 -0.002053 0.000000 -0.002494 0.000000
# 3 -0.004595 -0.002053 0.017114 0.000000 0.005443 0.000000
# 4 0.000000 0.000000 0.000000 0.067281 0.000000 -0.004387
# 5 -0.000313 -0.002494 0.005443 0.000000 0.055598 0.000000
# 6 0.000000 0.000000 0.000000 -0.004387 0.000000 0.057388
#
#
# Mechanical properties :
#
#
# Convention : Reuss Voigt Hill
#
# Bulk Modulus (GPa) = 43.75662 45.44747 44.60204
# Shear Modulus (GPa) = 18.67142 19.88783 19.27963
#
# Velocity S-wave (km/s) = 3.35023 3.45764 3.40436
# Velocity P-wave (km/s) = 6.42409 6.57726 6.50113
#
# Compressibility (1/GPa) = 0.02285369
#
# Stress axis : x y z
#
# Youngs Moduli (GPa) = 59.30670 57.45724 58.43306
#
# Poissons Ratio (x) = 0.43754 0.26847
# Poissons Ratio (y) = 0.45162 0.11998
# Poissons Ratio (z) = 0.27249 0.11797
#
# Static dielectric constant tensor:
#      x y z
#    x 3.148120 0.000000 0.150880 
#    y 0.000000 3.325740 0.000000 
#    z 0.150880 0.000000 3.055600 
# 
# 
# High freq. dielectric constant tensor:
#      x y z
#    x 1.617350 0.000000 0.006720 
#    y 0.000000 1.650850 0.000000 
#    z 0.006720 0.000000 1.604610 
# 
# From -- ./inp_files/66182.got.cif
#   From: 2010.06.25/outbox.cif.g09.slc.cpg/sg10_34_cif.got.tgz:66182.got - 2010.06.27 22:07:45.
