data_PCOD8059035
_publ_section_title
;
Structure prediction by ZEFSAII (Michael W. Deem and Ramdas Pophale) SiO2 
 PCOD8059035
Probable space group: P 2/M
;
_chemical_formula_sum "Si O2"
_cell_formula_units_Z 32
_cell_length_a 16.750392
_cell_length_b 13.646173
_cell_length_c 9.647141
_cell_angle_alpha 90.000000
_cell_angle_beta 55.116407
_cell_angle_gamma 90.000000
_cell_volume 1808.903865
_symmetry_space_group_name_H-M "P 2/M"
_symmetry_group_IT_number 10
_symmetry_cell_setting 'monoclinic'
loop_
_space_group_symop_operation_xyz
x,y,z
-x,y,-z
-x,-y,-z
x,-y,z
loop_
_atom_site_type_symbol
_atom_site_label
_atom_site_fract_x
_atom_site_fract_y
_atom_site_fract_z
Si Si1 0.928667 0.383650 0.321989
Si Si2 0.195458 0.110604 0.564083
Si Si3 0.016389 0.892866 0.135350
Si Si4 0.585201 0.611034 0.508473
Si Si5 0.214454 0.717136 0.741851
Si Si6 0.213894 0.721180 0.336646
Si Si7 0.869080 0.721873 0.879716
Si Si8 0.586116 0.388769 0.821330
O O1 0.918024 0.500000 0.327757
O O2 0.877373 0.335786 0.239458
O O3 0.874330 0.341438 0.510699
O O4 0.042706 0.356211 0.212371
O O5 0.224533 0.170943 0.674883
O O6 0.221976 0.170743 0.398110
O O7 0.079981 0.099843 0.678722
O O8 0.242026 0.000000 0.517204
O O9 0.090196 0.831150 0.152413
O O10 0.062578 0.000000 0.063960
O O11 0.000000 0.842642 0.000000
O O12 0.500000 0.659417 0.500000
O O13 0.603776 0.500000 0.440552
O O14 0.685800 0.666585 0.396299
O O15 0.548376 0.615472 0.702061
O O16 0.200521 0.705811 0.919502
O O17 0.197295 0.721247 0.189596
O O18 0.316201 0.671425 0.260906
O O19 0.608124 0.500000 0.846350
O O20 0.500000 0.343055 0.000000
#
# Coordination Sequence:
#
# PCOD8059035 Si02
#       8
#     4   4   4   4   4   4   4   4
#     4  11  22  38  54  73 113 162 194 222 270 335
#     4  10  20  36  59  80 105 150 193 226 275 337
#     4  10  18  33  55  79 110 147 189 236 278 317
#     4  10  21  38  61  87 111 140 185 239 284 327
#     4  11  21  37  59  82 113 147 189 235 281 332
#     4  11  23  37  56  81 116 151 186 231 284 337
#     4  12  23  34  51  86 118 147 190 230 274 334
#     4  10  21  39  61  84 111 145 186 232 284 335
#
# _framework density 17.690270999999999
#
# number of rings (size 3 to 8) (size 9 to 14) (size 15 to 20)
#    0.000    1.375    6.250    1.500    1.750    3.500 
#    0.000    1.250    0.000    0.750    0.000    0.000 
#    0.000    0.000    0.000    0.000    0.000    0.000 
#
# Total GULP energy -396704.659910 kJ/mol
# GULP energy per Si atom -12397.020622 kJ/mol
# Density = 1.765001 g / cm^3
# Si number density = 17.690271 Si / 1000 Ang^3
#
#
#
# Elastic Constant Matrix: (Units=GPa)
#
#
# Indices 1 2 3 4 5 6 
#
# 1 75.1987 25.0700 29.1626 0.0000 14.6867 0.0000
# 2 25.0700 109.6169 31.2452 0.0000 5.2551 0.0000
# 3 29.1626 31.2452 105.7201 0.0000 13.5691 0.0000
# 4 0.0000 0.0000 0.0000 14.7323 0.0000 0.7652
# 5 14.6867 5.2551 13.5691 0.0000 34.7532 0.0000
# 6 0.0000 0.0000 0.0000 0.7652 0.0000 15.3982
#
#
#
# Elastic Compliance Matrix: (Units=1/GPa)
#
#
# Indices 1 2 3 4 5 6 
#
# 1 0.016403 -0.002622 -0.003065 0.000000 -0.005339 0.000000
# 2 -0.002622 0.010386 -0.002407 0.000000 0.000478 0.000000
# 3 -0.003065 -0.002407 0.011373 0.000000 -0.002781 0.000000
# 4 0.000000 0.000000 0.000000 0.068054 0.000000 -0.003382
# 5 -0.005339 0.000478 -0.002781 0.000000 0.032044 0.000000
# 6 0.000000 0.000000 0.000000 -0.003382 0.000000 0.065111
#
#
# Mechanical properties :
#
#
# Convention : Reuss Voigt Hill
#
# Bulk Modulus (GPa) = 45.50911 51.27682 48.39296
# Shear Modulus (GPa) = 22.03772 26.64726 24.34249
#
# Velocity S-wave (km/s) = 3.53335 3.88535 3.71352
# Velocity P-wave (km/s) = 6.51364 7.01261 6.76772
#
# Compressibility (1/GPa) = 0.02197362
#
# Stress axis : x y z
#
# Youngs Moduli (GPa) = 60.96264 96.28633 87.92902
#
# Poissons Ratio (x) = 0.25247 0.26947
# Poissons Ratio (y) = 0.15985 0.21169
# Poissons Ratio (z) = 0.18683 0.23181
#
# Static dielectric constant tensor:
#      x y z
#    x 3.537960 0.000000 0.807020 
#    y 0.000000 3.520060 0.000000 
#    z 0.807020 0.000000 4.596810 
# 
# 
# High freq. dielectric constant tensor:
#      x y z
#    x 1.664330 0.000000 0.008300 
#    y 0.000000 1.680430 0.000000 
#    z 0.008300 0.000000 1.689670 
# 
# From -- ./inp_files/29479.got.cif
#   From: 2010.06.25/outbox.cif.g09.slc.cpg/sg10_15_cif.got.tgz:29479.got - 2010.06.27 22:07:45.
