data_PCOD8059329
_publ_section_title
;
Structure prediction by ZEFSAII (Michael W. Deem and Ramdas Pophale) SiO2 
 PCOD8059329
Probable space group: P 2/M
;
_chemical_formula_sum "Si O2"
_cell_formula_units_Z 24
_cell_length_a 9.363957
_cell_length_b 15.163166
_cell_length_c 15.716099
_cell_angle_alpha 90.000000
_cell_angle_beta 36.057858
_cell_angle_gamma 90.000000
_cell_volume 1313.456583
_symmetry_space_group_name_H-M "P 2/M"
_symmetry_group_IT_number 10
_symmetry_cell_setting 'monoclinic'
loop_
_space_group_symop_operation_xyz
x,y,z
-x,y,-z
-x,-y,-z
x,-y,z
loop_
_atom_site_type_symbol
_atom_site_label
_atom_site_fract_x
_atom_site_fract_y
_atom_site_fract_z
Si Si1 0.276188 0.399554 0.359992
Si Si2 0.108837 0.742539 0.682269
Si Si3 0.066478 0.902269 0.326422
Si Si4 0.382315 0.902392 0.329825
Si Si5 0.716964 0.600337 0.837312
Si Si6 0.459982 0.739996 0.657413
O O1 0.276029 0.500000 0.394204
O O2 0.366632 0.393773 0.219875
O O3 0.471631 0.345566 0.320355
O O4 0.000000 0.361134 0.500000
O O5 0.948715 0.830877 0.742631
O O6 0.200281 0.732788 0.735504
O O7 0.334998 0.750976 0.511486
O O8 0.959159 0.655472 0.734176
O O9 0.842150 0.897842 0.498200
O O10 0.302101 0.883221 0.271268
O O11 0.082397 0.000000 0.277403
O O12 0.566340 0.825759 0.269354
O O13 0.502509 0.000000 0.277943
O O14 0.778959 0.500000 0.833125
O O15 0.500000 0.637758 0.000000
#
# Coordination Sequence:
#
# PCOD8059329 Si02
#       6
#     4   4   4   4   4   4
#     4  10  19  33  53  74  96 128 168 206 247 297
#     4  10  19  30  46  74 105 132 163 206 256 294
#     4   8  14  25  43  66  96 133 169 203 240 290
#     4   8  14  24  40  66  99 134 166 199 245 294
#     4  10  21  37  55  73  97 132 171 208 246 296
#     4  10  19  28  47  76 105 131 160 208 256 296
#
# _framework density 18.272397999999999
#
# number of rings (size 3 to 8) (size 9 to 14) (size 15 to 20)
#    0.000    2.667    1.667    2.000    2.333    1.333 
#    0.000    5.833    0.000    3.500    0.000    0.000 
#    0.000    5.333    0.000    0.000    0.000    0.000 
#
# Total GULP energy -297450.584749 kJ/mol
# GULP energy per Si atom -12393.774365 kJ/mol
# Density = 1.823081 g / cm^3
# Si number density = 18.272398 Si / 1000 Ang^3
#
#
#
# Elastic Constant Matrix: (Units=GPa)
#
#
# Indices 1 2 3 4 5 6 
#
# 1 134.7845 80.5015 7.2199 0.0000 4.4680 0.0000
# 2 80.5015 122.6657 6.2625 0.0000 -0.2417 0.0000
# 3 7.2199 6.2625 27.1069 0.0000 9.7121 0.0000
# 4 0.0000 0.0000 0.0000 5.3156 0.0000 6.6804
# 5 4.4680 -0.2417 9.7121 0.0000 11.3414 0.0000
# 6 0.0000 0.0000 0.0000 6.6804 0.0000 20.2771
#
#
#
# Elastic Compliance Matrix: (Units=1/GPa)
#
#
# Indices 1 2 3 4 5 6 
#
# 1 0.012496 -0.008241 0.000581 0.000000 -0.005596 0.000000
# 2 -0.008241 0.013739 -0.003242 0.000000 0.006316 0.000000
# 3 0.000581 -0.003242 0.054231 0.000000 -0.046739 0.000000
# 4 0.000000 0.000000 0.000000 0.321064 0.000000 -0.105777
# 5 -0.005596 0.006316 -0.046739 0.000000 0.130536 0.000000
# 6 0.000000 0.000000 0.000000 -0.105777 0.000000 0.084166
#
#
# Mechanical properties :
#
#
# Convention : Reuss Voigt Hill
#
# Bulk Modulus (GPa) = 17.04717 52.50278 34.77497
# Shear Modulus (GPa) = 7.60351 20.09167 13.84759
#
# Velocity S-wave (km/s) = 2.04212 3.31956 2.75588
# Velocity P-wave (km/s) = 3.86135 6.59458 5.40363
#
# Compressibility (1/GPa) = 0.05866076
#
# Stress axis : x y z
#
# Youngs Moduli (GPa) = 80.02672 72.78729 18.43955
#
# Poissons Ratio (x) = 0.59986 -0.01071
# Poissons Ratio (y) = 0.65952 0.05978
# Poissons Ratio (z) = -0.04646 0.23596
#
# Static dielectric constant tensor:
#      x y z
#    x 3.662210 0.000000 0.108220 
#    y 0.000000 3.632370 0.000000 
#    z 0.108220 0.000000 2.852080 
# 
# 
# High freq. dielectric constant tensor:
#      x y z
#    x 1.704910 0.000000 0.013600 
#    y 0.000000 1.722830 0.000000 
#    z 0.013600 0.000000 1.641240 
# 
# From -- ./inp_files/56016.got.cif
#   From: 2010.06.25/outbox.cif.g09.slc.cpg/sg10_29_cif.got.tgz:56016.got - 2010.06.27 22:07:45.
