data_PCOD8059200
_publ_section_title
;
Structure prediction by ZEFSAII (Michael W. Deem and Ramdas Pophale) SiO2 
 PCOD8059200
Probable space group: P 2/M
;
_chemical_formula_sum "Si O2"
_cell_formula_units_Z 24
_cell_length_a 22.918807
_cell_length_b 9.012104
_cell_length_c 10.940808
_cell_angle_alpha 90.000000
_cell_angle_beta 147.735767
_cell_angle_gamma 90.000000
_cell_volume 1206.330125
_symmetry_space_group_name_H-M "P 2/M"
_symmetry_group_IT_number 10
_symmetry_cell_setting 'monoclinic'
loop_
_space_group_symop_operation_xyz
x,y,z
-x,y,-z
-x,-y,-z
x,-y,z
loop_
_atom_site_type_symbol
_atom_site_label
_atom_site_fract_x
_atom_site_fract_y
_atom_site_fract_z
Si Si1 0.797812 0.174297 0.386993
Si Si2 0.999893 0.665979 0.141983
Si Si3 0.783368 0.332872 0.870586
Si Si4 0.573938 0.674683 0.014297
Si Si5 0.542974 0.322805 0.443388
Si Si6 0.875657 0.666733 0.297776
O O1 0.688000 0.246582 0.244007
O O2 0.814019 0.219668 0.275776
O O3 0.900675 0.231006 0.645175
O O4 0.788388 0.000000 0.383686
O O5 0.010632 0.500000 0.220837
O O6 0.885941 0.743598 0.983277
O O7 0.000000 0.649602 0.000000
O O8 0.776925 0.500000 0.808374
O O9 0.665573 0.257233 0.638642
O O10 0.804899 0.329270 0.051753
O O11 0.593408 0.500000 0.042820
O O12 0.500000 0.717186 0.000000
O O13 0.526729 0.729755 0.798574
O O14 0.500000 0.263386 0.500000
O O15 0.546863 0.500000 0.456192
O O16 0.875770 0.500000 0.353168
O O17 0.000000 0.720801 0.500000
#
# Coordination Sequence:
#
# PCOD8059200 Si02
#       6
#     4   4   4   4   4   4
#     4  12  25  39  58  84 124 163 196 237 297 373
#     4  10  21  37  61  88 115 150 199 251 295 347
#     4   9  17  31  56  89 117 144 184 245 307 349
#     4  10  22  39  63  90 114 149 205 260 301 350
#     4   9  17  31  55  87 118 146 184 243 306 354
#     4  10  18  34  60  88 117 149 194 246 296 348
#
# _framework density 19.895050000000001
#
# number of rings (size 3 to 8) (size 9 to 14) (size 15 to 20)
#    0.000    2.000    1.667    2.500    2.333    3.667 
#    0.000    0.000    0.000    4.500    0.000    0.000 
#    0.000    0.000    0.000    0.000    0.000    0.000 
#
# Total GULP energy -297474.023582 kJ/mol
# GULP energy per Si atom -12394.750983 kJ/mol
# Density = 1.984977 g / cm^3
# Si number density = 19.895050 Si / 1000 Ang^3
#
#
#
# Elastic Constant Matrix: (Units=GPa)
#
#
# Indices 1 2 3 4 5 6 
#
# 1 133.7780 38.0630 64.6804 0.0000 15.4766 0.0000
# 2 38.0630 41.8883 25.0384 0.0000 15.1805 0.0000
# 3 64.6804 25.0384 124.1150 0.0000 29.5411 0.0000
# 4 0.0000 0.0000 0.0000 12.0942 0.0000 2.3675
# 5 15.4766 15.1805 29.5411 0.0000 43.1090 0.0000
# 6 0.0000 0.0000 0.0000 2.3675 0.0000 3.7505
#
#
#
# Elastic Compliance Matrix: (Units=1/GPa)
#
#
# Indices 1 2 3 4 5 6 
#
# 1 0.012202 -0.008845 -0.005106 0.000000 0.002233 0.000000
# 2 -0.008845 0.035413 -0.000385 0.000000 -0.009031 0.000000
# 3 -0.005106 -0.000385 0.012340 0.000000 -0.006487 0.000000
# 4 0.000000 0.000000 0.000000 0.094342 0.000000 -0.059552
# 5 0.002233 -0.009031 -0.006487 0.000000 0.030021 0.000000
# 6 0.000000 0.000000 0.000000 -0.059552 0.000000 0.304221
#
#
# Mechanical properties :
#
#
# Convention : Reuss Voigt Hill
#
# Bulk Modulus (GPa) = 31.96643 61.70499 46.83571
# Shear Modulus (GPa) = 9.47619 23.25741 16.36680
#
# Velocity S-wave (km/s) = 2.18482 3.42278 2.87131
# Velocity P-wave (km/s) = 4.73993 6.83397 5.88091
#
# Compressibility (1/GPa) = 0.03128282
#
# Stress axis : x y z
#
# Youngs Moduli (GPa) = 81.95354 28.23794 81.03911
#
# Poissons Ratio (x) = 0.24976 0.41379
# Poissons Ratio (y) = 0.72487 0.03122
# Poissons Ratio (z) = 0.41846 0.01088
#
# Static dielectric constant tensor:
#      x y z
#    x 3.809830 0.000000 0.159910 
#    y 0.000000 3.088640 0.000000 
#    z 0.159910 0.000000 3.702450 
# 
# 
# High freq. dielectric constant tensor:
#      x y z
#    x 1.790410 0.000000 0.007350 
#    y 0.000000 1.710260 0.000000 
#    z 0.007350 0.000000 1.792560 
# 
# From -- ./inp_files/56694.got.cif
#   From: 2010.06.25/outbox.cif.g09.slc.cpg/sg10_29_cif.got.tgz:56694.got - 2010.06.27 22:07:45.
