data_PCOD8059816
_publ_section_title
;
Structure prediction by ZEFSAII (Michael W. Deem and Ramdas Pophale) SiO2 
 PCOD8059816
Probable space group: P 2/M
;
_chemical_formula_sum "Si O2"
_cell_formula_units_Z 28
_cell_length_a 14.280684
_cell_length_b 8.929073
_cell_length_c 14.324529
_cell_angle_alpha 90.000000
_cell_angle_beta 104.333350
_cell_angle_gamma 90.000000
_cell_volume 1769.709768
_symmetry_space_group_name_H-M "P 2/M"
_symmetry_group_IT_number 10
_symmetry_cell_setting 'monoclinic'
loop_
_space_group_symop_operation_xyz
x,y,z
-x,y,-z
-x,-y,-z
x,-y,z
loop_
_atom_site_type_symbol
_atom_site_label
_atom_site_fract_x
_atom_site_fract_y
_atom_site_fract_z
Si Si1 0.222013 0.674200 0.038665
Si Si2 0.467576 0.823313 0.274015
Si Si3 0.300751 0.676463 0.352555
Si Si4 0.965341 0.665519 0.097559
Si Si5 0.855209 0.175796 0.797206
Si Si6 0.401834 0.834967 0.533407
Si Si7 0.442139 0.674115 0.076567
O O1 0.208477 0.500000 0.064248
O O2 0.199803 0.774851 0.122761
O O3 0.329509 0.707808 0.029937
O O4 0.147890 0.714225 0.935281
O O5 0.376818 0.738475 0.296283
O O6 0.566912 0.783818 0.354576
O O7 0.482539 0.770267 0.172332
O O8 0.446388 0.000000 0.274006
O O9 0.297285 0.500000 0.342533
O O10 0.195926 0.744898 0.303414
O O11 0.328224 0.720503 0.465786
O O12 0.976093 0.500000 0.144365
O O13 0.031348 0.778612 0.173491
O O14 0.000000 0.664438 0.000000
O O15 0.847028 0.000000 0.783249
O O16 0.500000 0.841922 0.500000
O O17 0.353661 0.000000 0.523137
O O18 0.459975 0.500000 0.102898
O O19 0.500000 0.726801 0.000000
#
# Coordination Sequence:
#
# PCOD8059816 Si02
#       7
#     4   4   4   4   4   4   4
#     4   9  17  30  44  58  82 115 146 181 221 256
#     4  10  19  31  45  61  84 115 146 182 223 257
#     4  11  19  27  42  63  87 115 146 176 212 260
#     4   8  15  27  41  57  80 111 144 175 213 259
#     4  11  19  26  40  62  87 114 144 177 214 257
#     4   8  16  29  42  59  84 111 142 176 214 259
#     4  10  20  32  47  66  87 116 154 189 218 253
#
# _framework density 15.821802999999999
#
# number of rings (size 3 to 8) (size 9 to 14) (size 15 to 20)
#    0.000    2.429    1.429    4.714    0.000    6.000 
#    0.000    0.000    0.000    0.000    0.000    0.000 
#    0.000    1.143    0.000   13.143    0.000    3.286 
#
# Total GULP energy -347065.699033 kJ/mol
# GULP energy per Si atom -12395.203537 kJ/mol
# Density = 1.578579 g / cm^3
# Si number density = 15.821803 Si / 1000 Ang^3
#
#
#
# Elastic Constant Matrix: (Units=GPa)
#
#
# Indices 1 2 3 4 5 6 
#
# 1 71.1586 36.2558 54.3391 0.0000 20.8243 0.0000
# 2 36.2558 107.6027 54.9234 0.0000 21.7834 0.0000
# 3 54.3391 54.9234 101.4546 0.0000 27.6303 0.0000
# 4 0.0000 0.0000 0.0000 24.2950 0.0000 9.4842
# 5 20.8243 21.7834 27.6303 0.0000 25.9846 0.0000
# 6 0.0000 0.0000 0.0000 9.4842 0.0000 13.3315
#
#
#
# Elastic Compliance Matrix: (Units=1/GPa)
#
#
# Indices 1 2 3 4 5 6 
#
# 1 0.025122 -0.001537 -0.010545 0.000000 -0.007632 0.000000
# 2 -0.001537 0.013366 -0.005203 0.000000 -0.004440 0.000000
# 3 -0.010545 -0.005203 0.020878 0.000000 -0.009387 0.000000
# 4 0.000000 0.000000 0.000000 0.056987 0.000000 -0.040542
# 5 -0.007632 -0.004440 -0.009387 0.000000 0.058305 0.000000
# 6 0.000000 0.000000 0.000000 -0.040542 0.000000 0.103853
#
#
# Mechanical properties :
#
#
# Convention : Reuss Voigt Hill
#
# Bulk Modulus (GPa) = 40.32980 63.47250 51.90115
# Shear Modulus (GPa) = 15.55951 21.70205 18.63078
#
# Velocity S-wave (km/s) = 3.13936 3.70760 3.43525
# Velocity P-wave (km/s) = 6.21982 7.65066 6.97204
#
# Compressibility (1/GPa) = 0.02479556
#
# Stress axis : x y z
#
# Youngs Moduli (GPa) = 39.80555 74.81532 47.89785
#
# Poissons Ratio (x) = 0.11502 0.50507
# Poissons Ratio (y) = 0.06120 0.24922
# Poissons Ratio (z) = 0.41974 0.38928
#
# Static dielectric constant tensor:
#      x y z
#    x 3.001210 0.000000 0.513740 
#    y 0.000000 3.002440 0.000000 
#    z 0.513740 0.000000 3.130520 
# 
# 
# High freq. dielectric constant tensor:
#      x y z
#    x 1.570970 0.000000 0.048250 
#    y 0.000000 1.612080 0.000000 
#    z 0.048250 0.000000 1.586590 
# 
# From -- ./inp_files/65786.got.cif
#   From: 2010.06.25/outbox.cif.g09.slc.cpg/sg10_33_cif.got.tgz:65786.got - 2010.06.27 22:07:45.
