data_PCOD8059108
_publ_section_title
;
Structure prediction by ZEFSAII (Michael W. Deem and Ramdas Pophale) SiO2 
 PCOD8059108
Probable space group: P 2/M
;
_chemical_formula_sum "Si O2"
_cell_formula_units_Z 32
_cell_length_a 21.778277
_cell_length_b 15.272089
_cell_length_c 8.208364
_cell_angle_alpha 90.000000
_cell_angle_beta 33.473282
_cell_angle_gamma 90.000000
_cell_volume 1505.781441
_symmetry_space_group_name_H-M "P 2/M"
_symmetry_group_IT_number 10
_symmetry_cell_setting 'monoclinic'
loop_
_space_group_symop_operation_xyz
x,y,z
-x,y,-z
-x,-y,-z
x,-y,z
loop_
_atom_site_type_symbol
_atom_site_label
_atom_site_fract_x
_atom_site_fract_y
_atom_site_fract_z
Si Si1 0.175258 0.254585 0.776742
Si Si2 0.982437 0.595120 0.847087
Si Si3 0.554871 0.400048 0.201363
Si Si4 0.406796 0.751347 0.435493
Si Si5 0.800505 0.317914 0.639443
Si Si6 0.546105 0.904320 0.214390
Si Si7 0.899718 0.099600 0.843999
Si Si8 0.728038 0.828482 0.994554
O O1 0.304533 0.253107 0.538193
O O2 0.170329 0.271554 0.596358
O O3 0.111865 0.165574 0.976053
O O4 0.110470 0.335440 0.006167
O O5 0.943214 0.500000 0.870305
O O6 0.105866 0.614743 0.506605
O O7 0.000000 0.594893 0.000000
O O8 0.500000 0.397128 0.500000
O O9 0.553272 0.500000 0.138456
O O10 0.477975 0.337675 0.259012
O O11 0.680830 0.364587 0.912833
O O12 0.486082 0.835774 0.225611
O O13 0.364411 0.767165 0.713107
O O14 0.817047 0.239362 0.729751
O O15 0.500000 0.906676 0.500000
O O16 0.536700 0.000000 0.153354
O O17 0.675080 0.877774 0.955557
O O18 0.785022 0.104969 0.994492
O O19 0.000000 0.124572 0.500000
O O20 0.913169 0.000000 0.879307
#
# Coordination Sequence:
#
# PCOD8059108 Si02
#       8
#     4   4   4   4   4   4   4   4
#     4  10  23  37  61  89 123 161 194 254 312 360
#     4   9  19  37  59  84 114 152 202 244 290 359
#     4  11  21  36  59  88 121 162 207 251 298 360
#     4  10  19  36  53  82 120 157 198 250 299 363
#     4  11  20  37  61  88 119 159 202 249 306 357
#     4   9  16  29  53  79 104 145 201 248 284 336
#     4  10  21  39  62  89 120 160 202 246 307 373
#     4  10  18  33  59  82 117 156 205 243 291 359
#
# _framework density 21.251424
#
# number of rings (size 3 to 8) (size 9 to 14) (size 15 to 20)
#    0.000    2.000    2.500    1.875    0.000    4.500 
#    0.000    1.875    0.000    9.000    0.000    0.000 
#    0.000    0.000    0.000    0.000    0.000    0.000 
#
# Total GULP energy -396432.284525 kJ/mol
# GULP energy per Si atom -12388.508891 kJ/mol
# Density = 2.120306 g / cm^3
# Si number density = 21.251424 Si / 1000 Ang^3
#
#
#
# Elastic Constant Matrix: (Units=GPa)
#
#
# Indices 1 2 3 4 5 6 
#
# 1 38.8149 26.0801 3.2388 0.0000 -11.9253 0.0000
# 2 26.0801 162.3869 33.6514 0.0000 -1.3925 0.0000
# 3 3.2388 33.6514 78.5921 0.0000 -6.6566 0.0000
# 4 0.0000 0.0000 0.0000 24.7035 0.0000 -9.0484
# 5 -11.9253 -1.3925 -6.6566 0.0000 26.0767 0.0000
# 6 0.0000 0.0000 0.0000 -9.0484 0.0000 21.9546
#
#
#
# Elastic Compliance Matrix: (Units=1/GPa)
#
#
# Indices 1 2 3 4 5 6 
#
# 1 0.034468 -0.005910 0.002472 0.000000 0.016078 0.000000
# 2 -0.005910 0.007775 -0.003352 0.000000 -0.003143 0.000000
# 3 0.002472 -0.003352 0.014450 0.000000 0.004640 0.000000
# 4 0.000000 0.000000 0.000000 0.047678 0.000000 0.019650
# 5 0.016078 -0.003143 0.004640 0.000000 0.046718 0.000000
# 6 0.000000 0.000000 0.000000 0.019650 0.000000 0.053647
#
#
# Mechanical properties :
#
#
# Convention : Reuss Voigt Hill
#
# Bulk Modulus (GPa) = 23.19472 45.08160 34.13816
# Shear Modulus (GPa) = 21.48814 29.00184 25.24499
#
# Velocity S-wave (km/s) = 3.18329 3.69819 3.45036
# Velocity P-wave (km/s) = 4.94462 6.28451 5.65439
#
# Compressibility (1/GPa) = 0.04311326
#
# Stress axis : x y z
#
# Youngs Moduli (GPa) = 29.01254 128.61832 69.20314
#
# Poissons Ratio (x) = 0.76014 -0.17107
# Poissons Ratio (y) = 0.17147 0.23195
# Poissons Ratio (z) = -0.07172 0.43109
#
# Static dielectric constant tensor:
#      x y z
#    x 3.392080 0.000000 -0.267810 
#    y 0.000000 4.212150 0.000000 
#    z -0.267810 0.000000 4.006010 
# 
# 
# High freq. dielectric constant tensor:
#      x y z
#    x 1.797960 0.000000 -0.021930 
#    y 0.000000 1.843170 0.000000 
#    z -0.021930 0.000000 1.834770 
# 
# From -- ./inp_files/36365.got.cif
#   From: 2010.06.25/outbox.cif.g09.slc.cpg/sg10_19_cif.got.tgz:36365.got - 2010.06.27 22:07:45.
