data_PCOD8059833
_publ_section_title
;
Structure prediction by ZEFSAII (Michael W. Deem and Ramdas Pophale) SiO2 
 PCOD8059833
Probable space group: P 2/M
;
_chemical_formula_sum "Si O2"
_cell_formula_units_Z 24
_cell_length_a 31.334289
_cell_length_b 8.698433
_cell_length_c 29.075981
_cell_angle_alpha 90.000000
_cell_angle_beta 8.950047
_cell_angle_gamma 90.000000
_cell_volume 1232.906932
_symmetry_space_group_name_H-M "P 2/M"
_symmetry_group_IT_number 10
_symmetry_cell_setting 'monoclinic'
loop_
_space_group_symop_operation_xyz
x,y,z
-x,y,-z
-x,-y,-z
x,-y,z
loop_
_atom_site_type_symbol
_atom_site_label
_atom_site_fract_x
_atom_site_fract_y
_atom_site_fract_z
Si Si1 0.971999 0.182833 0.667156
Si Si2 0.528067 0.317170 0.332779
Si Si3 0.358456 0.817368 0.337477
Si Si4 0.141631 0.682631 0.662428
Si Si5 0.693922 0.316571 0.334125
Si Si6 0.806082 0.183429 0.665871
O O1 0.166789 0.244255 0.500404
O O2 0.082811 0.248084 0.500828
O O3 0.974866 0.000000 0.662879
O O4 0.665131 0.244285 0.002127
O O5 0.525270 0.500000 0.336988
O O6 0.333260 0.255769 0.499549
O O7 0.417190 0.251913 0.499170
O O8 0.834946 0.255734 0.997793
O O9 0.250059 0.750036 0.499942
O O10 0.352342 0.000000 0.346714
O O11 0.147852 0.500000 0.653057
O O12 0.500000 0.253825 0.500000
O O13 0.693150 0.500000 0.335292
O O14 0.000000 0.253803 0.000000
O O15 0.000000 0.246184 0.500000
O O16 0.806882 0.000000 0.664676
O O17 0.500000 0.246189 0.000000
#
# Coordination Sequence:
#
# PCOD8059833 Si02
#       6
#     4   4   4   4   4   4
#     4   9  17  28  42  62  89 118 144 177 220 259
#     4   9  17  28  42  62  89 118 144 177 220 259
#     4  10  19  31  46  64  89 118 148 181 217 256
#     4  10  19  31  46  64  89 118 148 181 217 256
#     4   9  15  23  37  58  85 114 140 168 210 263
#     4   9  15  23  37  58  85 114 140 168 210 263
#
# _framework density 19.466190999999998
#
# number of rings (size 3 to 8) (size 9 to 14) (size 15 to 20)
#    0.000    2.667    0.000    3.000    0.000    8.000 
#    0.000    0.000    0.000    0.000    0.000    0.000 
#    0.000   26.667    0.000    0.000    0.000    0.000 
#
# Total GULP energy -297603.081233 kJ/mol
# GULP energy per Si atom -12400.128385 kJ/mol
# Density = 1.942189 g / cm^3
# Si number density = 19.466191 Si / 1000 Ang^3
#
#
#
# Elastic Constant Matrix: (Units=GPa)
#
#
# Indices 1 2 3 4 5 6 
#
# 1 230.3892 10.5495 131.4351 0.0000 0.4053 0.0000
# 2 10.5495 4.7120 10.5530 0.0000 -0.0301 0.0000
# 3 131.4351 10.5530 230.5082 0.0000 -0.4663 0.0000
# 4 0.0000 0.0000 0.0000 11.7321 0.0000 8.6130
# 5 0.4053 -0.0301 -0.4663 0.0000 51.0921 0.0000
# 6 0.0000 0.0000 0.0000 8.6130 0.0000 16.0470
#
#
#
# Elastic Compliance Matrix: (Units=1/GPa)
#
#
# Indices 1 2 3 4 5 6 
#
# 1 0.006641 -0.007118 -0.003461 0.000000 -0.000088 0.000000
# 2 -0.007118 0.244098 -0.007116 0.000000 0.000135 0.000000
# 3 -0.003461 -0.007116 0.006638 0.000000 0.000084 0.000000
# 4 0.000000 0.000000 0.000000 0.140663 0.000000 -0.075499
# 5 -0.000088 0.000135 0.000084 0.000000 0.019574 0.000000
# 6 0.000000 0.000000 0.000000 -0.075499 0.000000 0.102840
#
#
# Mechanical properties :
#
#
# Convention : Reuss Voigt Hill
#
# Bulk Modulus (GPa) = 4.50478 85.63162 45.06820
# Shear Modulus (GPa) = 7.93854 36.64570 22.29212
#
# Velocity S-wave (km/s) = 2.02163 4.34352 3.38771
# Velocity P-wave (km/s) = 2.78720 8.32108 6.20519
#
# Compressibility (1/GPa) = 0.22198656
#
# Stress axis : x y z
#
# Youngs Moduli (GPa) = 150.57872 4.09672 150.65519
#
# Poissons Ratio (x) = 0.02916 0.52142
# Poissons Ratio (y) = 1.07177 1.07211
# Poissons Ratio (z) = 0.52116 0.02915
#
# Static dielectric constant tensor:
#      x y z
#    x 3.861270 0.000000 -0.128170 
#    y 0.000000 2.750260 0.000000 
#    z -0.128170 0.000000 3.925730 
# 
# 
# High freq. dielectric constant tensor:
#      x y z
#    x 1.780190 0.000000 -0.000850 
#    y 0.000000 1.673160 0.000000 
#    z -0.000850 0.000000 1.780620 
# 
# From -- ./inp_files/12142.got.cif
#   From: 2010.06.25/outbox.cif.g09.slc.cpg/sg10_7_cif.got.tgz:12142.got - 2010.06.27 22:07:45.
