data_PCOD8059106
_publ_section_title
;
Structure prediction by ZEFSAII (Michael W. Deem and Ramdas Pophale) SiO2 
 PCOD8059106
Probable space group: P 2/M
;
_chemical_formula_sum "Si O2"
_cell_formula_units_Z 28
_cell_length_a 15.152274
_cell_length_b 19.416456
_cell_length_c 9.937813
_cell_angle_alpha 90.000000
_cell_angle_beta 27.010661
_cell_angle_gamma 90.000000
_cell_volume 1327.834424
_symmetry_space_group_name_H-M "P 2/M"
_symmetry_group_IT_number 10
_symmetry_cell_setting 'monoclinic'
loop_
_space_group_symop_operation_xyz
x,y,z
-x,y,-z
-x,-y,-z
x,-y,z
loop_
_atom_site_type_symbol
_atom_site_label
_atom_site_fract_x
_atom_site_fract_y
_atom_site_fract_z
Si Si1 0.437985 0.695108 0.727690
Si Si2 0.339106 0.843871 0.830449
Si Si3 0.547612 0.079332 0.785177
Si Si4 0.819410 0.576852 0.841245
Si Si5 0.932943 0.573320 0.243851
Si Si6 0.947463 0.145802 0.225957
Si Si7 0.174152 0.285961 0.659123
O O1 0.500000 0.662603 0.500000
O O2 0.298772 0.761625 0.897177
O O3 0.625383 0.729778 0.539948
O O4 0.345288 0.635789 0.948077
O O5 0.500000 0.860674 0.500000
O O6 0.411154 0.876490 0.871906
O O7 0.132501 0.876980 0.064566
O O8 0.779120 0.089114 0.456639
O O9 0.498073 0.000000 0.825101
O O10 0.500000 0.102803 0.000000
O O11 0.739675 0.500000 0.912885
O O12 0.000000 0.595488 0.500000
O O13 0.879828 0.579027 0.915111
O O14 0.824604 0.500000 0.424007
O O15 0.801303 0.640760 0.452793
O O16 0.000000 0.571107 0.000000
O O17 0.867764 0.221201 0.382370
O O18 0.000000 0.157222 0.000000
O O19 0.000000 0.297562 0.000000
#
# Coordination Sequence:
#
# PCOD8059106 Si02
#       7
#     4   4   4   4   4   4   4
#     4  11  20  36  63  92 122 162 217 264 315 378
#     4  11  21  42  69  98 130 168 219 269 317 378
#     4  11  26  47  66  96 138 169 206 263 322 384
#     4  10  22  40  57  84 127 165 208 266 323 375
#     4   9  17  32  54  80 111 154 203 249 304 365
#     4  11  20  40  67  95 128 168 218 265 319 376
#     4  10  18  33  58  88 123 156 201 268 318 362
#
# _framework density 21.086967999999999
#
# number of rings (size 3 to 8) (size 9 to 14) (size 15 to 20)
#    0.000    1.571    2.857    5.143    0.000    2.571 
#    5.143    2.143    0.000    2.571    0.000    0.000 
#    0.000    0.000    0.000    0.000    0.000    0.000 
#
# Total GULP energy -346959.679196 kJ/mol
# GULP energy per Si atom -12391.417114 kJ/mol
# Density = 2.103897 g / cm^3
# Si number density = 21.086968 Si / 1000 Ang^3
#
#
#
# Elastic Constant Matrix: (Units=GPa)
#
#
# Indices 1 2 3 4 5 6 
#
# 1 108.3124 36.8922 45.6923 0.0000 -14.8335 0.0000
# 2 36.8922 90.8685 29.1037 0.0000 11.5348 0.0000
# 3 45.6923 29.1037 80.9642 0.0000 -13.2278 0.0000
# 4 0.0000 0.0000 0.0000 -1.1733 0.0000 -5.7754
# 5 -14.8335 11.5348 -13.2278 0.0000 32.9553 0.0000
# 6 0.0000 0.0000 0.0000 -5.7754 0.0000 27.6979
#
#
#
# Elastic Compliance Matrix: (Units=1/GPa)
#
#
# Indices 1 2 3 4 5 6 
#
# 1 0.013794 -0.004682 -0.005158 0.000000 0.005777 0.000000
# 2 -0.004682 0.015519 -0.004460 0.000000 -0.009329 0.000000
# 3 -0.005158 -0.004460 0.017916 0.000000 0.006431 0.000000
# 4 0.000000 0.000000 0.000000 -0.420601 0.000000 -0.087701
# 5 0.005777 -0.009329 0.006431 0.000000 0.038791 0.000000
# 6 0.000000 0.000000 0.000000 -0.087701 0.000000 0.017817
#
#
# Mechanical properties :
#
#
# Convention : Reuss Voigt Hill
#
# Bulk Modulus (GPa) = 53.68107 55.94683 54.81395
# Shear Modulus (GPa) = -17.73337 23.12643 2.69653
#
# Velocity S-wave (km/s) = -2.90308 3.31526 1.13205
# Velocity P-wave (km/s) = 3.77824 6.42213 5.26872
#
# Compressibility (1/GPa) = 0.01862854
#
# Stress axis : x y z
#
# Youngs Moduli (GPa) = 72.49329 64.43895 55.81566
#
# Poissons Ratio (x) = 0.30169 0.28790
# Poissons Ratio (y) = 0.33940 0.24896
# Poissons Ratio (z) = 0.37392 0.28742
#
# Static dielectric constant tensor:
#      x y z
#    x 3.743350 0.000000 -0.115030 
#    y 0.000000 4.259100 0.000000 
#    z -0.115030 0.000000 3.523840 
# 
# 
# High freq. dielectric constant tensor:
#      x y z
#    x 1.818930 0.000000 -0.015680 
#    y 0.000000 1.839220 0.000000 
#    z -0.015680 0.000000 1.790580 
# 
# From -- ./inp_files/54236.got.cif
#   From: 2010.06.25/outbox.cif.g09.slc.cpg/sg10_28_cif.got.tgz:54236.got - 2010.06.27 22:07:45.
