data_PCOD8059666
_publ_section_title
;
Structure prediction by ZEFSAII (Michael W. Deem and Ramdas Pophale) SiO2 
 PCOD8059666
Probable space group: P 2/M
;
_chemical_formula_sum "Si O2"
_cell_formula_units_Z 32
_cell_length_a 14.131571
_cell_length_b 9.455388
_cell_length_c 27.747120
_cell_angle_alpha 90.000000
_cell_angle_beta 29.605019
_cell_angle_gamma 90.000000
_cell_volume 1831.599483
_symmetry_space_group_name_H-M "P 2/M"
_symmetry_group_IT_number 10
_symmetry_cell_setting 'monoclinic'
loop_
_space_group_symop_operation_xyz
x,y,z
-x,y,-z
-x,-y,-z
x,-y,z
loop_
_atom_site_type_symbol
_atom_site_label
_atom_site_fract_x
_atom_site_fract_y
_atom_site_fract_z
Si Si1 0.785209 0.658254 0.113129
Si Si2 0.032336 0.837469 0.133797
Si Si3 0.710990 0.335821 0.798059
Si Si4 0.357251 0.835439 0.736866
Si Si5 0.291990 0.658157 0.956259
Si Si6 0.722636 0.332729 0.589066
Si Si7 0.864039 0.333094 0.628904
Si Si8 0.285258 0.833569 0.110923
O O1 0.750836 0.500000 0.149945
O O2 0.731328 0.778038 0.174502
O O3 0.654386 0.680671 0.123634
O O4 0.000000 0.676416 0.000000
O O5 0.130238 0.784433 0.139656
O O6 0.801949 0.813195 0.234940
O O7 0.083894 0.000000 0.103307
O O8 0.122542 0.759020 0.048203
O O9 0.769844 0.500000 0.777682
O O10 0.483306 0.315547 0.901538
O O11 0.791393 0.271193 0.712122
O O12 0.788315 0.246275 0.808730
O O13 0.549749 0.749423 0.639340
O O14 0.407140 0.000000 0.720940
O O15 0.213508 0.500000 0.998839
O O16 0.686650 0.500000 0.601283
O O17 0.738003 0.283662 0.638476
O O18 0.915678 0.288063 0.476010
O O19 0.847173 0.500000 0.638106
O O20 0.276809 0.000000 0.124740
O O21 0.500000 0.788585 0.000000
#
# Coordination Sequence:
#
# PCOD8059666 Si02
#       8
#     4   4   4   4   4   4   4   4
#     4  10  19  31  47  68  97 134 171 202 235 293
#     4  10  21  35  48  65  97 137 171 205 246 296
#     4  10  19  31  51  78 104 125 159 213 263 299
#     4  11  22  33  48  72 103 137 169 208 255 296
#     4  10  19  30  47  72 100 129 163 203 244 293
#     4   9  17  34  59  79 102 136 170 201 245 308
#     4   8  16  33  57  82 104 131 165 206 255 304
#     4  10  20  35  52  69  95 135 179 212 248 303
#
# _framework density 17.471069
#
# number of rings (size 3 to 8) (size 9 to 14) (size 15 to 20)
#    0.000    2.250    2.500    1.875    0.000    4.000 
#    0.000    3.750    0.000    0.750    0.000    5.250 
#    0.000    0.000    0.000    0.000    0.000    0.000 
#
# Total GULP energy -396662.851051 kJ/mol
# GULP energy per Si atom -12395.714095 kJ/mol
# Density = 1.743130 g / cm^3
# Si number density = 17.471069 Si / 1000 Ang^3
#
#
#
# Elastic Constant Matrix: (Units=GPa)
#
#
# Indices 1 2 3 4 5 6 
#
# 1 103.3637 39.8689 40.1518 0.0000 -10.3809 0.0000
# 2 39.8689 55.2329 30.1443 0.0000 -5.5337 0.0000
# 3 40.1518 30.1443 64.5430 0.0000 -1.3433 0.0000
# 4 0.0000 0.0000 0.0000 15.7232 0.0000 -8.1586
# 5 -10.3809 -5.5337 -1.3433 0.0000 26.8427 0.0000
# 6 0.0000 0.0000 0.0000 -8.1586 0.0000 22.0362
#
#
#
# Elastic Compliance Matrix: (Units=1/GPa)
#
#
# Indices 1 2 3 4 5 6 
#
# 1 0.015228 -0.007327 -0.005966 0.000000 0.004080 0.000000
# 2 -0.007327 0.028366 -0.008636 0.000000 0.002582 0.000000
# 3 -0.005966 -0.008636 0.023178 0.000000 -0.002928 0.000000
# 4 0.000000 0.000000 0.000000 0.078725 0.000000 0.029147
# 5 0.004080 0.002582 -0.002928 0.000000 0.039218 0.000000
# 6 0.000000 0.000000 0.000000 0.029147 0.000000 0.056171
#
#
# Mechanical properties :
#
#
# Convention : Reuss Voigt Hill
#
# Bulk Modulus (GPa) = 43.64423 49.27439 46.45931
# Shear Modulus (GPa) = 17.10087 20.45205 18.77646
#
# Velocity S-wave (km/s) = 3.13199 3.42515 3.28184
# Velocity P-wave (km/s) = 6.17367 6.62622 6.40395
#
# Compressibility (1/GPa) = 0.02291254
#
# Stress axis : x y z
#
# Youngs Moduli (GPa) = 65.66767 35.25323 43.14487
#
# Poissons Ratio (x) = 0.25831 0.25742
# Poissons Ratio (y) = 0.48116 0.37261
# Poissons Ratio (z) = 0.39180 0.30446
#
# Static dielectric constant tensor:
#      x y z
#    x 3.478720 0.000000 -0.099730 
#    y 0.000000 3.057540 0.000000 
#    z -0.099730 0.000000 3.227340 
# 
# 
# High freq. dielectric constant tensor:
#      x y z
#    x 1.674380 0.000000 -0.013720 
#    y 0.000000 1.658000 0.000000 
#    z -0.013720 0.000000 1.656930 
# 
# From -- ./inp_files/95247.got.cif
#   From: 2010.06.25/outbox.cif.g09.slc.cpg/sg10_48_cif.got.tgz:95247.got - 2010.06.27 22:07:45.
