data_PCOD8059821
_publ_section_title
;
Structure prediction by ZEFSAII (Michael W. Deem and Ramdas Pophale) SiO2 
 PCOD8059821
Probable space group: P 2/M
;
_chemical_formula_sum "Si O2"
_cell_formula_units_Z 32
_cell_length_a 21.818081
_cell_length_b 8.873806
_cell_length_c 31.332089
_cell_angle_alpha 90.000000
_cell_angle_beta 16.421823
_cell_angle_gamma 90.000000
_cell_volume 1714.952601
_symmetry_space_group_name_H-M "P 2/M"
_symmetry_group_IT_number 10
_symmetry_cell_setting 'monoclinic'
loop_
_space_group_symop_operation_xyz
x,y,z
-x,y,-z
-x,-y,-z
x,-y,z
loop_
_atom_site_type_symbol
_atom_site_label
_atom_site_fract_x
_atom_site_fract_y
_atom_site_fract_z
Si Si1 0.171137 0.323911 0.015902
Si Si2 0.754842 0.166473 0.171132
Si Si3 0.316892 0.676264 0.537749
Si Si4 0.505928 0.674228 0.721573
Si Si5 0.165304 0.327969 0.115598
Si Si6 0.827952 0.821409 0.451192
Si Si7 0.279249 0.170073 0.706373
Si Si8 0.704955 0.177996 0.888524
O O1 0.132510 0.500000 0.032760
O O2 0.250127 0.293105 0.011363
O O3 0.941232 0.243512 0.162997
O O4 0.364654 0.262317 0.856012
O O5 0.631359 0.298949 0.229355
O O6 0.716449 0.173317 0.246161
O O7 0.689362 0.000000 0.196826
O O8 0.000000 0.202867 0.000000
O O9 0.355353 0.500000 0.503634
O O10 0.316458 0.760992 0.492077
O O11 0.497371 0.737331 0.451377
O O12 0.089661 0.709655 0.712677
O O13 0.559301 0.500000 0.692853
O O14 0.733232 0.761192 0.560036
O O15 0.205737 0.500000 0.101362
O O16 0.301898 0.229022 0.057669
O O17 0.074786 0.763190 0.281233
O O18 0.815956 0.000000 0.458484
O O19 0.294684 0.000000 0.677831
O O20 0.695723 0.000000 0.893957
O O21 0.500000 0.246629 0.000000
#
# Coordination Sequence:
#
# PCOD8059821 Si02
#       8
#     4   4   4   4   4   4   4   4
#     4  10  22  37  50  69 102 143 182 218 255 297
#     4  10  19  31  45  64  95 133 176 226 266 295
#     4  10  19  32  51  72  98 134 176 221 264 304
#     4  11  21  31  49  73 100 136 177 216 254 301
#     4   9  20  38  56  76 104 137 172 210 255 307
#     4  10  19  32  52  78 108 134 160 205 260 306
#     4  11  21  31  47  71 100 137 181 225 265 303
#     4   9  19  37  62  89 110 128 156 200 254 310
#
# _framework density 18.659407999999999
#
# number of rings (size 3 to 8) (size 9 to 14) (size 15 to 20)
#    0.000    2.000    2.500    1.500    0.000    3.500 
#    0.000    2.500    0.000    0.750    0.000    5.250 
#    0.000    0.000    0.000    0.000    0.000    0.000 
#
# Total GULP energy -396573.934392 kJ/mol
# GULP energy per Si atom -12392.935450 kJ/mol
# Density = 1.861694 g / cm^3
# Si number density = 18.659408 Si / 1000 Ang^3
#
#
#
# Elastic Constant Matrix: (Units=GPa)
#
#
# Indices 1 2 3 4 5 6 
#
# 1 78.9815 22.6236 41.9582 0.0000 -3.8960 0.0000
# 2 22.6236 60.3710 25.0428 0.0000 -4.0569 0.0000
# 3 41.9582 25.0428 91.5608 0.0000 -11.2308 0.0000
# 4 0.0000 0.0000 0.0000 21.9218 0.0000 -0.4918
# 5 -3.8960 -4.0569 -11.2308 0.0000 27.8761 0.0000
# 6 0.0000 0.0000 0.0000 -0.4918 0.0000 21.2301
#
#
#
# Elastic Compliance Matrix: (Units=1/GPa)
#
#
# Indices 1 2 3 4 5 6 
#
# 1 0.017436 -0.003649 -0.007110 0.000000 -0.000959 0.000000
# 2 -0.003649 0.019461 -0.003541 0.000000 0.000896 0.000000
# 3 -0.007110 -0.003541 0.015741 0.000000 0.004833 0.000000
# 4 0.000000 0.000000 0.000000 0.045640 0.000000 0.001057
# 5 -0.000959 0.000896 0.004833 0.000000 0.037816 0.000000
# 6 0.000000 0.000000 0.000000 0.001057 0.000000 0.047127
#
#
# Mechanical properties :
#
#
# Convention : Reuss Voigt Hill
#
# Bulk Modulus (GPa) = 41.59948 45.57360 43.58654
# Shear Modulus (GPa) = 22.74445 23.62484 23.18464
#
# Velocity S-wave (km/s) = 3.49510 3.56210 3.52876
# Velocity P-wave (km/s) = 6.21531 6.43390 6.32555
#
# Compressibility (1/GPa) = 0.02403876
#
# Stress axis : x y z
#
# Youngs Moduli (GPa) = 57.35205 51.38581 63.52871
#
# Poissons Ratio (x) = 0.18752 0.45167
# Poissons Ratio (y) = 0.20929 0.22492
# Poissons Ratio (z) = 0.40775 0.18193
#
# Static dielectric constant tensor:
#      x y z
#    x 3.242110 0.000000 0.140100 
#    y 0.000000 3.521440 0.000000 
#    z 0.140100 0.000000 3.835250 
# 
# 
# High freq. dielectric constant tensor:
#      x y z
#    x 1.690960 0.000000 0.017180 
#    y 0.000000 1.723390 0.000000 
#    z 0.017180 0.000000 1.730210 
# 
# From -- ./inp_files/69971.got.cif
#   From: 2010.06.25/outbox.cif.g09.slc.cpg/sg10_35_cif.got.tgz:69971.got - 2010.06.27 22:07:45.
