data_PCOD8059958
_publ_section_title
;
Structure prediction by ZEFSAII (Michael W. Deem and Ramdas Pophale) SiO2 
 PCOD8059958
Probable space group: P 2/M
;
_chemical_formula_sum "Si O2"
_cell_formula_units_Z 28
_cell_length_a 14.388834
_cell_length_b 9.753739
_cell_length_c 16.467111
_cell_angle_alpha 90.000000
_cell_angle_beta 39.876738
_cell_angle_gamma 90.000000
_cell_volume 1481.718620
_symmetry_space_group_name_H-M "P 2/M"
_symmetry_group_IT_number 10
_symmetry_cell_setting 'monoclinic'
loop_
_space_group_symop_operation_xyz
x,y,z
-x,y,-z
-x,-y,-z
x,-y,z
loop_
_atom_site_type_symbol
_atom_site_label
_atom_site_fract_x
_atom_site_fract_y
_atom_site_fract_z
Si Si1 0.311640 0.655585 0.432491
Si Si2 0.926027 0.337103 0.968929
Si Si3 0.831171 0.154767 0.604341
Si Si4 0.563015 0.155418 0.042250
Si Si5 0.148860 0.152124 0.232041
Si Si6 0.598679 0.341524 0.164898
Si Si7 0.935132 0.658972 0.290430
O O1 0.277234 0.500000 0.430256
O O2 0.243483 0.747360 0.408909
O O3 0.487333 0.676689 0.316168
O O4 0.235357 0.683696 0.571883
O O5 0.928845 0.500000 0.970982
O O6 0.021570 0.284955 0.827870
O O7 0.758987 0.285573 0.078703
O O8 0.000000 0.274779 0.000000
O O9 0.767512 0.179509 0.738174
O O10 0.000000 0.187819 0.500000
O O11 0.803616 0.000000 0.593132
O O12 0.524704 0.255186 0.141982
O O13 0.507466 0.000000 0.097419
O O14 0.500000 0.211784 0.000000
O O15 0.737101 0.157780 0.917471
O O16 0.024271 0.262420 0.299993
O O17 0.077100 0.000000 0.284835
O O18 0.609230 0.500000 0.130655
O O19 0.977910 0.500000 0.266780
#
# Coordination Sequence:
#
# PCOD8059958 Si02
#       7
#     4   4   4   4   4   4   4
#     4  10  21  33  48  75 109 139 171 216 262 303
#     4   9  18  35  59  81 101 132 174 219 269 324
#     4  10  19  31  48  71 102 144 187 216 247 303
#     4  10  20  33  50  73 105 142 178 216 258 305
#     4  10  19  31  48  72 101 134 177 220 252 292
#     4  10  20  35  53  77 107 137 173 218 264 312
#     4  10  19  33  53  75 100 132 169 208 257 312
#
# _framework density 18.896975000000001
#
# number of rings (size 3 to 8) (size 9 to 14) (size 15 to 20)
#    0.000    2.143    2.857    0.857    0.000    2.857 
#    0.000    0.714    0.000    6.000    0.000    0.000 
#    0.000    3.429    0.000    0.000    0.000    0.000 
#
# Total GULP energy -346964.636576 kJ/mol
# GULP energy per Si atom -12391.594163 kJ/mol
# Density = 1.885396 g / cm^3
# Si number density = 18.896975 Si / 1000 Ang^3
#
#
#
# Elastic Constant Matrix: (Units=GPa)
#
#
# Indices 1 2 3 4 5 6 
#
# 1 88.9843 31.0541 51.3730 0.0000 3.9838 0.0000
# 2 31.0541 48.3044 30.5932 0.0000 2.8044 0.0000
# 3 51.3730 30.5932 155.3021 0.0000 -0.2599 0.0000
# 4 0.0000 0.0000 0.0000 15.6873 0.0000 0.8457
# 5 3.9838 2.8044 -0.2599 0.0000 19.5795 0.0000
# 6 0.0000 0.0000 0.0000 0.8457 0.0000 -4.1713
#
#
#
# Elastic Compliance Matrix: (Units=1/GPa)
#
#
# Indices 1 2 3 4 5 6 
#
# 1 0.016324 -0.007932 -0.003841 0.000000 -0.002236 0.000000
# 2 -0.007932 0.027742 -0.002845 0.000000 -0.002398 0.000000
# 3 -0.003841 -0.002845 0.008272 0.000000 0.001299 0.000000
# 4 0.000000 0.000000 0.000000 0.063056 0.000000 0.012784
# 5 -0.002236 -0.002398 0.001299 0.000000 0.051889 0.000000
# 6 0.000000 0.000000 0.000000 0.012784 0.000000 -0.237141
#
#
# Mechanical properties :
#
#
# Convention : Reuss Voigt Hill
#
# Bulk Modulus (GPa) = 43.28555 57.62571 50.45563
# Shear Modulus (GPa) = -151.88512 18.19047 -66.84733
#
# Velocity S-wave (km/s) = -8.97496 3.10597 -5.95411
# Velocity P-wave (km/s) = 9.18934 6.58966 4.52882
#
# Compressibility (1/GPa) = 0.02310240
#
# Stress axis : x y z
#
# Youngs Moduli (GPa) = 61.26095 36.04584 120.88499
#
# Poissons Ratio (x) = 0.28590 0.46432
# Poissons Ratio (y) = 0.48590 0.34395
# Poissons Ratio (z) = 0.23530 0.10256
#
# Static dielectric constant tensor:
#      x y z
#    x 3.190440 0.000000 0.012120 
#    y 0.000000 3.266340 0.000000 
#    z 0.012120 0.000000 4.104870 
# 
# 
# High freq. dielectric constant tensor:
#      x y z
#    x 1.686220 0.000000 -0.006070 
#    y 0.000000 1.711950 0.000000 
#    z -0.006070 0.000000 1.767110 
# 
# From -- ./inp_files/77700.got.cif
#   From: 2010.06.25/outbox.cif.g09.slc.cpg/sg10_39_cif.got.tgz:77700.got - 2010.06.27 22:07:45.
