data_PCOD8059290
_publ_section_title
;
Structure prediction by ZEFSAII (Michael W. Deem and Ramdas Pophale) SiO2 
 PCOD8059290
Probable space group: P 2/M
;
_chemical_formula_sum "Si O2"
_cell_formula_units_Z 32
_cell_length_a 18.434082
_cell_length_b 8.854018
_cell_length_c 13.464550
_cell_angle_alpha 90.000000
_cell_angle_beta 69.241244
_cell_angle_gamma 90.000000
_cell_volume 2054.958319
_symmetry_space_group_name_H-M "P 2/M"
_symmetry_group_IT_number 10
_symmetry_cell_setting 'monoclinic'
loop_
_space_group_symop_operation_xyz
x,y,z
-x,y,-z
-x,-y,-z
x,-y,z
loop_
_atom_site_type_symbol
_atom_site_label
_atom_site_fract_x
_atom_site_fract_y
_atom_site_fract_z
Si Si1 0.965817 0.324763 0.861842
Si Si2 0.111700 0.679873 0.487314
Si Si3 0.587349 0.329043 0.572859
Si Si4 0.879407 0.325745 0.102196
Si Si5 0.741427 0.822711 0.491791
Si Si6 0.264821 0.823526 0.732740
Si Si7 0.967690 0.820869 0.656836
Si Si8 0.581827 0.669438 0.339881
O O1 0.967167 0.500000 0.829584
O O2 0.943306 0.220121 0.780280
O O3 0.049791 0.274896 0.861948
O O4 0.901383 0.296583 0.977184
O O5 0.102236 0.500000 0.492618
O O6 0.198072 0.726831 0.474002
O O7 0.094066 0.744621 0.386810
O O8 0.052902 0.753555 0.594948
O O9 0.603968 0.500000 0.601160
O O10 0.656001 0.218491 0.575717
O O11 0.503331 0.272513 0.655334
O O12 0.583480 0.325341 0.456938
O O13 0.860929 0.500000 0.129898
O O14 0.803471 0.231796 0.163616
O O15 0.748994 0.769040 0.373698
O O16 0.756716 0.000000 0.497428
O O17 0.347260 0.767825 0.736732
O O18 0.267034 0.000000 0.734697
O O19 0.968363 0.000000 0.640672
O O20 0.594208 0.500000 0.295159
#
# Coordination Sequence:
#
# PCOD8059290 Si02
#       8
#     4   4   4   4   4   4   4   4
#     4   9  18  33  49  65  84 112 147 179 214 257
#     4  11  21  33  48  64  84 114 149 181 210 252
#     4   8  14  25  40  58  79 110 147 178 209 252
#     4   9  18  31  47  64  85 113 147 182 212 249
#     4  10  19  29  41  62  90 117 144 180 220 256
#     4  10  19  27  39  61  89 117 146 179 218 258
#     4  11  21  33  48  66  88 112 139 178 223 261
#     4   8  14  25  40  56  79 111 147 179 209 249
#
# _framework density 15.572092
#
# number of rings (size 3 to 8) (size 9 to 14) (size 15 to 20)
#    0.000    2.500    0.000    6.000    0.000    5.000 
#    0.000    3.750    0.000    0.000    0.000    0.000 
#    0.000    1.000    0.000   10.500    0.000    5.500 
#
# Total GULP energy -396697.939357 kJ/mol
# GULP energy per Si atom -12396.810605 kJ/mol
# Density = 1.553665 g / cm^3
# Si number density = 15.572092 Si / 1000 Ang^3
#
#
#
# Elastic Constant Matrix: (Units=GPa)
#
#
# Indices 1 2 3 4 5 6 
#
# 1 106.6673 43.5792 39.9839 0.0000 -17.7754 0.0000
# 2 43.5792 77.4389 28.4110 0.0000 -1.7633 0.0000
# 3 39.9839 28.4110 58.8502 0.0000 -3.7264 0.0000
# 4 0.0000 0.0000 0.0000 19.4950 0.0000 0.0659
# 5 -17.7754 -1.7633 -3.7264 0.0000 22.6751 0.0000
# 6 0.0000 0.0000 0.0000 0.0659 0.0000 21.2189
#
#
#
# Elastic Compliance Matrix: (Units=1/GPa)
#
#
# Indices 1 2 3 4 5 6 
#
# 1 0.016700 -0.006369 -0.007553 0.000000 0.011355 0.000000
# 2 -0.006369 0.018122 -0.004697 0.000000 -0.004355 0.000000
# 3 -0.007553 -0.004697 0.024246 0.000000 -0.002302 0.000000
# 4 0.000000 0.000000 0.000000 0.051296 0.000000 -0.000159
# 5 0.011355 -0.004355 -0.002302 0.000000 0.052286 0.000000
# 6 0.000000 0.000000 0.000000 -0.000159 0.000000 0.047128
#
#
# Mechanical properties :
#
#
# Convention : Reuss Voigt Hill
#
# Bulk Modulus (GPa) = 45.80844 51.87826 48.84335
# Shear Modulus (GPa) = 19.66246 21.40997 20.53621
#
# Velocity S-wave (km/s) = 3.55727 3.71198 3.63545
# Velocity P-wave (km/s) = 6.80831 7.19437 7.00400
#
# Compressibility (1/GPa) = 0.02183004
#
# Stress axis : x y z
#
# Youngs Moduli (GPa) = 59.87928 55.18285 41.24413
#
# Poissons Ratio (x) = 0.35144 0.31151
# Poissons Ratio (y) = 0.38135 0.19374
# Poissons Ratio (z) = 0.45226 0.25921
#
# Static dielectric constant tensor:
#      x y z
#    x 3.154050 0.000000 -0.207170 
#    y 0.000000 2.987300 0.000000 
#    z -0.207170 0.000000 2.775290 
# 
# 
# High freq. dielectric constant tensor:
#      x y z
#    x 1.593480 0.000000 -0.017860 
#    y 0.000000 1.603870 0.000000 
#    z -0.017860 0.000000 1.556650 
# 
# From -- ./inp_files/68217.got.cif
#   From: 2010.06.25/outbox.cif.g09.slc.cpg/sg10_35_cif.got.tgz:68217.got - 2010.06.27 22:07:45.
