data_PCOD8059156
_publ_section_title
;
Structure prediction by ZEFSAII (Michael W. Deem and Ramdas Pophale) SiO2 
 PCOD8059156
Probable space group: P 2/M
;
_chemical_formula_sum "Si O2"
_cell_formula_units_Z 28
_cell_length_a 13.985809
_cell_length_b 8.889215
_cell_length_c 17.494756
_cell_angle_alpha 90.000000
_cell_angle_beta 43.591599
_cell_angle_gamma 90.000000
_cell_volume 1499.690275
_symmetry_space_group_name_H-M "P 2/M"
_symmetry_group_IT_number 10
_symmetry_cell_setting 'monoclinic'
loop_
_space_group_symop_operation_xyz
x,y,z
-x,y,-z
-x,-y,-z
x,-y,z
loop_
_atom_site_type_symbol
_atom_site_label
_atom_site_fract_x
_atom_site_fract_y
_atom_site_fract_z
Si Si1 0.818380 0.822549 0.835777
Si Si2 0.581015 0.325366 0.266805
Si Si3 0.872775 0.177780 0.368786
Si Si4 0.657582 0.328226 0.055558
Si Si5 0.296976 0.177504 0.389417
Si Si6 0.351437 0.177005 0.621569
Si Si7 0.340428 0.323734 0.209657
O O1 0.717203 0.746834 0.833804
O O2 0.973603 0.758515 0.734780
O O3 0.813832 0.000000 0.827126
O O4 0.766544 0.779482 0.950316
O O5 0.541424 0.500000 0.299223
O O6 0.673168 0.302506 0.137300
O O7 0.440750 0.230483 0.342653
O O8 0.669171 0.265055 0.287027
O O9 0.824568 0.224851 0.481622
O O10 0.766640 0.240630 0.366680
O O11 0.871360 0.000000 0.362255
O O12 0.689787 0.500000 0.014358
O O13 0.502550 0.285037 0.119656
O O14 0.263525 0.254489 0.327903
O O15 0.303791 0.000000 0.373328
O O16 0.500000 0.216764 0.500000
O O17 0.337108 0.000000 0.645148
O O18 0.313263 0.500000 0.225615
#
# Coordination Sequence:
#
# PCOD8059156 Si02
#       7
#     4   4   4   4   4   4   4
#     4  11  22  36  55  79 107 142 184 225 265 317
#     4  10  20  34  54  84 114 138 173 226 275 313
#     4   9  20  36  53  79 113 142 175 223 272 315
#     4   9  20  38  56  75 107 144 177 220 271 316
#     4  10  18  34  57  80 108 143 181 219 266 321
#     4  10  18  34  59  82 106 143 182 217 264 321
#     4  10  21  37  56  80 110 141 178 225 272 316
#
# _framework density 18.670521999999998
#
# number of rings (size 3 to 8) (size 9 to 14) (size 15 to 20)
#    0.000    2.143    1.429    3.000    0.000    6.000 
#    0.000    7.857    0.000    4.286    0.000    0.000 
#    0.000    0.000    0.000    0.000    0.000    0.000 
#
# Total GULP energy -347258.289696 kJ/mol
# GULP energy per Si atom -12402.081775 kJ/mol
# Density = 1.862803 g / cm^3
# Si number density = 18.670522 Si / 1000 Ang^3
#
#
#
# Elastic Constant Matrix: (Units=GPa)
#
#
# Indices 1 2 3 4 5 6 
#
# 1 56.7381 24.1057 42.7455 0.0000 15.7621 0.0000
# 2 24.1057 67.2830 47.4903 0.0000 5.4154 0.0000
# 3 42.7455 47.4903 131.6829 0.0000 9.9729 0.0000
# 4 0.0000 0.0000 0.0000 18.3688 0.0000 14.5143
# 5 15.7621 5.4154 9.9729 0.0000 25.6297 0.0000
# 6 0.0000 0.0000 0.0000 14.5143 0.0000 21.6245
#
#
#
# Elastic Compliance Matrix: (Units=1/GPa)
#
#
# Indices 1 2 3 4 5 6 
#
# 1 0.028290 -0.004397 -0.006543 0.000000 -0.013923 0.000000
# 2 -0.004397 0.020674 -0.006082 0.000000 0.000702 0.000000
# 3 -0.006543 -0.006082 0.011859 0.000000 0.000695 0.000000
# 4 0.000000 0.000000 0.000000 0.115916 0.000000 -0.077802
# 5 -0.013923 0.000702 0.000695 0.000000 0.047161 0.000000
# 6 0.000000 0.000000 0.000000 -0.077802 0.000000 0.098464
#
#
# Mechanical properties :
#
#
# Convention : Reuss Voigt Hill
#
# Bulk Modulus (GPa) = 37.34186 53.82080 45.58133
# Shear Modulus (GPa) = 13.68609 22.54878 18.11744
#
# Velocity S-wave (km/s) = 2.71039 3.47900 3.11847
# Velocity P-wave (km/s) = 5.46249 6.71022 6.11825
#
# Compressibility (1/GPa) = 0.02677960
#
# Stress axis : x y z
#
# Youngs Moduli (GPa) = 35.34786 48.36972 84.32578
#
# Poissons Ratio (x) = 0.21266 0.55176
# Poissons Ratio (y) = 0.15541 0.51286
# Poissons Ratio (z) = 0.23129 0.29418
#
# Static dielectric constant tensor:
#      x y z
#    x 3.463170 0.000000 0.114730 
#    y 0.000000 3.310100 0.000000 
#    z 0.114730 0.000000 3.552690 
# 
# 
# High freq. dielectric constant tensor:
#      x y z
#    x 1.717950 0.000000 0.019180 
#    y 0.000000 1.718240 0.000000 
#    z 0.019180 0.000000 1.724580 
# 
# From -- ./inp_files/68689.got.cif
#   From: 2010.06.25/outbox.cif.g09.slc.cpg/sg10_35_cif.got.tgz:68689.got - 2010.06.27 22:07:45.
