data_PCOD8059344
_publ_section_title
;
Structure prediction by ZEFSAII (Michael W. Deem and Ramdas Pophale) SiO2 
 PCOD8059344
Probable space group: P 2/M
;
_chemical_formula_sum "Si O2"
_cell_formula_units_Z 28
_cell_length_a 19.556984
_cell_length_b 9.286475
_cell_length_c 30.317483
_cell_angle_alpha 90.000000
_cell_angle_beta 20.511289
_cell_angle_gamma 90.000000
_cell_volume 1929.301086
_symmetry_space_group_name_H-M "P 2/M"
_symmetry_group_IT_number 10
_symmetry_cell_setting 'monoclinic'
loop_
_space_group_symop_operation_xyz
x,y,z
-x,y,-z
-x,-y,-z
x,-y,z
loop_
_atom_site_type_symbol
_atom_site_label
_atom_site_fract_x
_atom_site_fract_y
_atom_site_fract_z
Si Si1 0.624050 0.163183 0.465244
Si Si2 0.240479 0.332430 0.540502
Si Si3 0.231358 0.837152 0.364805
Si Si4 0.814938 0.664674 0.524349
Si Si5 0.465109 0.164824 0.969583
Si Si6 0.036333 0.837894 0.239965
Si Si7 0.268399 0.667996 0.257452
O O1 0.500000 0.231248 0.500000
O O2 0.594757 0.255520 0.528152
O O3 0.857134 0.166458 0.312628
O O4 0.552315 0.000000 0.517427
O O5 0.235818 0.500000 0.554416
O O6 0.286770 0.304208 0.461243
O O7 0.026398 0.265754 0.681459
O O8 0.288824 0.764954 0.376710
O O9 0.328500 0.748307 0.266347
O O10 0.000000 0.831783 0.500000
O O11 0.310865 0.000000 0.315841
O O12 0.784539 0.500000 0.557427
O O13 0.043929 0.697979 0.381512
O O14 0.603082 0.271020 0.859740
O O15 0.507830 0.000000 0.929784
O O16 0.500000 0.188032 0.000000
O O17 0.240151 0.209120 0.094917
O O18 0.061565 0.000000 0.243863
O O19 0.312021 0.500000 0.237025
#
# Coordination Sequence:
#
# PCOD8059344 Si02
#       7
#     4   4   4   4   4   4   4
#     4   8  15  28  43  58  80 109 137 166 206 250
#     4   9  16  25  40  61  83 105 133 166 203 244
#     4   9  17  28  42  58  75 101 139 178 210 242
#     4   9  17  28  40  57  82 109 135 169 211 249
#     4  10  19  29  41  57  80 110 144 177 203 233
#     4   8  16  28  39  55  80 109 138 168 203 237
#     4  10  19  29  41  56  79 110 142 173 208 245
#
# _framework density 14.513026999999999
#
# number of rings (size 3 to 8) (size 9 to 14) (size 15 to 20)
#    0.857    2.143    0.000    1.714    0.000    4.571 
#    0.000    0.000    0.000    0.000    0.000    0.000 
#    0.000    1.143    0.000   13.143    0.000    3.286 
#
# Total GULP energy -346919.145583 kJ/mol
# GULP energy per Si atom -12389.969485 kJ/mol
# Density = 1.448000 g / cm^3
# Si number density = 14.513027 Si / 1000 Ang^3
#
#
#
# Elastic Constant Matrix: (Units=GPa)
#
#
# Indices 1 2 3 4 5 6 
#
# 1 97.7698 50.6657 27.7513 0.0000 10.2525 0.0000
# 2 50.6657 89.0549 27.3306 0.0000 16.4215 0.0000
# 3 27.7513 27.3306 38.0127 0.0000 9.0266 0.0000
# 4 0.0000 0.0000 0.0000 21.2820 0.0000 7.2304
# 5 10.2525 16.4215 9.0266 0.0000 21.0909 0.0000
# 6 0.0000 0.0000 0.0000 7.2304 0.0000 23.8962
#
#
#
# Elastic Compliance Matrix: (Units=1/GPa)
#
#
# Indices 1 2 3 4 5 6 
#
# 1 0.015652 -0.007020 -0.006535 0.000000 0.000654 0.000000
# 2 -0.007020 0.018725 -0.006330 0.000000 -0.008458 0.000000
# 3 -0.006535 -0.006330 0.037517 0.000000 -0.007952 0.000000
# 4 0.000000 0.000000 0.000000 0.052372 0.000000 -0.015846
# 5 0.000654 -0.008458 -0.007952 0.000000 0.057085 0.000000
# 6 0.000000 0.000000 0.000000 -0.015846 0.000000 0.046642
#
#
# Mechanical properties :
#
#
# Convention : Reuss Voigt Hill
#
# Bulk Modulus (GPa) = 31.12828 48.48140 39.80484
# Shear Modulus (GPa) = 17.95519 21.19313 19.57416
#
# Velocity S-wave (km/s) = 3.52117 3.82551 3.67649
# Velocity P-wave (km/s) = 6.16657 7.27947 6.74601
#
# Compressibility (1/GPa) = 0.03212513
#
# Stress axis : x y z
#
# Youngs Moduli (GPa) = 63.88832 53.40438 26.65456
#
# Poissons Ratio (x) = 0.37490 0.17419
# Poissons Ratio (y) = 0.44850 0.16871
# Poissons Ratio (z) = 0.41751 0.33803
#
# Static dielectric constant tensor:
#      x y z
#    x 2.770570 0.000000 0.060690 
#    y 0.000000 2.900160 0.000000 
#    z 0.060690 0.000000 2.540850 
# 
# 
# High freq. dielectric constant tensor:
#      x y z
#    x 1.540490 0.000000 0.014350 
#    y 0.000000 1.565410 0.000000 
#    z 0.014350 0.000000 1.509510 
# 
# From -- ./inp_files/87148.got.cif
#   From: 2010.06.25/outbox.cif.g09.slc.cpg/sg10_44_cif.got.tgz:87148.got - 2010.06.27 22:07:45.
