data_PCOD8059586
_publ_section_title
;
Structure prediction by ZEFSAII (Michael W. Deem and Ramdas Pophale) SiO2 
 PCOD8059586
Probable space group: P 2/M
;
_chemical_formula_sum "Si O2"
_cell_formula_units_Z 32
_cell_length_a 11.471867
_cell_length_b 9.817334
_cell_length_c 20.041302
_cell_angle_alpha 90.000000
_cell_angle_beta 120.829537
_cell_angle_gamma 90.000000
_cell_volume 1938.174828
_symmetry_space_group_name_H-M "P 2/M"
_symmetry_group_IT_number 10
_symmetry_cell_setting 'monoclinic'
loop_
_space_group_symop_operation_xyz
x,y,z
-x,y,-z
-x,-y,-z
x,-y,z
loop_
_atom_site_type_symbol
_atom_site_label
_atom_site_fract_x
_atom_site_fract_y
_atom_site_fract_z
Si Si1 0.416086 0.339753 0.772356
Si Si2 0.412487 0.838508 0.535076
Si Si3 0.875484 0.156917 0.597507
Si Si4 0.906479 0.651891 0.174134
Si Si5 0.141263 0.845417 0.251552
Si Si6 0.391541 0.337956 0.916040
Si Si7 0.439651 0.840733 0.289114
Si Si8 0.888699 0.650251 0.327350
O O1 0.449962 0.500000 0.775549
O O2 0.428280 0.289309 0.852375
O O3 0.523096 0.249783 0.763455
O O4 0.265300 0.308614 0.699684
O O5 0.500000 0.774577 0.500000
O O6 0.255542 0.793915 0.482632
O O7 0.471447 0.787096 0.622487
O O8 0.425214 0.000000 0.534465
O O9 0.841661 0.182418 0.664962
O O10 0.005081 0.242864 0.610390
O O11 0.909997 0.000000 0.593768
O O12 0.934226 0.500000 0.154109
O O13 0.760141 0.709035 0.106653
O O14 0.902044 0.647779 0.252175
O O15 0.026313 0.750532 0.184579
O O16 0.282460 0.813510 0.257542
O O17 0.095571 0.000000 0.225780
O O18 0.392942 0.500000 0.917168
O O19 0.500000 0.276168 0.000000
O O20 0.467446 0.000000 0.282965
O O21 0.922007 0.500000 0.365594
#
# Coordination Sequence:
#
# PCOD8059586 Si02
#       8
#     4   4   4   4   4   4   4   4
#     4   9  18  32  48  67  92 120 148 180 222 271
#     4   9  15  27  45  64  87 115 152 195 231 260
#     4   9  15  25  45  67  83 107 150 197 230 257
#     4   8  14  25  44  69  91 111 141 182 222 260
#     4   9  16  26  42  65  90 117 149 184 223 263
#     4   8  14  28  52  76  93 113 145 184 223 262
#     4  10  19  30  46  66  90 122 154 186 225 267
#     4   8  15  28  43  60  87 118 143 176 226 273
#
# _framework density 16.510376999999998
#
# number of rings (size 3 to 8) (size 9 to 14) (size 15 to 20)
#    0.000    3.250    1.250    1.500    0.000    1.000 
#    0.000    3.125    0.000    6.750    0.000    5.250 
#    0.000    0.000    0.000    0.000    0.000    0.000 
#
# Total GULP energy -396639.611272 kJ/mol
# GULP energy per Si atom -12394.987852 kJ/mol
# Density = 1.647280 g / cm^3
# Si number density = 16.510377 Si / 1000 Ang^3
#
#
#
# Elastic Constant Matrix: (Units=GPa)
#
#
# Indices 1 2 3 4 5 6 
#
# 1 98.5508 55.3423 49.9490 0.0000 15.4419 0.0000
# 2 55.3423 63.5711 37.1106 0.0000 11.9168 0.0000
# 3 49.9490 37.1106 86.6005 0.0000 20.7758 0.0000
# 4 0.0000 0.0000 0.0000 15.4211 0.0000 2.3546
# 5 15.4419 11.9168 20.7758 0.0000 24.7417 0.0000
# 6 0.0000 0.0000 0.0000 2.3546 0.0000 29.7409
#
#
#
# Elastic Compliance Matrix: (Units=1/GPa)
#
#
# Indices 1 2 3 4 5 6 
#
# 1 0.021982 -0.015557 -0.005658 0.000000 -0.001475 0.000000
# 2 -0.015557 0.032193 -0.004298 0.000000 -0.002187 0.000000
# 3 -0.005658 -0.004298 0.019171 0.000000 -0.010496 0.000000
# 4 0.000000 0.000000 0.000000 0.065640 0.000000 -0.005197
# 5 -0.001475 -0.002187 -0.010496 0.000000 0.051205 0.000000
# 6 0.000000 0.000000 0.000000 -0.005197 0.000000 0.034035
#
#
# Mechanical properties :
#
#
# Convention : Reuss Voigt Hill
#
# Bulk Modulus (GPa) = 44.80433 59.28069 52.04251
# Shear Modulus (GPa) = 17.68709 21.06880 19.37795
#
# Velocity S-wave (km/s) = 3.27658 3.57612 3.42962
# Velocity P-wave (km/s) = 6.44287 7.28248 6.87551
#
# Compressibility (1/GPa) = 0.02231927
#
# Stress axis : x y z
#
# Youngs Moduli (GPa) = 45.49093 31.06286 52.16339
#
# Poissons Ratio (x) = 0.48325 0.29515
# Poissons Ratio (y) = 0.70772 0.22418
# Poissons Ratio (z) = 0.25740 0.13350
#
# Static dielectric constant tensor:
#      x y z
#    x 3.098890 0.000000 0.305310 
#    y 0.000000 2.986130 0.000000 
#    z 0.305310 0.000000 3.114500 
# 
# 
# High freq. dielectric constant tensor:
#      x y z
#    x 1.631590 0.000000 0.021970 
#    y 0.000000 1.610500 0.000000 
#    z 0.021970 0.000000 1.609600 
# 
# From -- ./inp_files/32173.got.cif
#   From: 2010.06.25/outbox.cif.g09.slc.cpg/sg10_17_cif.got.tgz:32173.got - 2010.06.27 22:07:45.
