data_PCOD8059721
_publ_section_title
;
Structure prediction by ZEFSAII (Michael W. Deem and Ramdas Pophale) SiO2 
 PCOD8059721
Probable space group: P 2/M
;
_chemical_formula_sum "Si O2"
_cell_formula_units_Z 30
_cell_length_a 25.258513
_cell_length_b 12.061124
_cell_length_c 26.095881
_cell_angle_alpha 90.000000
_cell_angle_beta 168.796898
_cell_angle_gamma 90.000000
_cell_volume 1544.586717
_symmetry_space_group_name_H-M "P 2/M"
_symmetry_group_IT_number 10
_symmetry_cell_setting 'monoclinic'
loop_
_space_group_symop_operation_xyz
x,y,z
-x,y,-z
-x,-y,-z
x,-y,z
loop_
_atom_site_type_symbol
_atom_site_label
_atom_site_fract_x
_atom_site_fract_y
_atom_site_fract_z
Si Si1 0.461308 0.726539 0.315994
Si Si2 0.768274 0.740021 0.176996
Si Si3 0.209946 0.869820 0.652927
Si Si4 0.112462 0.228522 0.823968
Si Si5 0.976826 0.374292 0.171814
Si Si6 0.297121 0.627312 0.261236
Si Si7 0.793436 0.500000 0.255659
Si Si8 0.552578 0.874509 0.312321
O O1 0.358377 0.722951 0.276878
O O2 0.510794 0.842841 0.333171
O O3 0.734377 0.657844 0.575524
O O4 0.240731 0.668231 0.073328
O O5 0.742463 0.740016 0.091279
O O6 0.816716 0.614447 0.244474
O O7 0.038045 0.813908 0.444010
O O8 0.487392 0.800779 0.929558
O O9 0.000000 0.859613 0.500000
O O10 0.281276 0.000000 0.709422
O O11 0.086257 0.341651 0.830075
O O12 0.806497 0.185204 0.526395
O O13 0.290381 0.144335 0.027363
O O14 0.941712 0.500000 0.138031
O O15 0.500000 0.647493 0.500000
O O16 0.322030 0.500000 0.263649
O O17 0.000000 0.651086 0.000000
O O18 0.000000 0.500000 0.500000
O O19 0.500000 0.500000 0.000000
O O20 0.631409 0.000000 0.387943
#
# Coordination Sequence:
#
# PCOD8059721 Si02
#       8
#     4   4   4   4   4   4   2   4
#     4  10  20  34  52  80 105 148 194 221 280 336
#     4  12  24  41  64  91 122 155 195 244 296 355
#     4  11  24  42  64  89 116 150 194 246 297 347
#     4  10  23  36  56  88 111 143 183 227 287 332
#     4  10  19  33  54  75 110 143 177 225 267 339
#     4  10  19  30  48  75 109 144 182 235 287 333
#     4  12  26  44  66  88 120 168 204 238 282 358
#     4  10  21  39  59  81 114 150 189 235 282 346
#
# _framework density 19.422671000000001
#
# number of rings (size 3 to 8) (size 9 to 14) (size 15 to 20)
#    0.000    1.467    0.000    6.000    0.933    5.333 
#    0.000    0.000    0.000    0.800    0.000    0.000 
#    0.000    0.000    0.000    0.000    0.000    0.000 
#
# Total GULP energy -371652.161059 kJ/mol
# GULP energy per Si atom -12388.405369 kJ/mol
# Density = 1.937846 g / cm^3
# Si number density = 19.422671 Si / 1000 Ang^3
#
#
#
# Elastic Constant Matrix: (Units=GPa)
#
#
# Indices 1 2 3 4 5 6 
#
# 1 131.4617 49.6732 28.2299 0.0000 -1.7799 0.0000
# 2 49.6732 162.9035 39.3085 0.0000 10.3340 0.0000
# 3 28.2299 39.3085 130.7659 0.0000 -2.2736 0.0000
# 4 0.0000 0.0000 0.0000 43.8014 0.0000 0.4183
# 5 -1.7799 10.3340 -2.2736 0.0000 33.5704 0.0000
# 6 0.0000 0.0000 0.0000 0.4183 0.0000 11.0912
#
#
#
# Elastic Compliance Matrix: (Units=1/GPa)
#
#
# Indices 1 2 3 4 5 6 
#
# 1 0.008805 -0.002484 -0.001134 0.000000 0.001155 0.000000
# 2 -0.002484 0.007482 -0.001757 0.000000 -0.002554 0.000000
# 3 -0.001134 -0.001757 0.008439 0.000000 0.001052 0.000000
# 4 0.000000 0.000000 0.000000 0.022839 0.000000 -0.000861
# 5 0.001155 -0.002554 0.001052 0.000000 0.030707 0.000000
# 6 0.000000 0.000000 0.000000 -0.000861 0.000000 0.090194
#
#
# Mechanical properties :
#
#
# Convention : Reuss Voigt Hill
#
# Bulk Modulus (GPa) = 71.55944 73.28380 72.42162
# Shear Modulus (GPa) = 27.19252 38.22057 32.70654
#
# Velocity S-wave (km/s) = 3.74577 4.44084 4.10803
# Velocity P-wave (km/s) = 7.45862 8.00673 7.73753
#
# Compressibility (1/GPa) = 0.01397440
#
# Stress axis : x y z
#
# Youngs Moduli (GPa) = 113.57648 133.65072 118.50366
#
# Poissons Ratio (x) = 0.33204 0.13437
# Poissons Ratio (y) = 0.28217 0.20824
# Poissons Ratio (z) = 0.12878 0.23485
#
# Static dielectric constant tensor:
#      x y z
#    x 3.554470 0.000000 -0.017960 
#    y 0.000000 3.516120 0.000000 
#    z -0.017960 0.000000 3.830010 
# 
# 
# High freq. dielectric constant tensor:
#      x y z
#    x 1.756230 0.000000 -0.000740 
#    y 0.000000 1.740380 0.000000 
#    z -0.000740 0.000000 1.784430 
# 
# From -- ./inp_files/94104.got.cif
#   From: 2010.06.25/outbox.cif.g09.slc.cpg/sg10_48_cif.got.tgz:94104.got - 2010.06.27 22:07:45.
