data_PCOD8059507
_publ_section_title
;
Structure prediction by ZEFSAII (Michael W. Deem and Ramdas Pophale) SiO2 
 PCOD8059507
Probable space group: P 2/M
;
_chemical_formula_sum "Si O2"
_cell_formula_units_Z 28
_cell_length_a 15.158289
_cell_length_b 9.006908
_cell_length_c 13.906522
_cell_angle_alpha 90.000000
_cell_angle_beta 94.913662
_cell_angle_gamma 90.000000
_cell_volume 1891.670195
_symmetry_space_group_name_H-M "P 2/M"
_symmetry_group_IT_number 10
_symmetry_cell_setting 'monoclinic'
loop_
_space_group_symop_operation_xyz
x,y,z
-x,y,-z
-x,-y,-z
x,-y,z
loop_
_atom_site_type_symbol
_atom_site_label
_atom_site_fract_x
_atom_site_fract_y
_atom_site_fract_z
Si Si1 0.339351 0.172990 0.854851
Si Si2 0.471607 0.173112 0.218897
Si Si3 0.738665 0.167626 0.518959
Si Si4 0.429052 0.675490 0.413647
Si Si5 0.596544 0.667797 0.963177
Si Si6 0.790067 0.832594 0.319734
Si Si7 0.900355 0.674794 0.469828
O O1 0.429582 0.205578 0.807123
O O2 0.258375 0.227906 0.780095
O O3 0.331323 0.000000 0.878212
O O4 0.334471 0.262490 0.954224
O O5 0.460011 0.257856 0.316677
O O6 0.402020 0.237265 0.134558
O O7 0.452353 0.000000 0.231175
O O8 0.666466 0.261527 0.568356
O O9 0.718944 0.166797 0.401842
O O10 0.835606 0.244734 0.541344
O O11 0.740702 0.000000 0.560278
O O12 0.500000 0.724280 0.500000
O O13 0.422036 0.500000 0.403886
O O14 0.625470 0.500000 0.942720
O O15 0.500000 0.674478 0.000000
O O16 0.872780 0.727991 0.358753
O O17 0.824983 0.000000 0.305895
O O18 0.888364 0.500000 0.477696
O O19 0.000000 0.725423 0.500000
#
# Coordination Sequence:
#
# PCOD8059507 Si02
#       7
#     4   4   4   4   4   4   4
#     4   9  16  28  43  61  83 111 146 183 222 261
#     4  10  19  30  44  59  81 115 152 186 218 257
#     4   9  18  31  45  62  85 116 151 182 215 257
#     4  11  22  32  43  62  88 118 151 187 222 258
#     4   9  17  28  41  59  81 108 143 184 225 262
#     4   8  16  27  42  63  86 112 143 177 215 260
#     4   9  17  29  45  65  90 117 144 179 225 270
#
# _framework density 14.801734
#
# number of rings (size 3 to 8) (size 9 to 14) (size 15 to 20)
#    0.857    1.857    0.000    2.571    0.000    6.286 
#    0.000    0.000    0.000    0.000    0.000    0.000 
#    0.000    1.143    0.000   12.000    0.000    6.571 
#
# Total GULP energy -346986.878855 kJ/mol
# GULP energy per Si atom -12392.388531 kJ/mol
# Density = 1.476805 g / cm^3
# Si number density = 14.801734 Si / 1000 Ang^3
#
#
#
# Elastic Constant Matrix: (Units=GPa)
#
#
# Indices 1 2 3 4 5 6 
#
# 1 67.2647 41.5405 31.3779 0.0000 14.5761 0.0000
# 2 41.5405 81.4204 44.0671 0.0000 8.1045 0.0000
# 3 31.3779 44.0671 85.3078 0.0000 17.7968 0.0000
# 4 0.0000 0.0000 0.0000 25.1518 0.0000 -0.9234
# 5 14.5761 8.1045 17.7968 0.0000 19.9186 0.0000
# 6 0.0000 0.0000 0.0000 -0.9234 0.0000 18.5624
#
#
#
# Elastic Compliance Matrix: (Units=1/GPa)
#
#
# Indices 1 2 3 4 5 6 
#
# 1 0.024802 -0.010953 -0.000747 0.000000 -0.013025 0.000000
# 2 -0.010953 0.021907 -0.008727 0.000000 0.006899 0.000000
# 3 -0.000747 -0.008727 0.019236 0.000000 -0.013089 0.000000
# 4 0.000000 0.000000 0.000000 0.039831 0.000000 0.001981
# 5 -0.013025 0.006899 -0.013089 0.000000 0.068624 0.000000
# 6 0.000000 0.000000 0.000000 0.001981 0.000000 0.053971
#
#
# Mechanical properties :
#
#
# Convention : Reuss Voigt Hill
#
# Bulk Modulus (GPa) = 39.85629 51.99599 45.92614
# Shear Modulus (GPa) = 18.01234 20.52704 19.26969
#
# Velocity S-wave (km/s) = 3.49220 3.72802 3.61204
# Velocity P-wave (km/s) = 6.57616 7.33044 6.96352
#
# Compressibility (1/GPa) = 0.02509014
#
# Stress axis : x y z
#
# Youngs Moduli (GPa) = 40.31936 45.64854 51.98668
#
# Poissons Ratio (x) = 0.49998 0.03886
# Poissons Ratio (y) = 0.44161 0.45367
# Poissons Ratio (z) = 0.03014 0.39836
#
# Static dielectric constant tensor:
#      x y z
#    x 2.532730 0.000000 0.156870 
#    y 0.000000 2.951060 0.000000 
#    z 0.156870 0.000000 2.871720 
# 
# 
# High freq. dielectric constant tensor:
#      x y z
#    x 1.521150 0.000000 0.015640 
#    y 0.000000 1.581770 0.000000 
#    z 0.015640 0.000000 1.555510 
# 
# From -- ./inp_files/65779.got.cif
#   From: 2010.06.25/outbox.cif.g09.slc.cpg/sg10_33_cif.got.tgz:65779.got - 2010.06.27 22:07:45.
