data_PCOD8059588
_publ_section_title
;
Structure prediction by ZEFSAII (Michael W. Deem and Ramdas Pophale) SiO2 
 PCOD8059588
Probable space group: P 2/M
;
_chemical_formula_sum "Si O2"
_cell_formula_units_Z 28
_cell_length_a 15.098700
_cell_length_b 9.241435
_cell_length_c 19.038918
_cell_angle_alpha 90.000000
_cell_angle_beta 37.327140
_cell_angle_gamma 90.000000
_cell_volume 1610.851308
_symmetry_space_group_name_H-M "P 2/M"
_symmetry_group_IT_number 10
_symmetry_cell_setting 'monoclinic'
loop_
_space_group_symop_operation_xyz
x,y,z
-x,y,-z
-x,-y,-z
x,-y,z
loop_
_atom_site_type_symbol
_atom_site_label
_atom_site_fract_x
_atom_site_fract_y
_atom_site_fract_z
Si Si1 0.053468 0.667791 0.082967
Si Si2 0.499594 0.169855 0.669964
Si Si3 0.780612 0.170394 0.244868
Si Si4 0.914766 0.831244 0.791895
Si Si5 0.376694 0.664713 0.870833
Si Si6 0.638757 0.330386 0.957959
Si Si7 0.765295 0.832375 0.413695
O O1 0.017673 0.500000 0.120767
O O2 0.069104 0.757574 0.143653
O O3 0.919903 0.741946 0.124419
O O4 0.210681 0.681222 0.945720
O O5 0.361131 0.210419 0.709946
O O6 0.485073 0.240186 0.755712
O O7 0.643174 0.237289 0.541554
O O8 0.513755 0.000000 0.672831
O O9 0.754832 0.228158 0.340758
O O10 0.816275 0.000000 0.220438
O O11 0.780097 0.753625 0.836946
O O12 0.072770 0.808785 0.654628
O O13 0.879285 0.000000 0.823214
O O14 0.429249 0.500000 0.832282
O O15 0.388162 0.716362 0.944479
O O16 0.671830 0.500000 0.931606
O O17 0.500000 0.283758 0.000000
O O18 0.726119 0.000000 0.432362
#
# Coordination Sequence:
#
# PCOD8059588 Si02
#       7
#     4   4   4   4   4   4   4
#     4   9  17  30  46  63  90 126 158 191 234 278
#     4  10  19  30  46  66  91 126 161 192 230 274
#     4   9  17  29  46  67  89 118 162 207 234 259
#     4   9  16  28  49  74  96 117 148 191 231 268
#     4   9  19  33  46  65  93 121 149 185 231 278
#     4   9  18  34  55  75  95 119 146 180 227 282
#     4   8  15  29  47  66  91 124 159 193 228 264
#
# _framework density 17.382114999999999
#
# number of rings (size 3 to 8) (size 9 to 14) (size 15 to 20)
#    0.000    3.000    0.000    3.000    0.000    6.000 
#    0.000    6.429    0.000    5.143    0.000    6.000 
#    0.000    0.000    0.000    0.000    0.000    0.000 
#
# Total GULP energy -346962.033789 kJ/mol
# GULP energy per Si atom -12391.501207 kJ/mol
# Density = 1.734255 g / cm^3
# Si number density = 17.382115 Si / 1000 Ang^3
#
#
#
# Elastic Constant Matrix: (Units=GPa)
#
#
# Indices 1 2 3 4 5 6 
#
# 1 83.8873 34.9946 41.7324 0.0000 -16.2372 0.0000
# 2 34.9946 53.9314 33.8547 0.0000 -11.2880 0.0000
# 3 41.7324 33.8547 85.0417 0.0000 -5.3038 0.0000
# 4 0.0000 0.0000 0.0000 12.2829 0.0000 5.5851
# 5 -16.2372 -11.2880 -5.3038 0.0000 19.4981 0.0000
# 6 0.0000 0.0000 0.0000 5.5851 0.0000 18.3092
#
#
#
# Elastic Compliance Matrix: (Units=1/GPa)
#
#
# Indices 1 2 3 4 5 6 
#
# 1 0.020075 -0.006599 -0.006531 0.000000 0.011121 0.000000
# 2 -0.006599 0.029900 -0.008065 0.000000 0.009621 0.000000
# 3 -0.006531 -0.008065 0.017847 0.000000 -0.005253 0.000000
# 4 0.000000 0.000000 0.000000 0.094525 0.000000 -0.028834
# 5 0.011121 0.009621 -0.005253 0.000000 0.064689 0.000000
# 6 0.000000 0.000000 0.000000 -0.028834 0.000000 0.063413
#
#
# Mechanical properties :
#
#
# Convention : Reuss Voigt Hill
#
# Bulk Modulus (GPa) = 39.31909 49.33595 44.32752
# Shear Modulus (GPa) = 14.64917 17.50330 16.07623
#
# Velocity S-wave (km/s) = 2.90620 3.17672 3.04447
# Velocity P-wave (km/s) = 5.82502 6.47304 6.15756
#
# Compressibility (1/GPa) = 0.02543294
#
# Stress axis : x y z
#
# Youngs Moduli (GPa) = 49.81298 33.44453 56.03252
#
# Poissons Ratio (x) = 0.22070 0.36594
# Poissons Ratio (y) = 0.32871 0.45189
# Poissons Ratio (z) = 0.32532 0.26973
#
# Static dielectric constant tensor:
#      x y z
#    x 3.267620 0.000000 -0.436890 
#    y 0.000000 3.201950 0.000000 
#    z -0.436890 0.000000 3.525260 
# 
# 
# High freq. dielectric constant tensor:
#      x y z
#    x 1.646000 0.000000 -0.023040 
#    y 0.000000 1.659930 0.000000 
#    z -0.023040 0.000000 1.664420 
# 
# From -- ./inp_files/54655.got.cif
#   From: 2010.06.25/outbox.cif.g09.slc.cpg/sg10_28_cif.got.tgz:54655.got - 2010.06.27 22:07:45.
