data_PCOD8059324
_publ_section_title
;
Structure prediction by ZEFSAII (Michael W. Deem and Ramdas Pophale) SiO2 
 PCOD8059324
Probable space group: P 2/M
;
_chemical_formula_sum "Si O2"
_cell_formula_units_Z 28
_cell_length_a 22.002078
_cell_length_b 11.610621
_cell_length_c 19.166807
_cell_angle_alpha 90.000000
_cell_angle_beta 19.606011
_cell_angle_gamma 90.000000
_cell_volume 1642.958829
_symmetry_space_group_name_H-M "P 2/M"
_symmetry_group_IT_number 10
_symmetry_cell_setting 'monoclinic'
loop_
_space_group_symop_operation_xyz
x,y,z
-x,y,-z
-x,-y,-z
x,-y,z
loop_
_atom_site_type_symbol
_atom_site_label
_atom_site_fract_x
_atom_site_fract_y
_atom_site_fract_z
Si Si1 0.314779 0.500000 0.777717
Si Si2 0.264829 0.636467 0.315134
Si Si3 0.659850 0.636600 0.917859
Si Si4 0.717137 0.500000 0.351969
Si Si5 0.118161 0.744195 0.803933
Si Si6 0.513280 0.136138 0.565347
Si Si7 0.904883 0.362323 0.779230
Si Si8 0.824935 0.732254 0.013853
O O1 0.511350 0.500000 0.603566
O O2 0.316097 0.500000 0.693746
O O3 0.206239 0.610597 0.917267
O O4 0.262923 0.500000 0.313448
O O5 0.248308 0.683035 0.253240
O O6 0.101495 0.677881 0.540121
O O7 0.452415 0.680088 0.146391
O O8 0.667508 0.500000 0.908325
O O9 0.764299 0.680411 0.872720
O O10 0.827674 0.610087 0.258526
O O11 0.297746 0.821122 0.607809
O O12 0.002291 0.781853 0.861386
O O13 0.000000 0.771506 0.000000
O O14 0.500000 0.181266 0.500000
O O15 0.504266 0.000000 0.578828
O O16 0.347451 0.185389 0.789698
O O17 0.892967 0.500000 0.807143
O O18 0.862284 0.285609 0.892226
#
# Coordination Sequence:
#
# PCOD8059324 Si02
#       8
#     2   4   4   2   4   4   4   4
#     4  11  19  34  53  73 103 138 169 204 258 313
#     4   8  14  26  42  64  92 134 181 207 231 281
#     4   8  14  26  44  62  93 137 177 208 233 276
#     4  11  20  33  56  73 103 135 171 212 249 310
#     4  12  22  35  56  78 100 132 171 215 263 311
#     4  11  24  42  60  76  94 126 178 232 274 313
#     4  10  19  28  43  70 105 138 169 202 246 300
#     4  12  23  36  51  78 108 137 169 215 266 313
#
# _framework density 17.042424
#
# number of rings (size 3 to 8) (size 9 to 14) (size 15 to 20)
#    0.000    1.714    5.000    1.929    0.000    3.714 
#    0.000    0.000    0.000    0.000    0.000    0.000 
#    0.000    2.286    0.000    8.571    0.000    0.286 
#
# Total GULP energy -347118.080783 kJ/mol
# GULP energy per Si atom -12397.074314 kJ/mol
# Density = 1.700363 g / cm^3
# Si number density = 17.042424 Si / 1000 Ang^3
#
#
#
# Elastic Constant Matrix: (Units=GPa)
#
#
# Indices 1 2 3 4 5 6 
#
# 1 95.2884 20.2693 81.8041 0.0000 4.9478 0.0000
# 2 20.2693 42.5795 29.0583 0.0000 0.8980 0.0000
# 3 81.8041 29.0583 135.7883 0.0000 -6.2318 0.0000
# 4 0.0000 0.0000 0.0000 5.0149 0.0000 2.5248
# 5 4.9478 0.8980 -6.2318 0.0000 28.3448 0.0000
# 6 0.0000 0.0000 0.0000 2.5248 0.0000 11.9159
#
#
#
# Elastic Compliance Matrix: (Units=1/GPa)
#
#
# Indices 1 2 3 4 5 6 
#
# 1 0.023154 -0.001325 -0.013990 0.000000 -0.007075 0.000000
# 2 -0.001325 0.027713 -0.005214 0.000000 -0.001793 0.000000
# 3 -0.013990 -0.005214 0.017202 0.000000 0.006389 0.000000
# 4 0.000000 0.000000 0.000000 0.223218 0.000000 -0.047297
# 5 -0.007075 -0.001793 0.006389 0.000000 0.037976 0.000000
# 6 0.000000 0.000000 0.000000 -0.047297 0.000000 0.093943
#
#
# Mechanical properties :
#
#
# Convention : Reuss Voigt Hill
#
# Bulk Modulus (GPa) = 37.02471 59.54664 48.28567
# Shear Modulus (GPa) = 10.56485 18.55675 14.56080
#
# Velocity S-wave (km/s) = 2.49251 3.30336 2.92616
# Velocity P-wave (km/s) = 5.48230 7.04029 6.30957
#
# Compressibility (1/GPa) = 0.02700899
#
# Stress axis : x y z
#
# Youngs Moduli (GPa) = 43.18908 36.08455 58.13434
#
# Poissons Ratio (x) = 0.04783 0.81330
# Poissons Ratio (y) = 0.05725 0.30313
# Poissons Ratio (z) = 0.60421 0.18815
#
# Static dielectric constant tensor:
#      x y z
#    x 3.332730 0.000000 -0.173020 
#    y 0.000000 2.706590 0.000000 
#    z -0.173020 0.000000 3.573880 
# 
# 
# High freq. dielectric constant tensor:
#      x y z
#    x 1.656430 0.000000 -0.015860 
#    y 0.000000 1.595600 0.000000 
#    z -0.015860 0.000000 1.674060 
# 
# From -- ./inp_files/79553.got.cif
#   From: 2010.06.25/outbox.cif.g09.slc.cpg/sg10_40_cif.got.tgz:79553.got - 2010.06.27 22:07:45.
