data_PCOD8059336
_publ_section_title
;
Structure prediction by ZEFSAII (Michael W. Deem and Ramdas Pophale) SiO2 
 PCOD8059336
Probable space group: P 2/M
;
_chemical_formula_sum "Si O2"
_cell_formula_units_Z 32
_cell_length_a 24.545662
_cell_length_b 14.026982
_cell_length_c 23.471715
_cell_angle_alpha 90.000000
_cell_angle_beta 17.010025
_cell_angle_gamma 90.000000
_cell_volume 2364.109678
_symmetry_space_group_name_H-M "P 2/M"
_symmetry_group_IT_number 10
_symmetry_cell_setting 'monoclinic'
loop_
_space_group_symop_operation_xyz
x,y,z
-x,y,-z
-x,-y,-z
x,-y,z
loop_
_atom_site_type_symbol
_atom_site_label
_atom_site_fract_x
_atom_site_fract_y
_atom_site_fract_z
Si Si1 0.712511 0.260881 0.720103
Si Si2 0.292929 0.613493 0.553065
Si Si3 0.292888 0.386506 0.861118
Si Si4 0.999993 0.894799 0.567145
Si Si5 0.712499 0.739125 0.854893
Si Si6 0.000032 0.386839 0.755936
Si Si7 0.000001 0.613139 0.627470
Si Si8 0.999986 0.386590 0.063497
O O1 0.726057 0.276146 0.773946
O O2 0.813621 0.350301 0.589819
O O3 0.815812 0.163278 0.598163
O O4 0.500011 0.255573 0.911648
O O5 0.302198 0.500000 0.543586
O O6 0.500021 0.657972 0.346122
O O7 0.183809 0.649224 0.605805
O O8 0.183905 0.648105 0.718730
O O9 0.302162 0.500000 0.852053
O O10 0.183759 0.350781 0.026628
O O11 0.183870 0.351894 0.913497
O O12 0.815786 0.836732 0.770240
O O13 0.000000 0.906746 0.500000
O O14 0.000012 0.000000 0.595829
O O15 0.813610 0.649711 0.782962
O O16 0.000027 0.500000 0.754564
O O17 0.000022 0.346676 0.692000
O O18 0.999964 0.500000 0.624914
O O19 0.999988 0.500000 0.060059
O O20 0.000000 0.342088 0.000000
#
# Coordination Sequence:
#
# PCOD8059336 Si02
#       8
#     4   4   4   4   4   4   4   4
#     4   9  18  30  41  56  77  95 114 144 179 216
#     4   8  13  21  31  41  55  74  96 129 170 204
#     4   8  13  21  31  41  55  74  96 129 170 204
#     4   8  14  26  44  62  77  93 111 132 165 212
#     4   9  18  30  41  56  77  95 114 144 179 216
#     4   8  15  25  34  45  58  75 107 146 176 204
#     4  10  19  29  40  52  68  94 126 155 183 216
#     4   8  13  19  26  39  57  74  94 119 153 205
#
# _framework density 13.535752
#
# number of rings (size 3 to 8) (size 9 to 14) (size 15 to 20)
#    0.000    3.500    0.000    2.625    0.000    3.500 
#    0.000    8.750    0.000    0.000    0.000    0.000 
#    0.000    0.000    0.000    0.000    0.000    0.000 
#
# Total GULP energy -396553.077527 kJ/mol
# GULP energy per Si atom -12392.283673 kJ/mol
# Density = 1.350494 g / cm^3
# Si number density = 13.535752 Si / 1000 Ang^3
#
#
#
# Elastic Constant Matrix: (Units=GPa)
#
#
# Indices 1 2 3 4 5 6 
#
# 1 72.1326 22.4804 54.1570 0.0000 -0.7794 0.0000
# 2 22.4804 51.0266 30.8894 0.0000 -2.3721 0.0000
# 3 54.1570 30.8894 137.9416 0.0000 -17.7485 0.0000
# 4 0.0000 0.0000 0.0000 6.5679 0.0000 -1.6105
# 5 -0.7794 -2.3721 -17.7485 0.0000 15.1382 0.0000
# 6 0.0000 0.0000 0.0000 -1.6105 0.0000 0.8477
#
#
#
# Elastic Compliance Matrix: (Units=1/GPa)
#
#
# Indices 1 2 3 4 5 6 
#
# 1 0.021834 -0.004764 -0.008782 0.000000 -0.009918 0.000000
# 2 -0.004764 0.023814 -0.003549 0.000000 -0.000675 0.000000
# 3 -0.008782 -0.003549 0.013381 0.000000 0.014680 0.000000
# 4 0.000000 0.000000 0.000000 0.285036 0.000000 0.541499
# 5 -0.009918 -0.000675 0.014680 0.000000 0.082653 0.000000
# 6 0.000000 0.000000 0.000000 0.541499 0.000000 2.208319
#
#
# Mechanical properties :
#
#
# Convention : Reuss Voigt Hill
#
# Bulk Modulus (GPa) = 40.25952 52.90604 46.58278
# Shear Modulus (GPa) = 1.86741 14.74902 8.30822
#
# Velocity S-wave (km/s) = 1.17584 3.30454 2.48018
# Velocity P-wave (km/s) = 5.62594 7.33014 6.53384
#
# Compressibility (1/GPa) = 0.02483884
#
# Stress axis : x y z
#
# Youngs Moduli (GPa) = 45.79977 41.99279 74.73481
#
# Poissons Ratio (x) = 0.20007 0.65628
# Poissons Ratio (y) = 0.21821 0.26523
# Poissons Ratio (z) = 0.40219 0.14903
#
# Static dielectric constant tensor:
#      x y z
#    x 2.815910 0.000000 -0.046940 
#    y 0.000000 2.314560 0.000000 
#    z -0.046940 0.000000 2.982530 
# 
# 
# High freq. dielectric constant tensor:
#      x y z
#    x 1.506680 0.000000 -0.005930 
#    y 0.000000 1.450130 0.000000 
#    z -0.005930 0.000000 1.527750 
# 
# From -- ./inp_files/86342.got.cif
#   From: 2010.06.25/outbox.cif.g09.slc.cpg/sg10_44_cif.got.tgz:86342.got - 2010.06.27 22:07:45.
