data_PCOD8059960
_publ_section_title
;
Structure prediction by ZEFSAII (Michael W. Deem and Ramdas Pophale) SiO2 
 PCOD8059960
Probable space group: P 2/M
;
_chemical_formula_sum "Si O2"
_cell_formula_units_Z 28
_cell_length_a 20.036809
_cell_length_b 9.060737
_cell_length_c 25.456527
_cell_angle_alpha 90.000000
_cell_angle_beta 19.888936
_cell_angle_gamma 90.000000
_cell_volume 1572.254895
_symmetry_space_group_name_H-M "P 2/M"
_symmetry_group_IT_number 10
_symmetry_cell_setting 'monoclinic'
loop_
_space_group_symop_operation_xyz
x,y,z
-x,y,-z
-x,-y,-z
x,-y,z
loop_
_atom_site_type_symbol
_atom_site_label
_atom_site_fract_x
_atom_site_fract_y
_atom_site_fract_z
Si Si1 0.323910 0.666995 0.095804
Si Si2 0.080838 0.173650 0.776715
Si Si3 0.156768 0.826095 0.839762
Si Si4 0.458443 0.332646 0.469363
Si Si5 0.288788 0.170251 0.014217
Si Si6 0.938543 0.331900 0.615946
Si Si7 0.726716 0.172254 0.681538
O O1 0.384679 0.500000 0.036075
O O2 0.273014 0.752677 0.081471
O O3 0.126209 0.673215 0.276066
O O4 0.500000 0.738400 0.000000
O O5 0.077367 0.218253 0.840770
O O6 0.250994 0.250082 0.616056
O O7 0.874186 0.228716 0.905765
O O8 0.112959 0.000000 0.747458
O O9 0.367175 0.746660 0.692402
O O10 0.192709 0.000000 0.818092
O O11 0.000000 0.773172 0.000000
O O12 0.500000 0.326469 0.500000
O O13 0.440998 0.500000 0.461734
O O14 0.253056 0.000000 0.052059
O O15 0.502119 0.198963 0.831257
O O16 0.969335 0.500000 0.574407
O O17 0.140633 0.241095 0.462580
O O18 0.773856 0.256529 0.700930
O O19 0.774004 0.000000 0.653931
#
# Coordination Sequence:
#
# PCOD8059960 Si02
#       7
#     4   4   4   4   4   4   4
#     4  10  20  34  51  72  97 128 167 211 253 299
#     4   9  18  34  52  73 102 134 170 207 250 303
#     4   9  17  31  54  80 104 135 172 208 246 294
#     4   9  17  30  50  76 104 134 168 205 246 292
#     4  10  21  34  51  74 100 132 167 210 259 304
#     4  10  19  32  50  70  93 124 165 207 252 301
#     4  10  19  31  48  71  97 126 162 205 254 301
#
# _framework density 17.808817000000001
#
# number of rings (size 3 to 8) (size 9 to 14) (size 15 to 20)
#    0.000    2.429    1.429    2.143    0.000    4.571 
#    0.000    1.429    0.000    3.429    0.000    0.000 
#    0.000    0.000    0.000    0.000    0.000    0.000 
#
# Total GULP energy -347103.369823 kJ/mol
# GULP energy per Si atom -12396.548922 kJ/mol
# Density = 1.776828 g / cm^3
# Si number density = 17.808817 Si / 1000 Ang^3
#
#
#
# Elastic Constant Matrix: (Units=GPa)
#
#
# Indices 1 2 3 4 5 6 
#
# 1 78.2138 32.0803 59.6077 0.0000 -9.1182 0.0000
# 2 32.0803 73.9297 53.7556 0.0000 -7.1688 0.0000
# 3 59.6077 53.7556 147.5402 0.0000 -8.3473 0.0000
# 4 0.0000 0.0000 0.0000 18.5639 0.0000 11.2280
# 5 -9.1182 -7.1688 -8.3473 0.0000 30.7533 0.0000
# 6 0.0000 0.0000 0.0000 11.2280 0.0000 7.4818
#
#
#
# Elastic Compliance Matrix: (Units=1/GPa)
#
#
# Indices 1 2 3 4 5 6 
#
# 1 0.019480 -0.003470 -0.006424 0.000000 0.003223 0.000000
# 2 -0.003470 0.019212 -0.005487 0.000000 0.001960 0.000000
# 3 -0.006424 -0.005487 0.011367 0.000000 -0.000098 0.000000
# 4 0.000000 0.000000 0.000000 0.583477 0.000000 -0.875629
# 5 0.003223 0.001960 -0.000098 0.000000 0.033903 0.000000
# 6 0.000000 0.000000 0.000000 -0.875629 0.000000 1.447721
#
#
# Mechanical properties :
#
#
# Convention : Reuss Voigt Hill
#
# Bulk Modulus (GPa) = 51.81952 65.61900 58.71926
# Shear Modulus (GPa) = 2.32304 21.64248 11.98276
#
# Velocity S-wave (km/s) = 1.14336 3.48985 2.59676
# Velocity P-wave (km/s) = 5.55912 7.29144 6.48340
#
# Compressibility (1/GPa) = 0.01929775
#
# Stress axis : x y z
#
# Youngs Moduli (GPa) = 51.33520 52.05146 87.97710
#
# Poissons Ratio (x) = 0.18060 0.56512
# Poissons Ratio (y) = 0.17811 0.48273
# Poissons Ratio (z) = 0.32975 0.28561
#
# Static dielectric constant tensor:
#      x y z
#    x 3.047790 0.000000 -0.044070 
#    y 0.000000 3.344770 0.000000 
#    z -0.044070 0.000000 3.551050 
# 
# 
# High freq. dielectric constant tensor:
#      x y z
#    x 1.652180 0.000000 0.001970 
#    y 0.000000 1.691070 0.000000 
#    z 0.001970 0.000000 1.702450 
# 
# From -- ./inp_files/79233.got.cif
#   From: 2010.06.25/outbox.cif.g09.slc.cpg/sg10_40_cif.got.tgz:79233.got - 2010.06.27 22:07:45.
