data_PCOD8059351
_publ_section_title
;
Structure prediction by ZEFSAII (Michael W. Deem and Ramdas Pophale) SiO2 
 PCOD8059351
Probable space group: P 2/M
;
_chemical_formula_sum "Si O2"
_cell_formula_units_Z 32
_cell_length_a 19.226969
_cell_length_b 9.206277
_cell_length_c 28.845619
_cell_angle_alpha 90.000000
_cell_angle_beta 156.179283
_cell_angle_gamma 90.000000
_cell_volume 2062.162485
_symmetry_space_group_name_H-M "P 2/M"
_symmetry_group_IT_number 10
_symmetry_cell_setting 'monoclinic'
loop_
_space_group_symop_operation_xyz
x,y,z
-x,y,-z
-x,-y,-z
x,-y,z
loop_
_atom_site_type_symbol
_atom_site_label
_atom_site_fract_x
_atom_site_fract_y
_atom_site_fract_z
Si Si1 0.379292 0.164082 0.381793
Si Si2 0.889436 0.332069 0.729786
Si Si3 0.087333 0.668006 0.600410
Si Si4 0.277730 0.671841 0.945715
Si Si5 0.232000 0.166119 0.826041
Si Si6 0.928773 0.334791 0.599496
Si Si7 0.404645 0.166801 0.833780
Si Si8 0.650006 0.335107 0.497979
O O1 0.500000 0.177212 0.500000
O O2 0.199562 0.243882 0.282649
O O3 0.480833 0.236390 0.400714
O O4 0.337396 0.000000 0.342612
O O5 0.870324 0.500000 0.730493
O O6 0.799024 0.295411 0.625831
O O7 0.088400 0.285755 0.848412
O O8 0.142747 0.500000 0.630746
O O9 0.257275 0.762225 0.712365
O O10 0.000000 0.722816 0.500000
O O11 0.946657 0.691487 0.555452
O O12 0.306293 0.500000 0.961828
O O13 0.307711 0.735428 0.912851
O O14 0.417267 0.745613 0.065087
O O15 0.357962 0.179380 0.859300
O O16 0.044309 0.221695 0.697681
O O17 0.217811 0.000000 0.834494
O O18 0.986612 0.500000 0.647516
O O19 0.732031 0.310646 0.496767
O O20 0.427617 0.000000 0.832518
O O21 0.589065 0.500000 0.468025
#
# Coordination Sequence:
#
# PCOD8059351 Si02
#       8
#     4   4   4   4   4   4   4   4
#     4   9  17  26  37  56  80 110 146 181 215 249
#     4   9  17  28  40  56  80 114 150 179 213 252
#     4   9  18  33  52  70  88 112 144 184 225 263
#     4  11  20  30  44  62  85 116 152 185 215 253
#     4  10  19  29  41  59  87 117 147 182 218 255
#     4   9  16  28  45  65  87 114 149 182 218 261
#     4  10  21  33  44  63  87 115 147 180 221 263
#     4   9  15  26  41  57  81 113 147 181 213 251
#
# _framework density 15.517690999999999
#
# number of rings (size 3 to 8) (size 9 to 14) (size 15 to 20)
#    0.000    2.500    1.250    1.875    0.000    6.250 
#    0.000    0.000    0.000    0.000    0.000    0.000 
#    0.000    1.000    0.000   11.500    0.000    3.250 
#
# Total GULP energy -396745.264331 kJ/mol
# GULP energy per Si atom -12398.289510 kJ/mol
# Density = 1.548237 g / cm^3
# Si number density = 15.517691 Si / 1000 Ang^3
#
#
#
# Elastic Constant Matrix: (Units=GPa)
#
#
# Indices 1 2 3 4 5 6 
#
# 1 68.3010 42.1044 49.7202 0.0000 10.2265 0.0000
# 2 42.1044 93.4780 53.4853 0.0000 10.6884 0.0000
# 3 49.7202 53.4853 81.5319 0.0000 8.8252 0.0000
# 4 0.0000 0.0000 0.0000 16.6121 0.0000 2.6084
# 5 10.2265 10.6884 8.8252 0.0000 19.6067 0.0000
# 6 0.0000 0.0000 0.0000 2.6084 0.0000 16.2823
#
#
#
# Elastic Compliance Matrix: (Units=1/GPa)
#
#
# Indices 1 2 3 4 5 6 
#
# 1 0.028137 -0.004048 -0.013827 0.000000 -0.006245 0.000000
# 2 -0.004048 0.018094 -0.009001 0.000000 -0.003701 0.000000
# 3 -0.013827 -0.009001 0.026585 0.000000 0.000152 0.000000
# 4 0.000000 0.000000 0.000000 0.061751 0.000000 -0.009893
# 5 -0.006245 -0.003701 0.000152 0.000000 0.056210 0.000000
# 6 0.000000 0.000000 0.000000 -0.009893 0.000000 0.063001
#
#
# Mechanical properties :
#
#
# Convention : Reuss Voigt Hill
#
# Bulk Modulus (GPa) = 52.45240 59.32563 55.88902
# Shear Modulus (GPa) = 15.92944 17.03363 16.48153
#
# Velocity S-wave (km/s) = 3.20743 3.31674 3.26254
# Velocity P-wave (km/s) = 6.89869 7.27885 7.09132
#
# Compressibility (1/GPa) = 0.01906490
#
# Stress axis : x y z
#
# Youngs Moduli (GPa) = 35.54020 55.26676 37.61475
#
# Poissons Ratio (x) = 0.22371 0.52011
# Poissons Ratio (y) = 0.14386 0.33856
# Poissons Ratio (z) = 0.49142 0.49744
#
# Static dielectric constant tensor:
#      x y z
#    x 2.912090 0.000000 0.229400 
#    y 0.000000 3.062080 0.000000 
#    z 0.229400 0.000000 2.713810 
# 
# 
# High freq. dielectric constant tensor:
#      x y z
#    x 1.572820 0.000000 0.031280 
#    y 0.000000 1.605830 0.000000 
#    z 0.031280 0.000000 1.557530 
# 
# From -- ./inp_files/52745.got.cif
#   From: 2010.06.25/outbox.cif.g09.slc.cpg/sg10_27_cif.got.tgz:52745.got - 2010.06.27 22:07:45.
