data_PCOD8059902
_publ_section_title
;
Structure prediction by ZEFSAII (Michael W. Deem and Ramdas Pophale) SiO2 
 PCOD8059902
Probable space group: P 2/M
;
_chemical_formula_sum "Si O2"
_cell_formula_units_Z 32
_cell_length_a 12.504002
_cell_length_b 8.707560
_cell_length_c 23.554884
_cell_angle_alpha 90.000000
_cell_angle_beta 46.443169
_cell_angle_gamma 90.000000
_cell_volume 1858.572444
_symmetry_space_group_name_H-M "P 2/M"
_symmetry_group_IT_number 10
_symmetry_cell_setting 'monoclinic'
loop_
_space_group_symop_operation_xyz
x,y,z
-x,y,-z
-x,-y,-z
x,-y,z
loop_
_atom_site_type_symbol
_atom_site_label
_atom_site_fract_x
_atom_site_fract_y
_atom_site_fract_z
Si Si1 0.881392 0.827321 0.493724
Si Si2 0.752704 0.822925 0.821617
Si Si3 0.612149 0.180787 0.193624
Si Si4 0.668732 0.679385 0.652630
Si Si5 0.100110 0.320676 0.334952
Si Si6 0.447199 0.320790 0.905278
Si Si7 0.059020 0.181654 0.919195
Si Si8 0.197802 0.177871 0.067923
O O1 0.728905 0.758803 0.573382
O O2 0.000000 0.820695 0.500000
O O3 0.942491 0.727411 0.418929
O O4 0.853729 0.000000 0.482712
O O5 0.876778 0.773330 0.731239
O O6 0.610131 0.716936 0.867240
O O7 0.822579 0.796475 0.857857
O O8 0.708179 0.000000 0.828637
O O9 0.497315 0.266549 0.276178
O O10 0.590206 0.222213 0.136178
O O11 0.774383 0.237686 0.153610
O O12 0.590032 0.000000 0.209102
O O13 0.674312 0.500000 0.639810
O O14 0.766896 0.724609 0.671286
O O15 0.098895 0.500000 0.322044
O O16 0.438552 0.500000 0.893303
O O17 0.333952 0.278970 0.996475
O O18 0.952681 0.234794 0.907084
O O19 0.060891 0.000000 0.924263
O O20 0.000000 0.253255 0.000000
O O21 0.230561 0.000000 0.041350
#
# Coordination Sequence:
#
# PCOD8059902 Si02
#       8
#     4   4   4   4   4   4   4   4
#     4   9  17  29  47  71 100 134 171 204 239 295
#     4  11  22  34  52  74 100 134 174 211 246 300
#     4  11  20  32  54  76  99 133 172 210 252 302
#     4  10  19  31  47  72 105 135 165 205 251 298
#     4  10  19  31  48  71 104 138 166 201 249 299
#     4  12  23  34  49  72 103 135 168 209 256 303
#     4   9  17  33  56  76  95 125 168 217 261 298
#     4  10  21  38  55  73  96 130 174 216 255 299
#
# _framework density 17.217516
#
# number of rings (size 3 to 8) (size 9 to 14) (size 15 to 20)
#    0.000    1.750    2.500    3.375    0.000    5.000 
#    0.000    1.875    0.000    0.000    0.000    0.875 
#    0.000    7.000    0.000    0.000    0.000    0.000 
#
# Total GULP energy -396885.496917 kJ/mol
# GULP energy per Si atom -12402.671779 kJ/mol
# Density = 1.717833 g / cm^3
# Si number density = 17.217516 Si / 1000 Ang^3
#
#
#
# Elastic Constant Matrix: (Units=GPa)
#
#
# Indices 1 2 3 4 5 6 
#
# 1 67.4885 14.5131 41.8368 0.0000 7.1979 0.0000
# 2 14.5131 45.5376 25.9057 0.0000 -0.6742 0.0000
# 3 41.8368 25.9057 130.8657 0.0000 -9.8139 0.0000
# 4 0.0000 0.0000 0.0000 25.8873 0.0000 -1.5346
# 5 7.1979 -0.6742 -9.8139 0.0000 13.0227 0.0000
# 6 0.0000 0.0000 0.0000 -1.5346 0.0000 8.6200
#
#
#
# Elastic Compliance Matrix: (Units=1/GPa)
#
#
# Indices 1 2 3 4 5 6 
#
# 1 0.022343 -0.002865 -0.007963 0.000000 -0.018498 0.000000
# 2 -0.002865 0.025194 -0.004086 0.000000 -0.000192 0.000000
# 3 -0.007963 -0.004086 0.011988 0.000000 0.013224 0.000000
# 4 0.000000 0.000000 0.000000 0.039041 0.000000 0.006950
# 5 -0.018498 -0.000192 0.013224 0.000000 0.096969 0.000000
# 6 0.000000 0.000000 0.000000 0.006950 0.000000 0.117247
#
#
# Mechanical properties :
#
#
# Convention : Reuss Voigt Hill
#
# Bulk Modulus (GPa) = 33.67266 45.37810 39.52538
# Shear Modulus (GPa) = 14.18408 20.28173 17.23291
#
# Velocity S-wave (km/s) = 2.87334 3.43588 3.16712
# Velocity P-wave (km/s) = 5.53243 6.49256 6.03163
#
# Compressibility (1/GPa) = 0.02969768
#
# Stress axis : x y z
#
# Youngs Moduli (GPa) = 44.75761 39.69130 83.41940
#
# Poissons Ratio (x) = 0.11370 0.66426
# Poissons Ratio (y) = 0.12821 0.34085
# Poissons Ratio (z) = 0.35640 0.16218
#
# Static dielectric constant tensor:
#      x y z
#    x 3.049170 0.000000 -0.110050 
#    y 0.000000 3.171170 0.000000 
#    z -0.110050 0.000000 3.344300 
# 
# 
# High freq. dielectric constant tensor:
#      x y z
#    x 1.623560 0.000000 -0.008160 
#    y 0.000000 1.666320 0.000000 
#    z -0.008160 0.000000 1.671900 
# 
# From -- ./inp_files/55263.got.cif
#   From: 2010.06.25/outbox.cif.g09.slc.cpg/sg10_28_cif.got.tgz:55263.got - 2010.06.27 22:07:45.
