data_PCOD8059932
_publ_section_title
;
Structure prediction by ZEFSAII (Michael W. Deem and Ramdas Pophale) SiO2 
 PCOD8059932
Probable space group: P 2/M
;
_chemical_formula_sum "Si O2"
_cell_formula_units_Z 32
_cell_length_a 5.172068
_cell_length_b 9.425184
_cell_length_c 35.352352
_cell_angle_alpha 90.000000
_cell_angle_beta 90.047870
_cell_angle_gamma 90.000000
_cell_volume 1723.344985
_symmetry_space_group_name_H-M "P 2/M"
_symmetry_group_IT_number 10
_symmetry_cell_setting 'monoclinic'
loop_
_space_group_symop_operation_xyz
x,y,z
-x,y,-z
-x,-y,-z
x,-y,z
loop_
_atom_site_type_symbol
_atom_site_label
_atom_site_fract_x
_atom_site_fract_y
_atom_site_fract_z
Si Si1 0.250056 0.830694 0.021961
Si Si2 0.252895 0.665348 0.523815
Si Si3 0.223389 0.834472 0.352457
Si Si4 0.240319 0.831772 0.106945
Si Si5 0.219711 0.336026 0.276378
Si Si6 0.275629 0.165762 0.600671
Si Si7 0.719523 0.335555 0.228798
Si Si8 0.261414 0.831443 0.847969
O O1 0.250609 0.769273 0.064539
O O2 0.249331 0.000000 0.022807
O O3 0.500000 0.772979 0.000000
O O4 0.000000 0.772754 0.000000
O O5 0.500000 0.715651 0.500000
O O6 0.270286 0.500000 0.533785
O O7 0.239753 0.750121 0.562349
O O8 0.000000 0.702496 0.500000
O O9 0.264223 0.753521 0.313686
O O10 0.452255 0.791427 0.380924
O O11 0.952258 0.789663 0.370852
O O12 0.233351 0.000000 0.343060
O O13 0.482990 0.775436 0.130926
O O14 0.979609 0.780283 0.126976
O O15 0.250766 0.000000 0.104709
O O16 0.235266 0.500000 0.287856
O O17 0.443938 0.297307 0.246759
O O18 0.943886 0.297203 0.258492
O O19 0.260737 0.000000 0.591139
O O20 0.735590 0.500000 0.216901
O O21 0.760618 0.239279 0.192558
O O22 0.263490 0.000000 0.842433
#
# Coordination Sequence:
#
# PCOD8059932 Si02
#       8
#     4   4   4   4   4   4   4   4
#     4   9  15  23  37  58  88 125 156 186 234 288
#     4  10  21  36  54  78 106 136 173 214 252 292
#     4  10  21  36  54  78 106 133 166 207 246 293
#     4   9  17  28  42  65  96 125 158 199 238 285
#     4  10  21  36  54  75  99 129 163 201 246 291
#     4  10  21  36  54  78 106 136 169 205 248 295
#     4  10  21  36  52  73 100 127 162 205 242 287
#     4  10  19  31  48  69  95 127 159 195 242 289
#
# _framework density 18.568541
#
# number of rings (size 3 to 8) (size 9 to 14) (size 15 to 20)
#    0.000    2.250    0.000    3.000    0.000    5.500 
#    0.000    0.000    0.000    0.000    0.000    0.000 
#    0.000   10.000    0.000    0.000    0.000    0.000 
#
# Total GULP energy -396912.739458 kJ/mol
# GULP energy per Si atom -12403.523108 kJ/mol
# Density = 1.852628 g / cm^3
# Si number density = 18.568541 Si / 1000 Ang^3
#
#
#
# Elastic Constant Matrix: (Units=GPa)
#
#
# Indices 1 2 3 4 5 6 
#
# 1 117.1034 24.7728 28.7876 0.0000 -1.3365 0.0000
# 2 24.7728 35.5465 48.4494 0.0000 -0.3573 0.0000
# 3 28.7876 48.4494 121.5376 0.0000 -1.8618 0.0000
# 4 0.0000 0.0000 0.0000 1312.2424 0.0000 435.9581
# 5 -1.3365 -0.3573 -1.8618 0.0000 28.4235 0.0000
# 6 0.0000 0.0000 0.0000 435.9581 0.0000 164.3892
#
#
#
# Elastic Compliance Matrix: (Units=1/GPa)
#
#
# Indices 1 2 3 4 5 6 
#
# 1 0.010066 -0.008256 0.000913 0.000000 0.000429 0.000000
# 2 -0.008256 0.068395 -0.025328 0.000000 -0.001187 0.000000
# 3 0.000913 -0.025328 0.018122 0.000000 0.000912 0.000000
# 4 0.000000 0.000000 0.000000 0.006407 0.000000 -0.016990
# 5 0.000429 -0.001187 0.000912 0.000000 0.035247 0.000000
# 6 0.000000 0.000000 0.000000 -0.016990 0.000000 0.051141
#
#
# Mechanical properties :
#
#
# Convention : Reuss Voigt Hill
#
# Bulk Modulus (GPa) = 32.00692 53.13413 42.57053
# Shear Modulus (GPa) = 18.85844 312.48954 165.67399
#
# Velocity S-wave (km/s) = 3.19032 12.98673 9.45604
# Velocity P-wave (km/s) = 5.55387 15.92328 11.92468
#
# Compressibility (1/GPa) = 0.03124324
#
# Stress axis : x y z
#
# Youngs Moduli (GPa) = 99.34092 14.62093 55.18147
#
# Poissons Ratio (x) = 0.12071 -0.05040
# Poissons Ratio (y) = 0.82016 1.39761
# Poissons Ratio (z) = -0.09074 0.37031
#
# Static dielectric constant tensor:
#      x y z
#    x 3.803820 0.000000 -0.020840 
#    y 0.000000 3.070320 0.000000 
#    z -0.020840 0.000000 3.393970 
# 
# 
# High freq. dielectric constant tensor:
#      x y z
#    x 1.745050 0.000000 -0.000060 
#    y 0.000000 1.681840 0.000000 
#    z -0.000060 0.000000 1.731820 
# 
# From -- ./inp_files/94333.got.cif
#   From: 2010.06.25/outbox.cif.g09.slc.cpg/sg10_48_cif.got.tgz:94333.got - 2010.06.27 22:07:45.
