data_PCOD8059306
_publ_section_title
;
Structure prediction by ZEFSAII (Michael W. Deem and Ramdas Pophale) SiO2 
 PCOD8059306
Probable space group: P 2/M
;
_chemical_formula_sum "Si O2"
_cell_formula_units_Z 28
_cell_length_a 21.130766
_cell_length_b 9.340269
_cell_length_c 11.283138
_cell_angle_alpha 90.000000
_cell_angle_beta 130.700008
_cell_angle_gamma 90.000000
_cell_volume 1688.303959
_symmetry_space_group_name_H-M "P 2/M"
_symmetry_group_IT_number 10
_symmetry_cell_setting 'monoclinic'
loop_
_space_group_symop_operation_xyz
x,y,z
-x,y,-z
-x,-y,-z
x,-y,z
loop_
_atom_site_type_symbol
_atom_site_label
_atom_site_fract_x
_atom_site_fract_y
_atom_site_fract_z
Si Si1 0.457003 0.168203 0.122358
Si Si2 0.891301 0.839444 0.981265
Si Si3 0.413828 0.835171 0.326875
Si Si4 0.773315 0.665520 0.519591
Si Si5 0.737138 0.665403 0.750368
Si Si6 0.627584 0.831085 0.220845
Si Si7 0.072159 0.160769 0.250819
O O1 0.424957 0.229870 0.208198
O O2 0.549171 0.226786 0.202233
O O3 0.468011 0.000000 0.147728
O O4 0.390565 0.204882 0.938923
O O5 0.815550 0.732260 0.917602
O O6 0.909693 0.836986 0.865444
O O7 0.865742 0.000000 0.989095
O O8 0.975652 0.791609 0.153836
O O9 0.500000 0.819913 0.500000
O O10 0.346813 0.742268 0.313751
O O11 0.383955 0.000000 0.287395
O O12 0.775678 0.500000 0.487818
O O13 0.746352 0.689529 0.621811
O O14 0.709460 0.745944 0.356550
O O15 0.865260 0.730616 0.607298
O O16 0.732369 0.500000 0.778535
O O17 0.642109 0.000000 0.257700
O O18 0.086148 0.000000 0.317117
#
# Coordination Sequence:
#
# PCOD8059306 Si02
#       7
#     4   4   4   4   4   4   4
#     4   8  16  30  48  69  87 109 146 188 225 259
#     4   8  14  26  43  62  85 114 149 184 215 257
#     4  10  19  31  48  68  89 115 149 185 219 259
#     4  10  19  28  40  64  95 121 148 181 217 260
#     4  10  20  30  41  62  93 125 151 178 217 262
#     4   9  16  30  50  66  85 113 146 185 225 264
#     4   8  14  25  42  63  86 114 147 181 219 260
#
# _framework density 16.584690999999999
#
# number of rings (size 3 to 8) (size 9 to 14) (size 15 to 20)
#    0.000    3.000    0.000    3.429    0.000    3.714 
#    0.000    5.714    0.000    0.000    0.000    1.000 
#    0.000    8.000    0.000    0.000    0.000    0.000 
#
# Total GULP energy -347066.636015 kJ/mol
# GULP energy per Si atom -12395.237001 kJ/mol
# Density = 1.654694 g / cm^3
# Si number density = 16.584691 Si / 1000 Ang^3
#
#
#
# Elastic Constant Matrix: (Units=GPa)
#
#
# Indices 1 2 3 4 5 6 
#
# 1 47.6760 37.7790 32.7991 0.0000 12.0810 0.0000
# 2 37.7790 89.8519 57.2656 0.0000 18.1687 0.0000
# 3 32.7991 57.2656 103.0339 0.0000 22.4809 0.0000
# 4 0.0000 0.0000 0.0000 5.5629 0.0000 -1.8033
# 5 12.0810 18.1687 22.4809 0.0000 27.6086 0.0000
# 6 0.0000 0.0000 0.0000 -1.8033 0.0000 15.9403
#
#
#
# Elastic Compliance Matrix: (Units=1/GPa)
#
#
# Indices 1 2 3 4 5 6 
#
# 1 0.033070 -0.010702 -0.003598 0.000000 -0.004499 0.000000
# 2 -0.010702 0.021129 -0.007691 0.000000 -0.002959 0.000000
# 3 -0.003598 -0.007691 0.016633 0.000000 -0.006908 0.000000
# 4 0.000000 0.000000 0.000000 0.186606 0.000000 0.021111
# 5 -0.004499 -0.002959 -0.006908 0.000000 0.045762 0.000000
# 6 0.000000 0.000000 0.000000 0.021111 0.000000 0.065122
#
#
# Mechanical properties :
#
#
# Convention : Reuss Voigt Hill
#
# Bulk Modulus (GPa) = 37.24294 55.13881 46.19088
# Shear Modulus (GPa) = 11.86930 17.33688 14.60309
#
# Velocity S-wave (km/s) = 2.67812 3.23670 2.97057
# Velocity P-wave (km/s) = 5.66287 6.87658 6.29902
#
# Compressibility (1/GPa) = 0.02685072
#
# Stress axis : x y z
#
# Youngs Moduli (GPa) = 30.23845 47.32740 60.12264
#
# Poissons Ratio (x) = 0.50651 0.21630
# Poissons Ratio (y) = 0.32362 0.46241
# Poissons Ratio (z) = 0.10879 0.36400
#
# Static dielectric constant tensor:
#      x y z
#    x 3.145740 0.000000 0.158960 
#    y 0.000000 3.034400 0.000000 
#    z 0.158960 0.000000 3.205770 
# 
# 
# High freq. dielectric constant tensor:
#      x y z
#    x 1.610320 0.000000 0.026930 
#    y 0.000000 1.624490 0.000000 
#    z 0.026930 0.000000 1.633470 
# 
# From -- ./inp_files/49102.got.cif
#   From: 2010.06.25/outbox.cif.g09.slc.cpg/sg10_25_cif.got.tgz:49102.got - 2010.06.27 22:07:45.
