data_PCOD8059899
_publ_section_title
;
Structure prediction by ZEFSAII (Michael W. Deem and Ramdas Pophale) SiO2 
 PCOD8059899
Probable space group: P 2/M
;
_chemical_formula_sum "Si O2"
_cell_formula_units_Z 28
_cell_length_a 17.963618
_cell_length_b 8.967103
_cell_length_c 20.474496
_cell_angle_alpha 90.000000
_cell_angle_beta 152.924042
_cell_angle_gamma 90.000000
_cell_volume 1501.184536
_symmetry_space_group_name_H-M "P 2/M"
_symmetry_group_IT_number 10
_symmetry_cell_setting 'monoclinic'
loop_
_space_group_symop_operation_xyz
x,y,z
-x,y,-z
-x,-y,-z
x,-y,z
loop_
_atom_site_type_symbol
_atom_site_label
_atom_site_fract_x
_atom_site_fract_y
_atom_site_fract_z
Si Si1 0.514399 0.672365 0.721409
Si Si2 0.364152 0.168766 0.301720
Si Si3 0.571631 0.329012 0.913197
Si Si4 0.862286 0.324529 0.234117
Si Si5 0.351129 0.167740 0.833795
Si Si6 0.732362 0.166821 0.639400
Si Si7 0.178768 0.178752 0.426746
O O1 0.475365 0.500000 0.677016
O O2 0.647384 0.730339 0.772137
O O3 0.597216 0.696553 0.856439
O O4 0.347017 0.764329 0.589289
O O5 0.549716 0.165527 0.469687
O O6 0.260027 0.240954 0.281770
O O7 0.305968 0.000000 0.240128
O O8 0.533683 0.500000 0.900742
O O9 0.414873 0.235501 0.815403
O O10 0.737705 0.278921 0.079017
O O11 0.891605 0.500000 0.260993
O O12 0.795854 0.266590 0.251886
O O13 0.032329 0.243224 0.354430
O O14 0.288100 0.000000 0.772574
O O15 0.500000 0.171570 0.000000
O O16 0.838646 0.237511 0.662974
O O17 0.793644 0.000000 0.699284
O O18 0.178979 0.000000 0.428799
#
# Coordination Sequence:
#
# PCOD8059899 Si02
#       7
#     4   4   4   4   4   4   4
#     4  10  19  31  47  71 100 127 156 192 235 281
#     4   8  13  25  44  65  89 121 158 194 233 274
#     4   9  19  34  51  70  96 128 158 190 232 281
#     4  10  19  33  52  72  95 125 158 192 234 282
#     4   9  17  30  50  74  95 118 155 198 233 272
#     4   7  12  24  43  64  89 121 155 192 233 274
#     4  10  19  32  49  71  98 126 157 196 239 279
#
# _framework density 18.651935999999999
#
# number of rings (size 3 to 8) (size 9 to 14) (size 15 to 20)
#    0.000    3.000    0.000    3.429    0.000    3.429 
#    0.000    7.143    0.000    5.143    0.000    6.000 
#    0.000    0.000    0.000    0.000    0.000    0.000 
#
# Total GULP energy -346903.593368 kJ/mol
# GULP energy per Si atom -12389.414049 kJ/mol
# Density = 1.860948 g / cm^3
# Si number density = 18.651936 Si / 1000 Ang^3
#
#
#
# Elastic Constant Matrix: (Units=GPa)
#
#
# Indices 1 2 3 4 5 6 
#
# 1 41.2268 9.4549 -8.5285 0.0000 -12.7898 0.0000
# 2 9.4549 69.6630 5.6629 0.0000 -4.2520 0.0000
# 3 -8.5285 5.6629 16.4772 0.0000 -3.4582 0.0000
# 4 0.0000 0.0000 0.0000 11.7484 0.0000 -4.4702
# 5 -12.7898 -4.2520 -3.4582 0.0000 22.5827 0.0000
# 6 0.0000 0.0000 0.0000 -4.4702 0.0000 29.9434
#
#
#
# Elastic Compliance Matrix: (Units=1/GPa)
#
#
# Indices 1 2 3 4 5 6 
#
# 1 0.039220 -0.006028 0.027685 0.000000 0.025317 0.000000
# 2 -0.006028 0.015788 -0.008926 0.000000 -0.001808 0.000000
# 3 0.027685 -0.008926 0.083716 0.000000 0.026819 0.000000
# 4 0.000000 0.000000 0.000000 0.090244 0.000000 0.013472
# 5 0.025317 -0.001808 0.026819 0.000000 0.062386 0.000000
# 6 0.000000 0.000000 0.000000 0.013472 0.000000 0.035408
#
#
# Mechanical properties :
#
#
# Convention : Reuss Voigt Hill
#
# Bulk Modulus (GPa) = 6.09068 15.61617 10.85342
# Shear Modulus (GPa) = 14.04385 20.90676 17.47530
#
# Velocity S-wave (km/s) = 2.74696 3.35160 3.06423
# Velocity P-wave (km/s) = 3.65152 4.83407 4.28379
#
# Compressibility (1/GPa) = 0.16418536
#
# Stress axis : x y z
#
# Youngs Moduli (GPa) = 25.49744 63.33843 11.94519
#
# Poissons Ratio (x) = 0.38182 -0.33070
# Poissons Ratio (y) = 0.15371 0.10662
# Poissons Ratio (z) = -0.70590 0.56535
#
# Static dielectric constant tensor:
#      x y z
#    x 4.019210 0.000000 -0.045710 
#    y 0.000000 3.387210 0.000000 
#    z -0.045710 0.000000 2.886660 
# 
# 
# High freq. dielectric constant tensor:
#      x y z
#    x 1.746070 0.000000 -0.005490 
#    y 0.000000 1.713190 0.000000 
#    z -0.005490 0.000000 1.665190 
# 
# From -- ./inp_files/79225.got.cif
#   From: 2010.06.25/outbox.cif.g09.slc.cpg/sg10_40_cif.got.tgz:79225.got - 2010.06.27 22:07:45.
