data_PCOD8059057
_publ_section_title
;
Structure prediction by ZEFSAII (Michael W. Deem and Ramdas Pophale) SiO2 
 PCOD8059057
Probable space group: P 2/M
;
_chemical_formula_sum "Si O2"
_cell_formula_units_Z 24
_cell_length_a 9.567519
_cell_length_b 8.613387
_cell_length_c 19.841282
_cell_angle_alpha 90.000000
_cell_angle_beta 50.288491
_cell_angle_gamma 90.000000
_cell_volume 1257.831638
_symmetry_space_group_name_H-M "P 2/M"
_symmetry_group_IT_number 10
_symmetry_cell_setting 'monoclinic'
loop_
_space_group_symop_operation_xyz
x,y,z
-x,y,-z
-x,-y,-z
x,-y,z
loop_
_atom_site_type_symbol
_atom_site_label
_atom_site_fract_x
_atom_site_fract_y
_atom_site_fract_z
Si Si1 0.526923 0.683075 0.789173
Si Si2 0.153351 0.180751 0.898950
Si Si3 0.886516 0.179634 0.724916
Si Si4 0.129011 0.681287 0.761366
Si Si5 0.465902 0.317592 0.364136
Si Si6 0.894990 0.678874 0.462630
O O1 0.492853 0.500000 0.801104
O O2 0.345759 0.767769 0.871937
O O3 0.698684 0.725479 0.782073
O O4 0.565127 0.746885 0.701810
O O5 0.111043 0.279563 0.845361
O O6 0.156329 0.000000 0.879358
O O7 0.000000 0.220925 0.000000
O O8 0.986065 0.219184 0.763730
O O9 0.014458 0.219436 0.622743
O O10 0.838030 0.000000 0.738145
O O11 0.090654 0.500000 0.762296
O O12 0.332312 0.724900 0.672386
O O13 0.437994 0.500000 0.367786
O O14 0.310538 0.255671 0.462816
O O15 0.897224 0.500000 0.437721
O O16 0.000000 0.697571 0.500000
#
# Coordination Sequence:
#
# PCOD8059057 Si02
#       6
#     4   4   4   4   4   4
#     4  10  19  36  60  84 110 148 195 232 273 333
#     4  10  21  39  63  91 120 146 174 220 284 344
#     4  12  24  36  52  81 119 153 188 238 297 335
#     4  10  21  38  59  82 112 151 195 235 278 333
#     4   8  16  32  55  80 104 142 191 239 278 320
#     4  10  18  33  56  79 109 148 196 241 279 331
#
# _framework density 19.080455000000001
#
# number of rings (size 3 to 8) (size 9 to 14) (size 15 to 20)
#    0.000    2.000    1.667    4.000    0.000    2.333 
#    0.000    5.833    0.000    5.000    0.000    0.000 
#    0.000    0.000    0.000    0.000    0.000    0.000 
#
# Total GULP energy -297604.984181 kJ/mol
# GULP energy per Si atom -12400.207674 kJ/mol
# Density = 1.903703 g / cm^3
# Si number density = 19.080455 Si / 1000 Ang^3
#
#
#
# Elastic Constant Matrix: (Units=GPa)
#
#
# Indices 1 2 3 4 5 6 
#
# 1 97.2708 13.3855 41.0233 0.0000 -18.1222 0.0000
# 2 13.3855 51.4034 25.2145 0.0000 -3.5085 0.0000
# 3 41.0233 25.2145 109.2576 0.0000 -24.3691 0.0000
# 4 0.0000 0.0000 0.0000 28.5394 0.0000 -0.5097
# 5 -18.1222 -3.5085 -24.3691 0.0000 25.4722 0.0000
# 6 0.0000 0.0000 0.0000 -0.5097 0.0000 27.6665
#
#
#
# Elastic Compliance Matrix: (Units=1/GPa)
#
#
# Indices 1 2 3 4 5 6 
#
# 1 0.012932 -0.001387 -0.003211 0.000000 0.005937 0.000000
# 2 -0.001387 0.022194 -0.005262 0.000000 -0.002964 0.000000
# 3 -0.003211 -0.005262 0.013859 0.000000 0.010249 0.000000
# 4 0.000000 0.000000 0.000000 0.035051 0.000000 0.000646
# 5 0.005937 -0.002964 0.010249 0.000000 0.052880 0.000000
# 6 0.000000 0.000000 0.000000 0.000646 0.000000 0.036157
#
#
# Mechanical properties :
#
#
# Convention : Reuss Voigt Hill
#
# Bulk Modulus (GPa) = 34.17205 46.35314 40.26260
# Shear Modulus (GPa) = 24.68554 28.22285 26.45419
#
# Velocity S-wave (km/s) = 3.60079 3.85014 3.72755
# Velocity P-wave (km/s) = 5.93599 6.64162 6.29869
#
# Compressibility (1/GPa) = 0.02926368
#
# Stress axis : x y z
#
# Youngs Moduli (GPa) = 77.32822 45.05703 72.15596
#
# Poissons Ratio (x) = 0.06250 0.23171
# Poissons Ratio (y) = 0.10726 0.37971
# Poissons Ratio (z) = 0.24832 0.23710
#
# Static dielectric constant tensor:
#      x y z
#    x 3.508390 0.000000 -0.253020 
#    y 0.000000 3.345120 0.000000 
#    z -0.253020 0.000000 3.590990 
# 
# 
# High freq. dielectric constant tensor:
#      x y z
#    x 1.741380 0.000000 -0.018610 
#    y 0.000000 1.730830 0.000000 
#    z -0.018610 0.000000 1.731720 
# 
# From -- ./inp_files/33754.got.cif
#   From: 2010.06.25/outbox.cif.g09.slc.cpg/sg10_17_cif.got.tgz:33754.got - 2010.06.27 22:07:45.
