data_PCOD8059061
_publ_section_title
;
Structure prediction by ZEFSAII (Michael W. Deem and Ramdas Pophale) SiO2 
 PCOD8059061
Probable space group: P 2/M
;
_chemical_formula_sum "Si O2"
_cell_formula_units_Z 32
_cell_length_a 14.257540
_cell_length_b 18.133039
_cell_length_c 11.272922
_cell_angle_alpha 90.000000
_cell_angle_beta 148.709919
_cell_angle_gamma 90.000000
_cell_volume 1513.664216
_symmetry_space_group_name_H-M "P 2/M"
_symmetry_group_IT_number 10
_symmetry_cell_setting 'monoclinic'
loop_
_space_group_symop_operation_xyz
x,y,z
-x,y,-z
-x,-y,-z
x,-y,z
loop_
_atom_site_type_symbol
_atom_site_label
_atom_site_fract_x
_atom_site_fract_y
_atom_site_fract_z
Si Si1 0.497093 0.175182 0.858864
Si Si2 0.201380 0.662362 0.940995
Si Si3 0.145457 0.174685 0.891607
Si Si4 0.190824 0.913746 0.428522
Si Si5 0.212353 0.420022 0.724553
Si Si6 0.308128 0.162259 0.322305
Si Si7 0.583867 0.297747 0.413381
Si Si8 0.160986 0.585975 0.407069
O O1 0.370611 0.105138 0.695836
O O2 0.422414 0.247780 0.712030
O O3 0.500000 0.193001 0.000000
O O4 0.692245 0.151701 0.019538
O O5 0.096943 0.739894 0.815535
O O6 0.277422 0.638225 0.893175
O O7 0.053876 0.604683 0.831232
O O8 0.380218 0.670587 0.216725
O O9 0.973267 0.124625 0.677757
O O10 0.189450 0.164187 0.077145
O O11 0.202663 0.884070 0.306977
O O12 0.156489 0.000000 0.389029
O O13 0.302384 0.500000 0.848870
O O14 0.253886 0.395589 0.634786
O O15 0.000000 0.429360 0.500000
O O16 0.500000 0.123281 0.500000
O O17 0.350228 0.245903 0.408943
O O18 0.726412 0.364593 0.562883
O O19 0.180518 0.500000 0.395628
#
# Coordination Sequence:
#
# PCOD8059061 Si02
#       8
#     4   4   4   4   4   4   4   4
#     4  10  23  43  65  96 134 170 215 256 301 374
#     4  10  18  33  56  81 113 159 202 254 310 362
#     4  11  23  41  66  98 124 165 213 270 317 370
#     4  11  25  43  67  99 131 166 206 254 320 386
#     4   8  16  30  48  77 117 155 195 247 307 363
#     4  11  20  45  66  94 125 155 216 273 323 365
#     4  10  22  36  62  90 116 164 212 262 311 373
#     4  10  21  35  52  84 126 162 204 260 317 375
#
# _framework density 21.140751999999999
#
# number of rings (size 3 to 8) (size 9 to 14) (size 15 to 20)
#    0.000    1.875    3.750    3.000    3.500    3.500 
#    4.500    1.875    0.000    2.625    0.000    0.000 
#    0.000    0.000    0.000    0.000    0.000    0.000 
#
# Total GULP energy -396675.181149 kJ/mol
# GULP energy per Si atom -12396.099411 kJ/mol
# Density = 2.109263 g / cm^3
# Si number density = 21.140752 Si / 1000 Ang^3
#
#
#
# Elastic Constant Matrix: (Units=GPa)
#
#
# Indices 1 2 3 4 5 6 
#
# 1 83.9802 25.8498 27.9640 0.0000 15.8750 0.0000
# 2 25.8498 102.5080 20.4395 0.0000 24.7781 0.0000
# 3 27.9640 20.4395 39.1749 0.0000 21.0794 0.0000
# 4 0.0000 0.0000 0.0000 25.5667 0.0000 0.1403
# 5 15.8750 24.7781 21.0794 0.0000 36.1491 0.0000
# 6 0.0000 0.0000 0.0000 0.1403 0.0000 9.8112
#
#
#
# Elastic Compliance Matrix: (Units=1/GPa)
#
#
# Indices 1 2 3 4 5 6 
#
# 1 0.015973 -0.002049 -0.010658 0.000000 0.000605 0.000000
# 2 -0.002049 0.012141 -0.001280 0.000000 -0.006676 0.000000
# 3 -0.010658 -0.001280 0.044900 0.000000 -0.020624 0.000000
# 4 0.000000 0.000000 0.000000 0.039116 0.000000 -0.000559
# 5 0.000605 -0.006676 -0.020624 0.000000 0.044000 0.000000
# 6 0.000000 0.000000 0.000000 -0.000559 0.000000 0.101933
#
#
# Mechanical properties :
#
#
# Convention : Reuss Voigt Hill
#
# Bulk Modulus (GPa) = 22.20264 41.57442 31.88853
# Shear Modulus (GPa) = 16.60851 24.39938 20.50395
#
# Velocity S-wave (km/s) = 2.80593 3.40095 3.11766
# Velocity P-wave (km/s) = 4.58505 5.92707 5.29872
#
# Compressibility (1/GPa) = 0.04503970
#
# Stress axis : x y z
#
# Youngs Moduli (GPa) = 62.60591 82.36642 22.27167
#
# Poissons Ratio (x) = 0.16877 0.23738
# Poissons Ratio (y) = 0.12828 0.02850
# Poissons Ratio (z) = 0.66727 0.10541
#
# Static dielectric constant tensor:
#      x y z
#    x 3.893390 0.000000 0.035090 
#    y 0.000000 3.719430 0.000000 
#    z 0.035090 0.000000 3.767160 
# 
# 
# High freq. dielectric constant tensor:
#      x y z
#    x 1.824430 0.000000 0.014110 
#    y 0.000000 1.814700 0.000000 
#    z 0.014110 0.000000 1.819320 
# 
# From -- ./inp_files/52016.got.cif
#   From: 2010.06.25/outbox.cif.g09.slc.cpg/sg10_27_cif.got.tgz:52016.got - 2010.06.27 22:07:45.
