data_PCOD8059431
_publ_section_title
;
Structure prediction by ZEFSAII (Michael W. Deem and Ramdas Pophale) SiO2 
 PCOD8059431
Probable space group: P 2/M
;
_chemical_formula_sum "Si O2"
_cell_formula_units_Z 24
_cell_length_a 23.595242
_cell_length_b 7.646161
_cell_length_c 9.400101
_cell_angle_alpha 90.000000
_cell_angle_beta 126.697097
_cell_angle_gamma 90.000000
_cell_volume 1359.783147
_symmetry_space_group_name_H-M "P 2/M"
_symmetry_group_IT_number 10
_symmetry_cell_setting 'monoclinic'
loop_
_space_group_symop_operation_xyz
x,y,z
-x,y,-z
-x,-y,-z
x,-y,z
loop_
_atom_site_type_symbol
_atom_site_label
_atom_site_fract_x
_atom_site_fract_y
_atom_site_fract_z
Si Si1 0.178599 0.000000 0.598148
Si Si2 0.921307 0.694393 0.213029
Si Si3 0.323585 0.000000 0.319474
Si Si4 0.430683 0.698815 0.810773
Si Si5 0.921307 0.694393 0.550893
Si Si6 0.323585 0.000000 0.651281
Si Si7 0.821401 0.000000 0.062351
Si Si8 0.569317 0.301185 0.518725
O O1 0.136022 0.168972 0.477303
O O2 0.254621 0.000000 0.642763
O O3 0.186699 0.000000 0.780049
O O4 0.899895 0.500000 0.128706
O O5 0.922684 0.701848 0.384026
O O6 0.000000 0.742076 0.274603
O O7 0.863978 0.831028 0.069237
O O8 0.303290 0.000000 0.454936
O O9 0.367133 0.173395 0.343384
O O10 0.254621 0.000000 0.121100
O O11 0.407958 0.500000 0.813790
O O12 0.449820 0.719825 0.674729
O O13 0.367133 0.826605 0.758015
O O14 0.500000 0.755377 0.000000
O O15 0.899894 0.500000 0.570977
O O16 0.500000 0.244624 0.500000
O O17 0.592042 0.500000 0.589915
#
# Coordination Sequence:
#
# PCOD8059431 Si02
#       8
#     2   4   2   4   4   2   2   4
#     4  10  19  29  45  70  94 118 153 191 223 263
#     4   8  14  26  45  68  92 117 148 190 235 270
#     4  10  21  34  46  65  97 130 151 175 223 279
#     4   9  18  33  52  71  90 116 152 190 226 266
#     4   8  14  26  45  68  92 117 148 190 235 270
#     4  10  21  34  46  65  97 130 151 175 223 279
#     4  10  19  29  45  70  94 118 153 191 223 263
#     4   9  18  33  52  71  90 116 152 190 226 266
#
# _framework density 17.649872999999999
#
# number of rings (size 3 to 8) (size 9 to 14) (size 15 to 20)
#    0.000    3.000    0.000    2.000    0.000    4.667 
#    0.000    0.000    0.000    2.000    0.000    2.333 
#    0.000    0.000    0.000    0.000    0.000    0.000 
#
# Total GULP energy -297530.671167 kJ/mol
# GULP energy per Si atom -12397.111299 kJ/mol
# Density = 1.760970 g / cm^3
# Si number density = 17.649873 Si / 1000 Ang^3
#
#
#
# Elastic Constant Matrix: (Units=GPa)
#
#
# Indices 1 2 3 4 5 6 
#
# 1 109.9551 75.7828 45.7526 0.0000 31.2634 0.0000
# 2 75.7828 144.3378 64.4255 0.0000 32.2216 0.0000
# 3 45.7526 64.4255 87.5299 0.0000 32.3582 0.0000
# 4 0.0000 0.0000 0.0000 15.4791 0.0000 5.3104
# 5 31.2634 32.2216 32.3582 0.0000 23.4858 0.0000
# 6 0.0000 0.0000 0.0000 5.3104 0.0000 17.3509
#
#
#
# Elastic Compliance Matrix: (Units=1/GPa)
#
#
# Indices 1 2 3 4 5 6 
#
# 1 0.017500 -0.006099 0.001753 0.000000 -0.017343 0.000000
# 2 -0.006099 0.013140 -0.005748 0.000000 -0.001989 0.000000
# 3 0.001753 -0.005748 0.025856 0.000000 -0.030071 0.000000
# 4 0.000000 0.000000 0.000000 0.072183 0.000000 -0.022092
# 5 -0.017343 -0.001989 -0.030071 0.000000 0.109826 0.000000
# 6 0.000000 0.000000 0.000000 -0.022092 0.000000 0.064396
#
#
# Mechanical properties :
#
#
# Convention : Reuss Voigt Hill
#
# Bulk Modulus (GPa) = 27.54233 79.30494 53.42364
# Shear Modulus (GPa) = 14.91687 21.65393 18.28540
#
# Velocity S-wave (km/s) = 2.91031 3.50646 3.22220
# Velocity P-wave (km/s) = 5.18960 7.83731 6.64663
#
# Compressibility (1/GPa) = 0.03630775
#
# Stress axis : x y z
#
# Youngs Moduli (GPa) = 57.14364 76.10201 38.67577
#
# Poissons Ratio (x) = 0.46414 -0.06781
# Poissons Ratio (y) = 0.34852 0.22232
# Poissons Ratio (z) = -0.10019 0.43746
#
# Static dielectric constant tensor:
#      x y z
#    x 3.076070 0.000000 0.170730 
#    y 0.000000 3.745200 0.000000 
#    z 0.170730 0.000000 3.015890 
# 
# 
# High freq. dielectric constant tensor:
#      x y z
#    x 1.661460 0.000000 0.019150 
#    y 0.000000 1.702400 0.000000 
#    z 0.019150 0.000000 1.654710 
# 
# From -- ./inp_files/34045.got.cif
#   From: 2010.06.25/outbox.cif.g09.slc.cpg/sg10_18_cif.got.tgz:34045.got - 2010.06.27 22:07:45.
