data_PCOD8059762
_publ_section_title
;
Structure prediction by ZEFSAII (Michael W. Deem and Ramdas Pophale) SiO2 
 PCOD8059762
Probable space group: P 2/M
;
_chemical_formula_sum "Si O2"
_cell_formula_units_Z 28
_cell_length_a 16.390415
_cell_length_b 9.414715
_cell_length_c 15.717482
_cell_angle_alpha 90.000000
_cell_angle_beta 38.629735
_cell_angle_gamma 90.000000
_cell_volume 1514.129670
_symmetry_space_group_name_H-M "P 2/M"
_symmetry_group_IT_number 10
_symmetry_cell_setting 'monoclinic'
loop_
_space_group_symop_operation_xyz
x,y,z
-x,y,-z
-x,-y,-z
x,-y,z
loop_
_atom_site_type_symbol
_atom_site_label
_atom_site_fract_x
_atom_site_fract_y
_atom_site_fract_z
Si Si1 0.040211 0.831193 0.838935
Si Si2 0.929881 0.166382 0.371648
Si Si3 0.514531 0.831419 0.391640
Si Si4 0.398011 0.667074 0.157255
Si Si5 0.892253 0.660802 0.660319
Si Si6 0.200700 0.831391 0.864876
Si Si7 0.359823 0.832641 0.352944
O O1 0.081777 0.772604 0.713992
O O2 0.142141 0.769956 0.824478
O O3 0.047301 0.000000 0.834521
O O4 0.892198 0.781504 0.982092
O O5 0.794308 0.202939 0.529115
O O6 0.057608 0.239005 0.305936
O O7 0.957104 0.000000 0.350970
O O8 0.500000 0.769129 0.500000
O O9 0.652771 0.775353 0.242274
O O10 0.409079 0.780964 0.406652
O O11 0.506919 0.000000 0.404785
O O12 0.407021 0.500000 0.168948
O O13 0.251583 0.712214 0.249659
O O14 0.432265 0.749931 0.217025
O O15 0.500000 0.711256 0.000000
O O16 0.884144 0.500000 0.700255
O O17 0.000000 0.675705 0.500000
O O18 0.202407 0.000000 0.857673
O O19 0.387322 0.000000 0.319658
#
# Coordination Sequence:
#
# PCOD8059762 Si02
#       7
#     4   4   4   4   4   4   4
#     4   8  14  24  39  64  95 127 162 202 244 290
#     4  10  19  30  49  77 105 129 162 210 259 296
#     4   9  16  26  42  66  99 136 168 200 245 302
#     4  10  22  40  58  75 100 136 173 211 260 313
#     4  10  20  36  56  74  94 127 170 207 242 300
#     4   8  13  23  39  59  92 133 167 197 237 290
#     4  10  20  32  50  78 107 134 169 214 258 301
#
# _framework density 18.492470999999998
#
# number of rings (size 3 to 8) (size 9 to 14) (size 15 to 20)
#    0.000    2.714    1.429    1.714    0.000    5.714 
#    0.000    1.429    0.000    0.429    0.000    3.000 
#    0.000    0.000    0.000    0.000    0.000    0.000 
#
# Total GULP energy -346947.702380 kJ/mol
# GULP energy per Si atom -12390.989371 kJ/mol
# Density = 1.845038 g / cm^3
# Si number density = 18.492471 Si / 1000 Ang^3
#
#
#
# Elastic Constant Matrix: (Units=GPa)
#
#
# Indices 1 2 3 4 5 6 
#
# 1 108.1839 32.9197 50.7337 0.0000 3.6156 0.0000
# 2 32.9197 25.6898 26.7274 0.0000 6.8304 0.0000
# 3 50.7337 26.7274 105.7644 0.0000 5.7342 0.0000
# 4 0.0000 0.0000 0.0000 11.1965 0.0000 -9.4737
# 5 3.6156 6.8304 5.7342 0.0000 37.5706 0.0000
# 6 0.0000 0.0000 0.0000 -9.4737 0.0000 -0.9791
#
#
#
# Elastic Compliance Matrix: (Units=1/GPa)
#
#
# Indices 1 2 3 4 5 6 
#
# 1 0.016166 -0.017783 -0.003380 0.000000 0.002193 0.000000
# 2 -0.017783 0.074632 -0.009768 0.000000 -0.010366 0.000000
# 3 -0.003380 -0.009768 0.013543 0.000000 0.000034 0.000000
# 4 0.000000 0.000000 0.000000 0.009722 0.000000 -0.094065
# 5 0.002193 -0.010366 0.000034 0.000000 0.028285 0.000000
# 6 0.000000 0.000000 0.000000 -0.094065 0.000000 -0.111171
#
#
# Mechanical properties :
#
#
# Convention : Reuss Voigt Hill
#
# Bulk Modulus (GPa) = 23.54041 51.15552 37.34797
# Shear Modulus (GPa) = 46.64269 18.17474 32.40872
#
# Velocity S-wave (km/s) = 5.02765 3.13839 4.19087
# Velocity P-wave (km/s) = 6.81619 6.39184 6.60742
#
# Compressibility (1/GPa) = 0.04248014
#
# Stress axis : x y z
#
# Youngs Moduli (GPa) = 61.85642 13.39907 73.83996
#
# Poissons Ratio (x) = 0.23827 0.24957
# Poissons Ratio (y) = 1.09999 0.72125
# Poissons Ratio (z) = 0.20907 0.13088
#
# Static dielectric constant tensor:
#      x y z
#    x 3.572640 0.000000 -0.017590 
#    y 0.000000 2.860170 0.000000 
#    z -0.017590 0.000000 3.646870 
# 
# 
# High freq. dielectric constant tensor:
#      x y z
#    x 1.721810 0.000000 -0.000930 
#    y 0.000000 1.654180 0.000000 
#    z -0.000930 0.000000 1.726920 
# 
# From -- ./inp_files/63480.got.cif
#   From: 2010.06.25/outbox.cif.g09.slc.cpg/sg10_32_cif.got.tgz:63480.got - 2010.06.27 22:07:45.
