data_PCOD8059519
_publ_section_title
;
Structure prediction by ZEFSAII (Michael W. Deem and Ramdas Pophale) SiO2 
 PCOD8059519
Probable space group: P 2/M
;
_chemical_formula_sum "Si O2"
_cell_formula_units_Z 32
_cell_length_a 15.008829
_cell_length_b 9.274513
_cell_length_c 13.859525
_cell_angle_alpha 90.000000
_cell_angle_beta 92.319380
_cell_angle_gamma 90.000000
_cell_volume 1927.659551
_symmetry_space_group_name_H-M "P 2/M"
_symmetry_group_IT_number 10
_symmetry_cell_setting 'monoclinic'
loop_
_space_group_symop_operation_xyz
x,y,z
-x,y,-z
-x,-y,-z
x,-y,z
loop_
_atom_site_type_symbol
_atom_site_label
_atom_site_fract_x
_atom_site_fract_y
_atom_site_fract_z
Si Si1 0.525625 0.663022 0.173450
Si Si2 0.208568 0.158434 0.814606
Si Si3 0.101678 0.170365 0.988405
Si Si4 0.601549 0.671962 0.507773
Si Si5 0.252586 0.668553 0.100275
Si Si6 0.373002 0.161715 0.965188
Si Si7 0.307714 0.660951 0.678027
Si Si8 0.639785 0.667187 0.717381
O O1 0.503244 0.500000 0.137836
O O2 0.540519 0.764165 0.080295
O O3 0.611796 0.660473 0.243963
O O4 0.444675 0.734197 0.229916
O O5 0.130079 0.218594 0.881352
O O6 0.297095 0.151924 0.881646
O O7 0.223499 0.255057 0.720346
O O8 0.182367 0.000000 0.776109
O O9 0.118471 0.000000 0.002914
O O10 0.160529 0.253286 0.070329
O O11 0.000000 0.214597 0.000000
O O12 0.500000 0.729609 0.500000
O O13 0.600967 0.500000 0.497834
O O14 0.659080 0.734260 0.420641
O O15 0.647603 0.729440 0.609048
O O16 0.246881 0.500000 0.072483
O O17 0.270228 0.690355 0.215985
O O18 0.337652 0.737817 0.050057
O O19 0.396385 0.000000 0.002766
O O20 0.273117 0.500000 0.656962
O O21 0.616673 0.500000 0.704113
#
# Coordination Sequence:
#
# PCOD8059519 Si02
#       8
#     4   4   4   4   4   4   4   4
#     4   9  15  25  41  61  83 113 154 194 227 256
#     4   8  15  27  43  63  88 113 136 172 222 269
#     4   9  18  34  54  72  90 115 144 174 217 275
#     4   9  14  24  42  64  87 116 158 199 226 254
#     4  10  19  30  44  65  92 118 144 180 224 268
#     4   9  17  29  42  57  83 120 156 186 219 261
#     4   9  15  23  42  66  86 113 152 193 221 249
#     4   9  17  27  40  61  90 120 151 189 231 267
#
# _framework density 16.600442999999999
#
# number of rings (size 3 to 8) (size 9 to 14) (size 15 to 20)
#    0.000    3.000    1.250    1.500    0.000    3.750 
#    0.000    3.750    0.000    2.625    0.000    0.875 
#    0.000    7.000    0.000    0.000    0.000    0.000 
#
# Total GULP energy -396571.391032 kJ/mol
# GULP energy per Si atom -12392.855970 kJ/mol
# Density = 1.656266 g / cm^3
# Si number density = 16.600443 Si / 1000 Ang^3
#
#
#
# Elastic Constant Matrix: (Units=GPa)
#
#
# Indices 1 2 3 4 5 6 
#
# 1 69.4233 23.7177 48.2552 0.0000 -19.9693 0.0000
# 2 23.7177 58.6190 40.2852 0.0000 -6.1452 0.0000
# 3 48.2552 40.2852 117.3805 0.0000 -14.8144 0.0000
# 4 0.0000 0.0000 0.0000 10.3882 0.0000 -4.4355
# 5 -19.9693 -6.1452 -14.8144 0.0000 21.0609 0.0000
# 6 0.0000 0.0000 0.0000 -4.4355 0.0000 17.9447
#
#
#
# Elastic Compliance Matrix: (Units=1/GPa)
#
#
# Indices 1 2 3 4 5 6 
#
# 1 0.025883 -0.003697 -0.007035 0.000000 0.018514 0.000000
# 2 -0.003697 0.022882 -0.006511 0.000000 -0.001409 0.000000
# 3 -0.007035 -0.006511 0.013789 0.000000 0.001129 0.000000
# 4 0.000000 0.000000 0.000000 0.107621 0.000000 0.026601
# 5 0.018514 -0.001409 0.001129 0.000000 0.065419 0.000000
# 6 0.000000 0.000000 0.000000 0.026601 0.000000 0.062302
#
#
# Mechanical properties :
#
#
# Convention : Reuss Voigt Hill
#
# Bulk Modulus (GPa) = 35.62852 52.21543 43.92197
# Shear Modulus (GPa) = 14.63115 18.75643 16.69379
#
# Velocity S-wave (km/s) = 2.97201 3.36501 3.17460
# Velocity P-wave (km/s) = 5.76941 6.82790 6.32085
#
# Compressibility (1/GPa) = 0.02806740
#
# Stress axis : x y z
#
# Youngs Moduli (GPa) = 38.63575 43.70228 72.52406
#
# Poissons Ratio (x) = 0.16155 0.51021
# Poissons Ratio (y) = 0.14282 0.47222
# Poissons Ratio (z) = 0.27181 0.28456
#
# Static dielectric constant tensor:
#      x y z
#    x 2.890950 0.000000 -0.212340 
#    y 0.000000 3.095570 0.000000 
#    z -0.212340 0.000000 3.292820 
# 
# 
# High freq. dielectric constant tensor:
#      x y z
#    x 1.602490 0.000000 -0.012660 
#    y 0.000000 1.617340 0.000000 
#    z -0.012660 0.000000 1.635190 
# 
# From -- ./inp_files/66093.got.cif
#   From: 2010.06.25/outbox.cif.g09.slc.cpg/sg10_34_cif.got.tgz:66093.got - 2010.06.27 22:07:45.
