data_PCOD8059384
_publ_section_title
;
Structure prediction by ZEFSAII (Michael W. Deem and Ramdas Pophale) SiO2 
 PCOD8059384
Probable space group: P 2/M
;
_chemical_formula_sum "Si O2"
_cell_formula_units_Z 28
_cell_length_a 20.372701
_cell_length_b 9.219348
_cell_length_c 13.702386
_cell_angle_alpha 90.000000
_cell_angle_beta 138.113078
_cell_angle_gamma 90.000000
_cell_volume 1718.312291
_symmetry_space_group_name_H-M "P 2/M"
_symmetry_group_IT_number 10
_symmetry_cell_setting 'monoclinic'
loop_
_space_group_symop_operation_xyz
x,y,z
-x,y,-z
-x,-y,-z
x,-y,z
loop_
_atom_site_type_symbol
_atom_site_label
_atom_site_fract_x
_atom_site_fract_y
_atom_site_fract_z
Si Si1 0.212402 0.832537 0.188319
Si Si2 0.674060 0.331955 0.327003
Si Si3 0.424042 0.166395 0.331892
Si Si4 0.962973 0.659830 0.069113
Si Si5 0.826447 0.670612 0.657577
Si Si6 0.391236 0.163884 0.922234
Si Si7 0.461776 0.669243 0.177193
O O1 0.314777 0.807369 0.248680
O O2 0.215817 0.753227 0.295682
O O3 0.189940 0.000000 0.182721
O O4 0.127571 0.770552 0.022494
O O5 0.680046 0.500000 0.304593
O O6 0.764698 0.282963 0.494728
O O7 0.681044 0.240027 0.235319
O O8 0.574517 0.298737 0.275411
O O9 0.500000 0.209680 0.500000
O O10 0.442895 0.272080 0.263465
O O11 0.440223 0.000000 0.317039
O O12 0.927456 0.500000 0.063687
O O13 0.058921 0.710238 0.237222
O O14 0.000000 0.652908 0.000000
O O15 0.815140 0.500000 0.667139
O O16 0.355245 0.000000 0.900600
O O17 0.500000 0.168264 0.000000
O O18 0.388757 0.250237 0.021236
O O19 0.437301 0.500000 0.146069
#
# Coordination Sequence:
#
# PCOD8059384 Si02
#       7
#     4   4   4   4   4   4   4
#     4  10  19  29  43  63  87 117 151 185 217 253
#     4   9  17  29  45  67  92 114 143 183 220 256
#     4  10  21  34  45  61  89 122 152 182 217 257
#     4   8  15  28  44  61  84 115 146 176 217 265
#     4   9  17  29  45  65  90 118 144 177 222 264
#     4   9  17  29  45  64  88 118 147 176 216 264
#     4  10  19  30  46  66  88 117 151 185 216 250
#
# _framework density 16.295058000000001
#
# number of rings (size 3 to 8) (size 9 to 14) (size 15 to 20)
#    0.000    2.714    0.000    3.000    0.000    6.857 
#    0.000    0.000    0.000    0.000    0.000    1.000 
#    0.000    8.000    0.000    0.000    0.000    0.000 
#
# Total GULP energy -347160.741188 kJ/mol
# GULP energy per Si atom -12398.597900 kJ/mol
# Density = 1.625797 g / cm^3
# Si number density = 16.295058 Si / 1000 Ang^3
#
#
#
# Elastic Constant Matrix: (Units=GPa)
#
#
# Indices 1 2 3 4 5 6 
#
# 1 47.5338 41.2051 47.0342 0.0000 0.9966 0.0000
# 2 41.2051 98.5997 70.3339 0.0000 -3.5255 0.0000
# 3 47.0342 70.3339 151.3513 0.0000 3.9715 0.0000
# 4 0.0000 0.0000 0.0000 26.4909 0.0000 -3.4474
# 5 0.9966 -3.5255 3.9715 0.0000 22.3130 0.0000
# 6 0.0000 0.0000 0.0000 -3.4474 0.0000 23.9579
#
#
#
# Elastic Compliance Matrix: (Units=1/GPa)
#
#
# Indices 1 2 3 4 5 6 
#
# 1 0.036825 -0.010994 -0.006275 0.000000 -0.002265 0.000000
# 2 -0.010994 0.018758 -0.005417 0.000000 0.004419 0.000000
# 3 -0.006275 -0.005417 0.011142 0.000000 -0.002559 0.000000
# 4 0.000000 0.000000 0.000000 0.038469 0.000000 0.005535
# 5 -0.002265 0.004419 -0.002559 0.000000 0.046072 0.000000
# 6 0.000000 0.000000 0.000000 0.005535 0.000000 0.042536
#
#
# Mechanical properties :
#
#
# Convention : Reuss Voigt Hill
#
# Bulk Modulus (GPa) = 46.83191 68.29237 57.56214
# Shear Modulus (GPa) = 20.30124 23.81312 22.05718
#
# Velocity S-wave (km/s) = 3.53349 3.82693 3.68314
# Velocity P-wave (km/s) = 6.74164 7.84398 7.31361
#
# Compressibility (1/GPa) = 0.02135296
#
# Stress axis : x y z
#
# Youngs Moduli (GPa) = 27.15580 53.31045 89.75402
#
# Poissons Ratio (x) = 0.58607 0.56325
# Poissons Ratio (y) = 0.29854 0.48616
# Poissons Ratio (z) = 0.17041 0.28876
#
# Static dielectric constant tensor:
#      x y z
#    x 2.767250 0.000000 0.217810 
#    y 0.000000 3.187090 0.000000 
#    z 0.217810 0.000000 3.418730 
# 
# 
# High freq. dielectric constant tensor:
#      x y z
#    x 1.582640 0.000000 0.008520 
#    y 0.000000 1.635320 0.000000 
#    z 0.008520 0.000000 1.632550 
# 
# From -- ./inp_files/54982.got.cif
#   From: 2010.06.25/outbox.cif.g09.slc.cpg/sg10_28_cif.got.tgz:54982.got - 2010.06.27 22:07:45.
