data_PCOD8059774
_publ_section_title
;
Structure prediction by ZEFSAII (Michael W. Deem and Ramdas Pophale) SiO2 
 PCOD8059774
Probable space group: P 2/M
;
_chemical_formula_sum "Si O2"
_cell_formula_units_Z 32
_cell_length_a 31.569411
_cell_length_b 8.997411
_cell_length_c 12.106648
_cell_angle_alpha 90.000000
_cell_angle_beta 30.167024
_cell_angle_gamma 90.000000
_cell_volume 1728.078285
_symmetry_space_group_name_H-M "P 2/M"
_symmetry_group_IT_number 10
_symmetry_cell_setting 'monoclinic'
loop_
_space_group_symop_operation_xyz
x,y,z
-x,y,-z
-x,-y,-z
x,-y,z
loop_
_atom_site_type_symbol
_atom_site_label
_atom_site_fract_x
_atom_site_fract_y
_atom_site_fract_z
Si Si1 0.905972 0.324689 0.199536
Si Si2 0.583512 0.676303 0.677989
Si Si3 0.246021 0.322530 0.309595
Si Si4 0.115873 0.674233 0.997154
Si Si5 0.267725 0.323039 0.810053
Si Si6 0.221392 0.824699 0.138846
Si Si7 0.972381 0.173971 0.443185
Si Si8 0.602826 0.323561 0.879492
O O1 0.913340 0.500000 0.195600
O O2 0.842131 0.265803 0.437777
O O3 0.865520 0.283704 0.171962
O O4 0.000000 0.254315 0.000000
O O5 0.588309 0.500000 0.672255
O O6 0.646593 0.733666 0.441334
O O7 0.612303 0.737914 0.733090
O O8 0.487914 0.727952 0.866876
O O9 0.247574 0.500000 0.293877
O O10 0.261471 0.247760 0.156821
O O11 0.321963 0.262100 0.214742
O O12 0.105576 0.500000 0.034802
O O13 0.026915 0.746875 0.227152
O O14 0.190310 0.733132 0.908229
O O15 0.265329 0.500000 0.830588
O O16 0.265864 0.244883 0.932177
O O17 0.123627 0.781870 0.358865
O O18 0.236298 0.000000 0.104961
O O19 0.000000 0.235394 0.500000
O O20 0.988818 0.000000 0.397520
O O21 0.607414 0.500000 0.866679
#
# Coordination Sequence:
#
# PCOD8059774 Si02
#       8
#     4   4   4   4   4   4   4   4
#     4   9  17  29  46  72 104 130 154 197 252 297
#     4   8  14  27  50  81 111 130 155 201 254 302
#     4  10  19  33  54  76 101 134 172 206 245 297
#     4  10  19  30  50  78 102 126 162 207 253 297
#     4  10  19  31  50  77 103 127 163 209 251 294
#     4  11  23  37  51  68  98 137 174 210 251 296
#     4  10  20  35  50  66  94 134 173 207 246 293
#     4   8  14  27  51  81 107 132 160 199 251 301
#
# _framework density 18.517679999999999
#
# number of rings (size 3 to 8) (size 9 to 14) (size 15 to 20)
#    0.000    2.500    1.250    2.625    0.000    5.250 
#    0.000    1.250    0.000    9.000    0.000    1.750 
#    0.000    0.000    0.000    0.000    0.000    0.000 
#
# Total GULP energy -396728.630799 kJ/mol
# GULP energy per Si atom -12397.769712 kJ/mol
# Density = 1.847553 g / cm^3
# Si number density = 18.517680 Si / 1000 Ang^3
#
#
#
# Elastic Constant Matrix: (Units=GPa)
#
#
# Indices 1 2 3 4 5 6 
#
# 1 134.6422 25.4263 77.3605 0.0000 1.1257 0.0000
# 2 25.4263 22.5477 30.0705 0.0000 3.4394 0.0000
# 3 77.3605 30.0705 155.2156 0.0000 9.7841 0.0000
# 4 0.0000 0.0000 0.0000 3.7015 0.0000 -6.0040
# 5 1.1257 3.4394 9.7841 0.0000 31.6358 0.0000
# 6 0.0000 0.0000 0.0000 -6.0040 0.0000 8.7974
#
#
#
# Elastic Compliance Matrix: (Units=1/GPa)
#
#
# Indices 1 2 3 4 5 6 
#
# 1 0.011255 -0.007185 -0.004326 0.000000 0.001719 0.000000
# 2 -0.007185 0.064664 -0.008689 0.000000 -0.004087 0.000000
# 3 -0.004326 -0.008689 0.010416 0.000000 -0.002123 0.000000
# 4 0.000000 0.000000 0.000000 -2.524771 0.000000 -1.723098
# 5 0.001719 -0.004087 -0.002123 0.000000 0.032649 0.000000
# 6 0.000000 0.000000 0.000000 -1.723098 0.000000 -1.062304
#
#
# Mechanical properties :
#
#
# Convention : Reuss Voigt Hill
#
# Bulk Modulus (GPa) = 21.76976 64.23558 43.00267
# Shear Modulus (GPa) = -1.46525 20.79682 9.66578
#
# Velocity S-wave (km/s) = -0.89050 3.35487 2.28716
# Velocity P-wave (km/s) = 3.27481 7.05486 5.49979
#
# Compressibility (1/GPa) = 0.04593529
#
# Stress axis : x y z
#
# Youngs Moduli (GPa) = 88.84858 15.46459 96.00693
#
# Poissons Ratio (x) = 0.11111 0.41533
# Poissons Ratio (y) = 0.63836 0.83420
# Poissons Ratio (z) = 0.38436 0.13437
#
# Static dielectric constant tensor:
#      x y z
#    x 3.533310 0.000000 -0.042570 
#    y 0.000000 2.889520 0.000000 
#    z -0.042570 0.000000 3.639710 
# 
# 
# High freq. dielectric constant tensor:
#      x y z
#    x 1.722610 0.000000 0.003570 
#    y 0.000000 1.667550 0.000000 
#    z 0.003570 0.000000 1.724620 
# 
# From -- ./inp_files/58098.got.cif
#   From: 2010.06.25/outbox.cif.g09.slc.cpg/sg10_30_cif.got.tgz:58098.got - 2010.06.27 22:07:45.
