data_PCOD8059113
_publ_section_title
;
Structure prediction by ZEFSAII (Michael W. Deem and Ramdas Pophale) SiO2 
 PCOD8059113
Probable space group: P 2/M
;
_chemical_formula_sum "Si O2"
_cell_formula_units_Z 32
_cell_length_a 15.397741
_cell_length_b 9.028065
_cell_length_c 11.858570
_cell_angle_alpha 90.000000
_cell_angle_beta 88.471282
_cell_angle_gamma 90.000000
_cell_volume 1647.894510
_symmetry_space_group_name_H-M "P 2/M"
_symmetry_group_IT_number 10
_symmetry_cell_setting 'monoclinic'
loop_
_space_group_symop_operation_xyz
x,y,z
-x,y,-z
-x,-y,-z
x,-y,z
loop_
_atom_site_type_symbol
_atom_site_label
_atom_site_fract_x
_atom_site_fract_y
_atom_site_fract_z
Si Si1 0.742770 0.175017 0.365694
Si Si2 0.922000 0.327522 0.750520
Si Si3 0.142319 0.325637 0.000443
Si Si4 0.759318 0.674795 0.602397
Si Si5 0.338484 0.324449 0.997920
Si Si6 0.909410 0.174427 0.216864
Si Si7 0.590494 0.325339 0.241491
Si Si8 0.604201 0.324899 0.764769
O O1 0.764151 0.238662 0.486489
O O2 0.820523 0.223853 0.280399
O O3 0.652401 0.241071 0.325407
O O4 0.734012 0.000000 0.373414
O O5 0.943701 0.500000 0.742126
O O6 0.845968 0.284488 0.667409
O O7 0.008717 0.237032 0.715338
O O8 0.892566 0.281780 0.876344
O O9 0.135199 0.500000 0.978919
O O10 0.240596 0.267103 0.987662
O O11 0.085870 0.243899 0.907926
O O12 0.751986 0.500000 0.580172
O O13 0.675937 0.734375 0.674906
O O14 0.338857 0.500000 0.007164
O O15 0.392978 0.272487 0.887497
O O16 0.379742 0.256904 0.110849
O O17 0.917180 0.000000 0.208390
O O18 0.607431 0.500000 0.253622
O O19 0.491624 0.281831 0.275575
O O20 0.613894 0.500000 0.774078
#
# Coordination Sequence:
#
# PCOD8059113 Si02
#       8
#     4   4   4   4   4   4   4   4
#     4  11  25  42  56  75 110 152 193 236 278 322
#     4  10  21  37  60  88 115 143 178 228 283 333
#     4  10  18  33  59  88 117 145 177 222 277 334
#     4  10  21  39  61  83 110 144 186 234 279 328
#     4   9  15  28  55  89 119 143 172 219 276 330
#     4  11  24  39  56  80 113 151 188 229 275 328
#     4  10  19  33  60  90 114 146 184 224 272 331
#     4   9  17  32  57  91 120 140 176 229 280 328
#
# _framework density 19.41872
#
# number of rings (size 3 to 8) (size 9 to 14) (size 15 to 20)
#    0.000    2.000    2.500    1.500    0.000    6.500 
#    0.000    5.625    0.000    3.000    0.000    0.000 
#    0.000    0.000    0.000    0.000    0.000    0.000 
#
# Total GULP energy -396851.347526 kJ/mol
# GULP energy per Si atom -12401.604610 kJ/mol
# Density = 1.937452 g / cm^3
# Si number density = 19.418720 Si / 1000 Ang^3
#
#
#
# Elastic Constant Matrix: (Units=GPa)
#
#
# Indices 1 2 3 4 5 6 
#
# 1 114.4527 36.9409 45.6904 0.0000 20.8914 0.0000
# 2 36.9409 42.1419 41.2024 0.0000 7.2926 0.0000
# 3 45.6904 41.2024 119.9363 0.0000 19.8575 0.0000
# 4 0.0000 0.0000 0.0000 4.2493 0.0000 -11.7467
# 5 20.8914 7.2926 19.8575 0.0000 19.0434 0.0000
# 6 0.0000 0.0000 0.0000 -11.7467 0.0000 13.0865
#
#
#
# Elastic Compliance Matrix: (Units=1/GPa)
#
#
# Indices 1 2 3 4 5 6 
#
# 1 0.014237 -0.010610 0.000162 0.000000 -0.011725 0.000000
# 2 -0.010610 0.043655 -0.012225 0.000000 0.007670 0.000000
# 3 0.000162 -0.012225 0.014178 0.000000 -0.010280 0.000000
# 4 0.000000 0.000000 0.000000 -0.158862 0.000000 -0.142598
# 5 -0.011725 0.007670 -0.010280 0.000000 0.073157 0.000000
# 6 0.000000 0.000000 0.000000 -0.142598 0.000000 -0.051584
#
#
# Mechanical properties :
#
#
# Convention : Reuss Voigt Hill
#
# Bulk Modulus (GPa) = 37.41813 58.24426 47.83120
# Shear Modulus (GPa) = -455.92958 17.45567 -219.23696
#
# Velocity S-wave (km/s) = -15.33944 3.00143 -10.63696
# Velocity P-wave (km/s) = 17.15868 6.48617 11.23276
#
# Compressibility (1/GPa) = 0.02672501
#
# Stress axis : x y z
#
# Youngs Moduli (GPa) = 70.23954 22.90695 70.53329
#
# Poissons Ratio (x) = 0.24304 -0.01146
# Poissons Ratio (y) = 0.74522 0.86227
# Poissons Ratio (z) = -0.01141 0.28004
#
# Static dielectric constant tensor:
#      x y z
#    x 3.791050 0.000000 -0.023580 
#    y 0.000000 3.129980 0.000000 
#    z -0.023580 0.000000 3.563490 
# 
# 
# High freq. dielectric constant tensor:
#      x y z
#    x 1.774610 0.000000 0.003170 
#    y 0.000000 1.714770 0.000000 
#    z 0.003170 0.000000 1.756860 
# 
# From -- ./inp_files/49861.got.cif
#   From: 2010.06.25/outbox.cif.g09.slc.cpg/sg10_25_cif.got.tgz:49861.got - 2010.06.27 22:07:45.
