data_PCOD8059286
_publ_section_title
;
Structure prediction by ZEFSAII (Michael W. Deem and Ramdas Pophale) SiO2 
 PCOD8059286
Probable space group: P 2/M
;
_chemical_formula_sum "Si O2"
_cell_formula_units_Z 32
_cell_length_a 18.461515
_cell_length_b 9.256454
_cell_length_c 18.461516
_cell_angle_alpha 90.000000
_cell_angle_beta 43.938217
_cell_angle_gamma 90.000000
_cell_volume 2189.097723
_symmetry_space_group_name_H-M "P 2/M"
_symmetry_group_IT_number 10
_symmetry_cell_setting 'monoclinic'
loop_
_space_group_symop_operation_xyz
x,y,z
-x,y,-z
-x,-y,-z
x,-y,z
loop_
_atom_site_type_symbol
_atom_site_label
_atom_site_fract_x
_atom_site_fract_y
_atom_site_fract_z
Si Si1 0.428108 0.338068 0.157804
Si Si2 0.269411 0.831038 0.995369
Si Si3 0.661333 0.328939 0.374176
Si Si4 0.657803 0.661932 0.928108
Si Si5 0.482928 0.671004 0.395078
Si Si6 0.874176 0.671061 0.161333
Si Si7 0.104922 0.328996 0.017071
Si Si8 0.504631 0.168962 0.230589
O O1 0.401043 0.500000 0.204306
O O2 0.346303 0.290179 0.153697
O O3 0.424244 0.228244 0.227863
O O4 0.542078 0.336637 0.042078
O O5 0.376294 0.794225 0.876293
O O6 0.248288 0.000000 0.013908
O O7 0.272137 0.771756 0.075755
O O8 0.174318 0.754658 0.024235
O O9 0.663097 0.500000 0.369663
O O10 0.617463 0.282747 0.484216
O O11 0.585835 0.276462 0.363896
O O12 0.777477 0.264466 0.277477
O O13 0.704306 0.500000 0.901043
O O14 0.485184 0.500000 0.378512
O O15 0.475764 0.754658 0.325683
O O16 0.869662 0.500000 0.163097
O O17 0.984216 0.717252 0.117463
O O18 0.863897 0.723538 0.085834
O O19 0.121488 0.500000 0.014815
O O20 0.486092 0.000000 0.251712
#
# Coordination Sequence:
#
# PCOD8059286 Si02
#       8
#     4   4   4   4   4   4   4   4
#     4   8  14  25  40  56  74  99 131 162 190 224
#     4  10  19  27  36  54  81 109 133 160 194 229
#     4   8  14  25  41  60  79  99 128 166 202 232
#     4   8  14  25  40  56  74  99 131 162 190 224
#     4   9  16  26  42  60  76 100 133 165 196 231
#     4   8  14  25  41  60  79  99 128 166 202 232
#     4   9  16  26  42  60  76 100 133 165 196 231
#     4  10  19  27  36  54  81 109 133 160 194 229
#
# _framework density 14.617894
#
# number of rings (size 3 to 8) (size 9 to 14) (size 15 to 20)
#    0.000    3.250    0.000    3.750    0.000    3.000 
#    0.000    5.000    0.000    2.250    0.000    0.000 
#    0.000    1.000    0.000   11.500    0.000    3.750 
#
# Total GULP energy -396546.346616 kJ/mol
# GULP energy per Si atom -12392.073332 kJ/mol
# Density = 1.458462 g / cm^3
# Si number density = 14.617894 Si / 1000 Ang^3
#
#
#
# Elastic Constant Matrix: (Units=GPa)
#
#
# Indices 1 2 3 4 5 6 
#
# 1 120.0241 53.2098 58.4522 0.0000 14.7867 0.0000
# 2 53.2098 58.3338 36.1175 0.0000 10.1849 0.0000
# 3 58.4522 36.1175 87.7081 0.0000 4.4698 0.0000
# 4 0.0000 0.0000 0.0000 9.3356 0.0000 -4.1535
# 5 14.7867 10.1849 4.4698 0.0000 24.5262 0.0000
# 6 0.0000 0.0000 0.0000 -4.1535 0.0000 2.3652
#
#
#
# Elastic Compliance Matrix: (Units=1/GPa)
#
#
# Indices 1 2 3 4 5 6 
#
# 1 0.016714 -0.010328 -0.006653 0.000000 -0.004575 0.000000
# 2 -0.010328 0.031015 -0.005602 0.000000 -0.005632 0.000000
# 3 -0.006653 -0.005602 0.017986 0.000000 0.003059 0.000000
# 4 0.000000 0.000000 0.000000 0.489797 0.000000 0.860126
# 5 -0.004575 -0.005632 0.003059 0.000000 0.045313 0.000000
# 6 0.000000 0.000000 0.000000 0.860126 0.000000 1.933254
#
#
# Mechanical properties :
#
#
# Convention : Reuss Voigt Hill
#
# Bulk Modulus (GPa) = 48.66141 62.40276 55.53209
# Shear Modulus (GPa) = 1.93342 15.13116 8.53229
#
# Velocity S-wave (km/s) = 1.15131 3.22081 2.41858
# Velocity P-wave (km/s) = 5.92693 7.52419 6.77281
#
# Compressibility (1/GPa) = 0.02055016
#
# Stress axis : x y z
#
# Youngs Moduli (GPa) = 59.83079 32.24233 55.59897
#
# Poissons Ratio (x) = 0.33299 0.36988
# Poissons Ratio (y) = 0.61792 0.31146
# Poissons Ratio (z) = 0.39803 0.18062
#
# Static dielectric constant tensor:
#      x y z
#    x 2.989120 0.000000 0.032830 
#    y 0.000000 2.658130 0.000000 
#    z 0.032830 0.000000 2.934030 
# 
# 
# High freq. dielectric constant tensor:
#      x y z
#    x 1.553560 0.000000 0.015820 
#    y 0.000000 1.539700 0.000000 
#    z 0.015820 0.000000 1.527020 
# 
# From -- ./inp_files/68226.got.cif
#   From: 2010.06.25/outbox.cif.g09.slc.cpg/sg10_35_cif.got.tgz:68226.got - 2010.06.27 22:07:45.
