data_PCOD8059655
_publ_section_title
;
Structure prediction by ZEFSAII (Michael W. Deem and Ramdas Pophale) SiO2 
 PCOD8059655
Probable space group: P 2/M
;
_chemical_formula_sum "Si O2"
_cell_formula_units_Z 32
_cell_length_a 10.294043
_cell_length_b 13.740892
_cell_length_c 15.964045
_cell_angle_alpha 90.000000
_cell_angle_beta 117.707883
_cell_angle_gamma 90.000000
_cell_volume 1999.166026
_symmetry_space_group_name_H-M "P 2/M"
_symmetry_group_IT_number 10
_symmetry_cell_setting 'monoclinic'
loop_
_space_group_symop_operation_xyz
x,y,z
-x,y,-z
-x,-y,-z
x,-y,z
loop_
_atom_site_type_symbol
_atom_site_label
_atom_site_fract_x
_atom_site_fract_y
_atom_site_fract_z
Si Si1 0.680207 0.886680 0.267712
Si Si2 0.436579 0.115875 0.067197
Si Si3 0.160847 0.275590 0.379599
Si Si4 0.891067 0.115664 0.038161
Si Si5 0.322620 0.271848 0.603615
Si Si6 0.083174 0.607509 0.612222
Si Si7 0.420863 0.610131 0.387743
Si Si8 0.971868 0.113948 0.249403
O O1 0.542481 0.848258 0.172701
O O2 0.667556 0.834855 0.353532
O O3 0.831276 0.863544 0.264930
O O4 0.667471 0.000000 0.282842
O O5 0.436811 0.000000 0.062575
O O6 0.500000 0.158815 0.000000
O O7 0.271745 0.155485 0.031346
O O8 0.243156 0.256787 0.491403
O O9 0.264653 0.336309 0.348362
O O10 0.113550 0.172603 0.325433
O O11 0.014348 0.338267 0.348299
O O12 0.939434 0.149351 0.145164
O O13 0.890482 0.000000 0.035051
O O14 0.000000 0.158375 0.000000
O O15 0.234486 0.337194 0.643295
O O16 0.479672 0.323925 0.642894
O O17 0.117549 0.500000 0.656720
O O18 0.000000 0.601222 0.500000
O O19 0.500000 0.602365 0.500000
O O20 0.399904 0.500000 0.346104
O O21 0.011933 0.000000 0.264139
#
# Coordination Sequence:
#
# PCOD8059655 Si02
#       8
#     4   4   4   4   4   4   4   4
#     4  10  19  30  47  70  99 134 167 195 227 277
#     4   9  15  27  46  64  86 122 162 200 242 275
#     4  10  19  31  47  69  98 130 162 194 231 285
#     4   9  17  29  46  68  92 119 157 205 247 277
#     4  10  19  31  46  70  98 128 164 197 229 277
#     4   9  16  27  45  67  90 117 155 203 244 271
#     4   9  18  33  51  68  92 126 159 201 256 291
#     4  10  19  31  47  69 100 135 163 192 233 280
#
# _framework density 16.006674
#
# number of rings (size 3 to 8) (size 9 to 14) (size 15 to 20)
#    0.000    2.500    2.500    0.750    0.000    4.500 
#    0.000    3.125    0.000    2.250    0.000    0.000 
#    0.000   20.000    0.000    0.000    0.000    0.000 
#
# Total GULP energy -396704.428213 kJ/mol
# GULP energy per Si atom -12397.013382 kJ/mol
# Density = 1.597024 g / cm^3
# Si number density = 16.006674 Si / 1000 Ang^3
#
#
#
# Elastic Constant Matrix: (Units=GPa)
#
#
# Indices 1 2 3 4 5 6 
#
# 1 129.9366 45.2085 35.9900 0.0000 2.9194 0.0000
# 2 45.2085 77.8605 39.8485 0.0000 0.8746 0.0000
# 3 35.9900 39.8485 59.9280 0.0000 2.7295 0.0000
# 4 0.0000 0.0000 0.0000 3.5172 0.0000 1.8612
# 5 2.9194 0.8746 2.7295 0.0000 20.4890 0.0000
# 6 0.0000 0.0000 0.0000 1.8612 0.0000 23.4409
#
#
#
# Elastic Compliance Matrix: (Units=1/GPa)
#
#
# Indices 1 2 3 4 5 6 
#
# 1 0.010063 -0.004184 -0.003224 0.000000 -0.000826 0.000000
# 2 -0.004184 0.021225 -0.011657 0.000000 0.001243 0.000000
# 3 -0.003224 -0.011657 0.026491 0.000000 -0.002572 0.000000
# 4 0.000000 0.000000 0.000000 0.296787 0.000000 -0.023564
# 5 -0.000826 0.001243 -0.002572 0.000000 0.049214 0.000000
# 6 0.000000 0.000000 0.000000 -0.023564 0.000000 0.044531
#
#
# Mechanical properties :
#
#
# Convention : Reuss Voigt Hill
#
# Bulk Modulus (GPa) = 50.89198 56.64658 53.76928
# Shear Modulus (GPa) = 10.14215 19.26797 14.70506
#
# Velocity S-wave (km/s) = 2.51991 3.47327 3.03427
# Velocity P-wave (km/s) = 6.35058 7.17990 6.77794
#
# Compressibility (1/GPa) = 0.01964946
#
# Stress axis : x y z
#
# Youngs Moduli (GPa) = 99.37156 47.11438 37.74814
#
# Poissons Ratio (x) = 0.19712 0.12170
# Poissons Ratio (y) = 0.41575 0.44004
# Poissons Ratio (z) = 0.32037 0.54923
#
# Static dielectric constant tensor:
#      x y z
#    x 3.265440 0.000000 0.045330 
#    y 0.000000 2.872370 0.000000 
#    z 0.045330 0.000000 2.827530 
# 
# 
# High freq. dielectric constant tensor:
#      x y z
#    x 1.628610 0.000000 0.003550 
#    y 0.000000 1.588470 0.000000 
#    z 0.003550 0.000000 1.585580 
# 
# From -- ./inp_files/61889.got.cif
#   From: 2010.06.25/outbox.cif.g09.slc.cpg/sg10_31_cif.got.tgz:61889.got - 2010.06.27 22:07:45.
