data_PCOD8059390
_publ_section_title
;
Structure prediction by ZEFSAII (Michael W. Deem and Ramdas Pophale) SiO2 
 PCOD8059390
Probable space group: P 2/M
;
_chemical_formula_sum "Si O2"
_cell_formula_units_Z 32
_cell_length_a 21.346453
_cell_length_b 9.301313
_cell_length_c 11.722194
_cell_angle_alpha 90.000000
_cell_angle_beta 53.594652
_cell_angle_gamma 90.000000
_cell_volume 1873.214783
_symmetry_space_group_name_H-M "P 2/M"
_symmetry_group_IT_number 10
_symmetry_cell_setting 'monoclinic'
loop_
_space_group_symop_operation_xyz
x,y,z
-x,y,-z
-x,-y,-z
x,-y,z
loop_
_atom_site_type_symbol
_atom_site_label
_atom_site_fract_x
_atom_site_fract_y
_atom_site_fract_z
Si Si1 0.670486 0.340203 0.762698
Si Si2 0.175766 0.659443 0.553485
Si Si3 0.084488 0.671364 0.438677
Si Si4 0.770345 0.329041 0.856935
Si Si5 0.589741 0.167644 0.668146
Si Si6 0.530142 0.666613 0.344619
Si Si7 0.288809 0.332421 0.837861
Si Si8 0.741642 0.167647 0.356022
O O1 0.633346 0.500000 0.814020
O O2 0.746514 0.350381 0.603482
O O3 0.697630 0.277595 0.856379
O O4 0.608420 0.233520 0.772237
O O5 0.155411 0.500000 0.622804
O O6 0.107519 0.716874 0.543128
O O7 0.187459 0.767776 0.646129
O O8 0.083435 0.500000 0.432268
O O9 0.147647 0.732382 0.279410
O O10 0.000000 0.736705 0.500000
O O11 0.770983 0.500000 0.848149
O O12 0.757910 0.278970 0.000052
O O13 0.511625 0.240692 0.707033
O O14 0.659241 0.200177 0.504611
O O15 0.575105 0.000000 0.699451
O O16 0.500000 0.718123 0.500000
O O17 0.509582 0.500000 0.346692
O O18 0.620975 0.698068 0.237655
O O19 0.274829 0.500000 0.826534
O O20 0.256433 0.241107 0.768683
O O21 0.756776 0.000000 0.325048
#
# Coordination Sequence:
#
# PCOD8059390 Si02
#       8
#     4   4   4   4   4   4   4   4
#     4   8  14  27  46  64  86 115 148 184 221 266
#     4   8  14  25  44  69  93 117 146 180 218 262
#     4   8  13  24  47  78 103 117 137 179 229 268
#     4   8  15  28  46  69  93 119 149 181 221 270
#     4  10  19  29  44  65  88 114 149 194 236 269
#     4  10  19  30  44  63  86 116 155 194 230 267
#     4  10  19  31  47  65  89 120 154 189 225 269
#     4  10  19  29  43  65  91 119 153 191 228 263
#
# _framework density 17.082932
#
# number of rings (size 3 to 8) (size 9 to 14) (size 15 to 20)
#    0.000    3.000    1.250    2.250    0.000    1.750 
#    0.000    1.250    0.000    5.625    0.000    5.250 
#    0.000    0.000    0.000    0.000    0.000    0.000 
#
# Total GULP energy -396667.569435 kJ/mol
# GULP energy per Si atom -12395.861545 kJ/mol
# Density = 1.704405 g / cm^3
# Si number density = 17.082932 Si / 1000 Ang^3
#
#
#
# Elastic Constant Matrix: (Units=GPa)
#
#
# Indices 1 2 3 4 5 6 
#
# 1 134.2233 57.6367 51.8969 0.0000 20.2829 0.0000
# 2 57.6367 64.2543 35.3115 0.0000 15.0929 0.0000
# 3 51.8969 35.3115 79.5798 0.0000 16.8898 0.0000
# 4 0.0000 0.0000 0.0000 8.1894 0.0000 -1.2970
# 5 20.2829 15.0929 16.8898 0.0000 23.9480 0.0000
# 6 0.0000 0.0000 0.0000 -1.2970 0.0000 3.7694
#
#
#
# Elastic Compliance Matrix: (Units=1/GPa)
#
#
# Indices 1 2 3 4 5 6 
#
# 1 0.013342 -0.009084 -0.004100 0.000000 -0.002683 0.000000
# 2 -0.009084 0.028043 -0.005176 0.000000 -0.006329 0.000000
# 3 -0.004100 -0.005176 0.018943 0.000000 -0.006625 0.000000
# 4 0.000000 0.000000 0.000000 0.129146 0.000000 0.044437
# 5 -0.002683 -0.006329 -0.006625 0.000000 0.052691 0.000000
# 6 0.000000 0.000000 0.000000 0.044437 0.000000 0.280585
#
#
# Mechanical properties :
#
#
# Convention : Reuss Voigt Hill
#
# Bulk Modulus (GPa) = 42.36108 63.08306 52.72207
# Shear Modulus (GPa) = 8.81306 16.06219 12.43762
#
# Velocity S-wave (km/s) = 2.27380 3.06967 2.70121
# Velocity P-wave (km/s) = 5.63425 7.04071 6.37637
#
# Compressibility (1/GPa) = 0.02360658
#
# Stress axis : x y z
#
# Youngs Moduli (GPa) = 74.95145 35.65959 52.79059
#
# Poissons Ratio (x) = 0.32394 0.21647
# Poissons Ratio (y) = 0.68088 0.27324
# Poissons Ratio (z) = 0.30734 0.18457
#
# Static dielectric constant tensor:
#      x y z
#    x 3.402820 0.000000 0.188320 
#    y 0.000000 2.969160 0.000000 
#    z 0.188320 0.000000 3.134960 
# 
# 
# High freq. dielectric constant tensor:
#      x y z
#    x 1.660130 0.000000 0.022200 
#    y 0.000000 1.629930 0.000000 
#    z 0.022200 0.000000 1.628730 
# 
# From -- ./inp_files/52707.got.cif
#   From: 2010.06.25/outbox.cif.g09.slc.cpg/sg10_27_cif.got.tgz:52707.got - 2010.06.27 22:07:45.
