data_PCOD8059718
_publ_section_title
;
Structure prediction by ZEFSAII (Michael W. Deem and Ramdas Pophale) SiO2 
 PCOD8059718
Probable space group: P 2/M
;
_chemical_formula_sum "Si O2"
_cell_formula_units_Z 28
_cell_length_a 11.163553
_cell_length_b 9.266264
_cell_length_c 14.129057
_cell_angle_alpha 90.000000
_cell_angle_beta 102.357651
_cell_angle_gamma 90.000000
_cell_volume 1427.708674
_symmetry_space_group_name_H-M "P 2/M"
_symmetry_group_IT_number 10
_symmetry_cell_setting 'monoclinic'
loop_
_space_group_symop_operation_xyz
x,y,z
-x,y,-z
-x,-y,-z
x,-y,z
loop_
_atom_site_type_symbol
_atom_site_label
_atom_site_fract_x
_atom_site_fract_y
_atom_site_fract_z
Si Si1 0.459002 0.334045 0.787874
Si Si2 0.033273 0.331263 0.721488
Si Si3 0.365125 0.157590 0.936351
Si Si4 0.250203 0.336318 0.615932
Si Si5 0.113608 0.837100 0.448597
Si Si6 0.969798 0.832317 0.889385
Si Si7 0.697115 0.166957 0.873518
O O1 0.481607 0.500000 0.816810
O O2 0.366628 0.271137 0.851574
O O3 0.389288 0.315518 0.676034
O O4 0.590319 0.256808 0.804037
O O5 0.005191 0.500000 0.726990
O O6 0.157820 0.300199 0.686073
O O7 0.918531 0.255722 0.649350
O O8 0.048149 0.259961 0.827597
O O9 0.319844 0.000000 0.891884
O O10 0.500000 0.142671 0.000000
O O11 0.283527 0.210521 0.012052
O O12 0.226936 0.500000 0.578217
O O13 0.229423 0.232736 0.522601
O O14 0.000000 0.834092 0.500000
O O15 0.146848 0.000000 0.423560
O O16 0.825627 0.805973 0.843269
O O17 0.005291 0.000000 0.884093
O O18 0.000000 0.778677 0.000000
O O19 0.657160 0.000000 0.862081
#
# Coordination Sequence:
#
# PCOD8059718 Si02
#       7
#     4   4   4   4   4   4   4
#     4  10  19  30  48  75 103 133 168 209 257 307
#     4  10  20  35  54  76 107 142 171 208 261 311
#     4   8  15  28  45  65  92 128 167 206 252 301
#     4   9  19  33  50  78 112 138 165 208 262 313
#     4   9  17  31  53  80 105 133 172 212 254 307
#     4  10  22  38  55  75 101 137 181 223 255 295
#     4   9  19  35  50  68  98 135 173 214 260 303
#
# _framework density 19.611844999999999
#
# number of rings (size 3 to 8) (size 9 to 14) (size 15 to 20)
#    0.000    2.714    0.000    2.143    2.000    6.857 
#    0.000    0.000    0.000    0.857    0.000    6.000 
#    0.000    0.000    0.000    0.000    0.000    0.000 
#
# Total GULP energy -347120.798544 kJ/mol
# GULP energy per Si atom -12397.171377 kJ/mol
# Density = 1.956721 g / cm^3
# Si number density = 19.611845 Si / 1000 Ang^3
#
#
#
# Elastic Constant Matrix: (Units=GPa)
#
#
# Indices 1 2 3 4 5 6 
#
# 1 35.6922 21.2800 8.9527 0.0000 7.5839 0.0000
# 2 21.2800 107.2160 50.3438 0.0000 11.3475 0.0000
# 3 8.9527 50.3438 88.6868 0.0000 12.2336 0.0000
# 4 0.0000 0.0000 0.0000 35.6160 0.0000 1.0871
# 5 7.5839 11.3475 12.2336 0.0000 24.1110 0.0000
# 6 0.0000 0.0000 0.0000 1.0871 0.0000 18.6285
#
#
#
# Elastic Compliance Matrix: (Units=1/GPa)
#
#
# Indices 1 2 3 4 5 6 
#
# 1 0.033204 -0.006383 0.001396 0.000000 -0.008148 0.000000
# 2 -0.006383 0.014085 -0.007219 0.000000 -0.000958 0.000000
# 3 0.001396 -0.007219 0.015940 0.000000 -0.005129 0.000000
# 4 0.000000 0.000000 0.000000 0.028127 0.000000 -0.001641
# 5 -0.008148 -0.000958 -0.005129 0.000000 0.047091 0.000000
# 6 0.000000 0.000000 0.000000 -0.001641 0.000000 0.053777
#
#
# Mechanical properties :
#
#
# Convention : Reuss Voigt Hill
#
# Bulk Modulus (GPa) = 25.76229 43.63865 34.70047
# Shear Modulus (GPa) = 21.77916 25.73900 23.75908
#
# Velocity S-wave (km/s) = 3.33605 3.62667 3.48439
# Velocity P-wave (km/s) = 5.29184 6.31161 5.82409
#
# Compressibility (1/GPa) = 0.03881642
#
# Stress axis : x y z
#
# Youngs Moduli (GPa) = 30.11648 70.99753 62.73458
#
# Poissons Ratio (x) = 0.45320 -0.08755
# Poissons Ratio (y) = 0.19224 0.45287
# Poissons Ratio (z) = -0.04203 0.51252
#
# Static dielectric constant tensor:
#      x y z
#    x 3.512720 0.000000 -0.079280 
#    y 0.000000 3.573690 0.000000 
#    z -0.079280 0.000000 3.606110 
# 
# 
# High freq. dielectric constant tensor:
#      x y z
#    x 1.737410 0.000000 0.015270 
#    y 0.000000 1.762050 0.000000 
#    z 0.015270 0.000000 1.752870 
# 
# From -- ./inp_files/63479.got.cif
#   From: 2010.06.25/outbox.cif.g09.slc.cpg/sg10_32_cif.got.tgz:63479.got - 2010.06.27 22:07:45.
