data_PCOD8059437
_publ_section_title
;
Structure prediction by ZEFSAII (Michael W. Deem and Ramdas Pophale) SiO2 
 PCOD8059437
Probable space group: P 2/M
;
_chemical_formula_sum "Si O2"
_cell_formula_units_Z 32
_cell_length_a 12.680812
_cell_length_b 9.251069
_cell_length_c 16.560028
_cell_angle_alpha 90.000000
_cell_angle_beta 104.671313
_cell_angle_gamma 90.000000
_cell_volume 1879.333033
_symmetry_space_group_name_H-M "P 2/M"
_symmetry_group_IT_number 10
_symmetry_cell_setting 'monoclinic'
loop_
_space_group_symop_operation_xyz
x,y,z
-x,y,-z
-x,-y,-z
x,-y,z
loop_
_atom_site_type_symbol
_atom_site_label
_atom_site_fract_x
_atom_site_fract_y
_atom_site_fract_z
Si Si1 0.658832 0.171142 0.680826
Si Si2 0.906832 0.670906 0.159394
Si Si3 0.867211 0.172105 0.820844
Si Si4 0.871288 0.658375 0.977054
Si Si5 0.306229 0.169768 0.490684
Si Si6 0.877896 0.332891 0.467777
Si Si7 0.424959 0.169947 0.676345
Si Si8 0.239114 0.332574 0.720417
O O1 0.769460 0.226551 0.744124
O O2 0.649220 0.226450 0.586621
O O3 0.550635 0.222322 0.708328
O O4 0.659265 0.000000 0.680690
O O5 0.932779 0.500000 0.171250
O O6 0.843381 0.707032 0.063303
O O7 0.825415 0.723930 0.213652
O O8 0.021200 0.755607 0.188304
O O9 0.881140 0.000000 0.823906
O O10 0.833299 0.223750 0.904396
O O11 0.819746 0.500000 0.947627
O O12 0.000000 0.643119 0.000000
O O13 0.189930 0.243198 0.480765
O O14 0.387430 0.214099 0.578583
O O15 0.287492 0.000000 0.485148
O O16 0.866884 0.500000 0.488495
O O17 0.839292 0.301335 0.369800
O O18 0.000000 0.277078 0.500000
O O19 0.352991 0.248418 0.730713
O O20 0.411766 0.000000 0.687628
O O21 0.268636 0.500000 0.734980
#
# Coordination Sequence:
#
# PCOD8059437 Si02
#       8
#     4   4   4   4   4   4   4   4
#     4   9  18  31  47  69  96 122 151 194 236 270
#     4   9  18  32  50  69  93 125 154 184 224 276
#     4  10  19  29  45  72 100 121 146 186 234 276
#     4   8  15  30  48  66  91 122 153 183 223 275
#     4   9  17  30  48  67  86 119 162 194 223 264
#     4   9  18  30  43  63  94 126 149 181 231 276
#     4   9  17  32  51  67  88 122 161 194 229 269
#     4   9  18  32  48  67  92 120 154 192 228 268
#
# _framework density 17.027315999999999
#
# number of rings (size 3 to 8) (size 9 to 14) (size 15 to 20)
#    0.000    3.000    0.000    1.500    1.750    4.500 
#    0.000    2.500    0.000    3.750    0.000    5.250 
#    0.000    0.000    0.000    0.000    0.000    0.000 
#
# Total GULP energy -396633.260054 kJ/mol
# GULP energy per Si atom -12394.789377 kJ/mol
# Density = 1.698856 g / cm^3
# Si number density = 17.027316 Si / 1000 Ang^3
#
#
#
# Elastic Constant Matrix: (Units=GPa)
#
#
# Indices 1 2 3 4 5 6 
#
# 1 114.0015 37.7766 59.0455 0.0000 -18.6678 0.0000
# 2 37.7766 41.5521 31.2754 0.0000 -4.3127 0.0000
# 3 59.0455 31.2754 91.6884 0.0000 -20.3570 0.0000
# 4 0.0000 0.0000 0.0000 22.2340 0.0000 -6.1886
# 5 -18.6678 -4.3127 -20.3570 0.0000 22.8762 0.0000
# 6 0.0000 0.0000 0.0000 -6.1886 0.0000 -8.4771
#
#
#
# Elastic Compliance Matrix: (Units=1/GPa)
#
#
# Indices 1 2 3 4 5 6 
#
# 1 0.015834 -0.009567 -0.005564 0.000000 0.006166 0.000000
# 2 -0.009567 0.038560 -0.008862 0.000000 -0.008424 0.000000
# 3 -0.005564 -0.008862 0.020106 0.000000 0.011681 0.000000
# 4 0.000000 0.000000 0.000000 0.037380 0.000000 -0.027289
# 5 0.006166 -0.008424 0.011681 0.000000 0.057551 0.000000
# 6 0.000000 0.000000 0.000000 -0.027289 0.000000 -0.098043
#
#
# Mechanical properties :
#
#
# Convention : Reuss Voigt Hill
#
# Bulk Modulus (GPa) = 37.71794 55.93746 46.82770
# Shear Modulus (GPa) = 38.99755 15.26958 27.13357
#
# Velocity S-wave (km/s) = 4.79089 2.99786 3.99624
# Velocity P-wave (km/s) = 7.26657 6.70118 6.98959
#
# Compressibility (1/GPa) = 0.02651258
#
# Stress axis : x y z
#
# Youngs Moduli (GPa) = 63.15712 25.93365 49.73589
#
# Poissons Ratio (x) = 0.24810 0.27674
# Poissons Ratio (y) = 0.60421 0.44078
# Poissons Ratio (z) = 0.35142 0.22984
#
# Static dielectric constant tensor:
#      x y z
#    x 3.240670 0.000000 -0.124340 
#    y 0.000000 3.050230 0.000000 
#    z -0.124340 0.000000 3.516920 
# 
# 
# High freq. dielectric constant tensor:
#      x y z
#    x 1.644010 0.000000 -0.009830 
#    y 0.000000 1.641570 0.000000 
#    z -0.009830 0.000000 1.651260 
# 
# From -- ./inp_files/75970.got.cif
#   From: 2010.06.25/outbox.cif.g09.slc.cpg/sg10_38_cif.got.tgz:75970.got - 2010.06.27 22:07:45.
