data_PCOD8059135
_publ_section_title
;
Structure prediction by ZEFSAII (Michael W. Deem and Ramdas Pophale) SiO2 
 PCOD8059135
Probable space group: P 2/M
;
_chemical_formula_sum "Si O2"
_cell_formula_units_Z 32
_cell_length_a 12.289919
_cell_length_b 9.124988
_cell_length_c 23.565916
_cell_angle_alpha 90.000000
_cell_angle_beta 133.421779
_cell_angle_gamma 90.000000
_cell_volume 1919.507141
_symmetry_space_group_name_H-M "P 2/M"
_symmetry_group_IT_number 10
_symmetry_cell_setting 'monoclinic'
loop_
_space_group_symop_operation_xyz
x,y,z
-x,y,-z
-x,-y,-z
x,-y,z
loop_
_atom_site_type_symbol
_atom_site_label
_atom_site_fract_x
_atom_site_fract_y
_atom_site_fract_z
Si Si1 0.810931 0.173724 0.575318
Si Si2 0.214431 0.330185 0.319984
Si Si3 0.621968 0.672502 0.315932
Si Si4 0.558344 0.671966 0.418385
Si Si5 0.128459 0.165547 0.999225
Si Si6 0.077158 0.330912 0.151854
Si Si7 0.329055 0.328731 0.151613
Si Si8 0.042948 0.331320 0.580298
O O1 0.844773 0.228542 0.650840
O O2 0.654021 0.242709 0.499456
O O3 0.946066 0.224629 0.583912
O O4 0.799808 0.000000 0.570015
O O5 0.196364 0.500000 0.330359
O O6 0.385740 0.294351 0.367259
O O7 0.113191 0.290890 0.229461
O O8 0.599280 0.500000 0.313941
O O9 0.603168 0.735674 0.372724
O O10 0.493636 0.731984 0.227562
O O11 0.783636 0.712837 0.348606
O O12 0.595392 0.500000 0.437213
O O13 0.068052 0.239920 0.920063
O O14 0.172592 0.000000 0.000965
O O15 0.275827 0.246667 0.075641
O O16 0.000000 0.177394 0.000000
O O17 0.035806 0.500000 0.129763
O O18 0.222051 0.292490 0.166216
O O19 0.330566 0.500000 0.138167
O O20 0.013698 0.500000 0.587294
O O21 0.000000 0.306966 0.500000
#
# Coordination Sequence:
#
# PCOD8059135 Si02
#       8
#     4   4   4   4   4   4   4   4
#     4  12  25  36  47  69 103 136 168 205 248 298
#     4  10  20  34  54  75  97 129 171 211 246 292
#     4   9  16  29  53  79  96 120 162 211 254 288
#     4  10  18  34  55  74  96 127 169 210 248 291
#     4   9  17  27  40  64 100 137 164 186 227 290
#     4   9  16  28  48  72  96 125 161 201 241 283
#     4   9  15  27  47  72  99 123 157 202 245 286
#     4  10  19  35  58  74  91 124 169 214 253 293
#
# _framework density 16.670946000000001
#
# number of rings (size 3 to 8) (size 9 to 14) (size 15 to 20)
#    0.000    2.250    2.500    1.875    0.000    4.250 
#    0.000    1.250    0.000    0.000    0.000    0.875 
#    0.000    7.000    0.000    0.000    0.000    0.000 
#
# Total GULP energy -396814.348416 kJ/mol
# GULP energy per Si atom -12400.448388 kJ/mol
# Density = 1.663300 g / cm^3
# Si number density = 16.670946 Si / 1000 Ang^3
#
#
#
# Elastic Constant Matrix: (Units=GPa)
#
#
# Indices 1 2 3 4 5 6 
#
# 1 50.6496 32.7679 34.5315 0.0000 -4.2773 0.0000
# 2 32.7679 78.0707 55.1294 0.0000 -2.6990 0.0000
# 3 34.5315 55.1294 135.8331 0.0000 5.6972 0.0000
# 4 0.0000 0.0000 0.0000 7.9193 0.0000 -2.4000
# 5 -4.2773 -2.6990 5.6972 0.0000 19.2458 0.0000
# 6 0.0000 0.0000 0.0000 -2.4000 0.0000 12.7592
#
#
#
# Elastic Compliance Matrix: (Units=1/GPa)
#
#
# Indices 1 2 3 4 5 6 
#
# 1 0.028837 -0.009145 -0.003883 0.000000 0.006276 0.000000
# 2 -0.009145 0.021291 -0.006436 0.000000 0.002859 0.000000
# 3 -0.003883 -0.006436 0.011174 0.000000 -0.005073 0.000000
# 4 0.000000 0.000000 0.000000 0.133908 0.000000 0.025188
# 5 0.006276 0.002859 -0.005073 0.000000 0.055257 0.000000
# 6 0.000000 0.000000 0.000000 0.025188 0.000000 0.083113
#
#
# Mechanical properties :
#
#
# Convention : Reuss Voigt Hill
#
# Bulk Modulus (GPa) = 44.69385 56.60123 50.64754
# Shear Modulus (GPa) = 13.15914 17.45983 15.30949
#
# Velocity S-wave (km/s) = 2.81258 3.23975 3.03369
# Velocity P-wave (km/s) = 6.11679 6.92967 6.53588
#
# Compressibility (1/GPa) = 0.02237444
#
# Stress axis : x y z
#
# Youngs Moduli (GPa) = 34.67806 46.96834 89.49301
#
# Poissons Ratio (x) = 0.42951 0.34747
# Poissons Ratio (y) = 0.31712 0.57601
# Poissons Ratio (z) = 0.13464 0.30230
#
# Static dielectric constant tensor:
#      x y z
#    x 2.898520 0.000000 0.070290 
#    y 0.000000 2.965420 0.000000 
#    z 0.070290 0.000000 3.363740 
# 
# 
# High freq. dielectric constant tensor:
#      x y z
#    x 1.606500 0.000000 0.005410 
#    y 0.000000 1.623750 0.000000 
#    z 0.005410 0.000000 1.652330 
# 
# From -- ./inp_files/54793.got.cif
#   From: 2010.06.25/outbox.cif.g09.slc.cpg/sg10_28_cif.got.tgz:54793.got - 2010.06.27 22:07:45.
