data_PCOD8059089
_publ_section_title
;
Structure prediction by ZEFSAII (Michael W. Deem and Ramdas Pophale) SiO2 
 PCOD8059089
Probable space group: P 2/M
;
_chemical_formula_sum "Si O2"
_cell_formula_units_Z 32
_cell_length_a 20.899464
_cell_length_b 8.788555
_cell_length_c 12.213848
_cell_angle_alpha 90.000000
_cell_angle_beta 128.592144
_cell_angle_gamma 90.000000
_cell_volume 1753.448531
_symmetry_space_group_name_H-M "P 2/M"
_symmetry_group_IT_number 10
_symmetry_cell_setting 'monoclinic'
loop_
_space_group_symop_operation_xyz
x,y,z
-x,y,-z
-x,-y,-z
x,-y,z
loop_
_atom_site_type_symbol
_atom_site_label
_atom_site_fract_x
_atom_site_fract_y
_atom_site_fract_z
Si Si1 0.028440 0.178544 0.908536
Si Si2 0.291394 0.321479 0.938275
Si Si3 0.752729 0.674728 0.344817
Si Si4 0.379088 0.176834 0.648538
Si Si5 0.204946 0.680482 0.062753
Si Si6 0.124562 0.323477 0.340911
Si Si7 0.527706 0.680334 0.910764
Si Si8 0.257703 0.178522 0.331657
O O1 0.967598 0.260576 0.757850
O O2 0.026648 0.000000 0.885154
O O3 0.118149 0.240652 0.983950
O O4 0.000000 0.221085 0.000000
O O5 0.299467 0.500000 0.963925
O O6 0.237777 0.282739 0.772853
O O7 0.245599 0.254142 0.995077
O O8 0.382754 0.252949 0.022775
O O9 0.723510 0.500000 0.326454
O O10 0.681996 0.777806 0.319702
O O11 0.838880 0.701515 0.498178
O O12 0.464587 0.264811 0.750422
O O13 0.338248 0.218365 0.488269
O O14 0.397184 0.000000 0.676932
O O15 0.193689 0.500000 0.048920
O O16 0.264242 0.729786 0.225396
O O17 0.126748 0.500000 0.309602
O O18 0.176437 0.228900 0.308644
O O19 0.529381 0.500000 0.914345
O O20 0.500000 0.743284 0.000000
O O21 0.249886 0.000000 0.299612
#
# Coordination Sequence:
#
# PCOD8059089 Si02
#       8
#     4   4   4   4   4   4   4   4
#     4  11  22  36  55  78 110 145 176 217 270 322
#     4   9  19  36  56  81 110 141 176 220 271 317
#     4   9  17  34  56  79 109 142 176 216 270 321
#     4  10  20  32  51  81 112 139 177 225 266 311
#     4  11  22  36  57  81 107 139 182 226 261 315
#     4  10  19  31  56  86 106 133 179 228 264 308
#     4  10  18  33  58  81 107 142 180 221 268 317
#     4  10  20  35  52  75 111 147 175 215 273 322
#
# _framework density 18.249752999999998
#
# number of rings (size 3 to 8) (size 9 to 14) (size 15 to 20)
#    0.000    2.000    2.500    1.875    0.000    2.750 
#    0.000    3.750    0.000    7.500    0.000    0.000 
#    0.000    0.000    0.000    0.000    0.000    0.000 
#
# Total GULP energy -396819.921177 kJ/mol
# GULP energy per Si atom -12400.622537 kJ/mol
# Density = 1.820822 g / cm^3
# Si number density = 18.249753 Si / 1000 Ang^3
#
#
#
# Elastic Constant Matrix: (Units=GPa)
#
#
# Indices 1 2 3 4 5 6 
#
# 1 112.5722 24.5822 64.7417 0.0000 -5.2226 0.0000
# 2 24.5822 29.4190 27.1817 0.0000 3.1172 0.0000
# 3 64.7417 27.1817 137.6273 0.0000 0.3116 0.0000
# 4 0.0000 0.0000 0.0000 28.2666 0.0000 5.9766
# 5 -5.2226 3.1172 0.3116 0.0000 29.9202 0.0000
# 6 0.0000 0.0000 0.0000 5.9766 0.0000 10.5226
#
#
#
# Elastic Compliance Matrix: (Units=1/GPa)
#
#
# Indices 1 2 3 4 5 6 
#
# 1 0.013381 -0.006958 -0.004927 0.000000 0.003112 0.000000
# 2 -0.006958 0.045744 -0.005748 0.000000 -0.005920 0.000000
# 3 -0.004927 -0.005748 0.010720 0.000000 -0.000373 0.000000
# 4 0.000000 0.000000 0.000000 0.040206 0.000000 -0.022836
# 5 0.003112 -0.005920 -0.000373 0.000000 0.034586 0.000000
# 6 0.000000 0.000000 0.000000 -0.022836 0.000000 0.108004
#
#
# Mechanical properties :
#
#
# Convention : Reuss Voigt Hill
#
# Bulk Modulus (GPa) = 28.92010 56.95884 42.93947
# Shear Modulus (GPa) = 16.69825 24.61608 20.65717
#
# Velocity S-wave (km/s) = 3.02815 3.67665 3.36804
# Velocity P-wave (km/s) = 5.30165 7.02155 6.22132
#
# Compressibility (1/GPa) = 0.03457803
#
# Stress axis : x y z
#
# Youngs Moduli (GPa) = 74.73458 21.86088 93.28394
#
# Poissons Ratio (x) = 0.15211 0.45964
# Poissons Ratio (y) = 0.52000 0.53620
# Poissons Ratio (z) = 0.36824 0.12566
#
# Static dielectric constant tensor:
#      x y z
#    x 3.264640 0.000000 -0.022480 
#    y 0.000000 3.272060 0.000000 
#    z -0.022480 0.000000 3.707570 
# 
# 
# High freq. dielectric constant tensor:
#      x y z
#    x 1.675300 0.000000 0.006740 
#    y 0.000000 1.701630 0.000000 
#    z 0.006740 0.000000 1.725180 
# 
# From -- ./inp_files/55195.got.cif
#   From: 2010.06.25/outbox.cif.g09.slc.cpg/sg10_28_cif.got.tgz:55195.got - 2010.06.27 22:07:45.
