data_PCOD8059590
_publ_section_title
;
Structure prediction by ZEFSAII (Michael W. Deem and Ramdas Pophale) SiO2 
 PCOD8059590
Probable space group: P 2/M
;
_chemical_formula_sum "Si O2"
_cell_formula_units_Z 32
_cell_length_a 25.290003
_cell_length_b 10.122961
_cell_length_c 13.554088
_cell_angle_alpha 90.000000
_cell_angle_beta 33.811573
_cell_angle_gamma 90.000000
_cell_volume 1930.916044
_symmetry_space_group_name_H-M "P 2/M"
_symmetry_group_IT_number 10
_symmetry_cell_setting 'monoclinic'
loop_
_space_group_symop_operation_xyz
x,y,z
-x,y,-z
-x,-y,-z
x,-y,z
loop_
_atom_site_type_symbol
_atom_site_label
_atom_site_fract_x
_atom_site_fract_y
_atom_site_fract_z
Si Si1 0.118848 0.156513 0.212005
Si Si2 0.353189 0.156674 0.382702
Si Si3 0.463199 0.257945 0.659774
Si Si4 0.274758 0.157200 0.294304
Si Si5 0.341862 0.353914 0.565823
Si Si6 0.562580 0.149619 0.094790
Si Si7 0.732216 0.353846 0.108417
Si Si8 0.909556 0.156019 0.520793
O O1 0.200784 0.237319 0.031978
O O2 0.118880 0.200970 0.325561
O O3 0.016268 0.199845 0.325643
O O4 0.138450 0.000000 0.168496
O O5 0.301748 0.200845 0.362447
O O6 0.308271 0.240661 0.541683
O O7 0.463005 0.202746 0.206127
O O8 0.343005 0.000000 0.420707
O O9 0.500000 0.188275 0.500000
O O10 0.547864 0.345662 0.572773
O O11 0.432096 0.156525 0.794190
O O12 0.372214 0.347227 0.777899
O O13 0.169408 0.213044 0.432418
O O14 0.273493 0.000000 0.288772
O O15 0.349520 0.219218 0.098783
O O16 0.327347 0.500000 0.542182
O O17 0.274425 0.334955 0.764222
O O18 0.569451 0.000000 0.051641
O O19 0.772914 0.500000 0.020167
O O20 0.909113 0.000000 0.521681
#
# Coordination Sequence:
#
# PCOD8059590 Si02
#       8
#     4   4   4   4   4   4   4   4
#     4   9  17  30  48  69  92 116 145 182 220 260
#     4   9  17  28  44  67  91 115 148 187 219 252
#     4   9  17  28  43  63  88 121 155 179 205 256
#     4   9  15  25  44  66  89 119 150 179 217 264
#     4   9  18  32  47  62  87 122 151 177 216 265
#     4   9  16  25  40  66  96 120 145 181 222 257
#     4  10  19  30  46  67  89 116 149 181 219 267
#     4   8  15  28  46  68  92 119 148 176 215 267
#
# _framework density 16.572445999999999
#
# number of rings (size 3 to 8) (size 9 to 14) (size 15 to 20)
#    0.000    3.000    0.000    2.250    0.000    5.250 
#    0.000    3.750    0.000   10.500    0.000    5.250 
#    0.000    0.000    0.000    0.000    0.000    0.000 
#
# Total GULP energy -396435.993944 kJ/mol
# GULP energy per Si atom -12388.624811 kJ/mol
# Density = 1.653473 g / cm^3
# Si number density = 16.572446 Si / 1000 Ang^3
#
#
#
# Elastic Constant Matrix: (Units=GPa)
#
#
# Indices 1 2 3 4 5 6 
#
# 1 120.4950 28.7229 47.5299 0.0000 2.5867 0.0000
# 2 28.7229 52.7044 39.6387 0.0000 3.1834 0.0000
# 3 47.5299 39.6387 84.0091 0.0000 2.5936 0.0000
# 4 0.0000 0.0000 0.0000 12.4248 0.0000 -1.5252
# 5 2.5867 3.1834 2.5936 0.0000 18.2102 0.0000
# 6 0.0000 0.0000 0.0000 -1.5252 0.0000 8.9902
#
#
#
# Elastic Compliance Matrix: (Units=1/GPa)
#
#
# Indices 1 2 3 4 5 6 
#
# 1 0.010822 -0.001978 -0.005175 0.000000 -0.000454 0.000000
# 2 -0.001978 0.029956 -0.012919 0.000000 -0.003116 0.000000
# 3 -0.005175 -0.012919 0.020927 0.000000 0.000013 0.000000
# 4 0.000000 0.000000 0.000000 0.082196 0.000000 0.013944
# 5 -0.000454 -0.003116 0.000013 0.000000 0.055522 0.000000
# 6 0.000000 0.000000 0.000000 0.013944 0.000000 0.113598
#
#
# Mechanical properties :
#
#
# Convention : Reuss Voigt Hill
#
# Bulk Modulus (GPa) = 46.38225 54.33239 50.35732
# Shear Modulus (GPa) = 13.87530 17.34618 15.61074
#
# Velocity S-wave (km/s) = 2.89667 3.23877 3.07248
# Velocity P-wave (km/s) = 6.26386 6.84413 6.56041
#
# Compressibility (1/GPa) = 0.02155997
#
# Stress axis : x y z
#
# Youngs Moduli (GPa) = 92.40628 33.38189 47.78522
#
# Poissons Ratio (x) = 0.06602 0.24731
# Poissons Ratio (y) = 0.18276 0.61735
# Poissons Ratio (z) = 0.47824 0.43127
#
# Static dielectric constant tensor:
#      x y z
#    x 3.369970 0.000000 -0.083200 
#    y 0.000000 2.763210 0.000000 
#    z -0.083200 0.000000 3.206150 
# 
# 
# High freq. dielectric constant tensor:
#      x y z
#    x 1.634030 0.000000 0.001010 
#    y 0.000000 1.597730 0.000000 
#    z 0.001010 0.000000 1.630330 
# 
# From -- ./inp_files/56937.got.cif
#   From: 2010.06.25/outbox.cif.g09.slc.cpg/sg10_29_cif.got.tgz:56937.got - 2010.06.27 22:07:45.
