data_PCOD8059081
_publ_section_title
;
Structure prediction by ZEFSAII (Michael W. Deem and Ramdas Pophale) SiO2 
 PCOD8059081
Probable space group: P 2/M
;
_chemical_formula_sum "Si O2"
_cell_formula_units_Z 28
_cell_length_a 17.642078
_cell_length_b 8.615199
_cell_length_c 23.195912
_cell_angle_alpha 90.000000
_cell_angle_beta 155.158018
_cell_angle_gamma 90.000000
_cell_volume 1481.142636
_symmetry_space_group_name_H-M "P 2/M"
_symmetry_group_IT_number 10
_symmetry_cell_setting 'monoclinic'
loop_
_space_group_symop_operation_xyz
x,y,z
-x,y,-z
-x,-y,-z
x,-y,z
loop_
_atom_site_type_symbol
_atom_site_label
_atom_site_fract_x
_atom_site_fract_y
_atom_site_fract_z
Si Si1 0.733211 0.181259 0.825864
Si Si2 0.999927 0.682598 0.669429
Si Si3 0.498398 0.316416 0.153881
Si Si4 0.653504 0.182558 0.148908
Si Si5 0.606422 0.682485 0.355654
Si Si6 0.044624 0.682614 0.115623
Si Si7 0.903942 0.316477 0.138090
O O1 0.526134 0.226672 0.692747
O O2 0.790480 0.225123 0.800069
O O3 0.765170 0.000000 0.858488
O O4 0.855698 0.280174 0.954068
O O5 0.036462 0.500000 0.689563
O O6 0.807973 0.730622 0.511437
O O7 0.149992 0.771218 0.737001
O O8 0.006419 0.737957 0.740438
O O9 0.499076 0.500000 0.149277
O O10 0.630367 0.250190 0.196607
O O11 0.571899 0.262756 0.266579
O O12 0.297764 0.246715 0.006321
O O13 0.636341 0.000000 0.140300
O O14 0.500000 0.250996 0.000000
O O15 0.573547 0.500000 0.340770
O O16 0.082032 0.500000 0.136844
O O17 0.028239 0.739551 0.170601
O O18 0.886654 0.500000 0.122681
#
# Coordination Sequence:
#
# PCOD8059081 Si02
#       7
#     4   4   4   4   4   4   4
#     4  11  21  33  52  82 116 147 181 221 274 328
#     4  10  21  38  60  82 107 142 183 227 273 322
#     4  10  19  35  59  82 106 139 185 228 266 317
#     4  11  23  37  54  82 114 144 180 222 274 326
#     4  10  21  38  58  82 110 143 182 225 275 324
#     4  10  18  33  57  83 111 142 185 232 270 311
#     4   9  17  32  57  85 106 135 183 230 269 313
#
# _framework density 18.904323999999999
#
# number of rings (size 3 to 8) (size 9 to 14) (size 15 to 20)
#    0.000    1.857    2.857    3.000    0.000    2.286 
#    0.000    5.000    0.000    4.286    0.000    0.000 
#    0.000    0.000    0.000    0.000    0.000    0.000 
#
# Total GULP energy -347262.051047 kJ/mol
# GULP energy per Si atom -12402.216109 kJ/mol
# Density = 1.886130 g / cm^3
# Si number density = 18.904324 Si / 1000 Ang^3
#
#
#
# Elastic Constant Matrix: (Units=GPa)
#
#
# Indices 1 2 3 4 5 6 
#
# 1 163.0494 24.2667 60.7405 0.0000 0.3314 0.0000
# 2 24.2667 35.1337 18.9541 0.0000 1.1239 0.0000
# 3 60.7405 18.9541 113.7112 0.0000 -4.4453 0.0000
# 4 0.0000 0.0000 0.0000 14.7841 0.0000 2.7076
# 5 0.3314 1.1239 -4.4453 0.0000 28.7036 0.0000
# 6 0.0000 0.0000 0.0000 2.7076 0.0000 2.1194
#
#
#
# Elastic Compliance Matrix: (Units=1/GPa)
#
#
# Indices 1 2 3 4 5 6 
#
# 1 0.008050 -0.003529 -0.003733 0.000000 -0.000533 0.000000
# 2 -0.003529 0.032942 -0.003677 0.000000 -0.001819 0.000000
# 3 -0.003733 -0.003677 0.011478 0.000000 0.001965 0.000000
# 4 0.000000 0.000000 0.000000 0.088298 0.000000 -0.112800
# 5 -0.000533 -0.001819 0.001965 0.000000 0.035220 0.000000
# 6 0.000000 0.000000 0.000000 -0.112800 0.000000 0.615923
#
#
# Mechanical properties :
#
#
# Convention : Reuss Voigt Hill
#
# Bulk Modulus (GPa) = 32.68792 57.75744 45.22268
# Shear Modulus (GPa) = 6.06806 22.98364 14.52585
#
# Velocity S-wave (km/s) = 1.79356 3.49060 2.77499
# Velocity P-wave (km/s) = 4.64951 6.84577 5.85160
#
# Compressibility (1/GPa) = 0.03059235
#
# Stress axis : x y z
#
# Youngs Moduli (GPa) = 124.22455 30.35617 87.12570
#
# Poissons Ratio (x) = 0.10714 0.32520
# Poissons Ratio (y) = 0.43843 0.32035
# Poissons Ratio (z) = 0.46367 0.11162
#
# Static dielectric constant tensor:
#      x y z
#    x 3.745080 0.000000 -0.050300 
#    y 0.000000 3.200100 0.000000 
#    z -0.050300 0.000000 3.369090 
# 
# 
# High freq. dielectric constant tensor:
#      x y z
#    x 1.752530 0.000000 0.004770 
#    y 0.000000 1.716280 0.000000 
#    z 0.004770 0.000000 1.714610 
# 
# From -- ./inp_files/84990.got.cif
#   From: 2010.06.25/outbox.cif.g09.slc.cpg/sg10_43_cif.got.tgz:84990.got - 2010.06.27 22:07:45.
