data_PCOD8059349
_publ_section_title
;
Structure prediction by ZEFSAII (Michael W. Deem and Ramdas Pophale) SiO2 
 PCOD8059349
Probable space group: P 2/M
;
_chemical_formula_sum "Si O2"
_cell_formula_units_Z 24
_cell_length_a 23.296890
_cell_length_b 13.201887
_cell_length_c 25.553529
_cell_angle_alpha 90.000000
_cell_angle_beta 10.798768
_cell_angle_gamma 90.000000
_cell_volume 1472.523285
_symmetry_space_group_name_H-M "P 2/M"
_symmetry_group_IT_number 10
_symmetry_cell_setting 'monoclinic'
loop_
_space_group_symop_operation_xyz
x,y,z
-x,y,-z
-x,-y,-z
x,-y,z
loop_
_atom_site_type_symbol
_atom_site_label
_atom_site_fract_x
_atom_site_fract_y
_atom_site_fract_z
Si Si1 0.148042 0.614253 0.310978
Si Si2 0.344347 0.120942 0.692056
Si Si3 0.458532 0.116472 0.978427
Si Si4 0.705530 0.119098 0.468011
Si Si5 0.600123 0.120189 0.149853
Si Si6 0.826058 0.201663 0.554325
O O1 0.129217 0.500000 0.305539
O O2 0.000000 0.621726 0.500000
O O3 0.962107 0.684836 0.436584
O O4 0.500000 0.649968 0.000000
O O5 0.500000 0.161366 0.500000
O O6 0.524506 0.166466 0.580747
O O7 0.346301 0.000000 0.692163
O O8 0.000000 0.162685 0.000000
O O9 0.099079 0.130246 0.287742
O O10 0.550024 0.000000 0.892378
O O11 0.500000 0.159224 0.000000
O O12 0.694501 0.173008 0.729125
O O13 0.542254 0.150533 0.667460
O O14 0.704819 0.000000 0.461206
O O15 0.051837 0.157721 0.159581
O O16 0.445840 0.189057 0.243508
O O17 0.568122 0.000000 0.165627
#
# Coordination Sequence:
#
# PCOD8059349 Si02
#       6
#     4   4   4   4   4   4
#     4  10  21  37  55  72  88 108 141 189 239 280
#     4   9  15  23  37  55  74 102 144 187 217 239
#     4  11  22  33  46  66  91 116 144 182 223 263
#     4   9  17  28  39  55  82 113 146 182 213 243
#     4  10  19  29  41  58  84 117 147 174 207 256
#     4  12  21  33  50  67  88 117 151 181 222 274
#
# _framework density 16.298552999999998
#
# number of rings (size 3 to 8) (size 9 to 14) (size 15 to 20)
#    0.000    1.833    0.000    6.500    0.000    6.667 
#    0.000    0.000    0.000    0.000    0.000    0.000 
#    0.000    0.000    0.000    0.000    0.000   16.667 
#
# Total GULP energy -297578.978054 kJ/mol
# GULP energy per Si atom -12399.124086 kJ/mol
# Density = 1.626146 g / cm^3
# Si number density = 16.298553 Si / 1000 Ang^3
#
#
#
# Elastic Constant Matrix: (Units=GPa)
#
#
# Indices 1 2 3 4 5 6 
#
# 1 111.9903 41.8979 56.9648 0.0000 -7.2172 0.0000
# 2 41.8979 55.7000 34.7337 0.0000 -5.7920 0.0000
# 3 56.9648 34.7337 137.1161 0.0000 2.5994 0.0000
# 4 0.0000 0.0000 0.0000 10.3798 0.0000 -2.6399
# 5 -7.2172 -5.7920 2.5994 0.0000 39.1707 0.0000
# 6 0.0000 0.0000 0.0000 -2.6399 0.0000 9.1178
#
#
#
# Elastic Compliance Matrix: (Units=1/GPa)
#
#
# Indices 1 2 3 4 5 6 
#
# 1 0.013946 -0.007941 -0.003814 0.000000 0.001648 0.000000
# 2 -0.007941 0.026338 -0.003423 0.000000 0.002658 0.000000
# 3 -0.003814 -0.003423 0.009780 0.000000 -0.001858 0.000000
# 4 0.000000 0.000000 0.000000 0.104000 0.000000 0.030112
# 5 0.001648 0.002658 -0.001858 0.000000 0.026349 0.000000
# 6 0.000000 0.000000 0.000000 0.030112 0.000000 0.118394
#
#
# Mechanical properties :
#
#
# Convention : Reuss Voigt Hill
#
# Bulk Modulus (GPa) = 50.73995 63.55547 57.14771
# Shear Modulus (GPa) = 14.89288 23.14766 19.02027
#
# Velocity S-wave (km/s) = 3.02612 3.77268 3.41983
# Velocity P-wave (km/s) = 6.58855 7.61949 7.12270
#
# Compressibility (1/GPa) = 0.01970834
#
# Stress axis : x y z
#
# Youngs Moduli (GPa) = 71.70363 37.96860 102.25146
#
# Poissons Ratio (x) = 0.30151 0.38995
# Poissons Ratio (y) = 0.56939 0.35001
# Poissons Ratio (z) = 0.27345 0.12997
#
# Static dielectric constant tensor:
#      x y z
#    x 3.129410 0.000000 0.032380 
#    y 0.000000 2.677530 0.000000 
#    z 0.032380 0.000000 3.363000 
# 
# 
# High freq. dielectric constant tensor:
#      x y z
#    x 1.625590 0.000000 0.009960 
#    y 0.000000 1.559200 0.000000 
#    z 0.009960 0.000000 1.654360 
# 
# From -- ./inp_files/87387.got.cif
#   From: 2010.06.25/outbox.cif.g09.slc.cpg/sg10_44_cif.got.tgz:87387.got - 2010.06.27 22:07:45.
