data_PCOD8059931
_publ_section_title
;
Structure prediction by ZEFSAII (Michael W. Deem and Ramdas Pophale) SiO2 
 PCOD8059931
Probable space group: P 2/M
;
_chemical_formula_sum "Si O2"
_cell_formula_units_Z 24
_cell_length_a 28.695575
_cell_length_b 9.324095
_cell_length_c 30.961172
_cell_angle_alpha 90.000000
_cell_angle_beta 9.004697
_cell_angle_gamma 90.000000
_cell_volume 1296.570635
_symmetry_space_group_name_H-M "P 2/M"
_symmetry_group_IT_number 10
_symmetry_cell_setting 'monoclinic'
loop_
_space_group_symop_operation_xyz
x,y,z
-x,y,-z
-x,-y,-z
x,-y,z
loop_
_atom_site_type_symbol
_atom_site_label
_atom_site_fract_x
_atom_site_fract_y
_atom_site_fract_z
Si Si1 0.150611 0.666317 0.982917
Si Si2 0.149915 0.170611 0.150052
Si Si3 0.163855 0.828932 0.307429
Si Si4 0.841427 0.168571 0.189049
Si Si5 0.173615 0.170247 0.467591
Si Si6 0.840227 0.333493 0.356512
O O1 0.106519 0.500000 0.012300
O O2 0.000336 0.756142 0.083111
O O3 0.995116 0.708194 0.169961
O O4 0.495389 0.708224 0.669682
O O5 0.991187 0.225942 0.338776
O O6 0.987122 0.238030 0.258584
O O7 0.132209 0.000000 0.161856
O O8 0.488610 0.225953 0.841350
O O9 0.000000 0.770286 0.500000
O O10 0.994913 0.767394 0.420057
O O11 0.161504 0.000000 0.308993
O O12 0.500000 0.770280 0.000000
O O13 0.500000 0.218702 0.500000
O O14 0.870312 0.000000 0.169788
O O15 0.000000 0.218708 0.000000
O O16 0.166665 0.000000 0.472215
O O17 0.885717 0.500000 0.326198
#
# Coordination Sequence:
#
# PCOD8059931 Si02
#       6
#     4   4   4   4   4   4
#     4  10  21  36  54  75  99 129 163 201 242 282
#     4  10  19  31  48  69  95 127 159 195 242 289
#     4   9  15  23  37  58  88 125 156 186 234 288
#     4  10  21  36  54  78 106 133 162 198 238 282
#     4   9  17  28  42  65  96 125 158 199 238 285
#     4  10  21  36  52  73 100 127 162 205 242 282
#
# _framework density 18.510369000000001
#
# number of rings (size 3 to 8) (size 9 to 14) (size 15 to 20)
#    0.000    2.333    0.000    3.000    0.000    6.000 
#    0.000    0.000    0.000    0.000    0.000    0.000 
#    0.000   13.333    0.000    0.000    0.000    0.000 
#
# Total GULP energy -297681.439588 kJ/mol
# GULP energy per Si atom -12403.393316 kJ/mol
# Density = 1.846824 g / cm^3
# Si number density = 18.510369 Si / 1000 Ang^3
#
#
#
# Elastic Constant Matrix: (Units=GPa)
#
#
# Indices 1 2 3 4 5 6 
#
# 1 181.9034 42.0987 113.2088 0.0000 -1.5334 0.0000
# 2 42.0987 25.2720 33.9510 0.0000 -5.9850 0.0000
# 3 113.2088 33.9510 193.7009 0.0000 10.0902 0.0000
# 4 0.0000 0.0000 0.0000 0.1955 0.0000 13.8355
# 5 -1.5334 -5.9850 10.0902 0.0000 41.8636 0.0000
# 6 0.0000 0.0000 0.0000 13.8355 0.0000 -18.6685
#
#
#
# Elastic Compliance Matrix: (Units=1/GPa)
#
#
# Indices 1 2 3 4 5 6 
#
# 1 0.011106 -0.012968 -0.004195 0.000000 -0.000436 0.000000
# 2 -0.012968 0.071111 -0.005458 0.000000 0.011007 0.000000
# 3 -0.004195 -0.005458 0.008729 0.000000 -0.003038 0.000000
# 4 0.000000 0.000000 0.000000 0.095701 0.000000 0.070925
# 5 -0.000436 0.011007 -0.003038 0.000000 0.026177 0.000000
# 6 0.000000 0.000000 0.000000 0.070925 0.000000 -0.001002
#
#
# Mechanical properties :
#
#
# Convention : Reuss Voigt Hill
#
# Bulk Modulus (GPa) = 21.88001 86.59928 54.23964
# Shear Modulus (GPa) = 18.36218 18.78597 18.57408
#
# Velocity S-wave (km/s) = 3.15301 3.18919 3.17115
# Velocity P-wave (km/s) = 5.01013 7.77477 6.54020
#
# Compressibility (1/GPa) = 0.04570382
#
# Stress axis : x y z
#
# Youngs Moduli (GPa) = 90.04286 14.06249 114.55459
#
# Poissons Ratio (x) = 0.18236 0.48058
# Poissons Ratio (y) = 1.16765 0.62529
# Poissons Ratio (z) = 0.37775 0.07676
#
# Static dielectric constant tensor:
#      x y z
#    x 3.542090 0.000000 0.149340 
#    y 0.000000 2.951670 0.000000 
#    z 0.149340 0.000000 3.745820 
# 
# 
# High freq. dielectric constant tensor:
#      x y z
#    x 1.736640 0.000000 0.003770 
#    y 0.000000 1.670220 0.000000 
#    z 0.003770 0.000000 1.741790 
# 
# From -- ./inp_files/12999.got.cif
#   From: 2010.06.25/outbox.cif.g09.slc.cpg/sg10_7_cif.got.tgz:12999.got - 2010.06.27 22:07:45.
