data_PCOD8059466
_publ_section_title
;
Structure prediction by ZEFSAII (Michael W. Deem and Ramdas Pophale) SiO2 
 PCOD8059466
Probable space group: P 2/M
;
_chemical_formula_sum "Si O2"
_cell_formula_units_Z 32
_cell_length_a 24.553599
_cell_length_b 9.003808
_cell_length_c 16.500952
_cell_angle_alpha 90.000000
_cell_angle_beta 152.417617
_cell_angle_gamma 90.000000
_cell_volume 1689.092545
_symmetry_space_group_name_H-M "P 2/M"
_symmetry_group_IT_number 10
_symmetry_cell_setting 'monoclinic'
loop_
_space_group_symop_operation_xyz
x,y,z
-x,y,-z
-x,-y,-z
x,-y,z
loop_
_atom_site_type_symbol
_atom_site_label
_atom_site_fract_x
_atom_site_fract_y
_atom_site_fract_z
Si Si1 0.410717 0.175476 0.778662
Si Si2 0.202292 0.324416 0.960508
Si Si3 0.986786 0.326451 0.155103
Si Si4 0.789958 0.825191 0.597763
Si Si5 0.335439 0.823844 0.851917
Si Si6 0.372774 0.172375 0.303792
Si Si7 0.822672 0.171509 0.822558
Si Si8 0.868724 0.176631 0.301436
O O1 0.337801 0.223595 0.603673
O O2 0.343065 0.235987 0.769708
O O3 0.417154 0.000000 0.797122
O O4 0.544406 0.234226 0.946026
O O5 0.216814 0.500000 0.969590
O O6 0.093155 0.281633 0.874189
O O7 0.174307 0.250737 0.838101
O O8 0.322157 0.260525 0.159046
O O9 0.001802 0.500000 0.166829
O O10 0.113644 0.251973 0.332344
O O11 0.931685 0.264773 0.999410
O O12 0.795035 0.769841 0.696478
O O13 0.808698 0.000000 0.614967
O O14 0.220031 0.763424 0.745899
O O15 0.328126 0.000000 0.844816
O O16 0.500000 0.232615 0.500000
O O17 0.291518 0.198986 0.274161
O O18 0.380071 0.000000 0.288382
O O19 0.860549 0.000000 0.872192
O O20 0.000000 0.227705 0.500000
O O21 0.863588 0.000000 0.283167
#
# Coordination Sequence:
#
# PCOD8059466 Si02
#       8
#     4   4   4   4   4   4   4   4
#     4   8  15  28  49  75 103 136 167 203 254 309
#     4  10  22  38  53  74 106 144 182 216 263 324
#     4  10  21  35  50  69  99 138 174 209 254 307
#     4  10  19  29  49  77 100 128 168 212 256 304
#     4   8  15  30  49  74 107 135 165 207 258 312
#     4   9  18  34  57  81 107 139 175 219 266 311
#     4   9  18  32  48  74 106 133 167 209 257 308
#     4  10  21  34  55  85 111 136 175 227 275 317
#
# _framework density 18.945084000000001
#
# number of rings (size 3 to 8) (size 9 to 14) (size 15 to 20)
#    0.000    2.750    0.000    1.875    1.750    5.000 
#    0.000    3.750    0.000    2.250    0.000    1.750 
#    0.000    0.000    0.000    0.000    0.000    0.000 
#
# Total GULP energy -396680.996891 kJ/mol
# GULP energy per Si atom -12396.281153 kJ/mol
# Density = 1.890196 g / cm^3
# Si number density = 18.945084 Si / 1000 Ang^3
#
#
#
# Elastic Constant Matrix: (Units=GPa)
#
#
# Indices 1 2 3 4 5 6 
#
# 1 97.1476 19.9294 60.0016 0.0000 4.1277 0.0000
# 2 19.9294 30.5795 24.6924 0.0000 -0.0118 0.0000
# 3 60.0016 24.6924 129.1521 0.0000 5.8054 0.0000
# 4 0.0000 0.0000 0.0000 5.2249 0.0000 1.5711
# 5 4.1277 -0.0118 5.8054 0.0000 31.0553 0.0000
# 6 0.0000 0.0000 0.0000 1.5711 0.0000 18.5518
#
#
#
# Elastic Compliance Matrix: (Units=1/GPa)
#
#
# Indices 1 2 3 4 5 6 
#
# 1 0.015060 -0.004964 -0.006008 0.000000 -0.000880 0.000000
# 2 -0.004964 0.040369 -0.005488 0.000000 0.001701 0.000000
# 3 -0.006008 -0.005488 0.011645 0.000000 -0.001381 0.000000
# 4 0.000000 0.000000 0.000000 0.196393 0.000000 -0.016632
# 5 -0.000880 0.001701 -0.001381 0.000000 0.032576 0.000000
# 6 0.000000 0.000000 0.000000 -0.016632 0.000000 0.055312
#
#
# Mechanical properties :
#
#
# Convention : Reuss Voigt Hill
#
# Bulk Modulus (GPa) = 29.27925 51.79180 40.53552
# Shear Modulus (GPa) = 12.63707 21.11677 16.87692
#
# Velocity S-wave (km/s) = 2.58551 3.34223 2.98792
# Velocity P-wave (km/s) = 4.93979 6.50317 5.77463
#
# Compressibility (1/GPa) = 0.03415388
#
# Stress axis : x y z
#
# Youngs Moduli (GPa) = 66.40051 24.77129 85.87089
#
# Poissons Ratio (x) = 0.12297 0.51591
# Poissons Ratio (y) = 0.32962 0.47130
# Poissons Ratio (z) = 0.39893 0.13596
#
# Static dielectric constant tensor:
#      x y z
#    x 3.602670 0.000000 0.137440 
#    y 0.000000 3.109740 0.000000 
#    z 0.137440 0.000000 3.796780 
# 
# 
# High freq. dielectric constant tensor:
#      x y z
#    x 1.736890 0.000000 0.002430 
#    y 0.000000 1.697390 0.000000 
#    z 0.002430 0.000000 1.746960 
# 
# From -- ./inp_files/71694.got.cif
#   From: 2010.06.25/outbox.cif.g09.slc.cpg/sg10_36_cif.got.tgz:71694.got - 2010.06.27 22:07:45.
