data_PCOD8059444
_publ_section_title
;
Structure prediction by ZEFSAII (Michael W. Deem and Ramdas Pophale) SiO2 
 PCOD8059444
Probable space group: P 2/M
;
_chemical_formula_sum "Si O2"
_cell_formula_units_Z 32
_cell_length_a 23.434228
_cell_length_b 9.388140
_cell_length_c 16.070812
_cell_angle_alpha 90.000000
_cell_angle_beta 150.176600
_cell_angle_gamma 90.000000
_cell_volume 1758.373866
_symmetry_space_group_name_H-M "P 2/M"
_symmetry_group_IT_number 10
_symmetry_cell_setting 'monoclinic'
loop_
_space_group_symop_operation_xyz
x,y,z
-x,y,-z
-x,-y,-z
x,-y,z
loop_
_atom_site_type_symbol
_atom_site_label
_atom_site_fract_x
_atom_site_fract_y
_atom_site_fract_z
Si Si1 0.174578 0.338078 0.164017
Si Si2 0.182287 0.830700 0.701956
Si Si3 0.554923 0.337046 0.483989
Si Si4 0.036503 0.830805 0.669413
Si Si5 0.048021 0.163303 0.867558
Si Si6 0.561824 0.169827 0.994646
Si Si7 0.436433 0.167080 0.668402
Si Si8 0.175527 0.839448 0.320261
O O1 0.132129 0.500000 0.110968
O O2 0.310279 0.324532 0.333627
O O3 0.127877 0.262718 0.187853
O O4 0.126327 0.260710 0.022927
O O5 0.138681 0.780362 0.737835
O O6 0.308373 0.768445 0.842260
O O7 0.088470 0.772708 0.517382
O O8 0.189321 0.000000 0.707792
O O9 0.500000 0.276465 0.500000
O O10 0.515911 0.500000 0.420082
O O11 0.515515 0.246524 0.353272
O O12 0.065556 0.774763 0.797534
O O13 0.028023 0.000000 0.658279
O O14 0.912511 0.175248 0.715234
O O15 0.089219 0.000000 0.928409
O O16 0.560204 0.000000 0.994055
O O17 0.500000 0.228702 0.000000
O O18 0.498873 0.223338 0.830849
O O19 0.302024 0.202684 0.511640
O O20 0.458619 0.000000 0.683175
O O21 0.176899 0.000000 0.286133
#
# Coordination Sequence:
#
# PCOD8059444 Si02
#       8
#     4   4   4   4   4   4   4   4
#     4  10  20  33  48  68  93 121 156 195 235 280
#     4   8  14  26  41  61  92 122 153 191 231 276
#     4   9  19  36  54  69  91 127 164 196 237 292
#     4   8  15  26  41  62  89 123 155 188 231 278
#     4  10  19  29  46  70  94 123 158 193 232 277
#     4   9  17  26  42  68  97 126 156 195 241 285
#     4   9  18  31  47  73 101 126 158 198 244 285
#     4   9  18  31  46  65  96 128 155 189 232 282
#
# _framework density 18.198633000000001
#
# number of rings (size 3 to 8) (size 9 to 14) (size 15 to 20)
#    0.000    3.000    0.000    1.500    1.750    3.750 
#    0.000    1.250    0.000    0.375    0.000    2.625 
#    0.000    0.000    0.000    0.000    0.000    0.000 
#
# Total GULP energy -396668.011513 kJ/mol
# GULP energy per Si atom -12395.875360 kJ/mol
# Density = 1.815721 g / cm^3
# Si number density = 18.198633 Si / 1000 Ang^3
#
#
#
# Elastic Constant Matrix: (Units=GPa)
#
#
# Indices 1 2 3 4 5 6 
#
# 1 129.4585 30.8385 64.1224 0.0000 -16.5172 0.0000
# 2 30.8385 45.7659 30.7689 0.0000 -8.8348 0.0000
# 3 64.1224 30.7689 108.6832 0.0000 -16.6481 0.0000
# 4 0.0000 0.0000 0.0000 8.2266 0.0000 5.4501
# 5 -16.5172 -8.8348 -16.6481 0.0000 28.5104 0.0000
# 6 0.0000 0.0000 0.0000 5.4501 0.0000 9.7554
#
#
#
# Elastic Compliance Matrix: (Units=1/GPa)
#
#
# Indices 1 2 3 4 5 6 
#
# 1 0.011602 -0.003704 -0.005428 0.000000 0.002404 0.000000
# 2 -0.003704 0.028655 -0.005376 0.000000 0.003594 0.000000
# 3 -0.005428 -0.005376 0.014484 0.000000 0.003647 0.000000
# 4 0.000000 0.000000 0.000000 0.192984 0.000000 -0.107816
# 5 0.002404 0.003594 0.003647 0.000000 0.039711 0.000000
# 6 0.000000 0.000000 0.000000 -0.107816 0.000000 0.162742
#
#
# Mechanical properties :
#
#
# Convention : Reuss Voigt Hill
#
# Bulk Modulus (GPa) = 38.87476 59.48524 49.18000
# Shear Modulus (GPa) = 10.25070 19.84368 15.04719
#
# Velocity S-wave (km/s) = 2.37590 3.30569 2.87859
# Velocity P-wave (km/s) = 5.37906 6.87952 6.17503
#
# Compressibility (1/GPa) = 0.02572363
#
# Stress axis : x y z
#
# Youngs Moduli (GPa) = 86.18938 34.89815 69.03961
#
# Poissons Ratio (x) = 0.12928 0.37477
# Poissons Ratio (y) = 0.31928 0.37117
# Poissons Ratio (z) = 0.46786 0.18762
#
# Static dielectric constant tensor:
#      x y z
#    x 3.598940 0.000000 -0.050830 
#    y 0.000000 3.008460 0.000000 
#    z -0.050830 0.000000 3.453290 
# 
# 
# High freq. dielectric constant tensor:
#      x y z
#    x 1.713260 0.000000 -0.000650 
#    y 0.000000 1.653710 0.000000 
#    z -0.000650 0.000000 1.707320 
# 
# From -- ./inp_files/71595.got.cif
#   From: 2010.06.25/outbox.cif.g09.slc.cpg/sg10_36_cif.got.tgz:71595.got - 2010.06.27 22:07:45.
