data_PCOD8059942
_publ_section_title
;
Structure prediction by ZEFSAII (Michael W. Deem and Ramdas Pophale) SiO2 
 PCOD8059942
Probable space group: P 2/M
;
_chemical_formula_sum "Si O2"
_cell_formula_units_Z 24
_cell_length_a 19.121648
_cell_length_b 9.204141
_cell_length_c 9.085563
_cell_angle_alpha 90.000000
_cell_angle_beta 121.156815
_cell_angle_gamma 90.000000
_cell_volume 1368.389081
_symmetry_space_group_name_H-M "P 2/M"
_symmetry_group_IT_number 10
_symmetry_cell_setting 'monoclinic'
loop_
_space_group_symop_operation_xyz
x,y,z
-x,y,-z
-x,-y,-z
x,-y,z
loop_
_atom_site_type_symbol
_atom_site_label
_atom_site_fract_x
_atom_site_fract_y
_atom_site_fract_z
Si Si1 0.743372 0.168848 0.153051
Si Si2 0.239584 0.172940 0.163739
Si Si3 0.585378 0.829735 0.163449
Si Si4 0.909324 0.670743 0.853450
Si Si5 0.171552 0.660030 0.521297
Si Si6 0.666701 0.336245 0.496716
O O1 0.656118 0.214307 0.125441
O O2 0.818544 0.237706 0.326649
O O3 0.758036 0.000000 0.181173
O O4 0.746234 0.220754 0.988667
O O5 0.151924 0.233952 0.116279
O O6 0.313882 0.244639 0.335498
O O7 0.241645 0.000000 0.188482
O O8 0.595183 0.743042 0.327173
O O9 0.587929 0.000000 0.202818
O O10 0.500000 0.782520 0.000000
O O11 0.889577 0.500000 0.856285
O O12 0.899951 0.710261 0.669202
O O13 0.000000 0.712303 0.000000
O O14 0.152700 0.500000 0.562377
O O15 0.253158 0.660999 0.514517
O O16 0.639245 0.500000 0.508189
#
# Coordination Sequence:
#
# PCOD8059942 Si02
#       6
#     4   4   4   4   4   4
#     4   9  18  31  47  69  95 122 154 193 234 277
#     4  10  19  31  48  70  95 123 156 192 232 279
#     4   9  17  31  51  72  94 123 159 197 236 277
#     4   9  18  33  51  71  95 122 155 194 233 276
#     4   8  15  28  47  68  88 117 155 189 225 273
#     4   9  17  30  48  69  93 123 159 194 230 278
#
# _framework density 17.538869999999999
#
# number of rings (size 3 to 8) (size 9 to 14) (size 15 to 20)
#    0.000    3.000    0.000    2.000    0.000    6.000 
#    0.000    1.667    0.000   10.000    0.000    0.000 
#    0.000    0.000    0.000    0.000    0.000    0.000 
#
# Total GULP energy -297517.208475 kJ/mol
# GULP energy per Si atom -12396.550353 kJ/mol
# Density = 1.749895 g / cm^3
# Si number density = 17.538870 Si / 1000 Ang^3
#
#
#
# Elastic Constant Matrix: (Units=GPa)
#
#
# Indices 1 2 3 4 5 6 
#
# 1 46.1538 33.6706 61.2954 0.0000 2.3630 0.0000
# 2 33.6706 76.4722 76.9492 0.0000 -3.5548 0.0000
# 3 61.2954 76.9492 197.3693 0.0000 6.1425 0.0000
# 4 0.0000 0.0000 0.0000 35.2425 0.0000 1.7240
# 5 2.3630 -3.5548 6.1425 0.0000 31.2258 0.0000
# 6 0.0000 0.0000 0.0000 1.7240 0.0000 14.5406
#
#
#
# Elastic Compliance Matrix: (Units=1/GPa)
#
#
# Indices 1 2 3 4 5 6 
#
# 1 0.040054 -0.008713 -0.008972 0.000000 -0.002258 0.000000
# 2 -0.008713 0.023955 -0.006781 0.000000 0.004720 0.000000
# 3 -0.008972 -0.006781 0.010564 0.000000 -0.002171 0.000000
# 4 0.000000 0.000000 0.000000 0.028540 0.000000 -0.003384
# 5 -0.002258 0.004720 -0.002171 0.000000 0.033160 0.000000
# 6 0.000000 0.000000 0.000000 -0.003384 0.000000 0.069174
#
#
# Mechanical properties :
#
#
# Convention : Reuss Voigt Hill
#
# Bulk Modulus (GPa) = 38.99753 73.75842 56.37797
# Shear Modulus (GPa) = 19.01673 26.07377 22.54525
#
# Velocity S-wave (km/s) = 3.29639 3.85986 3.58920
# Velocity P-wave (km/s) = 6.06394 7.87466 7.02786
#
# Compressibility (1/GPa) = 0.02564265
#
# Stress axis : x y z
#
# Youngs Moduli (GPa) = 24.96626 41.74480 94.65935
#
# Poissons Ratio (x) = 0.36371 0.84930
# Poissons Ratio (y) = 0.21752 0.64184
# Poissons Ratio (z) = 0.22400 0.28305
#
# Static dielectric constant tensor:
#      x y z
#    x 2.921800 0.000000 0.051310 
#    y 0.000000 3.333360 0.000000 
#    z 0.051310 0.000000 3.659740 
# 
# 
# High freq. dielectric constant tensor:
#      x y z
#    x 1.632030 0.000000 0.004750 
#    y 0.000000 1.680110 0.000000 
#    z 0.004750 0.000000 1.696470 
# 
# From -- ./inp_files/31190.got.cif
#   From: 2010.06.25/outbox.cif.g09.slc.cpg/sg10_16_cif.got.tgz:31190.got - 2010.06.27 22:07:45.
