data_PCOD8059644
_publ_section_title
;
Structure prediction by ZEFSAII (Michael W. Deem and Ramdas Pophale) SiO2 
 PCOD8059644
Probable space group: P 2/M
;
_chemical_formula_sum "Si O2"
_cell_formula_units_Z 32
_cell_length_a 15.776509
_cell_length_b 8.641866
_cell_length_c 14.329926
_cell_angle_alpha 90.000000
_cell_angle_beta 90.436105
_cell_angle_gamma 90.000000
_cell_volume 1953.663689
_symmetry_space_group_name_H-M "P 2/M"
_symmetry_group_IT_number 10
_symmetry_cell_setting 'monoclinic'
loop_
_space_group_symop_operation_xyz
x,y,z
-x,y,-z
-x,-y,-z
x,-y,z
loop_
_atom_site_type_symbol
_atom_site_label
_atom_site_fract_x
_atom_site_fract_y
_atom_site_fract_z
Si Si1 0.656919 0.680517 0.209738
Si Si2 0.410537 0.320009 0.593197
Si Si3 0.594310 0.817579 0.598358
Si Si4 0.501194 0.819696 0.891803
Si Si5 0.814748 0.685253 0.899867
Si Si6 0.996365 0.330342 0.889144
Si Si7 0.177383 0.684471 0.891206
Si Si8 0.655730 0.317477 0.782073
O O1 0.642240 0.500000 0.185959
O O2 0.651022 0.711276 0.320230
O O3 0.589193 0.780042 0.152833
O O4 0.750141 0.737682 0.179893
O O5 0.423599 0.500000 0.574023
O O6 0.370383 0.242615 0.500682
O O7 0.501289 0.248068 0.617861
O O8 0.655848 0.762119 0.680970
O O9 0.589167 0.000000 0.595998
O O10 0.573186 0.722168 0.841205
O O11 0.520703 0.000000 0.877653
O O12 0.500000 0.773046 0.000000
O O13 0.817733 0.500000 0.898933
O O14 0.906226 0.752021 0.863219
O O15 0.739117 0.747428 0.834697
O O16 0.797833 0.744269 0.005181
O O17 0.994597 0.500000 0.842555
O O18 0.084697 0.246224 0.858546
O O19 0.000000 0.347260 0.000000
O O20 0.168753 0.500000 0.893361
O O21 0.659243 0.500000 0.768236
#
# Coordination Sequence:
#
# PCOD8059644 Si02
#       8
#     4   4   4   4   4   4   4   4
#     4  10  19  30  47  69  91 119 151 186 226 270
#     4  10  19  32  49  68  89 114 150 192 234 272
#     4  11  21  33  49  66  87 116 151 190 236 277
#     4  11  23  34  43  60  91 128 160 187 218 261
#     4   8  14  23  39  64  93 123 151 181 220 264
#     4   7  10  19  36  60  91 120 145 179 221 263
#     4   8  13  23  40  65  94 121 149 180 219 268
#     4  11  20  31  47  67  91 120 155 192 227 269
#
# _framework density 16.379483
#
# number of rings (size 3 to 8) (size 9 to 14) (size 15 to 20)
#    0.000    2.500    1.250    5.250    0.000    2.500 
#    0.000    0.000    0.000    0.000    0.000    2.625 
#    0.000   16.500    0.000    0.000    0.000    0.000 
#
# Total GULP energy -396560.038910 kJ/mol
# GULP energy per Si atom -12392.501216 kJ/mol
# Density = 1.634220 g / cm^3
# Si number density = 16.379483 Si / 1000 Ang^3
#
#
#
# Elastic Constant Matrix: (Units=GPa)
#
#
# Indices 1 2 3 4 5 6 
#
# 1 132.3295 19.0746 63.6388 0.0000 -9.5771 0.0000
# 2 19.0746 56.9290 30.2512 0.0000 -2.2246 0.0000
# 3 63.6388 30.2512 111.4946 0.0000 -5.0095 0.0000
# 4 0.0000 0.0000 0.0000 16.7295 0.0000 3.5952
# 5 -9.5771 -2.2246 -5.0095 0.0000 12.3794 0.0000
# 6 0.0000 0.0000 0.0000 3.5952 0.0000 -0.2197
#
#
#
# Elastic Compliance Matrix: (Units=1/GPa)
#
#
# Indices 1 2 3 4 5 6 
#
# 1 0.010839 -0.000296 -0.005838 0.000000 0.005970 0.000000
# 2 -0.000296 0.020559 -0.005351 0.000000 0.001300 0.000000
# 3 -0.005838 -0.005351 0.013757 0.000000 0.000089 0.000000
# 4 0.000000 0.000000 0.000000 0.013234 0.000000 0.216568
# 5 0.005970 0.001300 0.000089 0.000000 0.085667 0.000000
# 6 0.000000 0.000000 0.000000 0.216568 0.000000 -1.007748
#
#
# Mechanical properties :
#
#
# Convention : Reuss Voigt Hill
#
# Bulk Modulus (GPa) = 45.07499 58.52027 51.79763
# Shear Modulus (GPa) = -6.00005 18.29709 6.14852
#
# Velocity S-wave (km/s) = -1.91601 3.34589 1.93957
# Velocity P-wave (km/s) = 4.76278 7.12264 6.05872
#
# Compressibility (1/GPa) = 0.02218525
#
# Stress axis : x y z
#
# Youngs Moduli (GPa) = 92.25656 48.64040 72.68936
#
# Poissons Ratio (x) = 0.01441 0.42438
# Poissons Ratio (y) = 0.02732 0.38894
# Poissons Ratio (z) = 0.53862 0.26026
#
# Static dielectric constant tensor:
#      x y z
#    x 3.429630 0.000000 0.017870 
#    y 0.000000 2.821420 0.000000 
#    z 0.017870 0.000000 3.138990 
# 
# 
# High freq. dielectric constant tensor:
#      x y z
#    x 1.624740 0.000000 -0.001380 
#    y 0.000000 1.604940 0.000000 
#    z -0.001380 0.000000 1.613910 
# 
# From -- ./inp_files/66147.got.cif
#   From: 2010.06.25/outbox.cif.g09.slc.cpg/sg10_34_cif.got.tgz:66147.got - 2010.06.27 22:07:45.
