data_PCOD8059177
_publ_section_title
;
Structure prediction by ZEFSAII (Michael W. Deem and Ramdas Pophale) SiO2 
 PCOD8059177
Probable space group: P 2/M
;
_chemical_formula_sum "Si O2"
_cell_formula_units_Z 28
_cell_length_a 12.174848
_cell_length_b 8.851687
_cell_length_c 29.289815
_cell_angle_alpha 90.000000
_cell_angle_beta 151.616671
_cell_angle_gamma 90.000000
_cell_volume 1500.501350
_symmetry_space_group_name_H-M "P 2/M"
_symmetry_group_IT_number 10
_symmetry_cell_setting 'monoclinic'
loop_
_space_group_symop_operation_xyz
x,y,z
-x,y,-z
-x,-y,-z
x,-y,z
loop_
_atom_site_type_symbol
_atom_site_label
_atom_site_fract_x
_atom_site_fract_y
_atom_site_fract_z
Si Si1 0.857766 0.323409 0.740947
Si Si2 0.460517 0.826372 0.539144
Si Si3 0.830990 0.324002 0.835922
Si Si4 0.771623 0.179337 0.182907
Si Si5 0.470395 0.177351 0.200816
Si Si6 0.670942 0.677882 0.943937
Si Si7 0.957598 0.177002 0.346662
O O1 0.903083 0.500000 0.752058
O O2 0.636740 0.277014 0.630816
O O3 0.812252 0.278505 0.776415
O O4 0.089189 0.237609 0.809909
O O5 0.500000 0.810947 0.500000
O O6 0.201802 0.762104 0.455288
O O7 0.494582 0.000000 0.567230
O O8 0.783108 0.500000 0.826367
O O9 0.634322 0.229817 0.789794
O O10 0.079456 0.277150 0.945968
O O11 0.513774 0.246326 0.089543
O O12 0.903800 0.240244 0.276403
O O13 0.753500 0.000000 0.174940
O O14 0.345684 0.261548 0.113601
O O15 0.744480 0.217614 0.302040
O O16 0.434880 0.000000 0.180243
O O17 0.630816 0.500000 0.929194
O O18 0.990348 0.000000 0.352812
#
# Coordination Sequence:
#
# PCOD8059177 Si02
#       7
#     4   4   4   4   4   4   4
#     4  11  23  37  53  79 113 147 185 227 273 327
#     4  10  18  34  59  82 107 143 178 219 278 335
#     4  10  23  40  54  73 111 155 187 222 273 331
#     4  10  19  35  56  82 112 142 179 226 276 327
#     4  10  20  35  58  85 110 139 183 234 273 320
#     4  10  20  36  58  81 107 145 186 225 275 328
#     4   8  16  32  54  81 109 135 170 219 276 326
#
# _framework density 18.660430999999999
#
# number of rings (size 3 to 8) (size 9 to 14) (size 15 to 20)
#    0.000    2.143    1.429    3.000    0.000    4.857 
#    0.000    5.000    0.000    4.286    0.000    0.000 
#    0.000    0.000    0.000    0.000    0.000    0.000 
#
# Total GULP energy -347209.422363 kJ/mol
# GULP energy per Si atom -12400.336513 kJ/mol
# Density = 1.861796 g / cm^3
# Si number density = 18.660431 Si / 1000 Ang^3
#
#
#
# Elastic Constant Matrix: (Units=GPa)
#
#
# Indices 1 2 3 4 5 6 
#
# 1 130.3971 50.8485 62.3552 0.0000 16.3250 0.0000
# 2 50.8485 65.1024 22.8494 0.0000 6.9706 0.0000
# 3 62.3552 22.8494 56.7797 0.0000 14.7434 0.0000
# 4 0.0000 0.0000 0.0000 18.7110 0.0000 8.0477
# 5 16.3250 6.9706 14.7434 0.0000 26.8206 0.0000
# 6 0.0000 0.0000 0.0000 8.0477 0.0000 29.9866
#
#
#
# Elastic Compliance Matrix: (Units=1/GPa)
#
#
# Indices 1 2 3 4 5 6 
#
# 1 0.019980 -0.009210 -0.018314 0.000000 0.000299 0.000000
# 2 -0.009210 0.022147 0.001448 0.000000 -0.000946 0.000000
# 3 -0.018314 0.001448 0.040063 0.000000 -0.011252 0.000000
# 4 0.000000 0.000000 0.000000 0.060418 0.000000 -0.016215
# 5 0.000299 -0.000946 -0.011252 0.000000 0.043534 0.000000
# 6 0.000000 0.000000 0.000000 -0.016215 0.000000 0.037700
#
#
# Mechanical properties :
#
#
# Convention : Reuss Voigt Hill
#
# Bulk Modulus (GPa) = 33.29096 58.26506 45.77801
# Shear Modulus (GPa) = 17.48200 22.85206 20.16703
#
# Velocity S-wave (km/s) = 3.06412 3.50326 3.29102
# Velocity P-wave (km/s) = 5.51340 6.90329 6.24712
#
# Compressibility (1/GPa) = 0.03003818
#
# Stress axis : x y z
#
# Youngs Moduli (GPa) = 50.04881 45.15235 24.96056
#
# Poissons Ratio (x) = 0.41586 0.45712
# Poissons Ratio (y) = 0.46096 -0.03613
# Poissons Ratio (z) = 0.91658 -0.06536
#
# Static dielectric constant tensor:
#      x y z
#    x 3.498770 0.000000 0.234040 
#    y 0.000000 3.315550 0.000000 
#    z 0.234040 0.000000 3.538530 
# 
# 
# High freq. dielectric constant tensor:
#      x y z
#    x 1.725920 0.000000 0.019800 
#    y 0.000000 1.717520 0.000000 
#    z 0.019800 0.000000 1.719070 
# 
# From -- ./inp_files/68687.got.cif
#   From: 2010.06.25/outbox.cif.g09.slc.cpg/sg10_35_cif.got.tgz:68687.got - 2010.06.27 22:07:45.
