data_PCOD8059500
_publ_section_title
;
Structure prediction by ZEFSAII (Michael W. Deem and Ramdas Pophale) SiO2 
 PCOD8059500
Probable space group: P 2/M
;
_chemical_formula_sum "Si O2"
_cell_formula_units_Z 32
_cell_length_a 16.924601
_cell_length_b 9.291485
_cell_length_c 14.326625
_cell_angle_alpha 90.000000
_cell_angle_beta 125.542717
_cell_angle_gamma 90.000000
_cell_volume 1833.168377
_symmetry_space_group_name_H-M "P 2/M"
_symmetry_group_IT_number 10
_symmetry_cell_setting 'monoclinic'
loop_
_space_group_symop_operation_xyz
x,y,z
-x,y,-z
-x,-y,-z
x,-y,z
loop_
_atom_site_type_symbol
_atom_site_label
_atom_site_fract_x
_atom_site_fract_y
_atom_site_fract_z
Si Si1 0.867994 0.829000 0.495480
Si Si2 0.545986 0.337591 0.248881
Si Si3 0.916543 0.829795 0.322945
Si Si4 0.637650 0.831379 0.827631
Si Si5 0.388613 0.169982 0.400884
Si Si6 0.387856 0.340340 0.899035
Si Si7 0.707235 0.666691 0.504692
Si Si8 0.755881 0.830743 0.078207
O O1 0.864396 0.781432 0.383913
O O2 0.789305 0.743931 0.500857
O O3 0.972583 0.777451 0.607265
O O4 0.851450 0.000000 0.495733
O O5 0.507056 0.500000 0.209777
O O6 0.453465 0.235893 0.182183
O O7 0.620383 0.300148 0.216202
O O8 0.603677 0.318461 0.383873
O O9 0.856824 0.769703 0.191443
O O10 0.919159 0.000000 0.326172
O O11 0.641917 0.778656 0.724007
O O12 0.620011 0.000000 0.817024
O O13 0.735053 0.789695 0.954766
O O14 0.500000 0.214162 0.500000
O O15 0.309752 0.252907 0.409282
O O16 0.374915 0.000000 0.406180
O O17 0.344913 0.500000 0.888941
O O18 0.332200 0.223623 0.920108
O O19 0.500000 0.335381 0.000000
O O20 0.735845 0.500000 0.540050
O O21 0.757346 0.000000 0.090286
#
# Coordination Sequence:
#
# PCOD8059500 Si02
#       8
#     4   4   4   4   4   4   4   4
#     4   9  17  33  56  77 101 133 165 198 246 302
#     4  10  20  32  45  65  98 134 163 195 237 289
#     4   8  16  32  54  79 103 130 164 202 245 296
#     4  10  20  32  48  70  95 126 164 205 243 284
#     4  10  20  35  52  70  96 131 171 209 249 298
#     4  10  19  30  43  63  97 137 167 189 226 289
#     4  11  22  33  50  76 102 128 164 211 256 291
#     4  10  19  31  49  73  99 126 163 208 246 283
#
# _framework density 17.456116000000002
#
# number of rings (size 3 to 8) (size 9 to 14) (size 15 to 20)
#    0.000    2.250    2.500    1.875    0.000    2.000 
#    0.000    1.875    0.000    0.750    0.000    5.250 
#    0.000    0.000    0.000    0.000    0.000    0.000 
#
# Total GULP energy -396559.378916 kJ/mol
# GULP energy per Si atom -12392.480591 kJ/mol
# Density = 1.741638 g / cm^3
# Si number density = 17.456116 Si / 1000 Ang^3
#
#
#
# Elastic Constant Matrix: (Units=GPa)
#
#
# Indices 1 2 3 4 5 6 
#
# 1 72.7294 30.3797 39.9081 0.0000 -4.2059 0.0000
# 2 30.3797 30.3712 31.4704 0.0000 -1.4743 0.0000
# 3 39.9081 31.4704 133.7059 0.0000 -10.0563 0.0000
# 4 0.0000 0.0000 0.0000 12.3631 0.0000 -7.1147
# 5 -4.2059 -1.4743 -10.0563 0.0000 21.0608 0.0000
# 6 0.0000 0.0000 0.0000 -7.1147 0.0000 3.7661
#
#
#
# Elastic Compliance Matrix: (Units=1/GPa)
#
#
# Indices 1 2 3 4 5 6 
#
# 1 0.024133 -0.022148 -0.001809 0.000000 0.002405 0.000000
# 2 -0.022148 0.063948 -0.008751 0.000000 -0.004125 0.000000
# 3 -0.001809 -0.008751 0.010378 0.000000 0.003982 0.000000
# 4 0.000000 0.000000 0.000000 -0.927873 0.000000 -1.752896
# 5 0.002405 -0.004125 0.003982 0.000000 0.049574 0.000000
# 6 0.000000 0.000000 0.000000 -1.752896 0.000000 -3.045967
#
#
# Mechanical properties :
#
#
# Convention : Reuss Voigt Hill
#
# Bulk Modulus (GPa) = 30.26433 48.92478 39.59456
# Shear Modulus (GPa) = -1.33356 16.44122 7.55383
#
# Velocity S-wave (km/s) = -0.87499 3.07230 2.08248
# Velocity P-wave (km/s) = 4.04403 6.37758 5.33984
#
# Compressibility (1/GPa) = 0.03304220
#
# Stress axis : x y z
#
# Youngs Moduli (GPa) = 41.43709 15.63777 96.35508
#
# Poissons Ratio (x) = 0.34635 0.17432
# Poissons Ratio (y) = 0.91776 0.84320
# Poissons Ratio (z) = 0.07497 0.13684
#
# Static dielectric constant tensor:
#      x y z
#    x 3.040130 0.000000 -0.083100 
#    y 0.000000 3.106560 0.000000 
#    z -0.083100 0.000000 3.946670 
# 
# 
# High freq. dielectric constant tensor:
#      x y z
#    x 1.645980 0.000000 -0.007940 
#    y 0.000000 1.660220 0.000000 
#    z -0.007940 0.000000 1.685910 
# 
# From -- ./inp_files/66027.got.cif
#   From: 2010.06.25/outbox.cif.g09.slc.cpg/sg10_34_cif.got.tgz:66027.got - 2010.06.27 22:07:45.
