data_PCOD8059556
_publ_section_title
;
Structure prediction by ZEFSAII (Michael W. Deem and Ramdas Pophale) SiO2 
 PCOD8059556
Probable space group: P 2/M
;
_chemical_formula_sum "Si O2"
_cell_formula_units_Z 24
_cell_length_a 11.836799
_cell_length_b 9.076643
_cell_length_c 20.618429
_cell_angle_alpha 90.000000
_cell_angle_beta 140.951548
_cell_angle_gamma 90.000000
_cell_volume 1395.532769
_symmetry_space_group_name_H-M "P 2/M"
_symmetry_group_IT_number 10
_symmetry_cell_setting 'monoclinic'
loop_
_space_group_symop_operation_xyz
x,y,z
-x,y,-z
-x,-y,-z
x,-y,z
loop_
_atom_site_type_symbol
_atom_site_label
_atom_site_fract_x
_atom_site_fract_y
_atom_site_fract_z
Si Si1 0.583732 0.832609 0.352350
Si Si2 0.039620 0.831994 0.417277
Si Si3 0.353859 0.326727 0.886814
Si Si4 0.954421 0.331032 0.708013
Si Si5 0.591477 0.331180 0.607626
Si Si6 0.679150 0.325620 0.273546
O O1 0.794923 0.822773 0.460164
O O2 0.468441 0.765411 0.358849
O O3 0.548850 0.745207 0.269641
O O4 0.520762 0.000000 0.315259
O O5 0.107480 0.771845 0.378509
O O6 0.880950 0.731538 0.374021
O O7 0.972082 0.000000 0.380212
O O8 0.378830 0.500000 0.900786
O O9 0.386299 0.274470 0.827182
O O10 0.152820 0.283284 0.820790
O O11 0.500000 0.251546 0.000000
O O12 0.961426 0.500000 0.685914
O O13 0.807491 0.314167 0.699071
O O14 0.500000 0.276169 0.500000
O O15 0.534896 0.500000 0.595078
O O16 0.676365 0.500000 0.280217
#
# Coordination Sequence:
#
# PCOD8059556 Si02
#       6
#     4   4   4   4   4   4
#     4  11  22  32  45  67  99 135 165 195 234 282
#     4  10  19  30  45  67  98 131 161 195 235 281
#     4   8  15  30  53  77  96 115 149 202 252 288
#     4   9  17  30  49  73  97 126 162 197 237 281
#     4  10  19  31  48  69  98 132 166 200 230 275
#     4  10  20  32  49  71  95 125 161 199 243 289
#
# _framework density 17.197734000000001
#
# number of rings (size 3 to 8) (size 9 to 14) (size 15 to 20)
#    0.000    2.333    1.667    3.000    0.000    5.000 
#    0.000    0.000    0.000   13.500    0.000    7.000 
#    0.000    0.000    0.000    0.000    0.000    0.000 
#
# Total GULP energy -297520.570135 kJ/mol
# GULP energy per Si atom -12396.690422 kJ/mol
# Density = 1.715859 g / cm^3
# Si number density = 17.197734 Si / 1000 Ang^3
#
#
#
# Elastic Constant Matrix: (Units=GPa)
#
#
# Indices 1 2 3 4 5 6 
#
# 1 127.3070 54.9864 50.6818 0.0000 -13.4955 0.0000
# 2 54.9864 83.1572 32.1506 0.0000 -8.9069 0.0000
# 3 50.6818 32.1506 87.2437 0.0000 -4.7200 0.0000
# 4 0.0000 0.0000 0.0000 8.3045 0.0000 1.4960
# 5 -13.4955 -8.9069 -4.7200 0.0000 16.4738 0.0000
# 6 0.0000 0.0000 0.0000 1.4960 0.0000 22.2215
#
#
#
# Elastic Compliance Matrix: (Units=1/GPa)
#
#
# Indices 1 2 3 4 5 6 
#
# 1 0.013137 -0.006084 -0.005064 0.000000 0.006022 0.000000
# 2 -0.006084 0.017493 -0.002712 0.000000 0.003697 0.000000
# 3 -0.005064 -0.002712 0.015337 0.000000 -0.001220 0.000000
# 4 0.000000 0.000000 0.000000 0.121895 0.000000 -0.008206
# 5 0.006022 0.003697 -0.001220 0.000000 0.067284 0.000000
# 6 0.000000 0.000000 0.000000 -0.008206 0.000000 0.045554
#
#
# Mechanical properties :
#
#
# Convention : Reuss Voigt Hill
#
# Bulk Modulus (GPa) = 54.80194 63.70504 59.25349
# Shear Modulus (GPa) = 15.89812 20.05924 17.97868
#
# Velocity S-wave (km/s) = 3.04374 3.41895 3.23679
# Velocity P-wave (km/s) = 6.65488 7.26008 6.96406
#
# Compressibility (1/GPa) = 0.01824753
#
# Stress axis : x y z
#
# Youngs Moduli (GPa) = 76.12052 57.16632 65.20071
#
# Poissons Ratio (x) = 0.34779 0.33016
# Poissons Ratio (y) = 0.46311 0.17683
# Poissons Ratio (z) = 0.38546 0.15504
#
# Static dielectric constant tensor:
#      x y z
#    x 3.238450 0.000000 -0.018350 
#    y 0.000000 3.171220 0.000000 
#    z -0.018350 0.000000 3.226680 
# 
# 
# High freq. dielectric constant tensor:
#      x y z
#    x 1.666840 0.000000 -0.002780 
#    y 0.000000 1.655940 0.000000 
#    z -0.002780 0.000000 1.627830 
# 
# From -- ./inp_files/45122.got.cif
#   From: 2010.06.25/outbox.cif.g09.slc.cpg/sg10_23_cif.got.tgz:45122.got - 2010.06.27 22:07:45.
