data_PCOD8059956
_publ_section_title
;
Structure prediction by ZEFSAII (Michael W. Deem and Ramdas Pophale) SiO2 
 PCOD8059956
Probable space group: P 2/M
;
_chemical_formula_sum "Si O2"
_cell_formula_units_Z 32
_cell_length_a 28.381473
_cell_length_b 9.316708
_cell_length_c 20.818154
_cell_angle_alpha 90.000000
_cell_angle_beta 20.099077
_cell_angle_gamma 90.000000
_cell_volume 1891.686280
_symmetry_space_group_name_H-M "P 2/M"
_symmetry_group_IT_number 10
_symmetry_cell_setting 'monoclinic'
loop_
_space_group_symop_operation_xyz
x,y,z
-x,y,-z
-x,-y,-z
x,-y,z
loop_
_atom_site_type_symbol
_atom_site_label
_atom_site_fract_x
_atom_site_fract_y
_atom_site_fract_z
Si Si1 0.615070 0.335857 0.405679
Si Si2 0.392678 0.832349 0.456936
Si Si3 0.880709 0.667465 0.849940
Si Si4 0.779035 0.161814 0.794071
Si Si5 0.040664 0.160440 0.549864
Si Si6 0.106643 0.331319 0.020149
Si Si7 0.623392 0.330802 0.091793
Si Si8 0.924315 0.166336 0.160856
O O1 0.500000 0.318097 0.500000
O O2 0.620209 0.500000 0.424186
O O3 0.576341 0.231237 0.512865
O O4 0.758951 0.287832 0.191532
O O5 0.484024 0.749677 0.288126
O O6 0.236103 0.804323 0.639040
O O7 0.429824 0.000000 0.409546
O O8 0.906388 0.500000 0.812809
O O9 0.873537 0.721632 0.932222
O O10 0.012421 0.738866 0.647036
O O11 0.737924 0.708410 0.998403
O O12 0.826169 0.210784 0.661987
O O13 0.910611 0.164112 0.670519
O O14 0.718228 0.000000 0.869948
O O15 0.667958 0.272712 0.964516
O O16 0.065716 0.000000 0.543617
O O17 0.080029 0.500000 0.051907
O O18 0.977050 0.252224 0.155165
O O19 0.597407 0.500000 0.120715
O O20 0.959047 0.000000 0.126483
O O21 0.000000 0.224204 0.000000
#
# Coordination Sequence:
#
# PCOD8059956 Si02
#       8
#     4   4   4   4   4   4   4   4
#     4  10  20  34  51  71  98 128 157 192 236 287
#     4  11  22  35  51  70  94 125 161 202 247 288
#     4   9  18  31  46  70 103 132 159 197 239 284
#     4   8  14  26  43  66  98 131 165 198 231 276
#     4   8  14  25  43  67  96 132 166 196 230 277
#     4  10  20  33  51  72  94 125 163 199 240 286
#     4  10  19  31  48  71 102 133 162 197 239 287
#     4  10  21  38  54  69  92 120 158 210 252 285
#
# _framework density 16.916125000000001
#
# number of rings (size 3 to 8) (size 9 to 14) (size 15 to 20)
#    0.000    2.500    1.250    2.250    0.000    5.000 
#    0.000    3.750    0.000    0.000    0.000    0.875 
#    0.000    7.000    0.000    0.000    0.000    0.000 
#
# Total GULP energy -396770.096095 kJ/mol
# GULP energy per Si atom -12399.065503 kJ/mol
# Density = 1.687762 g / cm^3
# Si number density = 16.916125 Si / 1000 Ang^3
#
#
#
# Elastic Constant Matrix: (Units=GPa)
#
#
# Indices 1 2 3 4 5 6 
#
# 1 32.4694 25.3089 34.1937 0.0000 -0.5193 0.0000
# 2 25.3089 70.2537 59.5158 0.0000 6.7375 0.0000
# 3 34.1937 59.5158 117.1895 0.0000 18.4889 0.0000
# 4 0.0000 0.0000 0.0000 30.9539 0.0000 7.9054
# 5 -0.5193 6.7375 18.4889 0.0000 19.0919 0.0000
# 6 0.0000 0.0000 0.0000 7.9054 0.0000 24.0427
#
#
#
# Elastic Compliance Matrix: (Units=1/GPa)
#
#
# Indices 1 2 3 4 5 6 
#
# 1 0.052351 -0.009221 -0.013374 0.000000 0.017629 0.000000
# 2 -0.009221 0.026881 -0.011125 0.000000 0.001036 0.000000
# 3 -0.013374 -0.011125 0.020683 0.000000 -0.016468 0.000000
# 4 0.000000 0.000000 0.000000 0.035268 0.000000 -0.011596
# 5 0.017629 0.001036 -0.016468 0.000000 0.068440 0.000000
# 6 0.000000 0.000000 0.000000 -0.011596 0.000000 0.045406
#
#
# Mechanical properties :
#
#
# Convention : Reuss Voigt Hill
#
# Bulk Modulus (GPa) = 30.79079 50.88327 40.83703
# Shear Modulus (GPa) = 15.27682 21.54397 18.41040
#
# Velocity S-wave (km/s) = 3.00841 3.57259 3.30257
# Velocity P-wave (km/s) = 5.50535 6.86753 6.22382
#
# Compressibility (1/GPa) = 0.03247725
#
# Stress axis : x y z
#
# Youngs Moduli (GPa) = 19.10168 37.20101 48.34805
#
# Poissons Ratio (x) = 0.34302 0.64659
# Poissons Ratio (y) = 0.17613 0.53786
# Poissons Ratio (z) = 0.25546 0.41386
#
# Static dielectric constant tensor:
#      x y z
#    x 2.988480 0.000000 0.275690 
#    y 0.000000 3.212290 0.000000 
#    z 0.275690 0.000000 3.356490 
# 
# 
# High freq. dielectric constant tensor:
#      x y z
#    x 1.620390 0.000000 0.020900 
#    y 0.000000 1.653610 0.000000 
#    z 0.020900 0.000000 1.652830 
# 
# From -- ./inp_files/52785.got.cif
#   From: 2010.06.25/outbox.cif.g09.slc.cpg/sg10_27_cif.got.tgz:52785.got - 2010.06.27 22:07:45.
