data_PCOD8059691
_publ_section_title
;
Structure prediction by ZEFSAII (Michael W. Deem and Ramdas Pophale) SiO2 
 PCOD8059691
Probable space group: P 2/M
;
_chemical_formula_sum "Si O2"
_cell_formula_units_Z 32
_cell_length_a 12.070686
_cell_length_b 9.206931
_cell_length_c 30.443397
_cell_angle_alpha 90.000000
_cell_angle_beta 29.695031
_cell_angle_gamma 90.000000
_cell_volume 1676.028286
_symmetry_space_group_name_H-M "P 2/M"
_symmetry_group_IT_number 10
_symmetry_cell_setting 'monoclinic'
loop_
_space_group_symop_operation_xyz
x,y,z
-x,y,-z
-x,-y,-z
x,-y,z
loop_
_atom_site_type_symbol
_atom_site_label
_atom_site_fract_x
_atom_site_fract_y
_atom_site_fract_z
Si Si1 0.986770 0.337729 0.056127
Si Si2 0.660444 0.830980 0.013846
Si Si3 0.832979 0.331733 0.368509
Si Si4 0.369257 0.330858 0.752630
Si Si5 0.593450 0.669732 0.539889
Si Si6 0.991807 0.164167 0.174615
Si Si7 0.743733 0.171943 0.577101
Si Si8 0.817576 0.835128 0.798910
O O1 0.050247 0.500000 0.050407
O O2 0.166850 0.223343 0.009664
O O3 0.740801 0.300766 0.161283
O O4 0.000000 0.327468 0.000000
O O5 0.764470 0.796617 0.930135
O O6 0.625564 0.000000 0.031990
O O7 0.417348 0.760167 0.106052
O O8 0.870966 0.500000 0.347468
O O9 0.643255 0.278959 0.399247
O O10 0.772534 0.301004 0.439815
O O11 0.068014 0.251405 0.280021
O O12 0.422567 0.500000 0.727067
O O13 0.192539 0.279423 0.776698
O O14 0.596736 0.239940 0.667493
O O15 0.587638 0.500000 0.554855
O O16 0.662910 0.761707 0.558582
O O17 0.011524 0.174236 0.219594
O O18 0.923199 0.000000 0.183565
O O19 0.000000 0.210830 0.500000
O O20 0.705611 0.000000 0.588353
O O21 0.783961 0.000000 0.794906
#
# Coordination Sequence:
#
# PCOD8059691 Si02
#       8
#     4   4   4   4   4   4   4   4
#     4   9  19  37  57  77 103 136 177 222 264 310
#     4   9  18  32  49  73 105 139 176 215 257 308
#     4   9  19  35  55  80 108 140 177 221 270 321
#     4  10  20  35  57  82 105 136 179 222 265 318
#     4   9  19  38  60  79 104 139 181 224 268 324
#     4   9  17  31  52  75 105 143 178 215 258 307
#     4  11  24  40  57  81 112 143 178 228 280 323
#     4  10  19  30  47  76 110 142 175 210 257 315
#
# _framework density 19.092756999999999
#
# number of rings (size 3 to 8) (size 9 to 14) (size 15 to 20)
#    0.000    2.500    0.000    2.625    0.000    7.250 
#    2.250    1.250    0.000    3.750    0.000    0.000 
#    0.000    0.000    0.000    0.000    0.000    0.000 
#
# Total GULP energy -396609.549132 kJ/mol
# GULP energy per Si atom -12394.048410 kJ/mol
# Density = 1.904930 g / cm^3
# Si number density = 19.092757 Si / 1000 Ang^3
#
#
#
# Elastic Constant Matrix: (Units=GPa)
#
#
# Indices 1 2 3 4 5 6 
#
# 1 48.2765 19.6454 32.9679 0.0000 8.3605 0.0000
# 2 19.6454 50.5410 52.3672 0.0000 -0.3777 0.0000
# 3 32.9679 52.3672 146.5623 0.0000 -4.0252 0.0000
# 4 0.0000 0.0000 0.0000 32.9183 0.0000 0.7160
# 5 8.3605 -0.3777 -4.0252 0.0000 22.1964 0.0000
# 6 0.0000 0.0000 0.0000 0.7160 0.0000 13.9864
#
#
#
# Elastic Compliance Matrix: (Units=1/GPa)
#
#
# Indices 1 2 3 4 5 6 
#
# 1 0.028377 -0.006626 -0.004334 0.000000 -0.011587 0.000000
# 2 -0.006626 0.033015 -0.010273 0.000000 0.001195 0.000000
# 3 -0.004334 -0.010273 0.011566 0.000000 0.003555 0.000000
# 4 0.000000 0.000000 0.000000 0.030412 0.000000 -0.001557
# 5 -0.011587 0.001195 0.003555 0.000000 0.050082 0.000000
# 6 0.000000 0.000000 0.000000 -0.001557 0.000000 0.071578
#
#
# Mechanical properties :
#
#
# Convention : Reuss Voigt Hill
#
# Bulk Modulus (GPa) = 32.79615 50.59342 41.69479
# Shear Modulus (GPa) = 18.00773 23.18017 20.59395
#
# Velocity S-wave (km/s) = 3.07444 3.48815 3.28781
# Velocity P-wave (km/s) = 5.46054 6.54058 6.02481
#
# Compressibility (1/GPa) = 0.03049138
#
# Stress axis : x y z
#
# Youngs Moduli (GPa) = 35.24031 30.28962 86.46020
#
# Poissons Ratio (x) = 0.20071 0.37469
# Poissons Ratio (y) = 0.23352 0.88819
# Poissons Ratio (z) = 0.15272 0.31116
#
# Static dielectric constant tensor:
#      x y z
#    x 3.205940 0.000000 0.012990 
#    y 0.000000 3.479130 0.000000 
#    z 0.012990 0.000000 3.865210 
# 
# 
# High freq. dielectric constant tensor:
#      x y z
#    x 1.711850 0.000000 0.008840 
#    y 0.000000 1.736220 0.000000 
#    z 0.008840 0.000000 1.763020 
# 
# From -- ./inp_files/94930.got.cif
#   From: 2010.06.25/outbox.cif.g09.slc.cpg/sg10_48_cif.got.tgz:94930.got - 2010.06.27 22:07:45.
