data_PCOD8059071
_publ_section_title
;
Structure prediction by ZEFSAII (Michael W. Deem and Ramdas Pophale) SiO2 
 PCOD8059071
Probable space group: P 2/M
;
_chemical_formula_sum "Si O2"
_cell_formula_units_Z 32
_cell_length_a 28.883920
_cell_length_b 8.997104
_cell_length_c 12.456866
_cell_angle_alpha 90.000000
_cell_angle_beta 29.975967
_cell_angle_gamma 90.000000
_cell_volume 1617.416971
_symmetry_space_group_name_H-M "P 2/M"
_symmetry_group_IT_number 10
_symmetry_cell_setting 'monoclinic'
loop_
_space_group_symop_operation_xyz
x,y,z
-x,y,-z
-x,-y,-z
x,-y,z
loop_
_atom_site_type_symbol
_atom_site_label
_atom_site_fract_x
_atom_site_fract_y
_atom_site_fract_z
Si Si1 0.478020 0.323879 0.422364
Si Si2 0.351360 0.173910 0.006966
Si Si3 0.972186 0.331864 0.440907
Si Si4 0.724732 0.672554 0.231842
Si Si5 0.768987 0.334141 0.911579
Si Si6 0.825524 0.676987 0.240859
Si Si7 0.994836 0.174347 0.184139
Si Si8 0.789241 0.175510 0.525302
O O1 0.500000 0.270534 0.500000
O O2 0.483281 0.500000 0.404725
O O3 0.377590 0.262761 0.586969
O O4 0.549996 0.255790 0.191784
O O5 0.300725 0.215383 0.997702
O O6 0.288630 0.226668 0.233204
O O7 0.368174 0.000000 0.976982
O O8 0.011461 0.500000 0.346661
O O9 0.861626 0.331254 0.656208
O O10 0.014465 0.225496 0.266383
O O11 0.000000 0.266606 0.500000
O O12 0.715155 0.500000 0.275501
O O13 0.774199 0.741801 0.237437
O O14 0.787682 0.703687 0.999569
O O15 0.723546 0.500000 0.996932
O O16 0.831858 0.500000 0.229552
O O17 0.767903 0.736259 0.458647
O O18 0.929387 0.744052 0.041925
O O19 0.891213 0.222523 0.361221
O O20 0.009896 0.000000 0.141957
O O21 0.784398 0.000000 0.514899
#
# Coordination Sequence:
#
# PCOD8059071 Si02
#       8
#     4   4   4   4   4   4   4   4
#     4  10  19  36  63  88 113 151 189 228 286 350
#     4  11  22  37  57  85 118 148 186 237 283 332
#     4  10  20  33  53  82 116 152 193 242 286 333
#     4   9  19  37  59  86 118 147 183 236 293 342
#     4  10  18  33  57  81 112 151 187 227 284 344
#     4  11  23  39  61  87 114 147 195 248 289 337
#     4  11  22  38  58  81 115 157 196 237 287 346
#     4  10  23  42  59  79 116 159 195 237 287 338
#
# _framework density 19.784631999999998
#
# number of rings (size 3 to 8) (size 9 to 14) (size 15 to 20)
#    0.000    1.750    2.500    2.250    0.000    6.000 
#    0.000    4.375    0.000    3.750    0.000    0.000 
#    0.000    0.000    0.000    0.000    0.000    0.000 
#
# Total GULP energy -396785.825285 kJ/mol
# GULP energy per Si atom -12399.557040 kJ/mol
# Density = 1.973960 g / cm^3
# Si number density = 19.784632 Si / 1000 Ang^3
#
#
#
# Elastic Constant Matrix: (Units=GPa)
#
#
# Indices 1 2 3 4 5 6 
#
# 1 71.0381 23.5510 33.9428 0.0000 14.8397 0.0000
# 2 23.5510 43.4408 36.5264 0.0000 5.3122 0.0000
# 3 33.9428 36.5264 117.6008 0.0000 11.4027 0.0000
# 4 0.0000 0.0000 0.0000 33.6198 0.0000 5.5155
# 5 14.8397 5.3122 11.4027 0.0000 32.0788 0.0000
# 6 0.0000 0.0000 0.0000 5.5155 0.0000 21.5058
#
#
#
# Elastic Compliance Matrix: (Units=1/GPa)
#
#
# Indices 1 2 3 4 5 6 
#
# 1 0.019168 -0.007398 -0.002583 0.000000 -0.006724 0.000000
# 2 -0.007398 0.034111 -0.008538 0.000000 0.000808 0.000000
# 3 -0.002583 -0.008538 0.012063 0.000000 -0.001679 0.000000
# 4 0.000000 0.000000 0.000000 0.031051 0.000000 -0.007964
# 5 -0.006724 0.000808 -0.001679 0.000000 0.034747 0.000000
# 6 0.000000 0.000000 0.000000 -0.007964 0.000000 0.048541
#
#
# Mechanical properties :
#
#
# Convention : Reuss Voigt Hill
#
# Bulk Modulus (GPa) = 35.32902 46.68000 41.00451
# Shear Modulus (GPa) = 22.10887 26.64485 24.37686
#
# Velocity S-wave (km/s) = 3.34649 3.67378 3.51395
# Velocity P-wave (km/s) = 5.72954 6.45297 6.10199
#
# Compressibility (1/GPa) = 0.02830534
#
# Stress axis : x y z
#
# Youngs Moduli (GPa) = 52.16946 29.31641 82.89523
#
# Poissons Ratio (x) = 0.21688 0.21409
# Poissons Ratio (y) = 0.38595 0.70774
# Poissons Ratio (z) = 0.13474 0.25030
#
# Static dielectric constant tensor:
#      x y z
#    x 3.643780 0.000000 0.009450 
#    y 0.000000 3.316100 0.000000 
#    z 0.009450 0.000000 3.785080 
# 
# 
# High freq. dielectric constant tensor:
#      x y z
#    x 1.761600 0.000000 0.004580 
#    y 0.000000 1.746530 0.000000 
#    z 0.004580 0.000000 1.781010 
# 
# From -- ./inp_files/58163.got.cif
#   From: 2010.06.25/outbox.cif.g09.slc.cpg/sg10_30_cif.got.tgz:58163.got - 2010.06.27 22:07:45.
