data_PCOD8059121
_publ_section_title
;
Structure prediction by ZEFSAII (Michael W. Deem and Ramdas Pophale) SiO2 
 PCOD8059121
Probable space group: P 2/M
;
_chemical_formula_sum "Si O2"
_cell_formula_units_Z 24
_cell_length_a 16.760425
_cell_length_b 13.929370
_cell_length_c 9.395963
_cell_angle_alpha 90.000000
_cell_angle_beta 34.745486
_cell_angle_gamma 90.000000
_cell_volume 1250.203939
_symmetry_space_group_name_H-M "P 2/M"
_symmetry_group_IT_number 10
_symmetry_cell_setting 'monoclinic'
loop_
_space_group_symop_operation_xyz
x,y,z
-x,y,-z
-x,-y,-z
x,-y,z
loop_
_atom_site_type_symbol
_atom_site_label
_atom_site_fract_x
_atom_site_fract_y
_atom_site_fract_z
Si Si1 0.839844 0.106106 0.281117
Si Si2 0.333731 0.103354 0.748630
Si Si3 0.155386 0.306069 0.613313
Si Si4 0.636839 0.301841 0.202487
Si Si5 0.856878 0.389410 0.071249
Si Si6 0.371095 0.388494 0.088065
O O1 0.733116 0.121450 0.307791
O O2 0.811932 0.191685 0.434228
O O3 0.814363 0.000000 0.386770
O O4 0.000000 0.115312 0.000000
O O5 0.500000 0.097025 0.500000
O O6 0.293409 0.194968 0.904668
O O7 0.277071 0.000000 0.891383
O O8 0.208715 0.354816 0.682244
O O9 0.229710 0.352689 0.369117
O O10 0.990477 0.324520 0.838569
O O11 0.500000 0.300098 0.500000
O O12 0.744566 0.377709 0.111169
O O13 0.599177 0.331862 0.099536
O O14 0.902066 0.500000 0.016143
O O15 0.357148 0.500000 0.073385
O O16 0.500000 0.365048 0.000000
#
# Coordination Sequence:
#
# PCOD8059121 Si02
#       6
#     4   4   4   4   4   4
#     4  10  18  33  60  90 118 151 194 238 290 354
#     4   9  18  33  56  85 112 144 190 242 291 340
#     4  11  20  38  57  85 119 150 190 238 298 345
#     4  11  22  38  60  84 112 155 202 241 291 357
#     4  11  21  35  59  85 112 152 198 242 285 347
#     4  11  25  40  56  81 117 157 195 246 299 343
#
# _framework density 19.196867999999998
#
# number of rings (size 3 to 8) (size 9 to 14) (size 15 to 20)
#    0.000    1.500    3.333    3.500    2.333    3.333 
#    0.000    2.500    0.000    1.000    0.000    5.833 
#    0.000    0.000    0.000    0.000    0.000    0.000 
#
# Total GULP energy -297509.466159 kJ/mol
# GULP energy per Si atom -12396.227757 kJ/mol
# Density = 1.915317 g / cm^3
# Si number density = 19.196868 Si / 1000 Ang^3
#
#
#
# Elastic Constant Matrix: (Units=GPa)
#
#
# Indices 1 2 3 4 5 6 
#
# 1 98.7595 50.2860 36.8069 0.0000 -2.8068 0.0000
# 2 50.2860 158.9712 30.3595 0.0000 11.1393 0.0000
# 3 36.8069 30.3595 72.1476 0.0000 14.1107 0.0000
# 4 0.0000 0.0000 0.0000 20.0800 0.0000 -0.4156
# 5 -2.8068 11.1393 14.1107 0.0000 30.7912 0.0000
# 6 0.0000 0.0000 0.0000 -0.4156 0.0000 31.8395
#
#
#
# Elastic Compliance Matrix: (Units=1/GPa)
#
#
# Indices 1 2 3 4 5 6 
#
# 1 0.014890 -0.003758 -0.007191 0.000000 0.006012 0.000000
# 2 -0.003758 0.007834 -0.000833 0.000000 -0.002795 0.000000
# 3 -0.007191 -0.000833 0.019716 0.000000 -0.009389 0.000000
# 4 0.000000 0.000000 0.000000 0.049814 0.000000 0.000650
# 5 0.006012 -0.002795 -0.009389 0.000000 0.038339 0.000000
# 6 0.000000 0.000000 0.000000 0.000650 0.000000 0.031416
#
#
# Mechanical properties :
#
#
# Convention : Reuss Voigt Hill
#
# Bulk Modulus (GPa) = 52.97526 62.75368 57.86447
# Shear Modulus (GPa) = 26.06014 30.70386 28.38200
#
# Velocity S-wave (km/s) = 3.68845 4.00361 3.84926
# Velocity P-wave (km/s) = 6.76722 7.35747 7.06851
#
# Compressibility (1/GPa) = 0.01887674
#
# Stress axis : x y z
#
# Youngs Moduli (GPa) = 67.15968 127.64765 50.72114
#
# Poissons Ratio (x) = 0.47970 0.36472
# Poissons Ratio (y) = 0.25239 0.04224
# Poissons Ratio (z) = 0.48293 0.10629
#
# Static dielectric constant tensor:
#      x y z
#    x 3.377480 0.000000 -0.199530 
#    y 0.000000 4.170860 0.000000 
#    z -0.199530 0.000000 3.181990 
# 
# 
# High freq. dielectric constant tensor:
#      x y z
#    x 1.749690 0.000000 -0.029860 
#    y 0.000000 1.775330 0.000000 
#    z -0.029860 0.000000 1.703480 
# 
# From -- ./inp_files/29298.got.cif
#   From: 2010.06.25/outbox.cif.g09.slc.cpg/sg10_15_cif.got.tgz:29298.got - 2010.06.27 22:07:45.
