data_PCOD8059017
_publ_section_title
;
Structure prediction by ZEFSAII (Michael W. Deem and Ramdas Pophale) SiO2 
 PCOD8059017
Probable space group: P 2/M
;
_chemical_formula_sum "Si O2"
_cell_formula_units_Z 28
_cell_length_a 19.588192
_cell_length_b 8.824029
_cell_length_c 16.542431
_cell_angle_alpha 90.000000
_cell_angle_beta 149.010116
_cell_angle_gamma 90.000000
_cell_volume 1472.218625
_symmetry_space_group_name_H-M "P 2/M"
_symmetry_group_IT_number 10
_symmetry_cell_setting 'monoclinic'
loop_
_space_group_symop_operation_xyz
x,y,z
-x,y,-z
-x,-y,-z
x,-y,z
loop_
_atom_site_type_symbol
_atom_site_label
_atom_site_fract_x
_atom_site_fract_y
_atom_site_fract_z
Si Si1 0.604525 0.180790 0.670632
Si Si2 0.349746 0.679094 0.836022
Si Si3 0.258964 0.178034 0.578877
Si Si4 0.903913 0.819500 0.972622
Si Si5 0.478191 0.177531 0.240954
Si Si6 0.980747 0.179832 0.227352
Si Si7 0.254191 0.820177 0.896010
O O1 0.500000 0.246742 0.500000
O O2 0.753775 0.234479 0.801501
O O3 0.561626 0.249595 0.713657
O O4 0.597777 0.000000 0.664704
O O5 0.347700 0.500000 0.837586
O O6 0.288993 0.732849 0.690509
O O7 0.253989 0.744161 0.808154
O O8 0.500000 0.741209 0.000000
O O9 0.370324 0.215736 0.625345
O O10 0.122931 0.237926 0.402076
O O11 0.254438 0.000000 0.594449
O O12 0.910858 0.000000 0.981001
O O13 0.949695 0.754810 0.106429
O O14 0.000000 0.754724 0.000000
O O15 0.451885 0.000000 0.219995
O O16 0.384112 0.240779 0.074762
O O17 0.872692 0.236492 0.182272
O O18 0.977859 0.000000 0.219372
O O19 0.253637 0.000000 0.884132
#
# Coordination Sequence:
#
# PCOD8059017 Si02
#       7
#     4   4   4   4   4   4   4
#     4   9  16  24  37  63  99 136 169 200 241 293
#     4  11  23  37  53  76 103 127 162 213 262 302
#     4  10  20  33  52  76 100 132 173 209 247 298
#     4   9  16  25  38  61  99 139 165 196 249 298
#     4   9  16  27  45  68  96 133 173 205 236 289
#     4   9  18  31  47  71 102 134 170 209 246 293
#     4  10  18  33  55  73  98 136 171 204 247 298
#
# _framework density 19.018913999999999
#
# number of rings (size 3 to 8) (size 9 to 14) (size 15 to 20)
#    0.000    2.429    2.857    0.429    2.000    1.143 
#    0.000    3.571    0.000    0.000    0.000    0.000 
#    0.000    6.857    0.000    0.000    0.000    0.000 
#
# Total GULP energy -347157.715798 kJ/mol
# GULP energy per Si atom -12398.489850 kJ/mol
# Density = 1.897563 g / cm^3
# Si number density = 19.018914 Si / 1000 Ang^3
#
#
#
# Elastic Constant Matrix: (Units=GPa)
#
#
# Indices 1 2 3 4 5 6 
#
# 1 161.0573 24.0895 69.6272 0.0000 2.6709 0.0000
# 2 24.0895 18.9346 17.8951 0.0000 1.1323 0.0000
# 3 69.6272 17.8951 153.4453 0.0000 8.4195 0.0000
# 4 0.0000 0.0000 0.0000 8.5494 0.0000 3.5953
# 5 2.6709 1.1323 8.4195 0.0000 35.7450 0.0000
# 6 0.0000 0.0000 0.0000 3.5953 0.0000 -1.1908
#
#
#
# Elastic Compliance Matrix: (Units=1/GPa)
#
#
# Indices 1 2 3 4 5 6 
#
# 1 0.008751 -0.008297 -0.003021 0.000000 0.000320 0.000000
# 2 -0.008297 0.067225 -0.004044 0.000000 -0.000557 0.000000
# 3 -0.003021 -0.004044 0.008449 0.000000 -0.001636 0.000000
# 4 0.000000 0.000000 0.000000 0.051536 0.000000 0.155593
# 5 0.000320 -0.000557 -0.001636 0.000000 0.028355 0.000000
# 6 0.000000 0.000000 0.000000 0.155593 0.000000 -0.369992
#
#
# Mechanical properties :
#
#
# Convention : Reuss Voigt Hill
#
# Bulk Modulus (GPa) = 18.62192 61.85119 40.23656
# Shear Modulus (GPa) = -31.83669 23.40908 -4.21381
#
# Velocity S-wave (km/s) = -4.09583 3.51213 -1.49010
# Velocity P-wave (km/s) = 3.54334 7.00273 4.27100
#
# Compressibility (1/GPa) = 0.05370014
#
# Stress axis : x y z
#
# Youngs Moduli (GPa) = 114.27899 14.87542 118.35664
#
# Poissons Ratio (x) = 0.12342 0.35750
# Poissons Ratio (y) = 0.94820 0.47868
# Poissons Ratio (z) = 0.34519 0.06016
#
# Static dielectric constant tensor:
#      x y z
#    x 3.744200 0.000000 0.050500 
#    y 0.000000 2.757530 0.000000 
#    z 0.050500 0.000000 3.691160 
# 
# 
# High freq. dielectric constant tensor:
#      x y z
#    x 1.757090 0.000000 0.000950 
#    y 0.000000 1.664370 0.000000 
#    z 0.000950 0.000000 1.747960 
# 
# From -- ./inp_files/79292.got.cif
#   From: 2010.06.25/outbox.cif.g09.slc.cpg/sg10_40_cif.got.tgz:79292.got - 2010.06.27 22:07:45.
