data_PCOD8059501
_publ_section_title
;
Structure prediction by ZEFSAII (Michael W. Deem and Ramdas Pophale) SiO2 
 PCOD8059501
Probable space group: P 2/M
;
_chemical_formula_sum "Si O2"
_cell_formula_units_Z 28
_cell_length_a 27.403220
_cell_length_b 9.772153
_cell_length_c 21.316731
_cell_angle_alpha 90.000000
_cell_angle_beta 162.524799
_cell_angle_gamma 90.000000
_cell_volume 1714.184798
_symmetry_space_group_name_H-M "P 2/M"
_symmetry_group_IT_number 10
_symmetry_cell_setting 'monoclinic'
loop_
_space_group_symop_operation_xyz
x,y,z
-x,y,-z
-x,-y,-z
x,-y,z
loop_
_atom_site_type_symbol
_atom_site_label
_atom_site_fract_x
_atom_site_fract_y
_atom_site_fract_z
Si Si1 0.762298 0.156005 0.322352
Si Si2 0.328644 0.350568 0.256136
Si Si3 0.967980 0.657996 0.389610
Si Si4 0.499765 0.843594 0.102106
Si Si5 0.403954 0.340318 0.094431
Si Si6 0.829118 0.663940 0.816170
Si Si7 0.498006 0.663421 0.648192
O O1 0.918145 0.253383 0.516055
O O2 0.669196 0.173223 0.273675
O O3 0.819134 0.000000 0.382947
O O4 0.646638 0.200331 0.123122
O O5 0.500000 0.369051 0.500000
O O6 0.254433 0.500000 0.150243
O O7 0.205713 0.277788 0.155383
O O8 0.368076 0.275650 0.237801
O O9 0.013003 0.500000 0.435111
O O10 0.000000 0.704104 0.500000
O O11 0.785039 0.690062 0.146208
O O12 0.506771 0.744113 0.170053
O O13 0.476217 0.000000 0.095352
O O14 0.444116 0.500000 0.134758
O O15 0.456900 0.285340 0.227446
O O16 0.832606 0.500000 0.823364
O O17 0.684487 0.713092 0.592537
O O18 0.000000 0.722735 0.000000
O O19 0.507123 0.500000 0.655013
#
# Coordination Sequence:
#
# PCOD8059501 Si02
#       7
#     4   4   4   4   4   4   4
#     4   9  18  32  49  66  83 108 149 195 230 265
#     4   7  10  18  32  48  70 102 134 163 200 244
#     4  10  19  30  43  64  91 117 149 186 220 262
#     4   9  18  32  48  66  86 111 147 189 230 271
#     4  10  19  30  44  64  92 122 149 182 224 267
#     4   8  12  19  34  56  79 105 140 178 209 245
#     4   8  14  24  36  53  81 115 144 169 209 263
#
# _framework density 16.334295000000001
#
# number of rings (size 3 to 8) (size 9 to 14) (size 15 to 20)
#    0.000    3.286    1.429    2.571    0.000    1.429 
#    0.000    2.857    0.000    5.143    0.000    0.000 
#    0.000    5.714    0.000    0.000    0.000    0.143 
#
# Total GULP energy -346926.476177 kJ/mol
# GULP energy per Si atom -12390.231292 kJ/mol
# Density = 1.629712 g / cm^3
# Si number density = 16.334295 Si / 1000 Ang^3
#
#
#
# Elastic Constant Matrix: (Units=GPa)
#
#
# Indices 1 2 3 4 5 6 
#
# 1 145.3682 38.0365 60.0617 0.0000 0.7003 0.0000
# 2 38.0365 34.7625 21.1673 0.0000 4.6378 0.0000
# 3 60.0617 21.1673 73.9149 0.0000 3.2769 0.0000
# 4 0.0000 0.0000 0.0000 8.1855 0.0000 8.9003
# 5 0.7003 4.6378 3.2769 0.0000 28.9834 0.0000
# 6 0.0000 0.0000 0.0000 8.9003 0.0000 19.0818
#
#
#
# Elastic Compliance Matrix: (Units=1/GPa)
#
#
# Indices 1 2 3 4 5 6 
#
# 1 0.012395 -0.009261 -0.007510 0.000000 0.002032 0.000000
# 2 -0.009261 0.042347 -0.004333 0.000000 -0.006063 0.000000
# 3 -0.007510 -0.004333 0.020939 0.000000 -0.001493 0.000000
# 4 0.000000 0.000000 0.000000 0.247882 0.000000 -0.115620
# 5 0.002032 -0.006063 -0.001493 0.000000 0.035592 0.000000
# 6 0.000000 0.000000 0.000000 -0.115620 0.000000 0.106335
#
#
# Mechanical properties :
#
#
# Convention : Reuss Voigt Hill
#
# Bulk Modulus (GPa) = 29.87506 54.73073 42.30289
# Shear Modulus (GPa) = 9.63657 20.23549 14.93603
#
# Velocity S-wave (km/s) = 2.43154 3.52353 3.02718
# Velocity P-wave (km/s) = 5.11983 7.08047 6.17842
#
# Compressibility (1/GPa) = 0.03347274
#
# Stress axis : x y z
#
# Youngs Moduli (GPa) = 80.67464 23.61446 47.75807
#
# Poissons Ratio (x) = 0.21869 0.35868
# Poissons Ratio (y) = 0.74711 0.20694
# Poissons Ratio (z) = 0.60589 0.10233
#
# Static dielectric constant tensor:
#      x y z
#    x 3.407720 0.000000 0.074610 
#    y 0.000000 2.614560 0.000000 
#    z 0.074610 0.000000 2.944900 
# 
# 
# High freq. dielectric constant tensor:
#      x y z
#    x 1.640280 0.000000 0.010810 
#    y 0.000000 1.575820 0.000000 
#    z 0.010810 0.000000 1.605960 
# 
# From -- ./inp_files/33477.got.cif
#   From: 2010.06.25/outbox.cif.g09.slc.cpg/sg10_17_cif.got.tgz:33477.got - 2010.06.27 22:07:45.
