data_PCOD8059185
_publ_section_title
;
Structure prediction by ZEFSAII (Michael W. Deem and Ramdas Pophale) SiO2 
 PCOD8059185
Probable space group: P 2/M
;
_chemical_formula_sum "Si O2"
_cell_formula_units_Z 24
_cell_length_a 25.135389
_cell_length_b 8.616357
_cell_length_c 12.443910
_cell_angle_alpha 90.000000
_cell_angle_beta 25.410952
_cell_angle_gamma 90.000000
_cell_volume 1156.465184
_symmetry_space_group_name_H-M "P 2/M"
_symmetry_group_IT_number 10
_symmetry_cell_setting 'monoclinic'
loop_
_space_group_symop_operation_xyz
x,y,z
-x,y,-z
-x,-y,-z
x,-y,z
loop_
_atom_site_type_symbol
_atom_site_label
_atom_site_fract_x
_atom_site_fract_y
_atom_site_fract_z
Si Si1 0.288894 0.176106 0.615795
Si Si2 0.007863 0.824826 0.108597
Si Si3 0.859245 0.817651 0.740713
Si Si4 0.805505 0.321667 0.614321
Si Si5 0.367204 0.185807 0.698771
Si Si6 0.644813 0.825894 0.733164
O O1 0.358333 0.249824 0.592103
O O2 0.315572 0.257021 0.451966
O O3 0.335953 0.000000 0.516781
O O4 0.144581 0.183817 0.906325
O O5 0.929340 0.705072 0.320601
O O6 0.955210 0.000000 0.216065
O O7 0.000000 0.771375 0.000000
O O8 0.809254 0.781310 0.713803
O O9 0.000000 0.747588 0.500000
O O10 0.868186 0.000000 0.741189
O O11 0.753181 0.750882 0.015459
O O12 0.794114 0.500000 0.668432
O O13 0.689128 0.273760 0.753476
O O14 0.500000 0.247389 0.500000
O O15 0.364002 0.000000 0.706738
O O16 0.702565 0.000000 0.635286
O O17 0.500000 0.833891 0.000000
#
# Coordination Sequence:
#
# PCOD8059185 Si02
#       6
#     4   4   4   4   4   4
#     4   9  17  32  55  86 117 144 181 241 302 346
#     4  10  18  34  59  84 113 147 192 243 290 345
#     4  10  21  39  63  88 116 154 204 254 301 352
#     4  12  25  38  57  86 125 160 195 240 297 368
#     4   9  18  31  54  88 117 142 184 248 305 348
#     4  10  21  37  61  89 116 153 201 247 295 351
#
# _framework density 20.752896
#
# number of rings (size 3 to 8) (size 9 to 14) (size 15 to 20)
#    0.000    2.000    1.667    2.500    2.333    3.667 
#    0.000    0.000    0.000    1.500    0.000    0.000 
#    0.000    0.000    0.000    0.000    0.000    0.000 
#
# Total GULP energy -297471.997625 kJ/mol
# GULP energy per Si atom -12394.666568 kJ/mol
# Density = 2.070566 g / cm^3
# Si number density = 20.752896 Si / 1000 Ang^3
#
#
#
# Elastic Constant Matrix: (Units=GPa)
#
#
# Indices 1 2 3 4 5 6 
#
# 1 152.5606 0.1333 42.8593 0.0000 -5.0038 0.0000
# 2 0.1333 17.4018 8.5067 0.0000 -3.7388 0.0000
# 3 42.8593 8.5067 104.6639 0.0000 -12.5263 0.0000
# 4 0.0000 0.0000 0.0000 7.9635 0.0000 1.2602
# 5 -5.0038 -3.7388 -12.5263 0.0000 32.6361 0.0000
# 6 0.0000 0.0000 0.0000 1.2602 0.0000 6.6459
#
#
#
# Elastic Compliance Matrix: (Units=1/GPa)
#
#
# Indices 1 2 3 4 5 6 
#
# 1 0.007444 0.001509 -0.003159 0.000000 0.000102 0.000000
# 2 0.001509 0.061013 -0.004940 0.000000 0.005325 0.000000
# 3 -0.003159 -0.004940 0.011659 0.000000 0.003425 0.000000
# 4 0.000000 0.000000 0.000000 0.129457 0.000000 -0.024548
# 5 0.000102 0.005325 0.003425 0.000000 0.032581 0.000000
# 6 0.000000 0.000000 0.000000 -0.024548 0.000000 0.155123
#
#
# Mechanical properties :
#
#
# Convention : Reuss Voigt Hill
#
# Bulk Modulus (GPa) = 14.93932 41.95832 28.44882
# Shear Modulus (GPa) = 11.55351 24.32424 17.93887
#
# Velocity S-wave (km/s) = 2.36205 3.42729 2.94326
# Velocity P-wave (km/s) = 3.82796 5.99364 5.02877
#
# Compressibility (1/GPa) = 0.06693744
#
# Stress axis : x y z
#
# Youngs Moduli (GPa) = 134.33260 16.39005 85.76864
#
# Poissons Ratio (x) = -0.02473 0.27093
# Poissons Ratio (y) = -0.20271 0.42366
# Poissons Ratio (z) = 0.42433 0.08096
#
# Static dielectric constant tensor:
#      x y z
#    x 4.038910 0.000000 0.061420 
#    y 0.000000 3.156540 0.000000 
#    z 0.061420 0.000000 3.920570 
# 
# 
# High freq. dielectric constant tensor:
#      x y z
#    x 1.832840 0.000000 -0.000990 
#    y 0.000000 1.742110 0.000000 
#    z -0.000990 0.000000 1.820640 
# 
# From -- ./inp_files/56545.got.cif
#   From: 2010.06.25/outbox.cif.g09.slc.cpg/sg10_29_cif.got.tgz:56545.got - 2010.06.27 22:07:45.
