data_PCOD8059453
_publ_section_title
;
Structure prediction by ZEFSAII (Michael W. Deem and Ramdas Pophale) SiO2 
 PCOD8059453
Probable space group: P 2/M
;
_chemical_formula_sum "Si O2"
_cell_formula_units_Z 28
_cell_length_a 9.680764
_cell_length_b 14.243362
_cell_length_c 16.012486
_cell_angle_alpha 90.000000
_cell_angle_beta 46.744316
_cell_angle_gamma 90.000000
_cell_volume 1608.025764
_symmetry_space_group_name_H-M "P 2/M"
_symmetry_group_IT_number 10
_symmetry_cell_setting 'monoclinic'
loop_
_space_group_symop_operation_xyz
x,y,z
-x,y,-z
-x,-y,-z
x,-y,z
loop_
_atom_site_type_symbol
_atom_site_label
_atom_site_fract_x
_atom_site_fract_y
_atom_site_fract_z
Si Si1 0.952599 0.208093 0.315085
Si Si2 0.203111 0.231675 0.445285
Si Si3 0.556810 0.603446 0.608923
Si Si4 0.294910 0.110957 0.255979
Si Si5 0.916300 0.889108 0.164093
Si Si6 0.720191 0.110649 0.081140
Si Si7 0.195915 0.397337 0.659268
O O1 0.160207 0.167287 0.248522
O O2 0.858316 0.153546 0.277042
O O3 0.812360 0.196075 0.452590
O O4 0.966277 0.317995 0.282709
O O5 0.358040 0.314372 0.367791
O O6 0.258066 0.141910 0.366635
O O7 0.000000 0.272754 0.500000
O O8 0.570167 0.500000 0.646673
O O9 0.680044 0.601195 0.474843
O O10 0.337340 0.625460 0.677915
O O11 0.508628 0.139242 0.141914
O O12 0.256997 0.000000 0.264080
O O13 0.771586 0.851741 0.152815
O O14 0.907952 0.000000 0.177018
O O15 0.128593 0.854103 0.050307
O O16 0.739697 0.000000 0.079072
O O17 0.100274 0.500000 0.712066
#
# Coordination Sequence:
#
# PCOD8059453 Si02
#       7
#     4   4   4   4   4   4   4
#     4  10  19  29  47  73  92 125 162 192 225 279
#     4   9  19  30  42  68 100 132 157 185 229 280
#     4   8  14  27  46  65  90 122 156 195 234 275
#     4  10  20  33  46  64  98 137 160 186 231 275
#     4   9  17  31  50  72  93 116 155 203 238 272
#     4   8  17  33  49  66  92 122 154 199 246 271
#     4   8  15  28  45  67  93 119 151 197 243 271
#
# _framework density 17.412655999999998
#
# number of rings (size 3 to 8) (size 9 to 14) (size 15 to 20)
#    0.000    3.143    0.000    2.143    2.000    4.000 
#    0.000    4.286    0.000    2.571    0.000    5.000 
#    0.000    0.000    0.000    0.000    0.000    0.000 
#
# Total GULP energy -346938.813450 kJ/mol
# GULP energy per Si atom -12390.671909 kJ/mol
# Density = 1.737302 g / cm^3
# Si number density = 17.412656 Si / 1000 Ang^3
#
#
#
# Elastic Constant Matrix: (Units=GPa)
#
#
# Indices 1 2 3 4 5 6 
#
# 1 74.0239 57.2394 21.0158 0.0000 -5.6258 0.0000
# 2 57.2394 98.6929 23.5460 0.0000 -11.1112 0.0000
# 3 21.0158 23.5460 29.6152 0.0000 4.7602 0.0000
# 4 0.0000 0.0000 0.0000 3.8804 0.0000 -4.5338
# 5 -5.6258 -11.1112 4.7602 0.0000 27.8902 0.0000
# 6 0.0000 0.0000 0.0000 -4.5338 0.0000 32.1325
#
#
#
# Elastic Compliance Matrix: (Units=1/GPa)
#
#
# Indices 1 2 3 4 5 6 
#
# 1 0.025986 -0.012881 -0.008449 0.000000 0.001552 0.000000
# 2 -0.012881 0.020314 -0.008116 0.000000 0.006880 0.000000
# 3 -0.008449 -0.008116 0.048335 0.000000 -0.013187 0.000000
# 4 0.000000 0.000000 0.000000 0.308575 0.000000 0.043539
# 5 0.001552 0.006880 -0.013187 0.000000 0.041160 0.000000
# 6 0.000000 0.000000 0.000000 0.043539 0.000000 0.037264
#
#
# Mechanical properties :
#
#
# Convention : Reuss Voigt Hill
#
# Bulk Modulus (GPa) = 27.97757 45.10380 36.54069
# Shear Modulus (GPa) = 9.05078 19.48267 14.26672
#
# Velocity S-wave (km/s) = 2.28234 3.34859 2.86550
# Velocity P-wave (km/s) = 4.80080 6.39608 5.65498
#
# Compressibility (1/GPa) = 0.03574291
#
# Stress axis : x y z
#
# Youngs Moduli (GPa) = 38.48250 49.22765 20.68915
#
# Poissons Ratio (x) = 0.63409 0.17480
# Poissons Ratio (y) = 0.49568 0.16792
# Poissons Ratio (z) = 0.32513 0.39954
#
# Static dielectric constant tensor:
#      x y z
#    x 3.456700 0.000000 -0.098400 
#    y 0.000000 3.403680 0.000000 
#    z -0.098400 0.000000 3.042000 
# 
# 
# High freq. dielectric constant tensor:
#      x y z
#    x 1.675990 0.000000 0.000810 
#    y 0.000000 1.658600 0.000000 
#    z 0.000810 0.000000 1.630940 
# 
# From -- ./inp_files/28942.got.cif
#   From: 2010.06.25/outbox.cif.g09.slc.cpg/sg10_15_cif.got.tgz:28942.got - 2010.06.27 22:07:45.
