data_PCOD8059710
_publ_section_title
;
Structure prediction by ZEFSAII (Michael W. Deem and Ramdas Pophale) SiO2 
 PCOD8059710
Probable space group: P 2/M
;
_chemical_formula_sum "Si O2"
_cell_formula_units_Z 32
_cell_length_a 20.059739
_cell_length_b 9.136637
_cell_length_c 21.453410
_cell_angle_alpha 90.000000
_cell_angle_beta 151.930777
_cell_angle_gamma 90.000000
_cell_volume 1850.131749
_symmetry_space_group_name_H-M "P 2/M"
_symmetry_group_IT_number 10
_symmetry_cell_setting 'monoclinic'
loop_
_space_group_symop_operation_xyz
x,y,z
-x,y,-z
-x,-y,-z
x,-y,z
loop_
_atom_site_type_symbol
_atom_site_label
_atom_site_fract_x
_atom_site_fract_y
_atom_site_fract_z
Si Si1 0.262442 0.669383 0.063350
Si Si2 0.661512 0.827823 0.988418
Si Si3 0.650992 0.832962 0.314760
Si Si4 0.157785 0.327543 0.619584
Si Si5 0.144280 0.669270 0.093321
Si Si6 0.658583 0.670272 0.111918
Si Si7 0.549597 0.672464 0.610241
Si Si8 0.472662 0.829735 0.660896
O O1 0.285416 0.500000 0.065701
O O2 0.230921 0.757306 0.973646
O O3 0.140696 0.690258 0.015170
O O4 0.401394 0.733397 0.208983
O O5 0.500768 0.782641 0.838371
O O6 0.683727 0.000000 0.006056
O O7 0.704158 0.764566 0.090278
O O8 0.776528 0.738328 0.389119
O O9 0.654106 0.813709 0.392876
O O10 0.677856 0.000000 0.318166
O O11 0.160428 0.500000 0.612951
O O12 0.245604 0.277440 0.751991
O O13 0.000000 0.268038 0.500000
O O14 0.141148 0.500000 0.109187
O O15 0.289087 0.731070 0.244663
O O16 0.000000 0.745755 0.000000
O O17 0.679063 0.500000 0.112949
O O18 0.500000 0.707583 0.000000
O O19 0.500000 0.710682 0.500000
O O20 0.537724 0.500000 0.614631
O O21 0.440962 0.760143 0.566740
O O22 0.516073 0.000000 0.690975
#
# Coordination Sequence:
#
# PCOD8059710 Si02
#       8
#     4   4   4   4   4   4   4   4
#     4   9  16  27  46  71  97 127 159 197 240 282
#     4  10  19  30  48  74 101 126 158 202 244 281
#     4   9  18  31  48  71  96 125 160 197 235 286
#     4  10  21  35  51  72  98 125 157 200 244 287
#     4   8  14  26  46  70  94 122 155 191 232 280
#     4  10  19  32  51  75  97 123 159 199 241 285
#     4   9  17  29  47  72  97 122 157 200 239 279
#     4   9  17  29  46  71  98 125 159 199 238 282
#
# _framework density 17.296064999999999
#
# number of rings (size 3 to 8) (size 9 to 14) (size 15 to 20)
#    0.000    2.750    1.250    2.625    0.000    3.750 
#    0.000    0.000    2.750    9.375    0.000    0.000 
#    0.000    0.000    0.000    0.000    0.000    0.000 
#
# Total GULP energy -396576.485420 kJ/mol
# GULP energy per Si atom -12393.015169 kJ/mol
# Density = 1.725670 g / cm^3
# Si number density = 17.296065 Si / 1000 Ang^3
#
#
#
# Elastic Constant Matrix: (Units=GPa)
#
#
# Indices 1 2 3 4 5 6 
#
# 1 150.4298 60.1221 55.7884 0.0000 -12.5239 0.0000
# 2 60.1221 60.2628 24.3676 0.0000 -5.8045 0.0000
# 3 55.7884 24.3676 72.0835 0.0000 -3.8741 0.0000
# 4 0.0000 0.0000 0.0000 5.3376 0.0000 -3.9450
# 5 -12.5239 -5.8045 -3.8741 0.0000 25.8069 0.0000
# 6 0.0000 0.0000 0.0000 -3.9450 0.0000 25.3150
#
#
#
# Elastic Compliance Matrix: (Units=1/GPa)
#
#
# Indices 1 2 3 4 5 6 
#
# 1 0.013677 -0.010568 -0.006839 0.000000 0.003234 0.000000
# 2 -0.010568 0.027684 -0.001129 0.000000 0.000928 0.000000
# 3 -0.006839 -0.001129 0.019513 0.000000 -0.000644 0.000000
# 4 0.000000 0.000000 0.000000 0.211738 0.000000 0.032997
# 5 0.003234 0.000928 -0.000644 0.000000 0.040431 0.000000
# 6 0.000000 0.000000 0.000000 0.032997 0.000000 0.044644
#
#
# Mechanical properties :
#
#
# Convention : Reuss Voigt Hill
#
# Bulk Modulus (GPa) = 42.01551 62.59247 52.30399
# Shear Modulus (GPa) = 12.41642 20.79176 16.60409
#
# Velocity S-wave (km/s) = 2.68223 3.47091 3.10174
# Velocity P-wave (km/s) = 5.82556 7.23397 6.56763
#
# Compressibility (1/GPa) = 0.02380073
#
# Stress axis : x y z
#
# Youngs Moduli (GPa) = 73.11656 36.12254 51.24860
#
# Poissons Ratio (x) = 0.38175 0.35047
# Poissons Ratio (y) = 0.77271 0.05788
# Poissons Ratio (z) = 0.50002 0.04079
#
# Static dielectric constant tensor:
#      x y z
#    x 3.673010 0.000000 -0.117060 
#    y 0.000000 3.163420 0.000000 
#    z -0.117060 0.000000 2.956490 
# 
# 
# High freq. dielectric constant tensor:
#      x y z
#    x 1.682520 0.000000 -0.017280 
#    y 0.000000 1.660210 0.000000 
#    z -0.017280 0.000000 1.622100 
# 
# From -- ./inp_files/86142.got.cif
#   From: 2010.06.25/outbox.cif.g09.slc.cpg/sg10_44_cif.got.tgz:86142.got - 2010.06.27 22:07:45.
