data_PCOD8059939
_publ_section_title
;
Structure prediction by ZEFSAII (Michael W. Deem and Ramdas Pophale) SiO2 
 PCOD8059939
Probable space group: P 2/M
;
_chemical_formula_sum "Si O2"
_cell_formula_units_Z 30
_cell_length_a 30.869397
_cell_length_b 10.546729
_cell_length_c 30.730523
_cell_angle_alpha 90.000000
_cell_angle_beta 170.414828
_cell_angle_gamma 90.000000
_cell_volume 1665.963611
_symmetry_space_group_name_H-M "P 2/M"
_symmetry_group_IT_number 10
_symmetry_cell_setting 'monoclinic'
loop_
_space_group_symop_operation_xyz
x,y,z
-x,y,-z
-x,-y,-z
x,-y,z
loop_
_atom_site_type_symbol
_atom_site_label
_atom_site_fract_x
_atom_site_fract_y
_atom_site_fract_z
Si Si1 0.174990 0.851263 0.947078
Si Si2 0.185687 0.848586 0.860443
Si Si3 0.241794 0.500000 0.272793
Si Si4 0.859101 0.855177 0.902853
Si Si5 0.662196 0.150383 0.487762
Si Si6 0.702551 0.848850 0.326317
Si Si7 0.673630 0.750314 0.591736
Si Si8 0.258586 0.848747 0.733120
O O1 0.174148 0.791777 0.897860
O O2 0.932470 0.802231 0.735057
O O3 0.143402 0.000000 0.910774
O O4 0.441182 0.814703 0.234259
O O5 0.940777 0.797265 0.590889
O O6 0.189268 0.000000 0.865247
O O7 0.441164 0.796661 0.089438
O O8 0.500000 0.500000 0.500000
O O9 0.230296 0.615799 0.295471
O O10 0.000000 0.500000 0.000000
O O11 0.588077 0.784375 0.641337
O O12 0.782099 0.000000 0.819060
O O13 0.000000 0.795368 0.000000
O O14 0.077164 0.844373 0.156387
O O15 0.604858 0.238205 0.472837
O O16 0.656134 0.000000 0.493654
O O17 0.724868 0.795369 0.299490
O O18 0.703583 0.000000 0.326347
O O19 0.000000 0.796758 0.500000
O O20 0.258738 0.000000 0.732415
O O21 0.500000 0.796892 0.000000
#
# Coordination Sequence:
#
# PCOD8059939 Si02
#       8
#     4   4   2   4   4   4   4   4
#     4   9  17  28  42  62  87 112 135 167 216 273
#     4   9  15  23  34  48  68  93 123 157 198 259
#     4  12  26  44  62  78 102 136 170 200 228 268
#     4  11  22  36  56  81 106 129 156 194 237 276
#     4  10  19  31  48  70  94 117 143 178 224 275
#     4   9  15  21  30  43  59  86 123 161 204 257
#     4  12  23  38  57  78 103 132 164 195 230 277
#     4   9  15  21  27  36  53  78 113 161 212 256
#
# _framework density 18.007595999999999
#
# number of rings (size 3 to 8) (size 9 to 14) (size 15 to 20)
#    0.000    2.000    0.000    6.000    0.000    8.533 
#    0.000    0.000    0.000    0.000    0.000    0.000 
#    0.000    0.000    0.000    0.000    0.000    0.000 
#
# Total GULP energy -371921.698085 kJ/mol
# GULP energy per Si atom -12397.389936 kJ/mol
# Density = 1.796661 g / cm^3
# Si number density = 18.007596 Si / 1000 Ang^3
#
#
#
# Elastic Constant Matrix: (Units=GPa)
#
#
# Indices 1 2 3 4 5 6 
#
# 1 146.5401 34.0184 53.2417 0.0000 -3.5444 0.0000
# 2 34.0184 27.3816 24.8512 0.0000 -0.7616 0.0000
# 3 53.2417 24.8512 141.3934 0.0000 4.8410 0.0000
# 4 0.0000 0.0000 0.0000 6.9041 0.0000 -0.5521
# 5 -3.5444 -0.7616 4.8410 0.0000 37.2626 0.0000
# 6 0.0000 0.0000 0.0000 -0.5521 0.0000 4.9541
#
#
#
# Elastic Compliance Matrix: (Units=1/GPa)
#
#
# Indices 1 2 3 4 5 6 
#
# 1 0.010029 -0.010678 -0.001934 0.000000 0.000987 0.000000
# 2 -0.010678 0.054953 -0.005667 0.000000 0.000844 0.000000
# 3 -0.001934 -0.005667 0.008846 0.000000 -0.001449 0.000000
# 4 0.000000 0.000000 0.000000 0.146143 0.000000 0.016286
# 5 0.000987 0.000844 -0.001449 0.000000 0.027136 0.000000
# 6 0.000000 0.000000 0.000000 0.016286 0.000000 0.203667
#
#
# Mechanical properties :
#
#
# Convention : Reuss Voigt Hill
#
# Bulk Modulus (GPa) = 26.82941 59.94863 43.38902
# Shear Modulus (GPa) = 10.00489 23.37108 16.68798
#
# Velocity S-wave (km/s) = 2.35966 3.60647 3.04751
# Velocity P-wave (km/s) = 4.72814 7.12076 6.04402
#
# Compressibility (1/GPa) = 0.03727253
#
# Stress axis : x y z
#
# Youngs Moduli (GPa) = 99.70832 18.19722 113.04351
#
# Poissons Ratio (x) = 0.19431 0.21858
# Poissons Ratio (y) = 1.06467 0.64059
# Poissons Ratio (z) = 0.19279 0.10312
#
# Static dielectric constant tensor:
#      x y z
#    x 3.561810 0.000000 -0.003410 
#    y 0.000000 2.615630 0.000000 
#    z -0.003410 0.000000 3.592390 
# 
# 
# High freq. dielectric constant tensor:
#      x y z
#    x 1.711700 0.000000 -0.001340 
#    y 0.000000 1.601630 0.000000 
#    z -0.001340 0.000000 1.724710 
# 
# From -- ./inp_files/96078.got.cif
#   From: 2010.06.25/outbox.cif.g09.slc.cpg/sg10_49_cif.got.tgz:96078.got - 2010.06.27 22:07:45.
