data_PCOD8059308
_publ_section_title
;
Structure prediction by ZEFSAII (Michael W. Deem and Ramdas Pophale) SiO2 
 PCOD8059308
Probable space group: P 2/M
;
_chemical_formula_sum "Si O2"
_cell_formula_units_Z 28
_cell_length_a 15.024208
_cell_length_b 18.727375
_cell_length_c 15.024202
_cell_angle_alpha 90.000000
_cell_angle_beta 28.359898
_cell_angle_gamma 90.000000
_cell_volume 2007.988461
_symmetry_space_group_name_H-M "P 2/M"
_symmetry_group_IT_number 10
_symmetry_cell_setting 'monoclinic'
loop_
_space_group_symop_operation_xyz
x,y,z
-x,y,-z
-x,-y,-z
x,-y,z
loop_
_atom_site_type_symbol
_atom_site_label
_atom_site_fract_x
_atom_site_fract_y
_atom_site_fract_z
Si Si1 0.998461 0.584279 0.902058
Si Si2 0.554811 0.080113 0.054811
Si Si3 0.369797 0.415381 0.869797
Si Si4 0.553664 0.696084 0.053664
Si Si5 0.597942 0.584279 0.501539
Si Si6 0.741400 0.810589 0.650092
Si Si7 0.150093 0.810589 0.241400
O O1 0.976760 0.500000 0.931834
O O2 0.186437 0.606754 0.686437
O O3 0.000000 0.617997 0.000000
O O4 0.831061 0.612116 0.988035
O O5 0.390202 0.120646 0.254509
O O6 0.574854 0.000000 0.074855
O O7 0.500000 0.079980 0.000000
O O8 0.754509 0.120646 0.890202
O O9 0.378557 0.500000 0.878557
O O10 0.419041 0.378001 0.919041
O O11 0.511964 0.387883 0.668939
O O12 0.385722 0.739921 0.248730
O O13 0.500000 0.677230 0.000000
O O14 0.748729 0.739921 0.885722
O O15 0.500000 0.617997 0.500000
O O16 0.568165 0.500000 0.523241
O O17 0.811915 0.815708 0.688085
O O18 0.924198 0.808738 0.424198
#
# Coordination Sequence:
#
# PCOD8059308 Si02
#       7
#     4   4   4   4   4   4   4
#     4   9  15  25  41  59  78  95 112 144 194 253
#     4   8  13  20  32  55  80  95 119 162 201 233
#     4  10  19  28  41  60  77  98 129 167 214 251
#     4   9  18  30  40  52  73 103 143 180 199 226
#     4   9  15  25  41  59  78  95 112 144 194 253
#     4   8  14  25  39  51  68 101 137 164 194 229
#     4   8  14  25  39  51  68 101 137 164 194 229
#
# _framework density 13.944304000000001
#
# number of rings (size 3 to 8) (size 9 to 14) (size 15 to 20)
#    0.000    3.286    1.429    1.714    0.000    2.000 
#    0.000    2.857    0.000    0.000    0.000    8.000 
#    0.000    0.000    0.000    0.000    0.000   22.857 
#
# Total GULP energy -346926.061514 kJ/mol
# GULP energy per Si atom -12390.216483 kJ/mol
# Density = 1.391257 g / cm^3
# Si number density = 13.944304 Si / 1000 Ang^3
#
#
#
# Elastic Constant Matrix: (Units=GPa)
#
#
# Indices 1 2 3 4 5 6 
#
# 1 51.6147 36.2238 36.7091 0.0000 -2.9261 0.0000
# 2 36.2238 65.4651 40.0964 0.0000 -1.1179 0.0000
# 3 36.7091 40.0964 122.1391 0.0000 -17.4327 0.0000
# 4 0.0000 0.0000 0.0000 8.2513 0.0000 -1.7528
# 5 -2.9261 -1.1179 -17.4327 0.0000 16.7086 0.0000
# 6 0.0000 0.0000 0.0000 -1.7528 0.0000 2.1793
#
#
#
# Elastic Compliance Matrix: (Units=1/GPa)
#
#
# Indices 1 2 3 4 5 6 
#
# 1 0.034005 -0.015676 -0.005139 0.000000 -0.000455 0.000000
# 2 -0.015676 0.026908 -0.005001 0.000000 -0.006163 0.000000
# 3 -0.005139 -0.005001 0.013157 0.000000 0.012492 0.000000
# 4 0.000000 0.000000 0.000000 0.146165 0.000000 0.117558
# 5 -0.000455 -0.006163 0.012492 0.000000 0.072391 0.000000
# 6 0.000000 0.000000 0.000000 0.117558 0.000000 0.553411
#
#
# Mechanical properties :
#
#
# Convention : Reuss Voigt Hill
#
# Bulk Modulus (GPa) = 44.57115 51.69749 48.13432
# Shear Modulus (GPa) = 5.52395 13.84050 9.68223
#
# Velocity S-wave (km/s) = 1.99250 3.15390 2.63791
# Velocity P-wave (km/s) = 6.10954 7.10053 6.62360
#
# Compressibility (1/GPa) = 0.02243604
#
# Stress axis : x y z
#
# Youngs Moduli (GPa) = 29.40722 37.16426 76.00599
#
# Poissons Ratio (x) = 0.58260 0.39060
# Poissons Ratio (y) = 0.46100 0.38014
# Poissons Ratio (z) = 0.15112 0.18588
#
# Static dielectric constant tensor:
#      x y z
#    x 2.407910 0.000000 -0.211250 
#    y 0.000000 2.504030 0.000000 
#    z -0.211250 0.000000 3.139710 
# 
# 
# High freq. dielectric constant tensor:
#      x y z
#    x 1.486700 0.000000 -0.017570 
#    y 0.000000 1.495730 0.000000 
#    z -0.017570 0.000000 1.547570 
# 
# From -- ./inp_files/67648.got.cif
#   From: 2010.06.25/outbox.cif.g09.slc.cpg/sg10_34_cif.got.tgz:67648.got - 2010.06.27 22:07:45.
