data_PCOD8059987
_publ_section_title
;
Structure prediction by ZEFSAII (Michael W. Deem and Ramdas Pophale) SiO2 
 PCOD8059987
Probable space group: P 2/M
;
_chemical_formula_sum "Si O2"
_cell_formula_units_Z 32
_cell_length_a 14.869437
_cell_length_b 8.994217
_cell_length_c 15.032604
_cell_angle_alpha 90.000000
_cell_angle_beta 78.492467
_cell_angle_gamma 90.000000
_cell_volume 1970.031587
_symmetry_space_group_name_H-M "P 2/M"
_symmetry_group_IT_number 10
_symmetry_cell_setting 'monoclinic'
loop_
_space_group_symop_operation_xyz
x,y,z
-x,y,-z
-x,-y,-z
x,-y,z
loop_
_atom_site_type_symbol
_atom_site_label
_atom_site_fract_x
_atom_site_fract_y
_atom_site_fract_z
Si Si1 0.616990 0.825337 0.613905
Si Si2 0.431313 0.325633 0.886122
Si Si3 0.106086 0.326347 0.556199
Si Si4 0.743917 0.172557 0.748337
Si Si5 0.588905 0.174219 0.290210
Si Si6 0.630202 0.326689 0.910529
Si Si7 0.691657 0.326991 0.425688
Si Si8 0.071742 0.174536 0.378125
O O1 0.684654 0.764140 0.677283
O O2 0.514018 0.784557 0.661341
O O3 0.637989 0.743209 0.518493
O O4 0.630682 0.000000 0.595385
O O5 0.428621 0.500000 0.864651
O O6 0.390873 0.232971 0.812607
O O7 0.535153 0.272856 0.885031
O O8 0.369352 0.289084 0.984737
O O9 0.089719 0.500000 0.540390
O O10 0.199724 0.297998 0.589975
O O11 0.109991 0.237845 0.463130
O O12 0.021649 0.260008 0.630962
O O13 0.715500 0.247402 0.846450
O O14 0.851500 0.204496 0.711865
O O15 0.722285 0.000000 0.761103
O O16 0.660163 0.252632 0.341026
O O17 0.606612 0.000000 0.289676
O O18 0.641358 0.500000 0.893320
O O19 0.668056 0.500000 0.428598
O O20 0.052395 0.000000 0.393087
#
# Coordination Sequence:
#
# PCOD8059987 Si02
#       8
#     4   4   4   4   4   4   4   4
#     4  10  20  34  47  67 100 133 167 202 234 278
#     4   9  18  33  49  70  98 127 163 203 240 283
#     4  10  20  33  48  69  95 124 161 203 243 285
#     4  10  19  31  48  73 102 130 161 197 238 288
#     4  11  22  34  50  70  95 132 170 204 241 280
#     4   9  18  31  50  72  97 129 161 198 243 286
#     4  11  23  35  49  69  95 131 169 205 243 283
#     4  10  19  31  50  71  95 127 159 196 244 288
#
# _framework density 16.243393999999999
#
# number of rings (size 3 to 8) (size 9 to 14) (size 15 to 20)
#    0.000    2.000    2.500    3.375    0.000    6.000 
#    0.000    1.250    0.000    0.000    0.000    0.875 
#    0.000    7.000    0.000    0.000    0.000    0.000 
#
# Total GULP energy -396839.952621 kJ/mol
# GULP energy per Si atom -12401.248519 kJ/mol
# Density = 1.620642 g / cm^3
# Si number density = 16.243394 Si / 1000 Ang^3
#
#
#
# Elastic Constant Matrix: (Units=GPa)
#
#
# Indices 1 2 3 4 5 6 
#
# 1 80.1911 42.0032 50.3084 0.0000 -4.5320 0.0000
# 2 42.0032 65.1651 45.9614 0.0000 -3.3223 0.0000
# 3 50.3084 45.9614 112.0242 0.0000 -5.5814 0.0000
# 4 0.0000 0.0000 0.0000 17.5163 0.0000 -45.3016
# 5 -4.5320 -3.3223 -5.5814 0.0000 24.5661 0.0000
# 6 0.0000 0.0000 0.0000 -45.3016 0.0000 -108.7584
#
#
#
# Elastic Compliance Matrix: (Units=1/GPa)
#
#
# Indices 1 2 3 4 5 6 
#
# 1 0.020989 -0.009653 -0.005399 0.000000 0.001340 0.000000
# 2 -0.009653 0.026054 -0.006340 0.000000 0.000302 0.000000
# 3 -0.005399 -0.006340 0.014019 0.000000 0.001332 0.000000
# 4 0.000000 0.000000 0.000000 0.027483 0.000000 -0.011448
# 5 0.001340 0.000302 0.001332 0.000000 0.041297 0.000000
# 6 0.000000 0.000000 0.000000 -0.011448 0.000000 -0.004426
#
#
# Mechanical properties :
#
#
# Convention : Reuss Voigt Hill
#
# Bulk Modulus (GPa) = 54.70580 59.32516 57.01548
# Shear Modulus (GPa) = 28.68775 -5.39471 11.64652
#
# Velocity S-wave (km/s) = 4.20708 -1.82439 2.68059
# Velocity P-wave (km/s) = 7.57306 5.67134 6.69012
#
# Compressibility (1/GPa) = 0.01827960
#
# Stress axis : x y z
#
# Youngs Moduli (GPa) = 47.64446 38.38158 71.33430
#
# Poissons Ratio (x) = 0.37048 0.38511
# Poissons Ratio (y) = 0.45989 0.45223
# Poissons Ratio (z) = 0.25722 0.24332
#
# Static dielectric constant tensor:
#      x y z
#    x 3.074830 0.000000 -0.101830 
#    y 0.000000 3.095480 0.000000 
#    z -0.101830 0.000000 2.985220 
# 
# 
# High freq. dielectric constant tensor:
#      x y z
#    x 1.609310 0.000000 -0.011090 
#    y 0.000000 1.633670 0.000000 
#    z -0.011090 0.000000 1.610660 
# 
# From -- ./inp_files/66088.got.cif
#   From: 2010.06.25/outbox.cif.g09.slc.cpg/sg10_34_cif.got.tgz:66088.got - 2010.06.27 22:07:45.
