data_PCOD8059795
_publ_section_title
;
Structure prediction by ZEFSAII (Michael W. Deem and Ramdas Pophale) SiO2 
 PCOD8059795
Probable space group: P 2/M
;
_chemical_formula_sum "Si O2"
_cell_formula_units_Z 28
_cell_length_a 13.886376
_cell_length_b 10.267303
_cell_length_c 19.483742
_cell_angle_alpha 90.000000
_cell_angle_beta 33.792126
_cell_angle_gamma 90.000000
_cell_volume 1545.020116
_symmetry_space_group_name_H-M "P 2/M"
_symmetry_group_IT_number 10
_symmetry_cell_setting 'monoclinic'
loop_
_space_group_symop_operation_xyz
x,y,z
-x,y,-z
-x,-y,-z
x,-y,z
loop_
_atom_site_type_symbol
_atom_site_label
_atom_site_fract_x
_atom_site_fract_y
_atom_site_fract_z
Si Si1 0.450189 0.649373 0.829819
Si Si2 0.270949 0.857850 0.326901
Si Si3 0.817039 0.650621 0.133162
Si Si4 0.964376 0.650979 0.302146
Si Si5 0.015806 0.857627 0.602374
Si Si6 0.650833 0.346577 0.959236
Si Si7 0.675154 0.349010 0.360942
O O1 0.514921 0.500000 0.793504
O O2 0.606811 0.743193 0.720256
O O3 0.308973 0.670198 0.855556
O O4 0.375882 0.694731 0.946676
O O5 0.130652 0.870944 0.468126
O O6 0.178127 0.821427 0.309455
O O7 0.364350 0.000000 0.263953
O O8 0.853029 0.500000 0.129118
O O9 0.729477 0.712864 0.254300
O O10 0.000000 0.714565 0.000000
O O11 0.959510 0.500000 0.328343
O O12 0.900986 0.744543 0.400342
O O13 0.840850 0.673005 0.310706
O O14 0.157893 0.702504 0.172660
O O15 0.012510 0.000000 0.641830
O O16 0.647169 0.500000 0.953043
O O17 0.500000 0.285278 0.000000
O O18 0.500000 0.287140 0.500000
O O19 0.633371 0.500000 0.373728
#
# Coordination Sequence:
#
# PCOD8059795 Si02
#       7
#     4   4   4   4   4   4   4
#     4  10  19  30  52  78 100 130 175 215 245 293
#     4   9  19  35  51  70 100 135 166 202 257 311
#     4   9  17  30  48  71 102 137 172 210 255 308
#     4  10  19  31  52  75 100 133 168 206 256 305
#     4   9  19  35  52  70  99 136 167 202 253 311
#     4   9  17  29  45  72 107 133 157 202 259 302
#     4   9  18  30  45  70 104 133 162 210 266 305
#
# _framework density 18.122741000000001
#
# number of rings (size 3 to 8) (size 9 to 14) (size 15 to 20)
#    0.000    2.714    0.000    2.571    2.000    5.714 
#    0.000    2.143    0.000    4.286    0.000    0.000 
#    0.000    0.000    0.000    0.000    0.000    0.000 
#
# Total GULP energy -346905.899702 kJ/mol
# GULP energy per Si atom -12389.496418 kJ/mol
# Density = 1.808149 g / cm^3
# Si number density = 18.122741 Si / 1000 Ang^3
#
#
#
# Elastic Constant Matrix: (Units=GPa)
#
#
# Indices 1 2 3 4 5 6 
#
# 1 110.4630 42.3828 45.3726 0.0000 9.5009 0.0000
# 2 42.3828 63.0354 24.6577 0.0000 -2.6560 0.0000
# 3 45.3726 24.6577 93.6789 0.0000 2.6330 0.0000
# 4 0.0000 0.0000 0.0000 4.9543 0.0000 0.7859
# 5 9.5009 -2.6560 2.6330 0.0000 30.1681 0.0000
# 6 0.0000 0.0000 0.0000 0.7859 0.0000 13.2753
#
#
#
# Elastic Compliance Matrix: (Units=1/GPa)
#
#
# Indices 1 2 3 4 5 6 
#
# 1 0.014548 -0.008121 -0.004772 0.000000 -0.004880 0.000000
# 2 -0.008121 0.022335 -0.002078 0.000000 0.004705 0.000000
# 3 -0.004772 -0.002078 0.013529 0.000000 0.000139 0.000000
# 4 0.000000 0.000000 0.000000 0.203760 0.000000 -0.012062
# 5 -0.004880 0.004705 0.000139 0.000000 0.035087 0.000000
# 6 0.000000 0.000000 0.000000 -0.012062 0.000000 0.076042
#
#
# Mechanical properties :
#
#
# Convention : Reuss Voigt Hill
#
# Bulk Modulus (GPa) = 48.84815 54.66707 51.75761
# Shear Modulus (GPa) = 12.43576 19.99715 16.21646
#
# Velocity S-wave (km/s) = 2.62238 3.32539 2.99459
# Velocity P-wave (km/s) = 6.01512 6.70632 6.37010
#
# Compressibility (1/GPa) = 0.02047161
#
# Stress axis : x y z
#
# Youngs Moduli (GPa) = 68.73624 44.77196 73.91569
#
# Poissons Ratio (x) = 0.36359 0.35270
# Poissons Ratio (y) = 0.55820 0.15360
# Poissons Ratio (z) = 0.32799 0.09304
#
# Static dielectric constant tensor:
#      x y z
#    x 3.364860 0.000000 0.005880 
#    y 0.000000 2.980620 0.000000 
#    z 0.005880 0.000000 3.490480 
# 
# 
# High freq. dielectric constant tensor:
#      x y z
#    x 1.710210 0.000000 0.000980 
#    y 0.000000 1.651350 0.000000 
#    z 0.000980 0.000000 1.703880 
# 
# From -- ./inp_files/63890.got.cif
#   From: 2010.06.25/outbox.cif.g09.slc.cpg/sg10_32_cif.got.tgz:63890.got - 2010.06.27 22:07:45.
