data_PCOD8059016
_publ_section_title
;
Structure prediction by ZEFSAII (Michael W. Deem and Ramdas Pophale) SiO2 
 PCOD8059016
Probable space group: P 2/M
;
_chemical_formula_sum "Si O2"
_cell_formula_units_Z 28
_cell_length_a 19.155319
_cell_length_b 14.438148
_cell_length_c 10.546821
_cell_angle_alpha 90.000000
_cell_angle_beta 146.799244
_cell_angle_gamma 90.000000
_cell_volume 1597.222729
_symmetry_space_group_name_H-M "P 2/M"
_symmetry_group_IT_number 10
_symmetry_cell_setting 'monoclinic'
loop_
_space_group_symop_operation_xyz
x,y,z
-x,y,-z
-x,-y,-z
x,-y,z
loop_
_atom_site_type_symbol
_atom_site_label
_atom_site_fract_x
_atom_site_fract_y
_atom_site_fract_z
Si Si1 0.363249 0.394371 0.746827
Si Si2 0.641506 0.893209 0.558440
Si Si3 0.354428 0.106063 0.139090
Si Si4 0.026771 0.708146 0.846593
Si Si5 0.202205 0.735397 0.334408
Si Si6 0.124043 0.223564 0.746134
Si Si7 0.863377 0.603057 0.412690
O O1 0.372237 0.500000 0.710629
O O2 0.311781 0.331804 0.553453
O O3 0.274345 0.387241 0.734026
O O4 0.500000 0.357044 0.000000
O O5 0.655105 0.871347 0.727065
O O6 0.494720 0.871987 0.297950
O O7 0.735771 0.830573 0.619137
O O8 0.675129 0.000000 0.580803
O O9 0.319344 0.000000 0.060627
O O10 0.252618 0.168555 0.909004
O O11 0.903876 0.760971 0.720498
O O12 0.971512 0.620641 0.684768
O O13 0.102504 0.773896 0.864417
O O14 0.128630 0.680380 0.109583
O O15 0.129493 0.326215 0.693311
O O16 0.000000 0.171521 0.500000
O O17 0.883751 0.500000 0.389164
#
# Coordination Sequence:
#
# PCOD8059016 Si02
#       7
#     4   4   4   4   4   4   4
#     4   9  19  34  51  76 104 135 172 205 254 314
#     4   9  18  33  55  77 100 133 173 212 257 308
#     4   9  18  33  52  77 103 132 173 214 254 304
#     4   9  19  32  48  78 103 132 175 213 249 304
#     4  10  18  33  55  73 105 136 169 214 258 297
#     4  10  19  32  52  76 107 135 174 209 256 302
#     4   9  19  34  52  74 104 140 175 210 252 301
#
# _framework density 17.530429000000002
#
# number of rings (size 3 to 8) (size 9 to 14) (size 15 to 20)
#    0.000    2.714    1.429    0.857    2.000    3.429 
#    0.000    5.000    0.000    5.571    0.000    5.000 
#    0.000    0.000    0.000    0.000    0.000    0.000 
#
# Total GULP energy -346998.686158 kJ/mol
# GULP energy per Si atom -12392.810220 kJ/mol
# Density = 1.749053 g / cm^3
# Si number density = 17.530429 Si / 1000 Ang^3
#
#
#
# Elastic Constant Matrix: (Units=GPa)
#
#
# Indices 1 2 3 4 5 6 
#
# 1 78.3472 38.4209 36.8891 0.0000 1.7743 0.0000
# 2 38.4209 87.6540 56.6617 0.0000 5.3042 0.0000
# 3 36.8891 56.6617 133.9344 0.0000 8.0100 0.0000
# 4 0.0000 0.0000 0.0000 23.2760 0.0000 1.0610
# 5 1.7743 5.3042 8.0100 0.0000 23.2069 0.0000
# 6 0.0000 0.0000 0.0000 1.0610 0.0000 24.3831
#
#
#
# Elastic Compliance Matrix: (Units=1/GPa)
#
#
# Indices 1 2 3 4 5 6 
#
# 1 0.016678 -0.006000 -0.002105 0.000000 0.000823 0.000000
# 2 -0.006000 0.017901 -0.005824 0.000000 -0.001623 0.000000
# 3 -0.002105 -0.005824 0.010640 0.000000 -0.002181 0.000000
# 4 0.000000 0.000000 0.000000 0.043048 0.000000 -0.001873
# 5 0.000823 -0.001623 -0.002181 0.000000 0.044151 0.000000
# 6 0.000000 0.000000 0.000000 -0.001873 0.000000 0.041094
#
#
# Mechanical properties :
#
#
# Convention : Reuss Voigt Hill
#
# Bulk Modulus (GPa) = 57.59217 62.65320 60.12269
# Shear Modulus (GPa) = 24.13638 25.37079 24.75359
#
# Velocity S-wave (km/s) = 3.71459 3.80839 3.76178
# Velocity P-wave (km/s) = 7.16391 7.42669 7.29648
#
# Compressibility (1/GPa) = 0.01736347
#
# Stress axis : x y z
#
# Youngs Moduli (GPa) = 59.95836 55.86258 93.98409
#
# Poissons Ratio (x) = 0.33517 0.19780
# Poissons Ratio (y) = 0.35974 0.54732
# Poissons Ratio (z) = 0.12619 0.32532
#
# Static dielectric constant tensor:
#      x y z
#    x 3.260060 0.000000 0.148040 
#    y 0.000000 3.009970 0.000000 
#    z 0.148040 0.000000 3.429660 
# 
# 
# High freq. dielectric constant tensor:
#      x y z
#    x 1.676370 0.000000 0.013910 
#    y 0.000000 1.651550 0.000000 
#    z 0.013910 0.000000 1.686560 
# 
# From -- ./inp_files/55876.got.cif
#   From: 2010.06.25/outbox.cif.g09.slc.cpg/sg10_28_cif.got.tgz:55876.got - 2010.06.27 22:07:45.
