data_PCOD8059498
_publ_section_title
;
Structure prediction by ZEFSAII (Michael W. Deem and Ramdas Pophale) SiO2 
 PCOD8059498
Probable space group: P 2/M
;
_chemical_formula_sum "Si O2"
_cell_formula_units_Z 32
_cell_length_a 14.660081
_cell_length_b 13.573087
_cell_length_c 9.484955
_cell_angle_alpha 90.000000
_cell_angle_beta 93.703993
_cell_angle_gamma 90.000000
_cell_volume 1883.398148
_symmetry_space_group_name_H-M "P 2/M"
_symmetry_group_IT_number 10
_symmetry_cell_setting 'monoclinic'
loop_
_space_group_symop_operation_xyz
x,y,z
-x,y,-z
-x,-y,-z
x,-y,z
loop_
_atom_site_type_symbol
_atom_site_label
_atom_site_fract_x
_atom_site_fract_y
_atom_site_fract_z
Si Si1 0.189197 0.112674 0.988573
Si Si2 0.602212 0.882691 0.501843
Si Si3 0.103953 0.116800 0.490013
Si Si4 0.181905 0.389726 0.188409
Si Si5 0.755598 0.191159 0.715794
Si Si6 0.089844 0.302446 0.928854
Si Si7 0.739409 0.114089 0.293288
Si Si8 0.994277 0.387844 0.339723
O O1 0.239789 0.130502 0.139147
O O2 0.154036 0.000000 0.972058
O O3 0.103989 0.185426 0.953882
O O4 0.263004 0.137311 0.872537
O O5 0.500000 0.838933 0.500000
O O6 0.662218 0.842757 0.636183
O O7 0.650349 0.841651 0.363316
O O8 0.599071 0.000000 0.510794
O O9 0.150862 0.166316 0.358480
O O10 0.164226 0.150680 0.630602
O O11 0.000000 0.155181 0.500000
O O12 0.103987 0.000000 0.466196
O O13 0.222988 0.500000 0.204427
O O14 0.251249 0.308693 0.258559
O O15 0.090805 0.380605 0.272215
O O16 0.167878 0.363772 0.020643
O O17 0.081718 0.329759 0.762242
O O18 0.000000 0.336425 0.000000
O O19 0.734536 0.000000 0.326257
O O20 0.960001 0.500000 0.346448
O O21 0.000000 0.343663 0.500000
#
# Coordination Sequence:
#
# PCOD8059498 Si02
#       8
#     4   4   4   4   4   4   4   4
#     4  10  19  30  43  63  94 123 150 189 229 266
#     4   9  17  32  53  73  94 121 150 180 222 278
#     4   9  17  29  44  63  91 129 164 188 218 266
#     4   9  18  31  45  62  87 119 152 191 239 282
#     4  10  19  31  49  69  90 119 158 197 230 272
#     4   9  18  30  44  61  86 125 163 191 226 272
#     4   8  16  29  43  63  92 122 149 181 220 260
#     4   9  17  29  45  64  84 110 154 207 240 259
#
# _framework density 16.990566000000001
#
# number of rings (size 3 to 8) (size 9 to 14) (size 15 to 20)
#    0.000    2.875    0.000    2.250    0.000    7.250 
#    0.000    1.875    0.000    3.750    0.000    0.000 
#    0.000    4.000    0.000    0.000    0.000    0.000 
#
# Total GULP energy -396478.133652 kJ/mol
# GULP energy per Si atom -12389.941677 kJ/mol
# Density = 1.695189 g / cm^3
# Si number density = 16.990566 Si / 1000 Ang^3
#
#
#
# Elastic Constant Matrix: (Units=GPa)
#
#
# Indices 1 2 3 4 5 6 
#
# 1 95.0890 13.6458 43.4803 0.0000 4.0335 0.0000
# 2 13.6458 75.9845 27.7085 0.0000 4.4726 0.0000
# 3 43.4803 27.7085 138.2215 0.0000 -2.7049 0.0000
# 4 0.0000 0.0000 0.0000 16.9124 0.0000 4.0728
# 5 4.0335 4.4726 -2.7049 0.0000 14.3030 0.0000
# 6 0.0000 0.0000 0.0000 4.0728 0.0000 11.0259
#
#
#
# Elastic Compliance Matrix: (Units=1/GPa)
#
#
# Indices 1 2 3 4 5 6 
#
# 1 0.012565 -0.000588 -0.003915 0.000000 -0.004100 0.000000
# 2 -0.000588 0.014591 -0.002837 0.000000 -0.004933 0.000000
# 3 -0.003915 -0.002837 0.009108 0.000000 0.003713 0.000000
# 4 0.000000 0.000000 0.000000 0.064902 0.000000 -0.023974
# 5 -0.004100 -0.004933 0.003713 0.000000 0.073317 0.000000
# 6 0.000000 0.000000 0.000000 -0.023974 0.000000 0.099551
#
#
# Mechanical properties :
#
#
# Convention : Reuss Voigt Hill
#
# Bulk Modulus (GPa) = 46.32843 53.21823 49.77333
# Shear Modulus (GPa) = 16.89726 23.41229 20.15478
#
# Velocity S-wave (km/s) = 3.15700 3.71611 3.44791
# Velocity P-wave (km/s) = 6.37301 7.05712 6.72377
#
# Compressibility (1/GPa) = 0.02158502
#
# Stress axis : x y z
#
# Youngs Moduli (GPa) = 79.58714 68.53589 109.79820
#
# Poissons Ratio (x) = 0.04027 0.42986
# Poissons Ratio (y) = 0.04676 0.31146
# Poissons Ratio (z) = 0.31158 0.19441
#
# Static dielectric constant tensor:
#      x y z
#    x 2.942470 0.000000 -0.111450 
#    y 0.000000 3.159060 0.000000 
#    z -0.111450 0.000000 3.383770 
# 
# 
# High freq. dielectric constant tensor:
#      x y z
#    x 1.600590 0.000000 -0.007560 
#    y 0.000000 1.646900 0.000000 
#    z -0.007560 0.000000 1.669600 
# 
# From -- ./inp_files/29136.got.cif
#   From: 2010.06.25/outbox.cif.g09.slc.cpg/sg10_15_cif.got.tgz:29136.got - 2010.06.27 22:07:45.
