data_PCOD8059595
_publ_section_title
;
Structure prediction by ZEFSAII (Michael W. Deem and Ramdas Pophale) SiO2 
 PCOD8059595
Probable space group: P 2/M
;
_chemical_formula_sum "Si O2"
_cell_formula_units_Z 32
_cell_length_a 11.468875
_cell_length_b 8.998460
_cell_length_c 21.618941
_cell_angle_alpha 90.000000
_cell_angle_beta 50.718833
_cell_angle_gamma 90.000000
_cell_volume 1726.996750
_symmetry_space_group_name_H-M "P 2/M"
_symmetry_group_IT_number 10
_symmetry_cell_setting 'monoclinic'
loop_
_space_group_symop_operation_xyz
x,y,z
-x,y,-z
-x,-y,-z
x,-y,z
loop_
_atom_site_type_symbol
_atom_site_label
_atom_site_fract_x
_atom_site_fract_y
_atom_site_fract_z
Si Si1 0.823414 0.165906 0.549090
Si Si2 0.349281 0.672873 0.735810
Si Si3 0.619986 0.326007 0.411388
Si Si4 0.780453 0.324961 0.686147
Si Si5 0.944780 0.671383 0.101684
Si Si6 0.802316 0.826793 0.031887
Si Si7 0.118332 0.672359 0.590048
Si Si8 0.492819 0.826427 0.805663
O O1 0.750126 0.266878 0.626791
O O2 0.792206 0.240183 0.493451
O O3 0.000000 0.160197 0.500000
O O4 0.754239 0.000000 0.574257
O O5 0.393167 0.500000 0.728142
O O6 0.395982 0.738781 0.652782
O O7 0.166252 0.690170 0.802428
O O8 0.434136 0.762073 0.760375
O O9 0.500000 0.254370 0.500000
O O10 0.588031 0.500000 0.417843
O O11 0.790658 0.296672 0.377581
O O12 0.761774 0.500000 0.693885
O O13 0.650741 0.250568 0.771832
O O14 0.944914 0.274833 0.655972
O O15 0.958320 0.500000 0.077873
O O16 0.872402 0.767249 0.071565
O O17 0.115108 0.739174 0.053026
O O18 0.623039 0.795855 0.098537
O O19 0.834904 0.000000 0.013123
O O20 0.120397 0.500000 0.570254
O O21 0.518627 0.000000 0.787392
#
# Coordination Sequence:
#
# PCOD8059595 Si02
#       8
#     4   4   4   4   4   4   4   4
#     4   9  17  29  45  65  89 116 147 187 234 276
#     4   9  18  31  47  70  96 126 159 191 231 277
#     4   9  18  32  50  70  93 122 159 197 232 270
#     4  10  19  30  46  67  92 121 154 192 232 278
#     4   9  15  24  41  64  92 121 152 186 221 270
#     4   9  16  26  41  63  91 122 151 181 225 278
#     4   9  18  32  49  69  89 117 159 197 229 273
#     4  10  20  31  45  69  99 125 152 190 235 282
#
# _framework density 18.529277
#
# number of rings (size 3 to 8) (size 9 to 14) (size 15 to 20)
#    0.000    2.750    0.000    2.625    1.750    4.000 
#    0.000    0.625    0.000    0.750    0.000    0.875 
#    0.000    7.000    0.000    0.000    0.000    0.000 
#
# Total GULP energy -396466.083948 kJ/mol
# GULP energy per Si atom -12389.565123 kJ/mol
# Density = 1.848710 g / cm^3
# Si number density = 18.529277 Si / 1000 Ang^3
#
#
#
# Elastic Constant Matrix: (Units=GPa)
#
#
# Indices 1 2 3 4 5 6 
#
# 1 44.9096 14.8267 22.5011 0.0000 -13.5046 0.0000
# 2 14.8267 46.5976 28.2178 0.0000 -10.4168 0.0000
# 3 22.5011 28.2178 95.9563 0.0000 -26.3490 0.0000
# 4 0.0000 0.0000 0.0000 20.7263 0.0000 -11.4369
# 5 -13.5046 -10.4168 -26.3490 0.0000 26.3643 0.0000
# 6 0.0000 0.0000 0.0000 -11.4369 0.0000 11.8690
#
#
#
# Elastic Compliance Matrix: (Units=1/GPa)
#
#
# Indices 1 2 3 4 5 6 
#
# 1 0.028197 -0.005344 -0.002280 0.000000 0.010053 0.000000
# 2 -0.005344 0.027379 -0.006311 0.000000 0.001773 0.000000
# 3 -0.002280 -0.006311 0.016272 0.000000 0.012601 0.000000
# 4 0.000000 0.000000 0.000000 0.103031 0.000000 0.099280
# 5 0.010053 0.001773 0.012601 0.000000 0.056374 0.000000
# 6 0.000000 0.000000 0.000000 0.099280 0.000000 0.179918
#
#
# Mechanical properties :
#
#
# Convention : Reuss Voigt Hill
#
# Bulk Modulus (GPa) = 22.73892 35.39498 29.06695
# Shear Modulus (GPa) = 11.02049 19.91978 15.47014
#
# Velocity S-wave (km/s) = 2.44142 3.28234 2.89260
# Velocity P-wave (km/s) = 4.49954 5.78867 5.18433
#
# Compressibility (1/GPa) = 0.04397746
#
# Stress axis : x y z
#
# Youngs Moduli (GPa) = 35.46530 36.52451 61.45428
#
# Poissons Ratio (x) = 0.19518 0.14011
# Poissons Ratio (y) = 0.18952 0.38787
# Poissons Ratio (z) = 0.08086 0.23052
#
# Static dielectric constant tensor:
#      x y z
#    x 3.123030 0.000000 -0.498360 
#    y 0.000000 3.393460 0.000000 
#    z -0.498360 0.000000 4.277930 
# 
# 
# High freq. dielectric constant tensor:
#      x y z
#    x 1.670610 0.000000 -0.037200 
#    y 0.000000 1.713400 0.000000 
#    z -0.037200 0.000000 1.722610 
# 
# From -- ./inp_files/88526.got.cif
#   From: 2010.06.25/outbox.cif.g09.slc.cpg/sg10_45_cif.got.tgz:88526.got - 2010.06.27 22:07:45.
