data_PCOD8059702
_publ_section_title
;
Structure prediction by ZEFSAII (Michael W. Deem and Ramdas Pophale) SiO2 
 PCOD8059702
Probable space group: P 2/M
;
_chemical_formula_sum "Si O2"
_cell_formula_units_Z 32
_cell_length_a 7.861996
_cell_length_b 8.465623
_cell_length_c 27.032517
_cell_angle_alpha 90.000000
_cell_angle_beta 115.865011
_cell_angle_gamma 90.000000
_cell_volume 1618.959449
_symmetry_space_group_name_H-M "P 2/M"
_symmetry_group_IT_number 10
_symmetry_cell_setting 'monoclinic'
loop_
_space_group_symop_operation_xyz
x,y,z
-x,y,-z
-x,-y,-z
x,-y,z
loop_
_atom_site_type_symbol
_atom_site_label
_atom_site_fract_x
_atom_site_fract_y
_atom_site_fract_z
Si Si1 0.218696 0.687782 0.438221
Si Si2 0.382900 0.812111 0.755267
Si Si3 0.197074 0.187509 0.172612
Si Si4 0.138037 0.819696 0.057592
Si Si5 0.595966 0.312218 0.438221
Si Si6 0.465261 0.819696 0.942408
Si Si7 0.179239 0.812491 0.827388
Si Si8 0.199565 0.687711 0.633043
O O1 0.212033 0.500000 0.437928
O O2 0.273639 0.748735 0.500000
O O3 0.379099 0.745130 0.419400
O O4 0.014047 0.756114 0.397269
O O5 0.597602 0.746197 0.786153
O O6 0.260856 0.746197 0.786153
O O7 0.292168 0.744813 0.694779
O O8 0.379719 0.000000 0.753146
O O9 0.129243 0.258611 0.110991
O O10 0.041140 0.235429 0.194093
O O11 0.213535 0.000000 0.169136
O O12 0.351736 0.807266 0.067824
O O13 0.068671 0.000000 0.053519
O O14 0.000000 0.734245 0.000000
O O15 0.601749 0.500000 0.437928
O O16 0.677761 0.243886 0.397269
O O17 0.296270 0.741389 0.889009
O O18 0.408113 0.000000 0.946481
O O19 0.500000 0.734245 0.000000
O O20 0.206127 0.000000 0.830864
O O21 0.196585 0.500000 0.631056
#
# Coordination Sequence:
#
# PCOD8059702 Si02
#       8
#     4   4   4   4   4   4   4   4
#     4   8  14  26  46  72  98 120 145 184 232 273
#     4  10  20  33  45  61  90 126 158 186 220 270
#     4   9  16  27  41  56  79 115 152 183 221 270
#     4   9  14  20  32  53  80 108 139 178 225 275
#     4   8  14  26  46  72  98 120 145 184 232 273
#     4   9  14  20  32  53  80 108 139 178 225 275
#     4   9  16  27  41  56  79 115 152 183 221 270
#     4  10  19  30  48  72  94 118 154 192 224 260
#
# _framework density 19.765781
#
# number of rings (size 3 to 8) (size 9 to 14) (size 15 to 20)
#    0.000    3.000    1.250    1.875    0.000    5.500 
#    0.000    0.000    0.000    1.500    0.000    1.750 
#    0.000    1.000    0.000    0.000    0.000    0.000 
#
# Total GULP energy -396527.998464 kJ/mol
# GULP energy per Si atom -12391.499952 kJ/mol
# Density = 1.972079 g / cm^3
# Si number density = 19.765781 Si / 1000 Ang^3
#
#
#
# Elastic Constant Matrix: (Units=GPa)
#
#
# Indices 1 2 3 4 5 6 
#
# 1 180.3865 7.7808 112.3226 0.0000 -0.1133 0.0000
# 2 7.7808 3.1185 5.2055 0.0000 -0.0795 0.0000
# 3 112.3226 5.2055 177.2992 0.0000 0.0180 0.0000
# 4 0.0000 0.0000 0.0000 30.3167 0.0000 0.7925
# 5 -0.1133 -0.0795 0.0180 0.0000 32.2015 0.0000
# 6 0.0000 0.0000 0.0000 0.7925 0.0000 4.6469
#
#
#
# Elastic Compliance Matrix: (Units=1/GPa)
#
#
# Indices 1 2 3 4 5 6 
#
# 1 0.009761 -0.014755 -0.005750 0.000000 0.000001 0.000000
# 2 -0.014755 0.359523 -0.001208 0.000000 0.000837 0.000000
# 3 -0.005750 -0.001208 0.009319 0.000000 -0.000028 0.000000
# 4 0.000000 0.000000 0.000000 0.033133 0.000000 -0.005651
# 5 0.000001 0.000837 -0.000028 0.000000 0.031057 0.000000
# 6 0.000000 0.000000 0.000000 -0.005651 0.000000 0.216162
#
#
# Mechanical properties :
#
#
# Convention : Reuss Voigt Hill
#
# Bulk Modulus (GPa) = 2.98351 67.93576 35.45964
# Shear Modulus (GPa) = 6.14171 29.13271 17.63721
#
# Velocity S-wave (km/s) = 1.76465 3.84330 2.99040
# Velocity P-wave (km/s) = 2.38006 7.35796 5.46829
#
# Compressibility (1/GPa) = 0.33517525
#
# Stress axis : x y z
#
# Youngs Moduli (GPa) = 102.45102 2.78146 107.31145
#
# Poissons Ratio (x) = 0.04104 0.61709
# Poissons Ratio (y) = 1.51166 0.12964
# Poissons Ratio (z) = 0.58914 0.00336
#
# Static dielectric constant tensor:
#      x y z
#    x 3.972470 0.000000 -0.004570 
#    y 0.000000 2.727540 0.000000 
#    z -0.004570 0.000000 3.824590 
# 
# 
# High freq. dielectric constant tensor:
#      x y z
#    x 1.789890 0.000000 -0.000420 
#    y 0.000000 1.674770 0.000000 
#    z -0.000420 0.000000 1.776370 
# 
# From -- ./inp_files/87954.got.cif
#   From: 2010.06.25/outbox.cif.g09.slc.cpg/sg10_44_cif.got.tgz:87954.got - 2010.06.27 22:07:45.
