data_PCOD8059813
_publ_section_title
;
Structure prediction by ZEFSAII (Michael W. Deem and Ramdas Pophale) SiO2 
 PCOD8059813
Probable space group: P 2/M
;
_chemical_formula_sum "Si O2"
_cell_formula_units_Z 32
_cell_length_a 18.313000
_cell_length_b 8.857049
_cell_length_c 16.257107
_cell_angle_alpha 90.000000
_cell_angle_beta 125.286927
_cell_angle_gamma 90.000000
_cell_volume 2152.411640
_symmetry_space_group_name_H-M "P 2/M"
_symmetry_group_IT_number 10
_symmetry_cell_setting 'monoclinic'
loop_
_space_group_symop_operation_xyz
x,y,z
-x,y,-z
-x,-y,-z
x,-y,z
loop_
_atom_site_type_symbol
_atom_site_label
_atom_site_fract_x
_atom_site_fract_y
_atom_site_fract_z
Si Si1 0.515162 0.665748 0.606136
Si Si2 0.143278 0.679064 0.116678
Si Si3 0.900216 0.333198 0.401320
Si Si4 0.165406 0.822440 0.489379
Si Si5 0.690593 0.822992 0.696172
Si Si6 0.681346 0.678970 0.513215
Si Si7 0.025958 0.321733 0.892155
Si Si8 0.009702 0.320792 0.698784
O O1 0.500000 0.650712 0.500000
O O2 0.540798 0.500000 0.658217
O O3 0.595237 0.781998 0.676115
O O4 0.420040 0.721666 0.580848
O O5 0.160715 0.500000 0.132643
O O6 0.233943 0.768667 0.191743
O O7 0.069688 0.733122 0.135493
O O8 0.107620 0.730787 0.003438
O O9 0.856189 0.500000 0.377005
O O10 0.842042 0.219257 0.418502
O O11 0.910264 0.277952 0.312910
O O12 0.000000 0.341739 0.500000
O O13 0.255690 0.750288 0.514267
O O14 0.082311 0.760136 0.383847
O O15 0.169614 0.000000 0.482389
O O16 0.705139 0.742450 0.618467
O O17 0.695841 0.000000 0.685508
O O18 0.694694 0.500000 0.525957
O O19 0.023913 0.500000 0.893146
O O20 0.039983 0.262857 0.808371
O O21 0.991631 0.500000 0.684636
#
# Coordination Sequence:
#
# PCOD8059813 Si02
#       8
#     4   4   4   4   4   4   4   4
#     4   8  16  30  45  59  76 104 138 168 199 236
#     4   9  16  28  44  60  81 109 141 173 205 239
#     4   8  15  27  41  56  77 108 141 171 202 238
#     4  11  20  27  39  61  86 109 135 168 207 247
#     4  11  20  28  41  62  86 110 136 166 203 242
#     4  10  19  31  45  59  79 108 141 171 200 239
#     4   8  15  27  44  62  77 103 144 182 206 229
#     4   9  16  28  44  59  79 110 146 176 204 239
#
# _framework density 14.867044999999999
#
# number of rings (size 3 to 8) (size 9 to 14) (size 15 to 20)
#    0.000    2.750    0.000    5.625    0.000    6.000 
#    0.000    1.875    0.000    0.000    0.000    0.000 
#    0.000    1.000    0.000   11.500    0.000    3.250 
#
# Total GULP energy -396595.637677 kJ/mol
# GULP energy per Si atom -12393.613677 kJ/mol
# Density = 1.483321 g / cm^3
# Si number density = 14.867045 Si / 1000 Ang^3
#
#
#
# Elastic Constant Matrix: (Units=GPa)
#
#
# Indices 1 2 3 4 5 6 
#
# 1 112.1055 47.3218 57.9681 0.0000 -3.0127 0.0000
# 2 47.3218 75.5344 33.4531 0.0000 3.9958 0.0000
# 3 57.9681 33.4531 83.3142 0.0000 -3.9065 0.0000
# 4 0.0000 0.0000 0.0000 4.4464 0.0000 -2.5823
# 5 -3.0127 3.9958 -3.9065 0.0000 25.7329 0.0000
# 6 0.0000 0.0000 0.0000 -2.5823 0.0000 11.3643
#
#
#
# Elastic Compliance Matrix: (Units=1/GPa)
#
#
# Indices 1 2 3 4 5 6 
#
# 1 0.016071 -0.006364 -0.008553 0.000000 0.001571 0.000000
# 2 -0.006364 0.018943 -0.003375 0.000000 -0.004199 0.000000
# 3 -0.008553 -0.003375 0.019425 0.000000 0.002472 0.000000
# 4 0.000000 0.000000 0.000000 0.259093 0.000000 0.058873
# 5 0.001571 -0.004199 0.002472 0.000000 0.040072 0.000000
# 6 0.000000 0.000000 0.000000 0.058873 0.000000 0.101372
#
#
# Mechanical properties :
#
#
# Convention : Reuss Voigt Hill
#
# Bulk Modulus (GPa) = 56.00705 60.93778 58.47242
# Shear Modulus (GPa) = 10.05001 17.12280 13.58640
#
# Velocity S-wave (km/s) = 2.60281 3.39739 3.02629
# Velocity P-wave (km/s) = 6.84007 7.51447 7.18518
#
# Compressibility (1/GPa) = 0.01785490
#
# Stress axis : x y z
#
# Youngs Moduli (GPa) = 62.22269 52.79070 51.47991
#
# Poissons Ratio (x) = 0.33594 0.44032
# Poissons Ratio (y) = 0.39596 0.17376
# Poissons Ratio (z) = 0.53220 0.17819
#
# Static dielectric constant tensor:
#      x y z
#    x 3.208750 0.000000 -0.155230 
#    y 0.000000 2.761520 0.000000 
#    z -0.155230 0.000000 2.958360 
# 
# 
# High freq. dielectric constant tensor:
#      x y z
#    x 1.561140 0.000000 -0.000360 
#    y 0.000000 1.561370 0.000000 
#    z -0.000360 0.000000 1.536120 
# 
# From -- ./inp_files/78527.got.cif
#   From: 2010.06.25/outbox.cif.g09.slc.cpg/sg10_40_cif.got.tgz:78527.got - 2010.06.27 22:07:45.
