data_PCOD8059779
_publ_section_title
;
Structure prediction by ZEFSAII (Michael W. Deem and Ramdas Pophale) SiO2 
 PCOD8059779
Probable space group: P 2/M
;
_chemical_formula_sum "Si O2"
_cell_formula_units_Z 28
_cell_length_a 16.321770
_cell_length_b 9.291394
_cell_length_c 14.537246
_cell_angle_alpha 90.000000
_cell_angle_beta 41.847120
_cell_angle_gamma 90.000000
_cell_volume 1470.790162
_symmetry_space_group_name_H-M "P 2/M"
_symmetry_group_IT_number 10
_symmetry_cell_setting 'monoclinic'
loop_
_space_group_symop_operation_xyz
x,y,z
-x,y,-z
-x,-y,-z
x,-y,z
loop_
_atom_site_type_symbol
_atom_site_label
_atom_site_fract_x
_atom_site_fract_y
_atom_site_fract_z
Si Si1 0.708496 0.830521 0.182833
Si Si2 0.875694 0.658653 0.662171
Si Si3 0.059489 0.333064 0.046784
Si Si4 0.639453 0.339671 0.413115
Si Si5 0.952936 0.333054 0.328105
Si Si6 0.235788 0.164049 0.393070
Si Si7 0.438149 0.836762 0.357637
O O1 0.713279 0.756667 0.279013
O O2 0.581589 0.792791 0.235737
O O3 0.727223 0.000000 0.178668
O O4 0.820197 0.762166 0.032435
O O5 0.816272 0.500000 0.711585
O O6 0.915785 0.704322 0.732030
O O7 0.777525 0.764665 0.696605
O O8 0.000000 0.662139 0.500000
O O9 0.098344 0.500000 0.011806
O O10 0.963996 0.303547 0.209754
O O11 0.000000 0.284894 0.000000
O O12 0.500000 0.351665 0.500000
O O13 0.698941 0.500000 0.369354
O O14 0.643333 0.265019 0.508913
O O15 0.921453 0.500000 0.374669
O O16 0.845889 0.236723 0.459512
O O17 0.378349 0.175931 0.306082
O O18 0.193164 0.000000 0.419864
O O19 0.427719 0.000000 0.404264
#
# Coordination Sequence:
#
# PCOD8059779 Si02
#       7
#     4   4   4   4   4   4   4
#     4  10  20  35  52  69  99 136 170 206 250 302
#     4   8  15  30  50  72 100 133 165 200 254 308
#     4  10  22  38  54  74 100 132 173 216 250 289
#     4   9  17  29  47  70  94 126 168 207 244 290
#     4   9  19  35  52  72 103 138 166 204 257 303
#     4  10  19  30  50  80 107 129 163 208 251 300
#     4   9  19  33  48  72 104 135 162 203 259 302
#
# _framework density 19.037386000000001
#
# number of rings (size 3 to 8) (size 9 to 14) (size 15 to 20)
#    0.000    2.714    0.000    2.143    2.000    6.857 
#    0.000    0.000    0.000    0.857    0.000    6.000 
#    0.000    0.000    0.000    0.000    0.000    0.000 
#
# Total GULP energy -347068.362681 kJ/mol
# GULP energy per Si atom -12395.298667 kJ/mol
# Density = 1.899406 g / cm^3
# Si number density = 19.037386 Si / 1000 Ang^3
#
#
#
# Elastic Constant Matrix: (Units=GPa)
#
#
# Indices 1 2 3 4 5 6 
#
# 1 111.2745 40.7363 15.4427 0.0000 8.8421 0.0000
# 2 40.7363 93.6264 20.4476 0.0000 -5.2853 0.0000
# 3 15.4427 20.4476 35.7857 0.0000 1.4600 0.0000
# 4 0.0000 0.0000 0.0000 23.3165 0.0000 0.1783
# 5 8.8421 -5.2853 1.4600 0.0000 24.4983 0.0000
# 6 0.0000 0.0000 0.0000 0.1783 0.0000 26.0686
#
#
#
# Elastic Compliance Matrix: (Units=1/GPa)
#
#
# Indices 1 2 3 4 5 6 
#
# 1 0.011428 -0.004828 -0.001967 0.000000 -0.005049 0.000000
# 2 -0.004828 0.014476 -0.006402 0.000000 0.005247 0.000000
# 3 -0.001967 -0.006402 0.032558 0.000000 -0.002611 0.000000
# 4 0.000000 0.000000 0.000000 0.042890 0.000000 -0.000293
# 5 -0.005049 0.005247 -0.002611 0.000000 0.043929 0.000000
# 6 0.000000 0.000000 0.000000 -0.000293 0.000000 0.038362
#
#
# Mechanical properties :
#
#
# Convention : Reuss Voigt Hill
#
# Bulk Modulus (GPa) = 31.18397 43.77106 37.47752
# Shear Modulus (GPa) = 22.65246 25.71402 24.18324
#
# Velocity S-wave (km/s) = 3.45323 3.67919 3.56800
# Velocity P-wave (km/s) = 5.68468 6.41020 6.05831
#
# Compressibility (1/GPa) = 0.03206776
#
# Stress axis : x y z
#
# Youngs Moduli (GPa) = 87.50113 69.08138 30.71486
#
# Poissons Ratio (x) = 0.33352 0.06042
# Poissons Ratio (y) = 0.42244 0.19663
# Poissons Ratio (z) = 0.17213 0.44225
#
# Static dielectric constant tensor:
#      x y z
#    x 3.751520 0.000000 0.135650 
#    y 0.000000 3.567140 0.000000 
#    z 0.135650 0.000000 3.110970 
# 
# 
# High freq. dielectric constant tensor:
#      x y z
#    x 1.749620 0.000000 0.000680 
#    y 0.000000 1.743470 0.000000 
#    z 0.000680 0.000000 1.689480 
# 
# From -- ./inp_files/68609.got.cif
#   From: 2010.06.25/outbox.cif.g09.slc.cpg/sg10_35_cif.got.tgz:68609.got - 2010.06.27 22:07:45.
