data_PCOD8059806
_publ_section_title
;
Structure prediction by ZEFSAII (Michael W. Deem and Ramdas Pophale) SiO2 
 PCOD8059806
Probable space group: P 2/M
;
_chemical_formula_sum "Si O2"
_cell_formula_units_Z 28
_cell_length_a 15.174203
_cell_length_b 15.955602
_cell_length_c 15.326666
_cell_angle_alpha 90.000000
_cell_angle_beta 150.868553
_cell_angle_gamma 90.000000
_cell_volume 1806.469454
_symmetry_space_group_name_H-M "P 2/M"
_symmetry_group_IT_number 10
_symmetry_cell_setting 'monoclinic'
loop_
_space_group_symop_operation_xyz
x,y,z
-x,y,-z
-x,-y,-z
x,-y,z
loop_
_atom_site_type_symbol
_atom_site_label
_atom_site_fract_x
_atom_site_fract_y
_atom_site_fract_z
Si Si1 0.862302 0.000000 0.255463
Si Si2 0.953685 0.404230 0.360792
Si Si3 0.564791 0.877273 0.958020
Si Si4 0.793575 0.403276 0.578187
Si Si5 0.733841 0.000000 0.342174
Si Si6 0.575542 0.599433 0.801860
Si Si7 0.049004 0.600317 0.946835
Si Si8 0.390329 0.313230 0.992769
O O1 0.815152 0.000000 0.316206
O O2 0.085077 0.000000 0.437830
O O3 0.763879 0.920626 0.123062
O O4 0.879595 0.500000 0.288031
O O5 0.000000 0.382899 0.500000
O O6 0.127395 0.391299 0.450331
O O7 0.815012 0.335386 0.206757
O O8 0.401917 0.919991 0.759954
O O9 0.589323 0.780867 0.953573
O O10 0.500000 0.887049 0.000000
O O11 0.787657 0.500000 0.597892
O O12 0.590565 0.366750 0.400724
O O13 0.908294 0.360785 0.755030
O O14 0.579229 0.500000 0.806833
O O15 0.756500 0.635696 0.914612
O O16 0.542923 0.627064 0.872752
O O17 0.051500 0.500000 0.948707
O O18 0.000000 0.635055 0.000000
O O19 0.500000 0.331036 0.000000
#
# Coordination Sequence:
#
# PCOD8059806 Si02
#       8
#     2   4   4   4   2   4   4   4
#     4   8  13  27  46  59  71 110 135 167 222 264
#     4  10  19  31  43  57  83 122 161 192 220 254
#     4   8  16  28  39  60  85 100 139 183 214 258
#     4   9  17  30  44  60  81 107 148 191 223 266
#     4   8  13  27  46  57  77 104 133 172 220 268
#     4  10  19  31  46  61  85 120 151 183 227 266
#     4   9  17  30  47  64  81 105 144 195 239 270
#     4  11  20  30  41  63  90 117 150 193 222 255
#
# _framework density 15.499847000000001
#
# number of rings (size 3 to 8) (size 9 to 14) (size 15 to 20)
#    0.000    2.714    1.429    2.143    0.000    2.857 
#   10.286    2.857    0.000    0.000    0.000    0.000 
#    0.000    0.000    0.000    2.571    0.000   10.857 
#
# Total GULP energy -346869.556129 kJ/mol
# GULP energy per Si atom -12388.198433 kJ/mol
# Density = 1.546457 g / cm^3
# Si number density = 15.499847 Si / 1000 Ang^3
#
#
#
# Elastic Constant Matrix: (Units=GPa)
#
#
# Indices 1 2 3 4 5 6 
#
# 1 75.2923 16.6231 53.7786 0.0000 -6.4570 0.0000
# 2 16.6231 34.8247 28.2063 0.0000 9.9271 0.0000
# 3 53.7786 28.2063 150.5986 0.0000 14.0757 0.0000
# 4 0.0000 0.0000 0.0000 7.6374 0.0000 2.9680
# 5 -6.4570 9.9271 14.0757 0.0000 22.5300 0.0000
# 6 0.0000 0.0000 0.0000 2.9680 0.0000 4.1274
#
#
#
# Elastic Compliance Matrix: (Units=1/GPa)
#
#
# Indices 1 2 3 4 5 6 
#
# 1 0.021836 -0.008478 -0.007587 0.000000 0.014733 0.000000
# 2 -0.008478 0.040279 -0.002794 0.000000 -0.018432 0.000000
# 3 -0.007587 -0.002794 0.010579 0.000000 -0.007552 0.000000
# 4 0.000000 0.000000 0.000000 0.181719 0.000000 -0.130676
# 5 0.014733 -0.018432 -0.007552 0.000000 0.061448 0.000000
# 6 0.000000 0.000000 0.000000 -0.130676 0.000000 0.336256
#
#
# Mechanical properties :
#
#
# Convention : Reuss Voigt Hill
#
# Bulk Modulus (GPa) = 28.59076 50.88127 39.73602
# Shear Modulus (GPa) = 7.12767 17.66611 12.39689
#
# Velocity S-wave (km/s) = 2.14675 3.37970 2.83115
# Velocity P-wave (km/s) = 4.96292 6.93744 6.03153
#
# Compressibility (1/GPa) = 0.03497633
#
# Stress axis : x y z
#
# Youngs Moduli (GPa) = 45.79630 24.82674 94.53115
#
# Poissons Ratio (x) = 0.21048 0.71718
# Poissons Ratio (y) = 0.38826 0.26410
# Poissons Ratio (z) = 0.34744 0.06936
#
# Static dielectric constant tensor:
#      x y z
#    x 2.948170 0.000000 0.065920 
#    y 0.000000 2.827470 0.000000 
#    z 0.065920 0.000000 3.405750 
# 
# 
# High freq. dielectric constant tensor:
#      x y z
#    x 1.559350 0.000000 0.014000 
#    y 0.000000 1.546870 0.000000 
#    z 0.014000 0.000000 1.611840 
# 
# From -- ./inp_files/67667.got.cif
#   From: 2010.06.25/outbox.cif.g09.slc.cpg/sg10_34_cif.got.tgz:67667.got - 2010.06.27 22:07:45.
