data_PCOD8059213
_publ_section_title
;
Structure prediction by ZEFSAII (Michael W. Deem and Ramdas Pophale) SiO2 
 PCOD8059213
Probable space group: P 2/M
;
_chemical_formula_sum "Si O2"
_cell_formula_units_Z 20
_cell_length_a 7.788598
_cell_length_b 21.626897
_cell_length_c 6.913544
_cell_angle_alpha 90.000000
_cell_angle_beta 137.749261
_cell_angle_gamma 90.000000
_cell_volume 783.008838
_symmetry_space_group_name_H-M "P 2/M"
_symmetry_group_IT_number 10
_symmetry_cell_setting 'monoclinic'
loop_
_space_group_symop_operation_xyz
x,y,z
-x,y,-z
-x,-y,-z
x,-y,z
loop_
_atom_site_type_symbol
_atom_site_label
_atom_site_fract_x
_atom_site_fract_y
_atom_site_fract_z
Si Si1 0.416344 0.630480 0.709169
Si Si2 0.553586 0.863744 0.817578
Si Si3 0.055776 0.070192 0.320040
Si Si4 0.000000 0.289657 0.500000
Si Si5 0.292155 0.500000 0.659206
Si Si6 0.755890 0.738692 0.925460
O O1 0.155220 0.668285 0.477886
O O2 0.352152 0.561164 0.577930
O O3 0.500000 0.624766 0.000000
O O4 0.631769 0.670680 0.775798
O O5 0.327025 0.896273 0.507994
O O6 0.500000 0.865629 0.000000
O O7 0.555492 0.794058 0.729809
O O8 0.827150 0.897175 0.008752
O O9 0.000000 0.072680 0.500000
O O10 0.075695 0.000000 0.263911
O O11 0.821579 0.250300 0.209415
O O12 0.000000 0.500000 0.500000
O O13 0.500000 0.500000 0.000000
O O14 0.000000 0.747945 0.000000
#
# Coordination Sequence:
#
# PCOD8059213 Si02
#       6
#     4   4   4   2   2   4
#     4   9  19  36  60  93 124 164 215 266 317 388
#     4  10  20  35  60  88 125 165 212 263 317 383
#     4   9  18  33  58  91 123 160 209 263 319 382
#     4  10  20  39  66  84 125 164 212 268 328 372
#     4  10  18  34  63  97 125 168 220 267 325 388
#     4  11  25  40  60  94 130 170 217 266 323 385
#
# _framework density 25.542497000000001
#
# number of rings (size 3 to 8) (size 9 to 14) (size 15 to 20)
#    0.000    2.200    1.000    2.400    7.000    3.200 
#    0.000    0.500    0.000    4.800    0.000    0.000 
#    0.000    0.000    0.000    0.000    0.000    0.000 
#
# Total GULP energy -247871.424840 kJ/mol
# GULP energy per Si atom -12393.571242 kJ/mol
# Density = 2.548436 g / cm^3
# Si number density = 25.542497 Si / 1000 Ang^3
#
#
#
# Elastic Constant Matrix: (Units=GPa)
#
#
# Indices 1 2 3 4 5 6 
#
# 1 73.5884 48.3893 37.7758 0.0000 37.4315 0.0000
# 2 48.3893 217.8730 50.2544 0.0000 36.4364 0.0000
# 3 37.7758 50.2544 134.9712 0.0000 31.3493 0.0000
# 4 0.0000 0.0000 0.0000 -3.7656 0.0000 25.1240
# 5 37.4315 36.4364 31.3493 0.0000 44.8086 0.0000
# 6 0.0000 0.0000 0.0000 25.1240 0.0000 8.7278
#
#
#
# Elastic Compliance Matrix: (Units=1/GPa)
#
#
# Indices 1 2 3 4 5 6 
#
# 1 0.025105 -0.002117 -0.002110 0.000000 -0.017775 0.000000
# 2 -0.002117 0.005648 -0.001020 0.000000 -0.002111 0.000000
# 3 -0.002110 -0.001020 0.009286 0.000000 -0.003905 0.000000
# 4 0.000000 0.000000 0.000000 -0.013143 0.000000 0.037833
# 5 -0.017775 -0.002111 -0.003905 0.000000 0.041614 0.000000
# 6 0.000000 0.000000 0.000000 0.037833 0.000000 0.005670
#
#
# Mechanical properties :
#
#
# Convention : Reuss Voigt Hill
#
# Bulk Modulus (GPa) = 33.84518 77.69684 55.77101
# Shear Modulus (GPa) = 52.89645 29.28836 41.09241
#
# Velocity S-wave (km/s) = 4.55567 3.38990 4.01532
# Velocity P-wave (km/s) = 6.39934 6.76806 6.58628
#
# Compressibility (1/GPa) = 0.02954630
#
# Stress axis : x y z
#
# Youngs Moduli (GPa) = 39.83211 177.04421 107.68471
#
# Poissons Ratio (x) = 0.37473 0.22721
# Poissons Ratio (y) = 0.08431 0.10988
# Poissons Ratio (z) = 0.08404 0.18065
#
# Static dielectric constant tensor:
#      x y z
#    x 4.251690 0.000000 0.308030 
#    y 0.000000 5.183740 0.000000 
#    z 0.308030 0.000000 4.633290 
# 
# 
# High freq. dielectric constant tensor:
#      x y z
#    x 2.008110 0.000000 0.014240 
#    y 0.000000 2.025450 0.000000 
#    z 0.014240 0.000000 2.026960 
# 
# From -- ./inp_files/20340.got.cif
#   From: 2010.06.25/outbox.cif.g09.slc.cpg/sg10_11_cif.got.tgz:20340.got - 2010.06.27 22:07:45.
