data_PCOD8059311
_publ_section_title
;
Structure prediction by ZEFSAII (Michael W. Deem and Ramdas Pophale) SiO2 
 PCOD8059311
Probable space group: P 2/M
;
_chemical_formula_sum "Si O2"
_cell_formula_units_Z 32
_cell_length_a 16.474702
_cell_length_b 8.899525
_cell_length_c 22.111103
_cell_angle_alpha 90.000000
_cell_angle_beta 141.675887
_cell_angle_gamma 90.000000
_cell_volume 2010.309908
_symmetry_space_group_name_H-M "P 2/M"
_symmetry_group_IT_number 10
_symmetry_cell_setting 'monoclinic'
loop_
_space_group_symop_operation_xyz
x,y,z
-x,y,-z
-x,-y,-z
x,-y,z
loop_
_atom_site_type_symbol
_atom_site_label
_atom_site_fract_x
_atom_site_fract_y
_atom_site_fract_z
Si Si1 0.152629 0.174014 0.585831
Si Si2 0.762541 0.825478 0.498284
Si Si3 0.073990 0.673034 0.302117
Si Si4 0.321626 0.673078 0.377996
Si Si5 0.807273 0.822357 0.161071
Si Si6 0.706103 0.675951 0.222388
Si Si7 0.456789 0.165493 0.043602
Si Si8 0.516692 0.173405 0.423676
O O1 0.205050 0.219763 0.550817
O O2 0.227673 0.277977 0.676604
O O3 0.000000 0.210091 0.500000
O O4 0.180776 0.000000 0.617125
O O5 0.852270 0.726644 0.594561
O O6 0.606643 0.794043 0.417269
O O7 0.795197 0.000000 0.530256
O O8 0.036282 0.500000 0.289496
O O9 0.165834 0.694158 0.296079
O O10 0.943741 0.767125 0.213505
O O11 0.359943 0.500000 0.411275
O O12 0.391517 0.780266 0.466923
O O13 0.380382 0.729410 0.347222
O O14 0.784088 0.752749 0.213407
O O15 0.808602 0.000000 0.170655
O O16 0.693560 0.775469 0.046508
O O17 0.714805 0.500000 0.218154
O O18 0.552816 0.722949 0.135371
O O19 0.465110 0.000000 0.078793
O O20 0.500000 0.153062 0.000000
O O21 0.477727 0.000000 0.404843
#
# Coordination Sequence:
#
# PCOD8059311 Si02
#       8
#     4   4   4   4   4   4   4   4
#     4  10  20  33  47  61  82 116 152 182 213 249
#     4   9  18  30  43  60  83 114 151 185 215 248
#     4  10  19  28  41  63  90 115 140 175 215 255
#     4   9  16  25  37  56  82 111 138 166 209 257
#     4  10  19  31  47  64  85 114 144 173 209 255
#     4  11  21  31  46  66  87 111 141 180 218 250
#     4   8  16  31  48  64  82 108 141 173 208 253
#     4   9  15  24  39  57  77 105 143 181 210 241
#
# _framework density 15.917942999999999
#
# number of rings (size 3 to 8) (size 9 to 14) (size 15 to 20)
#    0.000    2.500    0.000    4.875    0.000    6.500 
#    0.000    0.000    0.000    0.000    0.000    0.000 
#    0.000    1.000    0.000   11.250    0.000    5.625 
#
# Total GULP energy -396558.719301 kJ/mol
# GULP energy per Si atom -12392.459978 kJ/mol
# Density = 1.588171 g / cm^3
# Si number density = 15.917943 Si / 1000 Ang^3
#
#
#
# Elastic Constant Matrix: (Units=GPa)
#
#
# Indices 1 2 3 4 5 6 
#
# 1 103.9474 37.6194 43.5341 0.0000 25.5273 0.0000
# 2 37.6194 77.1586 41.7858 0.0000 13.0748 0.0000
# 3 43.5341 41.7858 80.5324 0.0000 21.8430 0.0000
# 4 0.0000 0.0000 0.0000 7.9083 0.0000 4.8716
# 5 25.5273 13.0748 21.8430 0.0000 21.9321 0.0000
# 6 0.0000 0.0000 0.0000 4.8716 0.0000 21.4104
#
#
#
# Elastic Compliance Matrix: (Units=1/GPa)
#
#
# Indices 1 2 3 4 5 6 
#
# 1 0.015305 -0.003748 -0.002882 0.000000 -0.012709 0.000000
# 2 -0.003748 0.019005 -0.008146 0.000000 0.001145 0.000000
# 3 -0.002882 -0.008146 0.021887 0.000000 -0.013588 0.000000
# 4 0.000000 0.000000 0.000000 0.147063 0.000000 -0.033462
# 5 -0.012709 0.001145 -0.013588 0.000000 0.073238 0.000000
# 6 0.000000 0.000000 0.000000 -0.033462 0.000000 0.054320
#
#
# Mechanical properties :
#
#
# Convention : Reuss Voigt Hill
#
# Bulk Modulus (GPa) = 37.52801 56.39076 46.95939
# Shear Modulus (GPa) = 13.54096 19.49676 16.51886
#
# Velocity S-wave (km/s) = 2.91979 3.50355 3.22491
# Velocity P-wave (km/s) = 5.91558 7.20204 6.59027
#
# Compressibility (1/GPa) = 0.02664676
#
# Stress axis : x y z
#
# Youngs Moduli (GPa) = 65.34015 52.61806 45.68884
#
# Poissons Ratio (x) = 0.19720 0.13166
# Poissons Ratio (y) = 0.24488 0.37216
# Poissons Ratio (z) = 0.18828 0.42861
#
# Static dielectric constant tensor:
#      x y z
#    x 3.446330 0.000000 0.508680 
#    y 0.000000 3.076080 0.000000 
#    z 0.508680 0.000000 3.030520 
# 
# 
# High freq. dielectric constant tensor:
#      x y z
#    x 1.599360 0.000000 0.036310 
#    y 0.000000 1.621890 0.000000 
#    z 0.036310 0.000000 1.575030 
# 
# From -- ./inp_files/89968.got.cif
#   From: 2010.06.25/outbox.cif.g09.slc.cpg/sg10_45_cif.got.tgz:89968.got - 2010.06.27 22:07:45.
