data_PCOD8059293
_publ_section_title
;
Structure prediction by ZEFSAII (Michael W. Deem and Ramdas Pophale) SiO2 
 PCOD8059293
Probable space group: P 2/M
;
_chemical_formula_sum "Si O2"
_cell_formula_units_Z 32
_cell_length_a 18.394716
_cell_length_b 8.985040
_cell_length_c 16.425564
_cell_angle_alpha 90.000000
_cell_angle_beta 125.517252
_cell_angle_gamma 90.000000
_cell_volume 2209.663390
_symmetry_space_group_name_H-M "P 2/M"
_symmetry_group_IT_number 10
_symmetry_cell_setting 'monoclinic'
loop_
_space_group_symop_operation_xyz
x,y,z
-x,y,-z
-x,-y,-z
x,-y,z
loop_
_atom_site_type_symbol
_atom_site_label
_atom_site_fract_x
_atom_site_fract_y
_atom_site_fract_z
Si Si1 0.826497 0.174365 0.012157
Si Si2 0.091020 0.823709 0.094464
Si Si3 0.025873 0.823668 0.392193
Si Si4 0.684355 0.675254 0.204800
Si Si5 0.493759 0.832357 0.899420
Si Si6 0.857331 0.175964 0.383831
Si Si7 0.980295 0.175456 0.790586
Si Si8 0.671885 0.325127 0.009617
O O1 0.829623 0.218279 0.916985
O O2 0.750574 0.272668 0.002638
O O3 0.804932 0.000000 0.009968
O O4 0.920258 0.216379 0.115112
O O5 0.094614 0.768202 0.191563
O O6 0.082070 0.000000 0.089559
O O7 0.000000 0.755107 0.000000
O O8 0.108148 0.777852 0.503692
O O9 0.931456 0.769118 0.367303
O O10 0.038874 0.752468 0.310566
O O11 0.021162 0.000000 0.385717
O O12 0.678017 0.500000 0.211045
O O13 0.595171 0.745808 0.185579
O O14 0.766889 0.736825 0.309261
O O15 0.695035 0.721381 0.117209
O O16 0.580709 0.751418 0.919671
O O17 0.489895 0.000000 0.862847
O O18 0.500000 0.830003 0.000000
O O19 0.839993 0.000000 0.365633
O O20 0.972434 0.000000 0.776350
O O21 0.658794 0.500000 0.993471
#
# Coordination Sequence:
#
# PCOD8059293 Si02
#       8
#     4   4   4   4   4   4   4   4
#     4   9  15  23  38  58  77 100 132 164 191 225
#     4   7  11  19  32  53  77  98 125 162 196 224
#     4   8  14  23  36  55  78 103 132 167 199 223
#     4  10  19  29  40  55  77 104 130 156 191 230
#     4   9  17  29  44  59  74  96 127 159 188 221
#     4   9  16  26  39  56  77 101 133 168 196 223
#     4   8  12  20  36  56  77 102 132 165 198 225
#     4  10  19  28  38  55  80 105 127 154 189 229
#
# _framework density 14.481844000000001
#
# number of rings (size 3 to 8) (size 9 to 14) (size 15 to 20)
#    0.000    3.250    0.000    4.125    0.000    4.000 
#    0.000    1.250    0.000    4.125    0.000    0.000 
#    0.000    1.000    0.000   11.750    0.000    2.250 
#
# Total GULP energy -396427.857761 kJ/mol
# GULP energy per Si atom -12388.370555 kJ/mol
# Density = 1.444888 g / cm^3
# Si number density = 14.481844 Si / 1000 Ang^3
#
#
#
# Elastic Constant Matrix: (Units=GPa)
#
#
# Indices 1 2 3 4 5 6 
#
# 1 89.7472 29.2198 55.8521 0.0000 -8.7243 0.0000
# 2 29.2198 44.2215 26.4373 0.0000 5.7014 0.0000
# 3 55.8521 26.4373 88.2885 0.0000 -2.1119 0.0000
# 4 0.0000 0.0000 0.0000 7.7667 0.0000 -4.3369
# 5 -8.7243 5.7014 -2.1119 0.0000 27.4478 0.0000
# 6 0.0000 0.0000 0.0000 -4.3369 0.0000 4.4693
#
#
#
# Elastic Compliance Matrix: (Units=1/GPa)
#
#
# Indices 1 2 3 4 5 6 
#
# 1 0.021444 -0.008742 -0.010762 0.000000 0.007804 0.000000
# 2 -0.008742 0.032266 -0.004366 0.000000 -0.009817 0.000000
# 3 -0.010762 -0.004366 0.019417 0.000000 -0.001020 0.000000
# 4 0.000000 0.000000 0.000000 0.281041 0.000000 0.272719
# 5 0.007804 -0.009817 -0.001020 0.000000 0.040874 0.000000
# 6 0.000000 0.000000 0.000000 0.272719 0.000000 0.488395
#
#
# Mechanical properties :
#
#
# Convention : Reuss Voigt Hill
#
# Bulk Modulus (GPa) = 39.38879 49.47506 44.43192
# Shear Modulus (GPa) = 5.32119 15.31994 10.32056
#
# Velocity S-wave (km/s) = 1.91895 3.25602 2.67246
# Velocity P-wave (km/s) = 5.67165 6.95509 6.34590
#
# Compressibility (1/GPa) = 0.02538794
#
# Stress axis : x y z
#
# Youngs Moduli (GPa) = 46.63201 30.99250 51.50021
#
# Poissons Ratio (x) = 0.27094 0.55422
# Poissons Ratio (y) = 0.40766 0.22486
# Poissons Ratio (z) = 0.50183 0.13532
#
# Static dielectric constant tensor:
#      x y z
#    x 3.043870 0.000000 -0.256670 
#    y 0.000000 2.556250 0.000000 
#    z -0.256670 0.000000 2.884050 
# 
# 
# High freq. dielectric constant tensor:
#      x y z
#    x 1.547000 0.000000 -0.003070 
#    y 0.000000 1.529260 0.000000 
#    z -0.003070 0.000000 1.524090 
# 
# From -- ./inp_files/68229.got.cif
#   From: 2010.06.25/outbox.cif.g09.slc.cpg/sg10_35_cif.got.tgz:68229.got - 2010.06.27 22:07:45.
