data_PCOD8059499
_publ_section_title
;
Structure prediction by ZEFSAII (Michael W. Deem and Ramdas Pophale) SiO2 
 PCOD8059499
Probable space group: P 2/M
;
_chemical_formula_sum "Si O2"
_cell_formula_units_Z 32
_cell_length_a 20.010758
_cell_length_b 13.619666
_cell_length_c 15.574571
_cell_angle_alpha 90.000000
_cell_angle_beta 151.834920
_cell_angle_gamma 90.000000
_cell_volume 2003.551712
_symmetry_space_group_name_H-M "P 2/M"
_symmetry_group_IT_number 10
_symmetry_cell_setting 'monoclinic'
loop_
_space_group_symop_operation_xyz
x,y,z
-x,y,-z
-x,-y,-z
x,-y,z
loop_
_atom_site_type_symbol
_atom_site_label
_atom_site_fract_x
_atom_site_fract_y
_atom_site_fract_z
Si Si1 0.861962 0.305828 0.396009
Si Si2 0.827678 0.614821 0.050448
Si Si3 0.138415 0.384822 0.415438
Si Si4 0.325213 0.385419 0.955233
Si Si5 0.727885 0.889828 0.244559
Si Si6 0.419428 0.298074 0.669229
Si Si7 0.546576 0.615235 0.646934
Si Si8 0.485326 0.889851 0.841113
O O1 0.859041 0.364255 0.480830
O O2 0.719903 0.335378 0.184332
O O3 0.856249 0.187593 0.399719
O O4 0.000000 0.338706 0.500000
O O5 0.839927 0.500000 0.079766
O O6 0.768976 0.659656 0.073391
O O7 0.985148 0.652949 0.206180
O O8 0.714506 0.638365 0.847062
O O9 0.163318 0.500000 0.426341
O O10 0.254916 0.321898 0.497342
O O11 0.302938 0.500000 0.920382
O O12 0.489598 0.363644 0.161185
O O13 0.627298 0.873713 0.211614
O O14 0.791370 0.000000 0.317021
O O15 0.640939 0.872224 0.057750
O O16 0.456512 0.322385 0.612928
O O17 0.453292 0.184011 0.726579
O O18 0.500000 0.648553 0.500000
O O19 0.516631 0.500000 0.629433
O O20 0.474787 0.000000 0.791760
#
# Coordination Sequence:
#
# PCOD8059499 Si02
#       8
#     4   4   4   4   4   4   4   4
#     4  12  21  29  44  64  93 136 171 196 234 282
#     4   8  16  31  46  63  94 131 159 186 228 279
#     4  11  21  30  43  69 101 131 160 198 233 272
#     4  10  19  30  43  63  94 134 166 193 225 274
#     4   9  18  33  46  63  90 124 170 214 243 272
#     4  11  19  32  51  72  94 119 163 206 241 275
#     4   9  18  34  55  75  97 127 156 186 235 300
#     4   9  17  31  51  67  88 123 162 204 249 282
#
# _framework density 15.971636999999999
#
# number of rings (size 3 to 8) (size 9 to 14) (size 15 to 20)
#    0.000    2.125    3.750    3.000    0.000    1.250 
#    0.000    1.875    0.000    3.375    0.000    0.000 
#    0.000    1.000    0.000    0.000    0.000    0.000 
#
# Total GULP energy -396696.796517 kJ/mol
# GULP energy per Si atom -12396.774891 kJ/mol
# Density = 1.593529 g / cm^3
# Si number density = 15.971637 Si / 1000 Ang^3
#
#
#
# Elastic Constant Matrix: (Units=GPa)
#
#
# Indices 1 2 3 4 5 6 
#
# 1 72.2352 27.4144 44.4482 0.0000 -5.3402 0.0000
# 2 27.4144 74.1588 18.9962 0.0000 -4.9538 0.0000
# 3 44.4482 18.9962 88.3668 0.0000 -2.3043 0.0000
# 4 0.0000 0.0000 0.0000 17.0512 0.0000 1.4044
# 5 -5.3402 -4.9538 -2.3043 0.0000 27.6845 0.0000
# 6 0.0000 0.0000 0.0000 1.4044 0.0000 19.1382
#
#
#
# Elastic Compliance Matrix: (Units=1/GPa)
#
#
# Indices 1 2 3 4 5 6 
#
# 1 0.022229 -0.005508 -0.009932 0.000000 0.002475 0.000000
# 2 -0.005508 0.015783 -0.000578 0.000000 0.001714 0.000000
# 3 -0.009932 -0.000578 0.016420 0.000000 -0.000653 0.000000
# 4 0.000000 0.000000 0.000000 0.059003 0.000000 -0.004330
# 5 0.002475 0.001714 -0.000653 0.000000 0.036851 0.000000
# 6 0.000000 0.000000 0.000000 -0.004330 0.000000 0.052569
#
#
# Mechanical properties :
#
#
# Convention : Reuss Voigt Hill
#
# Bulk Modulus (GPa) = 44.65185 46.27540 45.46363
# Shear Modulus (GPa) = 20.63081 22.36826 21.49954
#
# Velocity S-wave (km/s) = 3.59794 3.74638 3.67291
# Velocity P-wave (km/s) = 6.72889 6.91015 6.82012
#
# Compressibility (1/GPa) = 0.02239549
#
# Stress axis : x y z
#
# Youngs Moduli (GPa) = 44.98710 63.35883 60.90273
#
# Poissons Ratio (x) = 0.34896 0.60491
# Poissons Ratio (y) = 0.24778 0.03519
# Poissons Ratio (z) = 0.44683 0.03661
#
# Static dielectric constant tensor:
#      x y z
#    x 2.807100 0.000000 0.152700 
#    y 0.000000 2.974070 0.000000 
#    z 0.152700 0.000000 3.165760 
# 
# 
# High freq. dielectric constant tensor:
#      x y z
#    x 1.585350 0.000000 0.014220 
#    y 0.000000 1.597870 0.000000 
#    z 0.014220 0.000000 1.608530 
# 
# From -- ./inp_files/29056.got.cif
#   From: 2010.06.25/outbox.cif.g09.slc.cpg/sg10_15_cif.got.tgz:29056.got - 2010.06.27 22:07:45.
