data_PCOD8059468
_publ_section_title
;
Structure prediction by ZEFSAII (Michael W. Deem and Ramdas Pophale) SiO2 
 PCOD8059468
Probable space group: P 2/M
;
_chemical_formula_sum "Si O2"
_cell_formula_units_Z 28
_cell_length_a 14.704689
_cell_length_b 9.854471
_cell_length_c 18.594097
_cell_angle_alpha 90.000000
_cell_angle_beta 33.966670
_cell_angle_gamma 90.000000
_cell_volume 1505.397249
_symmetry_space_group_name_H-M "P 2/M"
_symmetry_group_IT_number 10
_symmetry_cell_setting 'monoclinic'
loop_
_space_group_symop_operation_xyz
x,y,z
-x,y,-z
-x,-y,-z
x,-y,z
loop_
_atom_site_type_symbol
_atom_site_label
_atom_site_fract_x
_atom_site_fract_y
_atom_site_fract_z
Si Si1 0.367778 0.161738 0.752400
Si Si2 0.926741 0.347261 0.434360
Si Si3 0.277470 0.840940 0.526681
Si Si4 0.155395 0.159416 0.760963
Si Si5 0.481540 0.841400 0.930188
Si Si6 0.750060 0.347498 0.700119
Si Si7 0.207795 0.159678 0.003274
O O1 0.550425 0.213654 0.616288
O O2 0.246771 0.220269 0.770568
O O3 0.306537 0.218042 0.869528
O O4 0.369512 0.000000 0.748308
O O5 0.901113 0.500000 0.421615
O O6 0.869739 0.238243 0.413909
O O7 0.827295 0.326793 0.572122
O O8 0.116510 0.320748 0.325546
O O9 0.265256 0.808941 0.619387
O O10 0.252975 0.000000 0.527262
O O11 0.135364 0.000000 0.784070
O O12 0.973517 0.223532 0.873721
O O13 0.608689 0.761582 0.798372
O O14 0.303160 0.807271 0.014918
O O15 0.521687 0.000000 0.896842
O O16 0.500000 0.791786 0.000000
O O17 0.680302 0.500000 0.754046
O O18 0.194640 0.000000 0.001128
#
# Coordination Sequence:
#
# PCOD8059468 Si02
#       7
#     4   4   4   4   4   4   4
#     4   9  16  28  46  70  99 131 169 210 246 290
#     4   9  19  35  53  73  99 133 170 210 252 299
#     4  10  19  29  49  78 104 126 160 209 259 304
#     4   9  17  28  45  70 101 133 166 206 250 296
#     4  10  21  33  49  75 109 137 162 206 259 303
#     4   9  19  36  54  71  96 133 177 213 244 294
#     4   9  17  29  45  67  99 138 170 197 246 308
#
# _framework density 18.599741999999999
#
# number of rings (size 3 to 8) (size 9 to 14) (size 15 to 20)
#    0.000    2.714    0.000    2.571    2.000    6.000 
#    0.000    1.429    0.000    1.714    0.000    0.000 
#    0.000    5.714    0.000    0.000    0.000    0.000 
#
# Total GULP energy -347122.642362 kJ/mol
# GULP energy per Si atom -12397.237227 kJ/mol
# Density = 1.855741 g / cm^3
# Si number density = 18.599742 Si / 1000 Ang^3
#
#
#
# Elastic Constant Matrix: (Units=GPa)
#
#
# Indices 1 2 3 4 5 6 
#
# 1 109.9607 18.5438 15.3558 0.0000 -2.1255 0.0000
# 2 18.5438 30.4951 9.6583 0.0000 -4.2898 0.0000
# 3 15.3558 9.6583 75.6816 0.0000 -3.3893 0.0000
# 4 0.0000 0.0000 0.0000 16.8053 0.0000 -0.5048
# 5 -2.1255 -4.2898 -3.3893 0.0000 24.6067 0.0000
# 6 0.0000 0.0000 0.0000 -0.5048 0.0000 10.1544
#
#
#
# Elastic Compliance Matrix: (Units=1/GPa)
#
#
# Indices 1 2 3 4 5 6 
#
# 1 0.010265 -0.005860 -0.001349 0.000000 -0.000321 0.000000
# 2 -0.005860 0.038244 -0.003437 0.000000 0.005688 0.000000
# 3 -0.001349 -0.003437 0.013980 0.000000 0.001210 0.000000
# 4 0.000000 0.000000 0.000000 0.059594 0.000000 0.002963
# 5 -0.000321 0.005688 0.001210 0.000000 0.041770 0.000000
# 6 0.000000 0.000000 0.000000 0.002963 0.000000 0.098626
#
#
# Mechanical properties :
#
#
# Convention : Reuss Voigt Hill
#
# Bulk Modulus (GPa) = 24.27382 33.69482 28.98432
# Shear Modulus (GPa) = 16.80659 21.81858 19.31259
#
# Velocity S-wave (km/s) = 3.00924 3.42871 3.22580
# Velocity P-wave (km/s) = 5.01528 5.81634 5.43060
#
# Compressibility (1/GPa) = 0.04119665
#
# Stress axis : x y z
#
# Youngs Moduli (GPa) = 97.42281 26.14796 71.53172
#
# Poissons Ratio (x) = 0.15322 0.09651
# Poissons Ratio (y) = 0.57085 0.24585
# Poissons Ratio (z) = 0.13145 0.08987
#
# Static dielectric constant tensor:
#      x y z
#    x 3.633890 0.000000 -0.113190 
#    y 0.000000 2.924250 0.000000 
#    z -0.113190 0.000000 3.501580 
# 
# 
# High freq. dielectric constant tensor:
#      x y z
#    x 1.733410 0.000000 -0.003850 
#    y 0.000000 1.662440 0.000000 
#    z -0.003850 0.000000 1.726640 
# 
# From -- ./inp_files/28215.got.cif
#   From: 2010.06.25/outbox.cif.g09.slc.cpg/sg10_15_cif.got.tgz:28215.got - 2010.06.27 22:07:45.
