data_PCOD8059086
_publ_section_title
;
Structure prediction by ZEFSAII (Michael W. Deem and Ramdas Pophale) SiO2 
 PCOD8059086
Probable space group: P 2/M
;
_chemical_formula_sum "Si O2"
_cell_formula_units_Z 28
_cell_length_a 14.604729
_cell_length_b 8.689878
_cell_length_c 11.851383
_cell_angle_alpha 90.000000
_cell_angle_beta 69.710318
_cell_angle_gamma 90.000000
_cell_volume 1410.771085
_symmetry_space_group_name_H-M "P 2/M"
_symmetry_group_IT_number 10
_symmetry_cell_setting 'monoclinic'
loop_
_space_group_symop_operation_xyz
x,y,z
-x,y,-z
-x,-y,-z
x,-y,z
loop_
_atom_site_type_symbol
_atom_site_label
_atom_site_fract_x
_atom_site_fract_y
_atom_site_fract_z
Si Si1 0.384719 0.823304 0.044386
Si Si2 0.477875 0.817573 0.385899
Si Si3 0.084805 0.183649 0.382853
Si Si4 0.039884 0.817909 0.154683
Si Si5 0.848800 0.817921 0.112156
Si Si6 0.649866 0.678790 0.171953
Si Si7 0.301475 0.182757 0.316153
O O1 0.339062 0.757234 0.179121
O O2 0.353007 0.000000 0.036930
O O3 0.500000 0.807275 0.000000
O O4 0.341985 0.719804 0.963069
O O5 0.500000 0.746427 0.500000
O O6 0.561124 0.771589 0.263340
O O7 0.373181 0.755255 0.384490
O O8 0.475492 0.000000 0.393926
O O9 0.068358 0.251379 0.264153
O O10 0.190410 0.239453 0.384027
O O11 0.000000 0.249431 0.500000
O O12 0.080569 0.000000 0.381673
O O13 0.929919 0.768718 0.169252
O O14 0.044815 0.000000 0.156190
O O15 0.115663 0.761833 0.026890
O O16 0.750389 0.729854 0.188446
O O17 0.830095 0.000000 0.122476
O O18 0.631541 0.500000 0.198314
O O19 0.306640 0.000000 0.312099
#
# Coordination Sequence:
#
# PCOD8059086 Si02
#       7
#     4   4   4   4   4   4   4
#     4  10  18  33  58  79 103 140 184 230 271 312
#     4  10  21  38  58  78 104 143 190 229 263 315
#     4   9  16  25  42  72 109 136 160 207 272 328
#     4   8  15  29  50  76 101 132 176 228 272 313
#     4   9  17  32  55  77 101 135 179 224 270 320
#     4  12  24  35  51  80 116 146 177 219 276 337
#     4   9  17  31  52  80 108 137 175 222 274 320
#
# _framework density 19.847301000000002
#
# number of rings (size 3 to 8) (size 9 to 14) (size 15 to 20)
#    0.000    2.429    1.429    3.000    0.000    4.000 
#    0.000    5.714    0.000    0.000    0.000    0.000 
#    0.000    5.714    0.000    0.000    0.000    0.000 
#
# Total GULP energy -347134.589535 kJ/mol
# GULP energy per Si atom -12397.663912 kJ/mol
# Density = 1.980213 g / cm^3
# Si number density = 19.847301 Si / 1000 Ang^3
#
#
#
# Elastic Constant Matrix: (Units=GPa)
#
#
# Indices 1 2 3 4 5 6 
#
# 1 170.4975 6.6410 75.1763 0.0000 0.2857 0.0000
# 2 6.6410 6.4056 4.2178 0.0000 3.3881 0.0000
# 3 75.1763 4.2178 108.4838 0.0000 6.5211 0.0000
# 4 0.0000 0.0000 0.0000 3.7937 0.0000 0.8767
# 5 0.2857 3.3881 6.5211 0.0000 36.6860 0.0000
# 6 0.0000 0.0000 0.0000 0.8767 0.0000 4.5118
#
#
#
# Elastic Compliance Matrix: (Units=1/GPa)
#
#
# Indices 1 2 3 4 5 6 
#
# 1 0.008687 -0.005941 -0.005881 0.000000 0.001526 0.000000
# 2 -0.005941 0.171543 -0.001620 0.000000 -0.015509 0.000000
# 3 -0.005881 -0.001620 0.013488 0.000000 -0.002202 0.000000
# 4 0.000000 0.000000 0.000000 0.275991 0.000000 -0.053631
# 5 0.001526 -0.015509 -0.002202 0.000000 0.029070 0.000000
# 6 0.000000 0.000000 0.000000 -0.053631 0.000000 0.232062
#
#
# Mechanical properties :
#
#
# Convention : Reuss Voigt Hill
#
# Bulk Modulus (GPa) = 5.99397 50.82856 28.41126
# Shear Modulus (GPa) = 6.14751 22.28842 14.21796
#
# Velocity S-wave (km/s) = 1.76185 3.35475 2.67941
# Velocity P-wave (km/s) = 2.67683 6.37740 4.89063
#
# Compressibility (1/GPa) = 0.16683442
#
# Stress axis : x y z
#
# Youngs Moduli (GPa) = 115.11562 5.82944 74.13786
#
# Poissons Ratio (x) = 0.03463 0.43597
# Poissons Ratio (y) = 0.68394 0.12011
# Poissons Ratio (z) = 0.67694 0.00944
#
# Static dielectric constant tensor:
#      x y z
#    x 4.001360 0.000000 0.172750 
#    y 0.000000 2.937010 0.000000 
#    z 0.172750 0.000000 3.770680 
# 
# 
# High freq. dielectric constant tensor:
#      x y z
#    x 1.795930 0.000000 0.001400 
#    y 0.000000 1.704960 0.000000 
#    z 0.001400 0.000000 1.767900 
# 
# From -- ./inp_files/49141.got.cif
#   From: 2010.06.25/outbox.cif.g09.slc.cpg/sg10_25_cif.got.tgz:49141.got - 2010.06.27 22:07:45.
