data_PCOD8059660
_publ_section_title
;
Structure prediction by ZEFSAII (Michael W. Deem and Ramdas Pophale) SiO2 
 PCOD8059660
Probable space group: P 2/M
;
_chemical_formula_sum "Si O2"
_cell_formula_units_Z 28
_cell_length_a 21.582382
_cell_length_b 9.294364
_cell_length_c 22.883893
_cell_angle_alpha 90.000000
_cell_angle_beta 160.583042
_cell_angle_gamma 90.000000
_cell_volume 1526.028370
_symmetry_space_group_name_H-M "P 2/M"
_symmetry_group_IT_number 10
_symmetry_cell_setting 'monoclinic'
loop_
_space_group_symop_operation_xyz
x,y,z
-x,y,-z
-x,-y,-z
x,-y,z
loop_
_atom_site_type_symbol
_atom_site_label
_atom_site_fract_x
_atom_site_fract_y
_atom_site_fract_z
Si Si1 0.873617 0.670980 0.304650
Si Si2 0.417562 0.166638 0.298238
Si Si3 0.708402 0.338483 0.708404
Si Si4 0.178897 0.166640 0.298219
Si Si5 0.215574 0.833699 0.000004
Si Si6 0.343145 0.328508 0.000000
Si Si7 0.735681 0.329020 0.304646
O O1 0.866383 0.500000 0.297974
O O2 0.789359 0.730630 0.169570
O O3 0.754148 0.726673 0.254147
O O4 0.086824 0.724844 0.500002
O O5 0.286709 0.256928 0.225500
O O6 0.636183 0.206509 0.500010
O O7 0.353187 0.204239 0.175768
O O8 0.382757 0.000000 0.281807
O O9 0.500000 0.338720 0.500000
O O10 0.784950 0.500000 0.784951
O O11 0.835711 0.256924 0.774508
O O12 0.180826 0.000000 0.281779
O O13 0.998331 0.204255 0.175744
O O14 0.235291 0.000000 0.999990
O O15 0.275237 0.735008 0.000006
O O16 0.338197 0.500000 0.000002
O O17 0.549777 0.269368 0.169564
O O18 0.729560 0.500000 0.297968
#
# Coordination Sequence:
#
# PCOD8059660 Si02
#       7
#     4   4   4   4   4   4   4
#     4   8  14  26  46  72  98 122 152 192 235 278
#     4   9  18  34  53  69  90 124 162 195 229 277
#     4   9  17  30  51  78 101 119 146 193 249 288
#     4   9  18  34  53  69  90 124 162 195 229 277
#     4  10  22  36  48  67  95 129 166 195 226 275
#     4  10  19  30  47  71  96 123 157 195 234 276
#     4   8  14  26  46  72  98 122 152 192 235 278
#
# _framework density 18.348282999999999
#
# number of rings (size 3 to 8) (size 9 to 14) (size 15 to 20)
#    0.000    3.000    0.000    1.714    0.000    6.286 
#    0.000    2.857    0.000    1.714    0.000    2.000 
#    0.000    0.000    0.000    0.000    0.000    0.000 
#
# Total GULP energy -347117.949404 kJ/mol
# GULP energy per Si atom -12397.069622 kJ/mol
# Density = 1.830652 g / cm^3
# Si number density = 18.348283 Si / 1000 Ang^3
#
#
#
# Elastic Constant Matrix: (Units=GPa)
#
#
# Indices 1 2 3 4 5 6 
#
# 1 157.4676 55.8332 84.6856 0.0000 3.2179 0.0000
# 2 55.8332 52.0417 35.4184 0.0000 2.0542 0.0000
# 3 84.6856 35.4184 119.9277 0.0000 0.5681 0.0000
# 4 0.0000 0.0000 0.0000 11.8998 0.0000 -0.8106
# 5 3.2179 2.0542 0.5681 0.0000 20.6795 0.0000
# 6 0.0000 0.0000 0.0000 -0.8106 0.0000 3.8253
#
#
#
# Elastic Compliance Matrix: (Units=1/GPa)
#
#
# Indices 1 2 3 4 5 6 
#
# 1 0.013383 -0.009878 -0.006528 0.000000 -0.000922 0.000000
# 2 -0.009878 0.031441 -0.002303 0.000000 -0.001523 0.000000
# 3 -0.006528 -0.002303 0.013624 0.000000 0.000870 0.000000
# 4 0.000000 0.000000 0.000000 0.085266 0.000000 0.018067
# 5 -0.000922 -0.001523 0.000870 0.000000 0.048628 0.000000
# 6 0.000000 0.000000 0.000000 0.018067 0.000000 0.265243
#
#
# Mechanical properties :
#
#
# Convention : Reuss Voigt Hill
#
# Bulk Modulus (GPa) = 47.55368 75.70125 61.62746
# Shear Modulus (GPa) = 9.95989 17.51424 13.73707
#
# Velocity S-wave (km/s) = 2.33239 3.09292 2.73918
# Velocity P-wave (km/s) = 5.76428 7.35543 6.60792
#
# Compressibility (1/GPa) = 0.02102887
#
# Stress axis : x y z
#
# Youngs Moduli (GPa) = 74.72221 31.80587 73.39852
#
# Poissons Ratio (x) = 0.31419 0.47918
# Poissons Ratio (y) = 0.73814 0.16901
# Poissons Ratio (z) = 0.48782 0.07324
#
# Static dielectric constant tensor:
#      x y z
#    x 3.340050 0.000000 -0.034180 
#    y 0.000000 3.087450 0.000000 
#    z -0.034180 0.000000 3.680350 
# 
# 
# High freq. dielectric constant tensor:
#      x y z
#    x 1.707580 0.000000 -0.001330 
#    y 0.000000 1.672660 0.000000 
#    z -0.001330 0.000000 1.720830 
# 
# From -- ./inp_files/90407.got.cif
#   From: 2010.06.25/outbox.cif.g09.slc.cpg/sg10_46_cif.got.tgz:90407.got - 2010.06.27 22:07:45.
