data_PCOD8059206
_publ_section_title
;
Structure prediction by ZEFSAII (Michael W. Deem and Ramdas Pophale) SiO2 
 PCOD8059206
Probable space group: P 2/M
;
_chemical_formula_sum "Si O2"
_cell_formula_units_Z 32
_cell_length_a 11.907146
_cell_length_b 9.200265
_cell_length_c 15.307442
_cell_angle_alpha 90.000000
_cell_angle_beta 88.210633
_cell_angle_gamma 90.000000
_cell_volume 1676.095702
_symmetry_space_group_name_H-M "P 2/M"
_symmetry_group_IT_number 10
_symmetry_cell_setting 'monoclinic'
loop_
_space_group_symop_operation_xyz
x,y,z
-x,y,-z
-x,-y,-z
x,-y,z
loop_
_atom_site_type_symbol
_atom_site_label
_atom_site_fract_x
_atom_site_fract_y
_atom_site_fract_z
Si Si1 0.627929 0.328542 0.514813
Si Si2 0.999517 0.330090 0.098753
Si Si3 0.786648 0.167523 0.850928
Si Si4 0.983076 0.664942 0.603188
Si Si5 0.776065 0.328365 0.352101
Si Si6 0.750649 0.669445 0.159519
Si Si7 0.626974 0.827852 0.010294
Si Si8 0.760448 0.168306 0.654919
O O1 0.500000 0.288134 0.500000
O O2 0.645671 0.500000 0.526275
O O3 0.700035 0.265014 0.432011
O O4 0.665628 0.251576 0.602750
O O5 0.025099 0.500000 0.101412
O O6 0.096326 0.252643 0.151176
O O7 0.880500 0.290072 0.143005
O O8 0.000000 0.271563 0.000000
O O9 0.730069 0.189259 0.757677
O O10 0.813951 0.000000 0.868356
O O11 0.701533 0.227745 0.926813
O O12 0.957467 0.500000 0.635631
O O13 0.882818 0.768720 0.632822
O O14 0.000000 0.666436 0.500000
O O15 0.096124 0.728993 0.644702
O O16 0.781540 0.500000 0.363247
O O17 0.721324 0.287694 0.260128
O O18 0.730114 0.500000 0.140880
O O19 0.671403 0.761027 0.098893
O O20 0.631916 0.000000 0.018726
O O21 0.500000 0.773412 0.000000
O O22 0.760268 0.000000 0.628367
#
# Coordination Sequence:
#
# PCOD8059206 Si02
#       8
#     4   4   4   4   4   4   4   4
#     4  10  21  39  60  80 106 145 192 232 271 328
#     4  10  19  33  56  85 112 139 175 224 275 326
#     4  10  22  38  56  80 112 150 184 221 273 331
#     4  10  18  34  61  84 109 148 185 219 269 331
#     4   9  18  34  56  83 111 140 176 222 275 325
#     4  10  20  35  56  82 112 140 173 223 277 325
#     4  10  22  40  58  76 104 145 190 229 267 320
#     4  11  23  37  55  83 117 146 180 229 280 329
#
# _framework density 19.091988000000001
#
# number of rings (size 3 to 8) (size 9 to 14) (size 15 to 20)
#    0.000    2.000    2.500    1.125    0.000    4.500 
#    0.000    1.250    0.000    0.000    0.000    0.000 
#    0.000    0.000    0.000    0.000    0.000    0.000 
#
# Total GULP energy -396860.605020 kJ/mol
# GULP energy per Si atom -12401.893907 kJ/mol
# Density = 1.904853 g / cm^3
# Si number density = 19.091988 Si / 1000 Ang^3
#
#
#
# Elastic Constant Matrix: (Units=GPa)
#
#
# Indices 1 2 3 4 5 6 
#
# 1 122.6824 43.2798 50.2894 0.0000 24.4797 0.0000
# 2 43.2798 42.8078 29.3180 0.0000 12.2709 0.0000
# 3 50.2894 29.3180 107.0473 0.0000 24.1338 0.0000
# 4 0.0000 0.0000 0.0000 43.3051 0.0000 2.5994
# 5 24.4797 12.2709 24.1338 0.0000 22.6925 0.0000
# 6 0.0000 0.0000 0.0000 2.5994 0.0000 23.1433
#
#
#
# Elastic Compliance Matrix: (Units=1/GPa)
#
#
# Indices 1 2 3 4 5 6 
#
# 1 0.014334 -0.010970 -0.002079 0.000000 -0.007320 0.000000
# 2 -0.010970 0.038771 -0.004481 0.000000 -0.004366 0.000000
# 3 -0.002079 -0.004481 0.013803 0.000000 -0.010014 0.000000
# 4 0.000000 0.000000 0.000000 0.023249 0.000000 -0.002611
# 5 -0.007320 -0.004366 -0.010014 0.000000 0.064974 0.000000
# 6 0.000000 0.000000 0.000000 -0.002611 0.000000 0.043502
#
#
# Mechanical properties :
#
#
# Convention : Reuss Voigt Hill
#
# Bulk Modulus (GPa) = 31.39828 57.59021 44.49425
# Shear Modulus (GPa) = 20.46581 27.80487 24.13534
#
# Velocity S-wave (km/s) = 3.27763 3.82037 3.55936
# Velocity P-wave (km/s) = 5.55025 7.04914 6.34412
#
# Compressibility (1/GPa) = 0.03184887
#
# Stress axis : x y z
#
# Youngs Moduli (GPa) = 69.76485 25.79226 72.44619
#
# Poissons Ratio (x) = 0.28293 0.15064
# Poissons Ratio (y) = 0.76530 0.32462
# Poissons Ratio (z) = 0.14506 0.11557
#
# Static dielectric constant tensor:
#      x y z
#    x 3.436710 0.000000 -0.000510 
#    y 0.000000 3.270340 0.000000 
#    z -0.000510 0.000000 3.698270 
# 
# 
# High freq. dielectric constant tensor:
#      x y z
#    x 1.739640 0.000000 0.003110 
#    y 0.000000 1.717440 0.000000 
#    z 0.003110 0.000000 1.758820 
# 
# From -- ./inp_files/58334.got.cif
#   From: 2010.06.25/outbox.cif.g09.slc.cpg/sg10_30_cif.got.tgz:58334.got - 2010.06.27 22:07:45.
