data_PCOD8059791
_publ_section_title
;
Structure prediction by ZEFSAII (Michael W. Deem and Ramdas Pophale) SiO2 
 PCOD8059791
Probable space group: P 2/M
;
_chemical_formula_sum "Si O2"
_cell_formula_units_Z 28
_cell_length_a 11.689659
_cell_length_b 9.403279
_cell_length_c 14.975927
_cell_angle_alpha 90.000000
_cell_angle_beta 61.859808
_cell_angle_gamma 90.000000
_cell_volume 1451.587176
_symmetry_space_group_name_H-M "P 2/M"
_symmetry_group_IT_number 10
_symmetry_cell_setting 'monoclinic'
loop_
_space_group_symop_operation_xyz
x,y,z
-x,y,-z
-x,-y,-z
x,-y,z
loop_
_atom_site_type_symbol
_atom_site_label
_atom_site_fract_x
_atom_site_fract_y
_atom_site_fract_z
Si Si1 0.579826 0.331538 0.881922
Si Si2 0.469004 0.159194 0.274067
Si Si3 0.125250 0.844631 0.014820
Si Si4 0.852284 0.333121 0.323876
Si Si5 0.865689 0.335160 0.817638
Si Si6 0.752920 0.159107 0.204087
Si Si7 0.629858 0.167227 0.503732
O O1 0.568069 0.500000 0.877458
O O2 0.524748 0.265280 0.811419
O O3 0.729846 0.277511 0.828248
O O4 0.500000 0.280523 0.000000
O O5 0.601730 0.163629 0.282558
O O6 0.369585 0.200406 0.389892
O O7 0.442213 0.000000 0.247405
O O8 0.112652 0.727834 0.093574
O O9 0.147470 0.000000 0.050833
O O10 0.241337 0.806874 0.903958
O O11 0.000000 0.845111 0.000000
O O12 0.820091 0.500000 0.339690
O O13 0.830718 0.275599 0.231671
O O14 0.758359 0.248943 0.424357
O O15 0.005860 0.305241 0.290427
O O16 0.848611 0.500000 0.840608
O O17 0.809916 0.000000 0.202668
O O18 0.500000 0.221580 0.500000
O O19 0.648508 0.000000 0.477857
#
# Coordination Sequence:
#
# PCOD8059791 Si02
#       7
#     4   4   4   4   4   4   4
#     4  10  22  41  62  83 113 154 196 237 283 335
#     4  10  21  37  60  86 111 146 191 236 288 339
#     4  10  19  30  51  81 110 144 187 230 279 342
#     4  11  22  34  53  83 115 148 188 230 279 342
#     4  10  22  38  54  78 116 155 189 234 291 340
#     4  10  19  34  53  79 116 149 181 229 289 343
#     4  10  20  38  61  84 116 153 185 233 294 342
#
# _framework density 19.289231000000001
#
# number of rings (size 3 to 8) (size 9 to 14) (size 15 to 20)
#    0.000    1.857    2.857    1.286    0.000    3.714 
#    0.000    0.714    0.000    4.286    0.000    0.000 
#    0.000    0.000    0.000    0.000    0.000    0.000 
#
# Total GULP energy -346960.456519 kJ/mol
# GULP energy per Si atom -12391.444876 kJ/mol
# Density = 1.924533 g / cm^3
# Si number density = 19.289231 Si / 1000 Ang^3
#
#
#
# Elastic Constant Matrix: (Units=GPa)
#
#
# Indices 1 2 3 4 5 6 
#
# 1 75.9139 35.0883 41.1670 0.0000 -15.2357 0.0000
# 2 35.0883 53.1929 41.8312 0.0000 -7.0051 0.0000
# 3 41.1670 41.8312 105.4282 0.0000 -11.8664 0.0000
# 4 0.0000 0.0000 0.0000 44.6172 0.0000 4.6197
# 5 -15.2357 -7.0051 -11.8664 0.0000 31.2665 0.0000
# 6 0.0000 0.0000 0.0000 4.6197 0.0000 22.6865
#
#
#
# Elastic Compliance Matrix: (Units=1/GPa)
#
#
# Indices 1 2 3 4 5 6 
#
# 1 0.021166 -0.010427 -0.003374 0.000000 0.006697 0.000000
# 2 -0.010427 0.032594 -0.008995 0.000000 -0.001192 0.000000
# 3 -0.003374 -0.008995 0.014583 0.000000 0.001875 0.000000
# 4 0.000000 0.000000 0.000000 0.022896 0.000000 -0.004662
# 5 0.006697 -0.001192 0.001875 0.000000 0.035691 0.000000
# 6 0.000000 0.000000 0.000000 -0.004662 0.000000 0.045029
#
#
# Mechanical properties :
#
#
# Convention : Reuss Voigt Hill
#
# Bulk Modulus (GPa) = 43.95408 52.30089 48.12749
# Shear Modulus (GPa) = 22.20897 27.47727 24.84312
#
# Velocity S-wave (km/s) = 3.39686 3.77833 3.59266
# Velocity P-wave (km/s) = 6.18233 6.79759 6.49725
#
# Compressibility (1/GPa) = 0.02275102
#
# Stress axis : x y z
#
# Youngs Moduli (GPa) = 47.24582 30.68004 68.57412
#
# Poissons Ratio (x) = 0.31989 0.23136
# Poissons Ratio (y) = 0.49262 0.61686
# Poissons Ratio (z) = 0.15940 0.27598
#
# Static dielectric constant tensor:
#      x y z
#    x 3.555560 0.000000 -0.398240 
#    y 0.000000 3.409220 0.000000 
#    z -0.398240 0.000000 4.048810 
# 
# 
# High freq. dielectric constant tensor:
#      x y z
#    x 1.733330 0.000000 -0.024570 
#    y 0.000000 1.741460 0.000000 
#    z -0.024570 0.000000 1.760000 
# 
# From -- ./inp_files/55425.got.cif
#   From: 2010.06.25/outbox.cif.g09.slc.cpg/sg10_28_cif.got.tgz:55425.got - 2010.06.27 22:07:45.
