data_PCOD8059330
_publ_section_title
;
Structure prediction by ZEFSAII (Michael W. Deem and Ramdas Pophale) SiO2 
 PCOD8059330
Probable space group: P 2/M
;
_chemical_formula_sum "Si O2"
_cell_formula_units_Z 28
_cell_length_a 11.992447
_cell_length_b 7.790163
_cell_length_c 15.248194
_cell_angle_alpha 90.000000
_cell_angle_beta 73.270666
_cell_angle_gamma 90.000000
_cell_volume 1364.240770
_symmetry_space_group_name_H-M "P 2/M"
_symmetry_group_IT_number 10
_symmetry_cell_setting 'monoclinic'
loop_
_space_group_symop_operation_xyz
x,y,z
-x,y,-z
-x,-y,-z
x,-y,z
loop_
_atom_site_type_symbol
_atom_site_label
_atom_site_fract_x
_atom_site_fract_y
_atom_site_fract_z
Si Si1 0.607002 0.000000 0.597797
Si Si2 0.678007 0.301666 0.703758
Si Si3 0.826300 0.796092 0.823539
Si Si4 0.339865 0.000000 0.617389
Si Si5 0.036370 0.796181 0.894116
Si Si6 0.250783 0.309935 0.735098
Si Si7 0.435120 0.689956 0.830289
Si Si8 0.624101 0.807939 0.985695
O O1 0.667020 0.829709 0.625295
O O2 0.465648 0.000000 0.638968
O O3 0.641090 0.000000 0.489409
O O4 0.670599 0.500000 0.672268
O O5 0.797828 0.275166 0.732248
O O6 0.570503 0.254353 0.792699
O O7 0.947793 0.732645 0.837437
O O8 0.825641 0.000000 0.820284
O O9 0.730121 0.717597 0.912071
O O10 0.257628 0.836135 0.659322
O O11 0.159812 0.723888 0.834494
O O12 0.040549 0.000000 0.897513
O O13 0.000000 0.727345 0.000000
O O14 0.228134 0.500000 0.699392
O O15 0.379427 0.302859 0.747104
O O16 0.426596 0.500000 0.871571
O O17 0.360079 0.810549 0.912460
O O18 0.617063 0.000000 0.949977
O O19 0.500000 0.711453 0.000000
#
# Coordination Sequence:
#
# PCOD8059330 Si02
#       8
#     2   4   4   2   4   4   4   4
#     4  11  24  42  67  95 127 157 195 251 326 393
#     4  11  22  37  60  89 124 160 198 249 307 372
#     4  10  20  35  55  86 122 164 214 255 302 361
#     4  11  24  42  68  96 123 162 196 251 325 382
#     4  10  21  38  62  92 128 173 219 260 300 351
#     4  11  23  40  63  91 124 162 209 255 303 370
#     4  10  21  33  50  81 116 155 199 244 293 353
#     4  10  19  28  48  77 112 158 199 240 288 346
#
# _framework density 20.524236999999999
#
# number of rings (size 3 to 8) (size 9 to 14) (size 15 to 20)
#    0.000    1.571    4.286    0.857    2.000    3.429 
#    0.000    1.429    0.000    1.714    0.000    2.000 
#    0.000    0.000    0.000    0.000    0.000    0.000 
#
# Total GULP energy -346903.188502 kJ/mol
# GULP energy per Si atom -12389.399589 kJ/mol
# Density = 2.047752 g / cm^3
# Si number density = 20.524237 Si / 1000 Ang^3
#
#
#
# Elastic Constant Matrix: (Units=GPa)
#
#
# Indices 1 2 3 4 5 6 
#
# 1 86.4831 29.0261 23.4786 0.0000 11.9065 0.0000
# 2 29.0261 103.2755 45.9451 0.0000 4.9609 0.0000
# 3 23.4786 45.9451 83.1323 0.0000 3.0333 0.0000
# 4 0.0000 0.0000 0.0000 13.0772 0.0000 -0.9662
# 5 11.9065 4.9609 3.0333 0.0000 29.7430 0.0000
# 6 0.0000 0.0000 0.0000 -0.9662 0.0000 18.2645
#
#
#
# Elastic Compliance Matrix: (Units=1/GPa)
#
#
# Indices 1 2 3 4 5 6 
#
# 1 0.013718 -0.002624 -0.002248 0.000000 -0.004825 0.000000
# 2 -0.002624 0.013402 -0.006647 0.000000 -0.000507 0.000000
# 3 -0.002248 -0.006647 0.016325 0.000000 0.000344 0.000000
# 4 0.000000 0.000000 0.000000 0.076769 0.000000 0.004061
# 5 -0.004825 -0.000507 0.000344 0.000000 0.035602 0.000000
# 6 0.000000 0.000000 0.000000 0.004061 0.000000 0.054966
#
#
# Mechanical properties :
#
#
# Convention : Reuss Voigt Hill
#
# Bulk Modulus (GPa) = 49.00352 52.19897 50.60124
# Shear Modulus (GPa) = 20.77938 23.84635 22.31286
#
# Velocity S-wave (km/s) = 3.18532 3.41231 3.30077
# Velocity P-wave (km/s) = 6.12014 6.40415 6.26376
#
# Compressibility (1/GPa) = 0.02040670
#
# Stress axis : x y z
#
# Youngs Moduli (GPa) = 72.89637 74.61644 61.25452
#
# Poissons Ratio (x) = 0.19576 0.13772
# Poissons Ratio (y) = 0.19125 0.40718
# Poissons Ratio (z) = 0.16389 0.49601
#
# Static dielectric constant tensor:
#      x y z
#    x 3.835020 0.000000 0.054010 
#    y 0.000000 3.707250 0.000000 
#    z 0.054010 0.000000 3.366690 
# 
# 
# High freq. dielectric constant tensor:
#      x y z
#    x 1.796160 0.000000 0.008520 
#    y 0.000000 1.801000 0.000000 
#    z 0.008520 0.000000 1.765260 
# 
# From -- ./inp_files/63428.got.cif
#   From: 2010.06.25/outbox.cif.g09.slc.cpg/sg10_32_cif.got.tgz:63428.got - 2010.06.27 22:07:45.
