data_PCOD8059941
_publ_section_title
;
Structure prediction by ZEFSAII (Michael W. Deem and Ramdas Pophale) SiO2 
 PCOD8059941
Probable space group: P 2/M
;
_chemical_formula_sum "Si O2"
_cell_formula_units_Z 32
_cell_length_a 9.382937
_cell_length_b 9.314767
_cell_length_c 21.003298
_cell_angle_alpha 90.000000
_cell_angle_beta 86.505264
_cell_angle_gamma 90.000000
_cell_volume 1832.271920
_symmetry_space_group_name_H-M "P 2/M"
_symmetry_group_IT_number 10
_symmetry_cell_setting 'monoclinic'
loop_
_space_group_symop_operation_xyz
x,y,z
-x,y,-z
-x,-y,-z
x,-y,z
loop_
_atom_site_type_symbol
_atom_site_label
_atom_site_fract_x
_atom_site_fract_y
_atom_site_fract_z
Si Si1 0.720833 0.334051 0.957581
Si Si2 0.536878 0.168900 0.868411
Si Si3 0.962872 0.334472 0.852364
Si Si4 0.913741 0.336939 0.437252
Si Si5 0.734444 0.332272 0.103869
Si Si6 0.780640 0.834490 0.765807
Si Si7 0.334716 0.831663 0.497855
Si Si8 0.837264 0.166065 0.622510
O O1 0.675424 0.500000 0.951926
O O2 0.594358 0.238159 0.932247
O O3 0.865888 0.299924 0.916172
O O4 0.746189 0.290937 0.029524
O O5 0.384746 0.238586 0.857646
O O6 0.636201 0.210760 0.805917
O O7 0.522888 0.000000 0.878341
O O8 0.954713 0.500000 0.834596
O O9 0.914459 0.249571 0.791224
O O10 0.121012 0.286340 0.865622
O O11 0.884499 0.500000 0.415482
O O12 0.762031 0.255561 0.448837
O O13 0.000000 0.333733 0.500000
O O14 0.015708 0.256133 0.384320
O O15 0.701320 0.500000 0.113215
O O16 0.762519 0.799077 0.691810
O O17 0.813784 0.000000 0.776419
O O18 0.500000 0.783361 0.500000
O O19 0.278491 0.794031 0.428500
O O20 0.318726 0.000000 0.513429
O O21 0.881071 0.000000 0.615105
#
# Coordination Sequence:
#
# PCOD8059941 Si02
#       8
#     4   4   4   4   4   4   4   4
#     4   9  17  31  50  69  90 120 157 195 238 289
#     4  10  20  32  46  67  96 126 157 195 238 284
#     4   9  18  32  50  70  92 119 154 198 241 282
#     4   9  17  29  47  73 102 128 155 190 233 276
#     4  10  19  31  48  70  94 120 153 194 242 292
#     4   9  19  35  51  67  90 124 163 197 232 278
#     4   9  17  30  50  76 103 129 159 195 233 274
#     4   9  17  32  53  71  91 125 165 198 229 274
#
# _framework density 17.464656999999999
#
# number of rings (size 3 to 8) (size 9 to 14) (size 15 to 20)
#    0.000    2.750    0.000    1.500    0.000    6.750 
#    0.000    1.250    0.000    6.750    0.000    0.000 
#    0.000    0.000    0.000    0.000    0.000    0.000 
#
# Total GULP energy -396806.751566 kJ/mol
# GULP energy per Si atom -12400.210986 kJ/mol
# Density = 1.742491 g / cm^3
# Si number density = 17.464657 Si / 1000 Ang^3
#
#
#
# Elastic Constant Matrix: (Units=GPa)
#
#
# Indices 1 2 3 4 5 6 
#
# 1 136.8364 57.7532 45.3286 0.0000 1.9972 0.0000
# 2 57.7532 65.5572 35.3450 0.0000 -3.7751 0.0000
# 3 45.3286 35.3450 84.1493 0.0000 -2.1513 0.0000
# 4 0.0000 0.0000 0.0000 22.1212 0.0000 -1.9850
# 5 1.9972 -3.7751 -2.1513 0.0000 14.4338 0.0000
# 6 0.0000 0.0000 0.0000 -1.9850 0.0000 23.4588
#
#
#
# Elastic Compliance Matrix: (Units=1/GPa)
#
#
# Indices 1 2 3 4 5 6 
#
# 1 0.012368 -0.009706 -0.002705 0.000000 -0.004653 0.000000
# 2 -0.009706 0.027561 -0.006153 0.000000 0.007634 0.000000
# 3 -0.002705 -0.006153 0.015954 0.000000 0.001143 0.000000
# 4 0.000000 0.000000 0.000000 0.045551 0.000000 0.003854
# 5 -0.004653 0.007634 0.001143 0.000000 0.072093 0.000000
# 6 0.000000 0.000000 0.000000 0.003854 0.000000 0.042954
#
#
# Mechanical properties :
#
#
# Convention : Reuss Voigt Hill
#
# Bulk Modulus (GPa) = 53.31416 62.59961 57.95688
# Shear Modulus (GPa) = 19.24105 21.87717 20.55911
#
# Velocity S-wave (km/s) = 3.32281 3.54312 3.43473
# Velocity P-wave (km/s) = 6.73161 7.25670 6.99908
#
# Compressibility (1/GPa) = 0.01875674
#
# Stress axis : x y z
#
# Youngs Moduli (GPa) = 80.85232 36.28291 62.67913
#
# Poissons Ratio (x) = 0.35215 0.16953
# Poissons Ratio (y) = 0.78472 0.38567
# Poissons Ratio (z) = 0.21868 0.22325
#
# Static dielectric constant tensor:
#      x y z
#    x 3.371370 0.000000 -0.079310 
#    y 0.000000 3.258970 0.000000 
#    z -0.079310 0.000000 3.135480 
# 
# 
# High freq. dielectric constant tensor:
#      x y z
#    x 1.674440 0.000000 -0.009790 
#    y 0.000000 1.673020 0.000000 
#    z -0.009790 0.000000 1.655490 
# 
# From -- ./inp_files/35683.got.cif
#   From: 2010.06.25/outbox.cif.g09.slc.cpg/sg10_18_cif.got.tgz:35683.got - 2010.06.27 22:07:45.
