data_PCOD8059255
_publ_section_title
;
Structure prediction by ZEFSAII (Michael W. Deem and Ramdas Pophale) SiO2 
 PCOD8059255
Probable space group: P 2/M
;
_chemical_formula_sum "Si O2"
_cell_formula_units_Z 30
_cell_length_a 11.363016
_cell_length_b 12.684487
_cell_length_c 18.670450
_cell_angle_alpha 90.000000
_cell_angle_beta 141.822707
_cell_angle_gamma 90.000000
_cell_volume 1663.327924
_symmetry_space_group_name_H-M "P 2/M"
_symmetry_group_IT_number 10
_symmetry_cell_setting 'monoclinic'
loop_
_space_group_symop_operation_xyz
x,y,z
-x,y,-z
-x,-y,-z
x,-y,z
loop_
_atom_site_type_symbol
_atom_site_label
_atom_site_fract_x
_atom_site_fract_y
_atom_site_fract_z
Si Si1 0.811502 0.242757 0.363646
Si Si2 0.425504 0.123132 0.537022
Si Si3 0.474363 0.622942 0.851036
Si Si4 0.854182 0.878257 0.111901
Si Si5 0.828434 0.742582 0.967467
Si Si6 0.010665 0.121402 0.339000
Si Si7 0.500000 0.242484 0.000000
Si Si8 0.467703 0.122080 0.260396
O O1 0.683369 0.345692 0.284391
O O2 0.860847 0.190072 0.311207
O O3 0.679285 0.161280 0.342833
O O4 0.000000 0.271510 0.500000
O O5 0.500000 0.178824 0.500000
O O6 0.566642 0.143196 0.671165
O O7 0.217829 0.166899 0.458003
O O8 0.397762 0.000000 0.508190
O O9 0.460184 0.500000 0.858600
O O10 0.690478 0.648838 0.928370
O O11 0.422736 0.682881 0.899787
O O12 0.995266 0.864597 0.246084
O O13 0.650358 0.837327 0.038926
O O14 0.840660 0.000000 0.081144
O O15 0.924190 0.806437 0.079088
O O16 0.699630 0.823704 0.862310
O O17 0.000000 0.697823 0.000000
O O18 0.979927 0.000000 0.346633
O O19 0.459325 0.000000 0.237613
#
# Coordination Sequence:
#
# PCOD8059255 Si02
#       8
#     4   4   4   4   4   4   2   4
#     4  11  20  34  54  79 110 136 175 221 272 327
#     4   9  18  30  45  68 100 143 187 213 240 289
#     4  10  22  39  59  80 101 132 179 237 290 328
#     4  10  20  32  51  79 113 145 173 206 251 314
#     4  10  23  38  53  77 107 144 188 224 271 318
#     4  10  19  31  50  75 107 147 179 209 250 311
#     4  10  18  36  56  78 106 136 170 216 266 324
#     4  10  20  32  49  75 110 147 178 214 257 312
#
# _framework density 18.036131000000001
#
# number of rings (size 3 to 8) (size 9 to 14) (size 15 to 20)
#    0.000    2.000    2.667    1.200    1.867    2.133 
#    0.000    0.000    0.000    0.000    0.000    0.000 
#    0.000    4.267    0.000    0.000    0.000    0.000 
#
# Total GULP energy -371861.130321 kJ/mol
# GULP energy per Si atom -12395.371011 kJ/mol
# Density = 1.799508 g / cm^3
# Si number density = 18.036131 Si / 1000 Ang^3
#
#
#
# Elastic Constant Matrix: (Units=GPa)
#
#
# Indices 1 2 3 4 5 6 
#
# 1 77.4148 1.7117 8.4778 0.0000 -6.8714 0.0000
# 2 1.7117 46.6732 15.1195 0.0000 -2.7388 0.0000
# 3 8.4778 15.1195 78.7913 0.0000 -4.8552 0.0000
# 4 0.0000 0.0000 0.0000 13.5731 0.0000 -1.0006
# 5 -6.8714 -2.7388 -4.8552 0.0000 24.2709 0.0000
# 6 0.0000 0.0000 0.0000 -1.0006 0.0000 10.2589
#
#
#
# Elastic Compliance Matrix: (Units=1/GPa)
#
#
# Indices 1 2 3 4 5 6 
#
# 1 0.013366 0.000121 -0.001243 0.000000 0.003549 0.000000
# 2 0.000121 0.022918 -0.004302 0.000000 0.001760 0.000000
# 3 -0.001243 -0.004302 0.013769 0.000000 0.001917 0.000000
# 4 0.000000 0.000000 0.000000 0.074209 0.000000 0.007238
# 5 0.003549 0.001760 0.001917 0.000000 0.042788 0.000000
# 6 0.000000 0.000000 0.000000 0.007238 0.000000 0.098182
#
#
# Mechanical properties :
#
#
# Convention : Reuss Voigt Hill
#
# Bulk Modulus (GPa) = 25.50731 28.16638 26.83684
# Shear Modulus (GPa) = 17.29209 21.45860 19.37534
#
# Velocity S-wave (km/s) = 3.09972 3.45303 3.28113
# Velocity P-wave (km/s) = 5.19462 5.61680 5.40983
#
# Compressibility (1/GPa) = 0.03920445
#
# Stress axis : x y z
#
# Youngs Moduli (GPa) = 74.81749 43.63362 72.62595
#
# Poissons Ratio (x) = -0.00526 0.09024
# Poissons Ratio (y) = -0.00902 0.31246
# Poissons Ratio (z) = 0.09297 0.18773
#
# Static dielectric constant tensor:
#      x y z
#    x 3.516040 0.000000 -0.125060 
#    y 0.000000 2.926190 0.000000 
#    z -0.125060 0.000000 3.450320 
# 
# 
# High freq. dielectric constant tensor:
#      x y z
#    x 1.705670 0.000000 -0.009880 
#    y 0.000000 1.649710 0.000000 
#    z -0.009880 0.000000 1.712340 
# 
# From -- ./inp_files/46757.got.cif
#   From: 2010.06.25/outbox.cif.g09.slc.cpg/sg10_24_cif.got.tgz:46757.got - 2010.06.27 22:07:45.
