data_PCOD8059449
_publ_section_title
;
Structure prediction by ZEFSAII (Michael W. Deem and Ramdas Pophale) SiO2 
 PCOD8059449
Probable space group: P 2/M
;
_chemical_formula_sum "Si O2"
_cell_formula_units_Z 26
_cell_length_a 24.511408
_cell_length_b 12.046480
_cell_length_c 14.060189
_cell_angle_alpha 90.000000
_cell_angle_beta 21.020394
_cell_angle_gamma 90.000000
_cell_volume 1489.193850
_symmetry_space_group_name_H-M "P 2/M"
_symmetry_group_IT_number 10
_symmetry_cell_setting 'monoclinic'
loop_
_space_group_symop_operation_xyz
x,y,z
-x,y,-z
-x,-y,-z
x,-y,z
loop_
_atom_site_type_symbol
_atom_site_label
_atom_site_fract_x
_atom_site_fract_y
_atom_site_fract_z
Si Si1 0.738161 0.500000 0.193403
Si Si2 0.695806 0.265551 0.058587
Si Si3 0.195285 0.260192 0.909686
Si Si4 0.000000 0.173359 0.500000
Si Si5 0.396314 0.500000 0.794428
Si Si6 0.425939 0.868542 0.024543
Si Si7 0.566225 0.868756 0.599133
Si Si8 0.916208 0.877773 0.433532
O O1 0.831173 0.389854 0.074505
O O2 0.575852 0.500000 0.505958
O O3 0.702826 0.500000 0.139737
O O4 0.699798 0.262002 0.166804
O O5 0.644233 0.381590 0.093282
O O6 0.583568 0.165310 0.215348
O O7 0.860069 0.252825 0.747287
O O8 0.284964 0.195514 0.680609
O O9 0.032038 0.203201 0.190598
O O10 0.034443 0.101194 0.537332
O O11 0.252620 0.823871 0.296079
O O12 0.414477 0.000000 0.047508
O O13 0.500000 0.819360 0.000000
O O14 0.534508 0.834403 0.760232
O O15 0.592232 0.000000 0.544392
O O16 0.920804 0.000000 0.377597
#
# Coordination Sequence:
#
# PCOD8059449 Si02
#       8
#     2   4   4   2   2   4   4   4
#     4   9  16  30  48  66  99 141 173 202 242 299
#     4  10  19  30  46  72 104 141 172 203 246 302
#     4  10  20  31  49  76 105 133 169 208 252 298
#     4  10  19  29  46  74 112 139 163 198 252 320
#     4   9  16  29  46  64  99 141 177 207 236 290
#     4   9  19  36  55  72  98 138 177 208 243 297
#     4  11  20  31  49  76 103 130 168 206 251 308
#     4  10  19  32  50  75 108 137 163 202 258 308
#
# _framework density 17.459109999999999
#
# number of rings (size 3 to 8) (size 9 to 14) (size 15 to 20)
#    0.000    2.154    3.077    1.154    0.000    4.000 
#    0.000    1.538    0.000    3.692    0.000    5.923 
#    0.000    0.000    0.000    0.000    0.000    0.000 
#
# Total GULP energy -322151.054502 kJ/mol
# GULP energy per Si atom -12390.425173 kJ/mol
# Density = 1.741937 g / cm^3
# Si number density = 17.459110 Si / 1000 Ang^3
#
#
#
# Elastic Constant Matrix: (Units=GPa)
#
#
# Indices 1 2 3 4 5 6 
#
# 1 58.7222 24.2300 42.7022 0.0000 4.9541 0.0000
# 2 24.2300 114.9248 55.0853 0.0000 8.4114 0.0000
# 3 42.7022 55.0853 133.0689 0.0000 8.5724 0.0000
# 4 0.0000 0.0000 0.0000 16.8157 0.0000 -6.0042
# 5 4.9541 8.4114 8.5724 0.0000 21.0115 0.0000
# 6 0.0000 0.0000 0.0000 -6.0042 0.0000 2.1699
#
#
#
# Elastic Compliance Matrix: (Units=1/GPa)
#
#
# Indices 1 2 3 4 5 6 
#
# 1 0.022532 -0.001493 -0.006479 0.000000 -0.002071 0.000000
# 2 -0.001493 0.011092 -0.003953 0.000000 -0.002476 0.000000
# 3 -0.006479 -0.003953 0.011328 0.000000 -0.001512 0.000000
# 4 0.000000 0.000000 0.000000 4.946901 0.000000 13.688119
# 5 -0.002071 -0.002476 -0.001512 0.000000 0.049689 0.000000
# 6 0.000000 0.000000 0.000000 13.688119 0.000000 38.335996
#
#
# Mechanical properties :
#
#
# Convention : Reuss Voigt Hill
#
# Bulk Modulus (GPa) = 47.39102 61.19456 54.29279
# Shear Modulus (GPa) = 0.11519 20.31267 10.21393
#
# Velocity S-wave (km/s) = 0.25713 3.41463 2.42134
# Velocity P-wave (km/s) = 5.22409 7.11847 6.24354
#
# Compressibility (1/GPa) = 0.02110104
#
# Stress axis : x y z
#
# Youngs Moduli (GPa) = 44.38209 90.15404 88.27898
#
# Poissons Ratio (x) = 0.13464 0.57194
# Poissons Ratio (y) = 0.06628 0.34897
# Poissons Ratio (z) = 0.28754 0.35638
#
# Static dielectric constant tensor:
#      x y z
#    x 3.062580 0.000000 0.060820 
#    y 0.000000 3.330230 0.000000 
#    z 0.060820 0.000000 3.292140 
# 
# 
# High freq. dielectric constant tensor:
#      x y z
#    x 1.627020 0.000000 0.004400 
#    y 0.000000 1.668530 0.000000 
#    z 0.004400 0.000000 1.683230 
# 
# From -- ./inp_files/72338.got.cif
#   From: 2010.06.25/outbox.cif.g09.slc.cpg/sg10_37_cif.got.tgz:72338.got - 2010.06.27 22:07:45.
