data_PCOD8059776
_publ_section_title
;
Structure prediction by ZEFSAII (Michael W. Deem and Ramdas Pophale) SiO2 
 PCOD8059776
Probable space group: P 2/M
;
_chemical_formula_sum "Si O2"
_cell_formula_units_Z 24
_cell_length_a 11.270201
_cell_length_b 8.647489
_cell_length_c 19.737448
_cell_angle_alpha 90.000000
_cell_angle_beta 43.489700
_cell_angle_gamma 90.000000
_cell_volume 1323.861633
_symmetry_space_group_name_H-M "P 2/M"
_symmetry_group_IT_number 10
_symmetry_cell_setting 'monoclinic'
loop_
_space_group_symop_operation_xyz
x,y,z
-x,y,-z
-x,-y,-z
x,-y,z
loop_
_atom_site_type_symbol
_atom_site_label
_atom_site_fract_x
_atom_site_fract_y
_atom_site_fract_z
Si Si1 0.197372 0.680047 0.410153
Si Si2 0.626380 0.829433 0.010939
Si Si3 0.274785 0.679319 0.637933
Si Si4 0.386221 0.180291 0.455865
Si Si5 0.689260 0.181157 0.775249
Si Si6 0.885820 0.677828 0.816352
O O1 0.220233 0.500000 0.416928
O O2 0.313837 0.778366 0.412591
O O3 0.258891 0.714516 0.309151
O O4 0.000000 0.732120 0.500000
O O5 0.784785 0.714968 0.928463
O O6 0.702589 0.000000 0.993687
O O7 0.500000 0.836321 0.000000
O O8 0.508747 0.774412 0.123036
O O9 0.322883 0.500000 0.624051
O O10 0.411671 0.776738 0.624754
O O11 0.280591 0.726750 0.556631
O O12 0.086246 0.713898 0.745777
O O13 0.363623 0.000000 0.479246
O O14 0.818116 0.216083 0.783632
O O15 0.704673 0.000000 0.751464
O O16 0.856385 0.500000 0.808576
#
# Coordination Sequence:
#
# PCOD8059776 Si02
#       6
#     4   4   4   4   4   4
#     4  11  23  37  53  74 102 135 167 201 247 300
#     4   8  16  30  47  70 101 133 164 204 251 294
#     4  10  20  35  53  74 103 134 166 207 250 293
#     4  11  22  35  53  76 100 131 170 207 248 295
#     4  10  20  33  50  74 104 136 168 205 250 296
#     4  10  19  30  50  78 103 132 169 206 248 296
#
# _framework density 18.128782000000001
#
# number of rings (size 3 to 8) (size 9 to 14) (size 15 to 20)
#    0.000    2.000    0.000    6.500    0.000   11.667 
#    0.000    0.000    0.000    1.000    0.000    7.000 
#    0.000    0.000    0.000    0.000    0.000    0.000 
#
# Total GULP energy -297603.123666 kJ/mol
# GULP energy per Si atom -12400.130153 kJ/mol
# Density = 1.808752 g / cm^3
# Si number density = 18.128782 Si / 1000 Ang^3
#
#
#
# Elastic Constant Matrix: (Units=GPa)
#
#
# Indices 1 2 3 4 5 6 
#
# 1 62.5280 21.0734 40.1479 0.0000 -4.5157 0.0000
# 2 21.0734 59.9101 31.2445 0.0000 -11.0956 0.0000
# 3 40.1479 31.2445 132.9601 0.0000 -14.5167 0.0000
# 4 0.0000 0.0000 0.0000 29.9171 0.0000 3.7864
# 5 -4.5157 -11.0956 -14.5167 0.0000 23.7668 0.0000
# 6 0.0000 0.0000 0.0000 3.7864 0.0000 18.4007
#
#
#
# Elastic Compliance Matrix: (Units=1/GPa)
#
#
# Indices 1 2 3 4 5 6 
#
# 1 0.020959 -0.004869 -0.005355 0.000000 -0.001562 0.000000
# 2 -0.004869 0.021169 -0.002707 0.000000 0.007304 0.000000
# 3 -0.005355 -0.002707 0.010206 0.000000 0.003952 0.000000
# 4 0.000000 0.000000 0.000000 0.034320 0.000000 -0.007062
# 5 -0.001562 0.007304 0.003952 0.000000 0.047603 0.000000
# 6 0.000000 0.000000 0.000000 -0.007062 0.000000 0.055799
#
#
# Mechanical properties :
#
#
# Convention : Reuss Voigt Hill
#
# Bulk Modulus (GPa) = 37.77551 48.92553 43.35052
# Shear Modulus (GPa) = 22.24783 25.27908 23.76346
#
# Velocity S-wave (km/s) = 3.50696 3.73824 3.62444
# Velocity P-wave (km/s) = 6.10581 6.75862 6.44049
#
# Compressibility (1/GPa) = 0.02647217
#
# Stress axis : x y z
#
# Youngs Moduli (GPa) = 47.71124 47.23941 97.98477
#
# Poissons Ratio (x) = 0.23000 0.52472
# Poissons Ratio (y) = 0.23230 0.26523
# Poissons Ratio (z) = 0.25550 0.12787
#
# Static dielectric constant tensor:
#      x y z
#    x 3.017570 0.000000 -0.116460 
#    y 0.000000 3.397980 0.000000 
#    z -0.116460 0.000000 3.683380 
# 
# 
# High freq. dielectric constant tensor:
#      x y z
#    x 1.665420 0.000000 -0.011850 
#    y 0.000000 1.713770 0.000000 
#    z -0.011850 0.000000 1.710860 
# 
# From -- ./inp_files/83286.got.cif
#   From: 2010.06.25/outbox.cif.g09.slc.cpg/sg10_42_cif.got.tgz:83286.got - 2010.06.27 22:07:45.
