data_PCOD8059520
_publ_section_title
;
Structure prediction by ZEFSAII (Michael W. Deem and Ramdas Pophale) SiO2 
 PCOD8059520
Probable space group: P 2/M
;
_chemical_formula_sum "Si O2"
_cell_formula_units_Z 32
_cell_length_a 23.622157
_cell_length_b 8.582737
_cell_length_c 16.533063
_cell_angle_alpha 90.000000
_cell_angle_beta 149.603849
_cell_angle_gamma 90.000000
_cell_volume 1696.010126
_symmetry_space_group_name_H-M "P 2/M"
_symmetry_group_IT_number 10
_symmetry_cell_setting 'monoclinic'
loop_
_space_group_symop_operation_xyz
x,y,z
-x,y,-z
-x,-y,-z
x,-y,z
loop_
_atom_site_type_symbol
_atom_site_label
_atom_site_fract_x
_atom_site_fract_y
_atom_site_fract_z
Si Si1 0.020815 0.183498 0.116843
Si Si2 0.244914 0.815381 0.479473
Si Si3 0.273792 0.185312 0.997416
Si Si4 0.086165 0.682318 0.864831
Si Si5 0.881378 0.816904 0.519549
Si Si6 0.448796 0.327143 0.019034
Si Si7 0.513953 0.823240 0.253254
Si Si8 0.801307 0.326777 0.260605
O O1 0.146913 0.231176 0.296730
O O2 0.932742 0.273183 0.064918
O O3 0.001358 0.000000 0.103811
O O4 0.000000 0.238476 0.000000
O O5 0.211945 0.755249 0.529793
O O6 0.361969 0.743514 0.587224
O O7 0.259804 0.000000 0.502670
O O8 0.211651 0.265940 0.995862
O O9 0.208259 0.228899 0.833908
O O10 0.273714 0.000000 0.005558
O O11 0.403583 0.250654 0.161327
O O12 0.068969 0.500000 0.830487
O O13 0.002250 0.777102 0.704314
O O14 0.878683 0.746283 0.425962
O O15 0.869407 0.000000 0.495817
O O16 0.492381 0.500000 0.099662
O O17 0.483512 0.190451 0.121931
O O18 0.500000 0.269578 0.000000
O O19 0.317676 0.335017 0.843558
O O20 0.523073 0.000000 0.293067
O O21 0.845808 0.500000 0.293727
#
# Coordination Sequence:
#
# PCOD8059520 Si02
#       8
#     4   4   4   4   4   4   4   4
#     4   9  18  35  60  86 109 131 156 192 242 300
#     4   8  15  29  50  77 104 128 160 204 251 295
#     4  10  20  34  50  69  96 134 178 213 247 292
#     4  11  22  36  54  75 101 131 165 206 251 298
#     4  10  19  32  50  72 100 133 171 214 258 302
#     4   9  17  27  39  59  91 129 167 208 251 294
#     4   9  17  29  47  69  94 127 166 207 245 288
#     4  10  19  30  44  66  97 132 173 216 256 295
#
# _framework density 18.867813000000002
#
# number of rings (size 3 to 8) (size 9 to 14) (size 15 to 20)
#    0.000    2.500    0.000    3.750    0.000    2.000 
#    0.000    5.000    0.000    0.750    0.000    5.250 
#    0.000    0.000    0.000    0.000    0.000    0.000 
#
# Total GULP energy -396419.550506 kJ/mol
# GULP energy per Si atom -12388.110953 kJ/mol
# Density = 1.882487 g / cm^3
# Si number density = 18.867813 Si / 1000 Ang^3
#
#
#
# Elastic Constant Matrix: (Units=GPa)
#
#
# Indices 1 2 3 4 5 6 
#
# 1 111.3789 17.2001 50.6745 0.0000 15.9818 0.0000
# 2 17.2001 40.7780 9.3802 0.0000 -1.8421 0.0000
# 3 50.6745 9.3802 65.4340 0.0000 11.8813 0.0000
# 4 0.0000 0.0000 0.0000 13.8572 0.0000 0.8361
# 5 15.9818 -1.8421 11.8813 0.0000 31.0859 0.0000
# 6 0.0000 0.0000 0.0000 0.8361 0.0000 19.4602
#
#
#
# Elastic Compliance Matrix: (Units=1/GPa)
#
#
# Indices 1 2 3 4 5 6 
#
# 1 0.014799 -0.004086 -0.010154 0.000000 -0.003969 0.000000
# 2 -0.004086 0.026770 -0.001443 0.000000 0.004238 0.000000
# 3 -0.010154 -0.001443 0.024093 0.000000 -0.004074 0.000000
# 4 0.000000 0.000000 0.000000 0.072352 0.000000 -0.003108
# 5 -0.003969 0.004238 -0.004074 0.000000 0.036018 0.000000
# 6 0.000000 0.000000 0.000000 -0.003108 0.000000 0.051521
#
#
# Mechanical properties :
#
#
# Convention : Reuss Voigt Hill
#
# Bulk Modulus (GPa) = 29.15833 41.34448 35.25140
# Shear Modulus (GPa) = 18.63241 22.23642 20.43441
#
# Velocity S-wave (km/s) = 3.14590 3.43671 3.29451
# Velocity P-wave (km/s) = 5.35566 6.14070 5.76157
#
# Compressibility (1/GPa) = 0.03429552
#
# Stress axis : x y z
#
# Youngs Moduli (GPa) = 67.57306 37.35563 41.50594
#
# Poissons Ratio (x) = 0.15262 0.42146
# Poissons Ratio (y) = 0.27608 0.05990
# Poissons Ratio (z) = 0.68616 0.05391
#
# Static dielectric constant tensor:
#      x y z
#    x 3.612510 0.000000 0.354180 
#    y 0.000000 3.325940 0.000000 
#    z 0.354180 0.000000 3.487360 
# 
# 
# High freq. dielectric constant tensor:
#      x y z
#    x 1.723880 0.000000 0.028120 
#    y 0.000000 1.717870 0.000000 
#    z 0.028120 0.000000 1.713070 
# 
# From -- ./inp_files/79971.got.cif
#   From: 2010.06.25/outbox.cif.g09.slc.cpg/sg10_40_cif.got.tgz:79971.got - 2010.06.27 22:07:45.
