data_PCOD8059333
_publ_section_title
;
Structure prediction by ZEFSAII (Michael W. Deem and Ramdas Pophale) SiO2 
 PCOD8059333
Probable space group: P 2/M
;
_chemical_formula_sum "Si O2"
_cell_formula_units_Z 32
_cell_length_a 31.440626
_cell_length_b 15.213846
_cell_length_c 31.440637
_cell_angle_alpha 90.000000
_cell_angle_beta 170.495685
_cell_angle_gamma 90.000000
_cell_volume 2483.282744
_symmetry_space_group_name_H-M "P 2/M"
_symmetry_group_IT_number 10
_symmetry_cell_setting 'monoclinic'
loop_
_space_group_symop_operation_xyz
x,y,z
-x,y,-z
-x,-y,-z
x,-y,z
loop_
_atom_site_type_symbol
_atom_site_label
_atom_site_fract_x
_atom_site_fract_y
_atom_site_fract_z
Si Si1 0.735663 0.092744 0.764336
Si Si2 0.403373 0.395239 0.096808
Si Si3 0.975921 0.395182 0.524151
Si Si4 0.169130 0.395586 0.330843
Si Si5 0.878992 0.604825 0.621186
Si Si6 0.548473 0.604812 0.951453
Si Si7 0.264534 0.716481 0.235469
Si Si8 0.694006 0.604475 0.805973
O O1 0.500000 0.091978 0.500000
O O2 0.723539 0.187060 0.776460
O O3 0.721898 0.000000 0.778100
O O4 0.000000 0.091978 0.000000
O O5 0.403600 0.500000 0.096595
O O6 0.427447 0.358775 0.072644
O O7 0.641357 0.359115 0.359088
O O8 0.141125 0.359115 0.858869
O O9 0.976074 0.500000 0.524008
O O10 0.000000 0.358913 0.500000
O O11 0.713700 0.359177 0.286295
O O12 0.213786 0.359176 0.786379
O O13 0.168287 0.500000 0.331665
O O14 0.432380 0.361003 0.569587
O O15 0.145106 0.357722 0.354829
O O16 0.930400 0.361002 0.067604
O O17 0.878793 0.500000 0.621393
O O18 0.548565 0.500000 0.951371
O O19 0.500000 0.703785 0.500000
O O20 0.282295 0.642013 0.217730
O O21 0.000000 0.703783 0.000000
O O22 0.696065 0.500000 0.803905
#
# Coordination Sequence:
#
# PCOD8059333 Si02
#       8
#     4   4   4   4   4   4   4   4
#     4   8  14  25  40  56  72  88 106 129 156 184
#     4   9  15  21  30  43  55  65  79 107 145 177
#     4   9  15  21  27  33  43  62  84 101 120 155
#     4   9  17  28  39  49  62  82 106 129 151 179
#     4   9  15  23  34  45  55  68  88 112 141 176
#     4   9  15  21  27  36  49  61  76 101 132 163
#     4  10  19  29  41  56  72  90 111 133 157 184
#     4  10  19  29  39  51  68  89 111 133 155 179
#
# _framework density 12.886168
#
# number of rings (size 3 to 8) (size 9 to 14) (size 15 to 20)
#    0.000    2.875    0.000    2.625    0.000    8.000 
#    0.000    0.000    0.000    0.000    0.000    0.000 
#    0.000    0.000    0.000    0.000    0.000    0.000 
#
# Total GULP energy -396530.703790 kJ/mol
# GULP energy per Si atom -12391.584493 kJ/mol
# Density = 1.285684 g / cm^3
# Si number density = 12.886168 Si / 1000 Ang^3
#
#
#
# Elastic Constant Matrix: (Units=GPa)
#
#
# Indices 1 2 3 4 5 6 
#
# 1 113.9396 18.0574 63.4156 0.0000 0.2422 0.0000
# 2 18.0574 17.4708 12.6259 0.0000 -0.4785 0.0000
# 3 63.4156 12.6259 137.6257 0.0000 1.8472 0.0000
# 4 0.0000 0.0000 0.0000 6.0540 0.0000 0.5049
# 5 0.2422 -0.4785 1.8472 0.0000 26.7712 0.0000
# 6 0.0000 0.0000 0.0000 0.5049 0.0000 0.3245
#
#
#
# Elastic Compliance Matrix: (Units=1/GPa)
#
#
# Indices 1 2 3 4 5 6 
#
# 1 0.013239 -0.009931 -0.005190 0.000000 0.000061 0.000000
# 2 -0.009931 0.068811 -0.001756 0.000000 0.001441 0.000000
# 3 -0.005190 -0.001756 0.009828 0.000000 -0.000663 0.000000
# 4 0.000000 0.000000 0.000000 0.189819 0.000000 -0.295393
# 5 0.000061 0.001441 -0.000663 0.000000 0.037424 0.000000
# 6 0.000000 0.000000 0.000000 -0.295393 0.000000 3.541607
#
#
# Mechanical properties :
#
#
# Convention : Reuss Voigt Hill
#
# Bulk Modulus (GPa) = 17.20472 50.80377 34.00425
# Shear Modulus (GPa) = 1.27751 18.29241 9.78496
#
# Velocity S-wave (km/s) = 0.99676 3.77176 2.75860
# Velocity P-wave (km/s) = 3.83471 7.64715 6.04913
#
# Compressibility (1/GPa) = 0.05812358
#
# Stress axis : x y z
#
# Youngs Moduli (GPa) = 75.53450 14.53248 101.75461
#
# Poissons Ratio (x) = 0.14432 0.52811
# Poissons Ratio (y) = 0.75014 0.17869
# Poissons Ratio (z) = 0.39203 0.02552
#
# Static dielectric constant tensor:
#      x y z
#    x 2.642160 0.000000 0.021650 
#    y 0.000000 2.251870 0.000000 
#    z 0.021650 0.000000 2.887920 
# 
# 
# High freq. dielectric constant tensor:
#      x y z
#    x 1.486180 0.000000 0.002910 
#    y 0.000000 1.406130 0.000000 
#    z 0.002910 0.000000 1.519190 
# 
# From -- ./inp_files/91619.got.cif
#   From: 2010.06.25/outbox.cif.g09.slc.cpg/sg10_46_cif.got.tgz:91619.got - 2010.06.27 22:07:45.
