data_PCOD8059968
_publ_section_title
;
Structure prediction by ZEFSAII (Michael W. Deem and Ramdas Pophale) SiO2 
 PCOD8059968
Probable space group: P 2/M
;
_chemical_formula_sum "Si O2"
_cell_formula_units_Z 24
_cell_length_a 22.203638
_cell_length_b 13.041803
_cell_length_c 12.778501
_cell_angle_alpha 90.000000
_cell_angle_beta 21.871905
_cell_angle_gamma 90.000000
_cell_volume 1378.498095
_symmetry_space_group_name_H-M "P 2/M"
_symmetry_group_IT_number 10
_symmetry_cell_setting 'monoclinic'
loop_
_space_group_symop_operation_xyz
x,y,z
-x,y,-z
-x,-y,-z
x,-y,z
loop_
_atom_site_type_symbol
_atom_site_label
_atom_site_fract_x
_atom_site_fract_y
_atom_site_fract_z
Si Si1 0.327110 0.114575 0.307062
Si Si2 0.482126 0.116746 0.649460
Si Si3 0.739058 0.204164 0.377296
Si Si4 0.139602 0.611302 0.694179
Si Si5 0.880613 0.117770 0.785058
Si Si6 0.990877 0.221528 0.224553
O O1 0.288093 0.115275 0.493808
O O2 0.176140 0.161779 0.489053
O O3 0.339557 0.000000 0.244954
O O4 0.500000 0.168997 0.000000
O O5 0.500000 0.143300 0.500000
O O6 0.588759 0.199194 0.540308
O O7 0.541249 0.000000 0.576409
O O8 0.295846 0.131209 0.980549
O O9 0.735311 0.310154 0.451164
O O10 0.906821 0.187135 0.043619
O O11 0.220154 0.500000 0.537116
O O12 0.062272 0.660432 0.712209
O O13 0.000000 0.589012 0.000000
O O14 0.000000 0.146379 0.500000
O O15 0.903625 0.199349 0.842428
O O16 0.903704 0.000000 0.788218
#
# Coordination Sequence:
#
# PCOD8059968 Si02
#       6
#     4   4   4   4   4   4
#     4  10  21  31  44  70 102 132 163 205 250 293
#     4  10  19  31  48  72 102 135 170 205 238 286
#     4  10  19  32  52  74  98 130 169 206 249 302
#     4   8  16  32  55  78  96 121 162 216 266 300
#     4  10  21  33  48  72 103 139 173 201 236 290
#     4  10  19  33  52  73  97 131 170 207 249 300
#
# _framework density 17.410252
#
# number of rings (size 3 to 8) (size 9 to 14) (size 15 to 20)
#    0.000    2.333    1.667    2.500    2.333    2.667 
#    0.000    0.000    0.000   10.000    0.000    0.000 
#    0.000    0.000    0.000    0.000    0.000    0.000 
#
# Total GULP energy -297319.836877 kJ/mol
# GULP energy per Si atom -12388.326537 kJ/mol
# Density = 1.737063 g / cm^3
# Si number density = 17.410252 Si / 1000 Ang^3
#
#
#
# Elastic Constant Matrix: (Units=GPa)
#
#
# Indices 1 2 3 4 5 6 
#
# 1 69.9897 38.3991 6.4451 0.0000 -9.9069 0.0000
# 2 38.3991 89.1118 14.5284 0.0000 -8.2135 0.0000
# 3 6.4451 14.5284 89.0800 0.0000 -2.3053 0.0000
# 4 0.0000 0.0000 0.0000 10.8082 0.0000 -0.2397
# 5 -9.9069 -8.2135 -2.3053 0.0000 27.5522 0.0000
# 6 0.0000 0.0000 0.0000 -0.2397 0.0000 35.3777
#
#
#
# Elastic Compliance Matrix: (Units=1/GPa)
#
#
# Indices 1 2 3 4 5 6 
#
# 1 0.019257 -0.007878 0.000010 0.000000 0.004577 0.000000
# 2 -0.007878 0.015056 -0.001847 0.000000 0.001501 0.000000
# 3 0.000010 -0.001847 0.011537 0.000000 0.000418 0.000000
# 4 0.000000 0.000000 0.000000 0.092536 0.000000 0.000627
# 5 0.004577 0.001501 0.000418 0.000000 0.038423 0.000000
# 6 0.000000 0.000000 0.000000 0.000627 0.000000 0.028271
#
#
# Mechanical properties :
#
#
# Convention : Reuss Voigt Hill
#
# Bulk Modulus (GPa) = 37.84881 40.76962 39.30921
# Shear Modulus (GPa) = 21.43022 27.33487 24.38255
#
# Velocity S-wave (km/s) = 3.51222 3.96668 3.74635
# Velocity P-wave (km/s) = 6.18338 6.66688 6.42967
#
# Compressibility (1/GPa) = 0.02642091
#
# Stress axis : x y z
#
# Youngs Moduli (GPa) = 51.92993 66.41921 86.67645
#
# Poissons Ratio (x) = 0.52323 -0.00087
# Poissons Ratio (y) = 0.40909 0.16007
# Poissons Ratio (z) = -0.00052 0.12266
#
# Static dielectric constant tensor:
#      x y z
#    x 3.207010 0.000000 -0.113820 
#    y 0.000000 3.229190 0.000000 
#    z -0.113820 0.000000 3.393250 
# 
# 
# High freq. dielectric constant tensor:
#      x y z
#    x 1.665490 0.000000 -0.004100 
#    y 0.000000 1.632310 0.000000 
#    z -0.004100 0.000000 1.678500 
# 
# From -- ./inp_files/56019.got.cif
#   From: 2010.06.25/outbox.cif.g09.slc.cpg/sg10_29_cif.got.tgz:56019.got - 2010.06.27 22:07:45.
