data_PCOD8059323
_publ_section_title
;
Structure prediction by ZEFSAII (Michael W. Deem and Ramdas Pophale) SiO2 
 PCOD8059323
Probable space group: P 2/M
;
_chemical_formula_sum "Si O2"
_cell_formula_units_Z 24
_cell_length_a 10.252528
_cell_length_b 9.373153
_cell_length_c 15.046792
_cell_angle_alpha 90.000000
_cell_angle_beta 77.273042
_cell_angle_gamma 90.000000
_cell_volume 1410.448197
_symmetry_space_group_name_H-M "P 2/M"
_symmetry_group_IT_number 10
_symmetry_cell_setting 'monoclinic'
loop_
_space_group_symop_operation_xyz
x,y,z
-x,y,-z
-x,-y,-z
x,-y,z
loop_
_atom_site_type_symbol
_atom_site_label
_atom_site_fract_x
_atom_site_fract_y
_atom_site_fract_z
Si Si1 0.635359 0.334374 0.431123
Si Si2 0.714254 0.165969 0.721238
Si Si3 0.364753 0.660147 0.907748
Si Si4 0.321180 0.660000 0.108087
Si Si5 0.151260 0.663854 0.452307
Si Si6 0.596386 0.833863 0.263226
O O1 0.500000 0.286033 0.500000
O O2 0.627558 0.500000 0.404974
O O3 0.759180 0.300287 0.475956
O O4 0.656935 0.241302 0.340314
O O5 0.748613 0.232425 0.812553
O O6 0.810285 0.236733 0.635121
O O7 0.561658 0.196410 0.716838
O O8 0.746314 0.000000 0.721289
O O9 0.320192 0.500000 0.887641
O O10 0.521625 0.662871 0.900580
O O11 0.328643 0.768884 0.834189
O O12 0.290870 0.706840 0.010573
O O13 0.266611 0.500000 0.132980
O O14 0.172381 0.500000 0.420135
O O15 0.000000 0.697262 0.500000
O O16 0.629342 0.000000 0.262093
#
# Coordination Sequence:
#
# PCOD8059323 Si02
#       6
#     4   4   4   4   4   4
#     4  10  19  32  51  71  91 123 162 198 238 283
#     4  10  19  29  44  68  97 128 159 194 238 285
#     4   8  14  25  41  63  92 125 159 195 234 278
#     4   8  14  25  42  63  90 125 161 195 233 278
#     4  10  21  36  52  70  93 123 162 204 240 279
#     4  10  19  28  43  69  99 128 157 194 237 282
#
# _framework density 17.015867
#
# number of rings (size 3 to 8) (size 9 to 14) (size 15 to 20)
#    0.000    2.667    1.667    2.000    0.000    3.333 
#    0.000    3.333    0.000    0.000    0.000    1.167 
#    0.000    9.333    0.000    0.000    0.000    0.000 
#
# Total GULP energy -297556.328656 kJ/mol
# GULP energy per Si atom -12398.180361 kJ/mol
# Density = 1.697714 g / cm^3
# Si number density = 17.015867 Si / 1000 Ang^3
#
#
#
# Elastic Constant Matrix: (Units=GPa)
#
#
# Indices 1 2 3 4 5 6 
#
# 1 59.1330 33.1081 41.5073 0.0000 3.5114 0.0000
# 2 33.1081 111.8510 99.3033 0.0000 3.8063 0.0000
# 3 41.5073 99.3033 165.4319 0.0000 13.7647 0.0000
# 4 0.0000 0.0000 0.0000 14.4252 0.0000 0.4528
# 5 3.5114 3.8063 13.7647 0.0000 12.4132 0.0000
# 6 0.0000 0.0000 0.0000 0.4528 0.0000 8.8839
#
#
#
# Elastic Compliance Matrix: (Units=1/GPa)
#
#
# Indices 1 2 3 4 5 6 
#
# 1 0.021105 -0.003435 -0.003112 0.000000 -0.001467 0.000000
# 2 -0.003435 0.020369 -0.012037 0.000000 0.008073 0.000000
# 3 -0.003112 -0.012037 0.015060 0.000000 -0.012128 0.000000
# 4 0.000000 0.000000 0.000000 0.069434 0.000000 -0.003539
# 5 -0.001467 0.008073 -0.012128 0.000000 0.091948 0.000000
# 6 0.000000 0.000000 0.000000 -0.003539 0.000000 0.112744
#
#
# Mechanical properties :
#
#
# Convention : Reuss Voigt Hill
#
# Bulk Modulus (GPa) = 51.63168 76.02816 63.82992
# Shear Modulus (GPa) = 13.35895 17.97762 15.66828
#
# Velocity S-wave (km/s) = 2.80498 3.25394 3.03777
# Velocity P-wave (km/s) = 6.39529 7.67433 7.06381
#
# Compressibility (1/GPa) = 0.01936795
#
# Stress axis : x y z
#
# Youngs Moduli (GPa) = 47.38139 49.09486 66.40207
#
# Poissons Ratio (x) = 0.16863 0.20661
# Poissons Ratio (y) = 0.16275 0.79925
# Poissons Ratio (z) = 0.14743 0.59093
#
# Static dielectric constant tensor:
#      x y z
#    x 2.697270 0.000000 0.117960 
#    y 0.000000 3.203530 0.000000 
#    z 0.117960 0.000000 3.456530 
# 
# 
# High freq. dielectric constant tensor:
#      x y z
#    x 1.595430 0.000000 0.011930 
#    y 0.000000 1.657520 0.000000 
#    z 0.011930 0.000000 1.671150 
# 
# From -- ./inp_files/33953.got.cif
#   From: 2010.06.25/outbox.cif.g09.slc.cpg/sg10_17_cif.got.tgz:33953.got - 2010.06.27 22:07:45.
