data_PCOD8059065
_publ_section_title
;
Structure prediction by ZEFSAII (Michael W. Deem and Ramdas Pophale) SiO2 
 PCOD8059065
Probable space group: P 2/M
;
_chemical_formula_sum "Si O2"
_cell_formula_units_Z 32
_cell_length_a 19.972962
_cell_length_b 8.651646
_cell_length_c 25.621822
_cell_angle_alpha 90.000000
_cell_angle_beta 21.563716
_cell_angle_gamma 90.000000
_cell_volume 1627.236684
_symmetry_space_group_name_H-M "P 2/M"
_symmetry_group_IT_number 10
_symmetry_cell_setting 'monoclinic'
loop_
_space_group_symop_operation_xyz
x,y,z
-x,y,-z
-x,-y,-z
x,-y,z
loop_
_atom_site_type_symbol
_atom_site_label
_atom_site_fract_x
_atom_site_fract_y
_atom_site_fract_z
Si Si1 0.790710 0.183082 0.648835
Si Si2 0.510187 0.683379 0.933182
Si Si3 0.238931 0.684026 0.544274
Si Si4 0.151277 0.683367 0.137344
Si Si5 0.921209 0.683584 0.110055
Si Si6 0.613088 0.182320 0.669121
Si Si7 0.474731 0.684332 0.577020
Si Si8 0.227599 0.683017 0.966665
O O1 0.681681 0.248402 0.777617
O O2 0.702516 0.243576 0.658443
O O3 0.000000 0.240751 0.500000
O O4 0.780715 0.000000 0.658981
O O5 0.526310 0.500000 0.917716
O O6 0.500000 0.740802 0.000000
O O7 0.321093 0.746165 0.047012
O O8 0.245793 0.500000 0.538008
O O9 0.284519 0.745258 0.454140
O O10 0.374326 0.746459 0.491523
O O11 0.037963 0.748526 0.703119
O O12 0.143447 0.500000 0.143801
O O13 0.183151 0.743777 0.056169
O O14 0.911000 0.500000 0.114459
O O15 0.719615 0.750132 0.263863
O O16 0.000000 0.754673 0.000000
O O17 0.052942 0.735854 0.060728
O O18 0.404415 0.232672 0.816585
O O19 0.630515 0.000000 0.653087
O O20 0.500000 0.748112 0.500000
O O21 0.480542 0.500000 0.572099
O O22 0.262031 0.500000 0.938761
#
# Coordination Sequence:
#
# PCOD8059065 Si02
#       8
#     4   4   4   4   4   4   4   4
#     4  10  23  42  60  80 109 146 186 225 268 321
#     4  10  21  37  58  86 116 142 173 218 270 327
#     4  10  20  34  56  83 112 147 183 225 277 327
#     4   9  18  33  53  81 110 137 176 220 265 320
#     4   9  16  25  43  74 105 132 170 217 261 311
#     4  11  23  38  55  79 111 144 184 230 270 320
#     4   9  16  28  48  78 110 138 176 225 272 318
#     4  10  18  33  57  79 105 143 180 221 274 325
#
# _framework density 19.665239
#
# number of rings (size 3 to 8) (size 9 to 14) (size 15 to 20)
#    0.000    2.250    1.250    1.875    1.750    6.000 
#    0.000    1.250    0.000    3.750    0.000    0.000 
#    0.000    0.000    0.000    0.000    0.000    0.000 
#
# Total GULP energy -396760.460886 kJ/mol
# GULP energy per Si atom -12398.764403 kJ/mol
# Density = 1.962048 g / cm^3
# Si number density = 19.665239 Si / 1000 Ang^3
#
#
#
# Elastic Constant Matrix: (Units=GPa)
#
#
# Indices 1 2 3 4 5 6 
#
# 1 162.5943 18.7894 84.8888 0.0000 6.6851 0.0000
# 2 18.7894 17.4725 18.8830 0.0000 0.1264 0.0000
# 3 84.8888 18.8830 194.4148 0.0000 2.3980 0.0000
# 4 0.0000 0.0000 0.0000 0.2126 0.0000 6.7418
# 5 6.6851 0.1264 2.3980 0.0000 44.0755 0.0000
# 6 0.0000 0.0000 0.0000 6.7418 0.0000 10.6043
#
#
#
# Elastic Compliance Matrix: (Units=1/GPa)
#
#
# Indices 1 2 3 4 5 6 
#
# 1 0.008498 -0.005737 -0.003140 0.000000 -0.001102 0.000000
# 2 -0.005737 0.067819 -0.004093 0.000000 0.000898 0.000000
# 3 -0.003140 -0.004093 0.006911 0.000000 0.000112 0.000000
# 4 0.000000 0.000000 0.000000 -0.245485 0.000000 0.156071
# 5 -0.001102 0.000898 0.000112 0.000000 0.022847 0.000000
# 6 0.000000 0.000000 0.000000 0.156071 0.000000 -0.004922
#
#
# Mechanical properties :
#
#
# Convention : Reuss Voigt Hill
#
# Bulk Modulus (GPa) = 17.45566 68.84488 43.15027
# Shear Modulus (GPa) = -50.35368 27.77319 -11.29025
#
# Velocity S-wave (km/s) = -5.06567 3.76213 -2.39868
# Velocity P-wave (km/s) = 5.03180 7.34547 3.78397
#
# Compressibility (1/GPa) = 0.05728801
#
# Stress axis : x y z
#
# Youngs Moduli (GPa) = 117.67886 14.74505 144.70363
#
# Poissons Ratio (x) = 0.08459 0.45431
# Poissons Ratio (y) = 0.67514 0.59229
# Poissons Ratio (z) = 0.36946 0.06035
#
# Static dielectric constant tensor:
#      x y z
#    x 3.866460 0.000000 -0.065860 
#    y 0.000000 3.025450 0.000000 
#    z -0.065860 0.000000 3.871550 
# 
# 
# High freq. dielectric constant tensor:
#      x y z
#    x 1.784160 0.000000 0.000450 
#    y 0.000000 1.711700 0.000000 
#    z 0.000450 0.000000 1.785110 
# 
# From -- ./inp_files/93685.got.cif
#   From: 2010.06.25/outbox.cif.g09.slc.cpg/sg10_47_cif.got.tgz:93685.got - 2010.06.27 22:07:45.
