data_PCOD8059316
_publ_section_title
;
Structure prediction by ZEFSAII (Michael W. Deem and Ramdas Pophale) SiO2 
 PCOD8059316
Probable space group: P 2/M
;
_chemical_formula_sum "Si O2"
_cell_formula_units_Z 30
_cell_length_a 6.389422
_cell_length_b 13.652898
_cell_length_c 17.563437
_cell_angle_alpha 90.000000
_cell_angle_beta 88.813574
_cell_angle_gamma 90.000000
_cell_volume 1531.802628
_symmetry_space_group_name_H-M "P 2/M"
_symmetry_group_IT_number 10
_symmetry_cell_setting 'monoclinic'
loop_
_space_group_symop_operation_xyz
x,y,z
-x,y,-z
-x,-y,-z
x,-y,z
loop_
_atom_site_type_symbol
_atom_site_label
_atom_site_fract_x
_atom_site_fract_y
_atom_site_fract_z
Si Si1 0.488677 0.387686 0.219539
Si Si2 0.853971 0.303483 0.673072
Si Si3 0.329364 0.111638 0.882667
Si Si4 0.232995 0.789095 0.730967
Si Si5 0.486329 0.772876 0.582493
Si Si6 0.000000 0.803981 0.000000
Si Si7 0.622479 0.282490 0.926483
Si Si8 0.840154 0.611228 0.438086
O O1 0.565642 0.500000 0.224554
O O2 0.295584 0.371077 0.276764
O O3 0.676031 0.315239 0.240919
O O4 0.402048 0.365714 0.136310
O O5 0.721079 0.246761 0.609647
O O6 0.982872 0.221591 0.719914
O O7 0.033505 0.375528 0.640894
O O8 0.258527 0.130147 0.796175
O O9 0.528449 0.178559 0.899922
O O10 0.402350 0.000000 0.889414
O O11 0.144520 0.130207 0.944549
O O12 0.350791 0.824288 0.651463
O O13 0.500000 0.830952 0.500000
O O14 0.374616 0.670550 0.562177
O O15 0.864465 0.734106 0.945790
O O16 0.500000 0.323360 0.000000
O O17 0.775080 0.500000 0.452942
O O18 0.000000 0.651259 0.500000
#
# Coordination Sequence:
#
# PCOD8059316 Si02
#       8
#     4   4   4   4   4   2   4   4
#     4  10  20  34  51  71 101 143 182 211 246 293
#     4  10  19  32  48  67  98 132 176 214 258 299
#     4  10  20  36  57  82 107 133 163 203 259 316
#     4   9  21  35  51  74 104 134 171 217 258 302
#     4  10  19  32  48  69  94 133 175 208 256 309
#     4  10  19  34  57  82 110 134 161 204 253 314
#     4   9  20  36  53  78 109 136 167 211 250 294
#     4  10  19  28  41  65  96 127 165 214 257 295
#
# _framework density 19.584768
#
# number of rings (size 3 to 8) (size 9 to 14) (size 15 to 20)
#    0.000    2.267    1.333    1.400    0.000    9.333 
#    0.000    0.333    0.000    0.400    0.000    0.933 
#    0.000    0.000    0.000    0.000    0.000    0.000 
#
# Total GULP energy -371833.881274 kJ/mol
# GULP energy per Si atom -12394.462709 kJ/mol
# Density = 1.954019 g / cm^3
# Si number density = 19.584768 Si / 1000 Ang^3
#
#
#
# Elastic Constant Matrix: (Units=GPa)
#
#
# Indices 1 2 3 4 5 6 
#
# 1 88.1901 9.5411 14.4881 0.0000 23.2305 0.0000
# 2 9.5411 30.2803 17.1726 0.0000 -7.3555 0.0000
# 3 14.4881 17.1726 120.9983 0.0000 10.6226 0.0000
# 4 0.0000 0.0000 0.0000 8.6788 0.0000 3.5087
# 5 23.2305 -7.3555 10.6226 0.0000 29.9621 0.0000
# 6 0.0000 0.0000 0.0000 3.5087 0.0000 11.3572
#
#
#
# Elastic Compliance Matrix: (Units=1/GPa)
#
#
# Indices 1 2 3 4 5 6 
#
# 1 0.016172 -0.009128 0.000678 0.000000 -0.015020 0.000000
# 2 -0.009128 0.044935 -0.007095 0.000000 0.020624 0.000000
# 3 0.000678 -0.007095 0.009691 0.000000 -0.005703 0.000000
# 4 0.000000 0.000000 0.000000 0.131669 0.000000 -0.040678
# 5 -0.015020 0.020624 -0.005703 0.000000 0.052106 0.000000
# 6 0.000000 0.000000 0.000000 -0.040678 0.000000 0.100617
#
#
# Mechanical properties :
#
#
# Convention : Reuss Voigt Hill
#
# Bulk Modulus (GPa) = 25.18494 35.76360 30.47427
# Shear Modulus (GPa) = 12.51515 23.21740 17.86627
#
# Velocity S-wave (km/s) = 2.53064 3.44682 3.02363
# Velocity P-wave (km/s) = 4.62884 5.84306 5.27103
#
# Compressibility (1/GPa) = 0.03970627
#
# Stress axis : x y z
#
# Youngs Moduli (GPa) = 61.83617 22.25452 103.18794
#
# Poissons Ratio (x) = 0.20315 -0.06994
# Poissons Ratio (y) = 0.56447 0.73211
# Poissons Ratio (z) = -0.04191 0.15789
#
# Static dielectric constant tensor:
#      x y z
#    x 3.619270 0.000000 0.127280 
#    y 0.000000 2.985340 0.000000 
#    z 0.127280 0.000000 4.100940 
# 
# 
# High freq. dielectric constant tensor:
#      x y z
#    x 1.771170 0.000000 0.005930 
#    y 0.000000 1.699300 0.000000 
#    z 0.005930 0.000000 1.790540 
# 
# From -- ./inp_files/73434.got.cif
#   From: 2010.06.25/outbox.cif.g09.slc.cpg/sg10_37_cif.got.tgz:73434.got - 2010.06.27 22:07:45.
