data_PCOD8059738
_publ_section_title
;
Structure prediction by ZEFSAII (Michael W. Deem and Ramdas Pophale) SiO2 
 PCOD8059738
Probable space group: P 2/M
;
_chemical_formula_sum "Si O2"
_cell_formula_units_Z 30
_cell_length_a 17.239364
_cell_length_b 9.564619
_cell_length_c 28.209030
_cell_angle_alpha 90.000000
_cell_angle_beta 22.180302
_cell_angle_gamma 90.000000
_cell_volume 1755.981174
_symmetry_space_group_name_H-M "P 2/M"
_symmetry_group_IT_number 10
_symmetry_cell_setting 'monoclinic'
loop_
_space_group_symop_operation_xyz
x,y,z
-x,y,-z
-x,-y,-z
x,-y,z
loop_
_atom_site_type_symbol
_atom_site_label
_atom_site_fract_x
_atom_site_fract_y
_atom_site_fract_z
Si Si1 0.239124 0.165835 0.193905
Si Si2 0.505972 0.662211 0.310798
Si Si3 0.106717 0.837264 0.889539
Si Si4 0.695398 0.164746 0.945490
Si Si5 0.888816 0.841695 0.461134
Si Si6 0.233117 0.163610 0.992490
Si Si7 0.555963 0.653753 0.762504
Si Si8 0.000000 0.757087 0.500000
O O1 0.189304 0.216031 0.167728
O O2 0.072082 0.223315 0.325514
O O3 0.236327 0.000000 0.199607
O O4 0.463852 0.226217 0.079893
O O5 0.498566 0.500000 0.330817
O O6 0.694782 0.740614 0.228955
O O7 0.298705 0.739067 0.443851
O O8 0.533703 0.677139 0.239055
O O9 0.168480 0.000000 0.849221
O O10 0.000000 0.809876 0.000000
O O11 0.953569 0.787254 0.934700
O O12 0.671465 0.000000 0.954902
O O13 0.819069 0.204802 0.923374
O O14 0.951021 0.849060 0.481350
O O15 0.830956 0.000000 0.478762
O O16 0.449352 0.233249 0.856315
O O17 0.272020 0.000000 0.964230
O O18 0.495826 0.500000 0.814809
O O19 0.802511 0.662814 0.623414
#
# Coordination Sequence:
#
# PCOD8059738 Si02
#       8
#     4   4   4   4   4   4   4   2
#     4   8  14  26  46  71  99 127 154 189 235 282
#     4  10  21  34  48  67  94 130 165 193 232 289
#     4  10  19  32  49  71  97 124 155 200 247 285
#     4   8  14  26  45  72 100 123 153 193 236 283
#     4  10  19  31  49  72  97 127 161 198 237 282
#     4  10  19  30  49  73  96 121 155 199 243 283
#     4  10  20  32  45  64  95 131 162 192 229 279
#     4  10  20  30  44  70  98 130 160 192 228 280
#
# _framework density 17.084465999999999
#
# number of rings (size 3 to 8) (size 9 to 14) (size 15 to 20)
#    0.000    2.533    1.333    2.400    0.000    5.067 
#    0.000    0.000    0.000    1.600    0.000    8.400 
#    0.000    0.000    0.000    0.000    0.000    0.000 
#
# Total GULP energy -371815.921203 kJ/mol
# GULP energy per Si atom -12393.864040 kJ/mol
# Density = 1.704558 g / cm^3
# Si number density = 17.084466 Si / 1000 Ang^3
#
#
#
# Elastic Constant Matrix: (Units=GPa)
#
#
# Indices 1 2 3 4 5 6 
#
# 1 115.6111 25.4797 55.7741 0.0000 -2.4321 0.0000
# 2 25.4797 57.5222 36.8568 0.0000 -3.6507 0.0000
# 3 55.7741 36.8568 103.6428 0.0000 1.5972 0.0000
# 4 0.0000 0.0000 0.0000 14.1079 0.0000 -4.2468
# 5 -2.4321 -3.6507 1.5972 0.0000 26.7967 0.0000
# 6 0.0000 0.0000 0.0000 -4.2468 0.0000 5.7479
#
#
#
# Elastic Compliance Matrix: (Units=1/GPa)
#
#
# Indices 1 2 3 4 5 6 
#
# 1 0.011822 -0.001385 -0.005888 0.000000 0.001235 0.000000
# 2 -0.001385 0.023019 -0.007494 0.000000 0.003457 0.000000
# 3 -0.005888 -0.007494 0.015520 0.000000 -0.002480 0.000000
# 4 0.000000 0.000000 0.000000 0.091157 0.000000 0.067352
# 5 0.001235 0.003457 -0.002480 0.000000 0.038049 0.000000
# 6 0.000000 0.000000 0.000000 0.067352 0.000000 0.223740
#
#
# Mechanical properties :
#
#
# Convention : Reuss Voigt Hill
#
# Bulk Modulus (GPa) = 48.01510 56.99969 52.50739
# Shear Modulus (GPa) = 11.36923 19.90819 15.63871
#
# Velocity S-wave (km/s) = 2.58247 3.41732 3.02880
# Velocity P-wave (km/s) = 6.08751 7.00048 6.55990
#
# Compressibility (1/GPa) = 0.02082678
#
# Stress axis : x y z
#
# Youngs Moduli (GPa) = 84.59143 43.44209 64.43233
#
# Poissons Ratio (x) = 0.06018 0.37938
# Poissons Ratio (y) = 0.11719 0.48284
# Poissons Ratio (z) = 0.49807 0.32554
#
# Static dielectric constant tensor:
#      x y z
#    x 3.397390 0.000000 0.070810 
#    y 0.000000 2.907070 0.000000 
#    z 0.070810 0.000000 3.143450 
# 
# 
# High freq. dielectric constant tensor:
#      x y z
#    x 1.653480 0.000000 -0.001970 
#    y 0.000000 1.632050 0.000000 
#    z -0.001970 0.000000 1.646090 
# 
# From -- ./inp_files/95492.got.cif
#   From: 2010.06.25/outbox.cif.g09.slc.cpg/sg10_48_cif.got.tgz:95492.got - 2010.06.27 22:07:45.
