data_PCOD8059267
_publ_section_title
;
Structure prediction by ZEFSAII (Michael W. Deem and Ramdas Pophale) SiO2 
 PCOD8059267
Probable space group: P 2/M
;
_chemical_formula_sum "Si O2"
_cell_formula_units_Z 32
_cell_length_a 9.236841
_cell_length_b 23.368694
_cell_length_c 15.302794
_cell_angle_alpha 90.000000
_cell_angle_beta 29.924570
_cell_angle_gamma 90.000000
_cell_volume 1647.808881
_symmetry_space_group_name_H-M "P 2/M"
_symmetry_group_IT_number 10
_symmetry_cell_setting 'monoclinic'
loop_
_space_group_symop_operation_xyz
x,y,z
-x,y,-z
-x,-y,-z
x,-y,z
loop_
_atom_site_type_symbol
_atom_site_label
_atom_site_fract_x
_atom_site_fract_y
_atom_site_fract_z
Si Si1 0.155984 0.638193 0.671051
Si Si2 0.826054 0.565409 0.176024
Si Si3 0.752652 0.061206 0.810932
Si Si4 0.794474 0.164680 0.685886
Si Si5 0.833078 0.756015 0.829863
Si Si6 0.110286 0.834748 0.035249
Si Si7 0.230798 0.063055 0.697329
Si Si8 0.847767 0.434007 0.491123
O O1 0.500000 0.640473 0.500000
O O2 0.047151 0.606142 0.814895
O O3 0.038132 0.602474 0.650153
O O4 0.035183 0.701207 0.723459
O O5 0.875601 0.500000 0.180109
O O6 0.494295 0.575652 0.323887
O O7 0.000000 0.582116 0.000000
O O8 0.875374 0.099950 0.669257
O O9 0.004798 0.047143 0.743200
O O10 0.632542 0.000000 0.837124
O O11 0.500000 0.093779 0.000000
O O12 0.883670 0.205750 0.718286
O O13 0.000000 0.184796 0.500000
O O14 0.455233 0.159091 0.841010
O O15 0.932218 0.790312 0.863966
O O16 0.500000 0.736119 0.000000
O O17 0.918748 0.892197 0.156115
O O18 0.000000 0.810132 0.000000
O O19 0.500000 0.089267 0.500000
O O20 0.309299 0.000000 0.700120
O O21 0.929525 0.500000 0.432255
O O22 0.000000 0.411517 0.500000
#
# Coordination Sequence:
#
# PCOD8059267 Si02
#       8
#     4   4   4   4   4   4   4   4
#     4  10  21  36  59  84 110 149 194 231 279 339
#     4   9  18  34  56  84 118 151 185 229 278 332
#     4  10  18  36  63  84 113 153 187 228 282 342
#     4  11  23  40  61  86 111 147 194 236 286 344
#     4  10  23  44  59  78 114 150 190 242 288 330
#     4  11  24  40  61  85 113 149 190 237 288 342
#     4  10  21  37  60  88 120 152 182 228 288 343
#     4   9  18  34  56  84 118 151 186 230 278 331
#
# _framework density 19.419727999999999
#
# number of rings (size 3 to 8) (size 9 to 14) (size 15 to 20)
#    0.000    2.000    2.500    0.750    1.750    5.500 
#    0.000    5.000    0.000    3.750    0.000    0.000 
#    0.000    0.000    0.000    0.000    0.000    0.000 
#
# Total GULP energy -396443.043694 kJ/mol
# GULP energy per Si atom -12388.845115 kJ/mol
# Density = 1.937553 g / cm^3
# Si number density = 19.419728 Si / 1000 Ang^3
#
#
#
# Elastic Constant Matrix: (Units=GPa)
#
#
# Indices 1 2 3 4 5 6 
#
# 1 130.1725 59.2005 37.4964 0.0000 21.4772 0.0000
# 2 59.2005 96.4025 36.7734 0.0000 11.7398 0.0000
# 3 37.4964 36.7734 96.8376 0.0000 18.2710 0.0000
# 4 0.0000 0.0000 0.0000 23.8163 0.0000 -9.4322
# 5 21.4772 11.7398 18.2710 0.0000 21.9804 0.0000
# 6 0.0000 0.0000 0.0000 -9.4322 0.0000 11.1427
#
#
#
# Elastic Compliance Matrix: (Units=1/GPa)
#
#
# Indices 1 2 3 4 5 6 
#
# 1 0.011973 -0.006080 -0.000869 0.000000 -0.007729 0.000000
# 2 -0.006080 0.015403 -0.003634 0.000000 0.000734 0.000000
# 3 -0.000869 -0.003634 0.013659 0.000000 -0.008564 0.000000
# 4 0.000000 0.000000 0.000000 0.063163 0.000000 0.053467
# 5 -0.007729 0.000734 -0.008564 0.000000 0.059774 0.000000
# 6 0.000000 0.000000 0.000000 0.053467 0.000000 0.135005
#
#
# Mechanical properties :
#
#
# Convention : Reuss Voigt Hill
#
# Bulk Modulus (GPa) = 50.32673 65.59480 57.96076
# Shear Modulus (GPa) = 15.30155 24.05069 19.67612
#
# Velocity S-wave (km/s) = 2.81007 3.52300 3.18654
# Velocity P-wave (km/s) = 6.04154 7.09926 6.59165
#
# Compressibility (1/GPa) = 0.01987016
#
# Stress axis : x y z
#
# Youngs Moduli (GPa) = 83.52440 64.92083 73.21350
#
# Poissons Ratio (x) = 0.39469 0.06361
# Poissons Ratio (y) = 0.50780 0.26604
# Poissons Ratio (z) = 0.07257 0.23590
#
# Static dielectric constant tensor:
#      x y z
#    x 3.600610 0.000000 0.022660 
#    y 0.000000 3.492310 0.000000 
#    z 0.022660 0.000000 3.435990 
# 
# 
# High freq. dielectric constant tensor:
#      x y z
#    x 1.754530 0.000000 -0.003320 
#    y 0.000000 1.751800 0.000000 
#    z -0.003320 0.000000 1.753420 
# 
# From -- ./inp_files/62687.got.cif
#   From: 2010.06.25/outbox.cif.g09.slc.cpg/sg10_32_cif.got.tgz:62687.got - 2010.06.27 22:07:45.
