data_PCOD8059427
_publ_section_title
;
Structure prediction by ZEFSAII (Michael W. Deem and Ramdas Pophale) SiO2 
 PCOD8059427
Probable space group: P 2/M
;
_chemical_formula_sum "Si O2"
_cell_formula_units_Z 28
_cell_length_a 14.016745
_cell_length_b 9.228014
_cell_length_c 14.160377
_cell_angle_alpha 90.000000
_cell_angle_beta 119.493537
_cell_angle_gamma 90.000000
_cell_volume 1594.243746
_symmetry_space_group_name_H-M "P 2/M"
_symmetry_group_IT_number 10
_symmetry_cell_setting 'monoclinic'
loop_
_space_group_symop_operation_xyz
x,y,z
-x,y,-z
-x,-y,-z
x,-y,z
loop_
_atom_site_type_symbol
_atom_site_label
_atom_site_fract_x
_atom_site_fract_y
_atom_site_fract_z
Si Si1 0.352554 0.671381 0.840231
Si Si2 0.597164 0.330935 0.933369
Si Si3 0.159191 0.168142 0.645266
Si Si4 0.566067 0.838726 0.436632
Si Si5 0.074765 0.168321 0.398360
Si Si6 0.622645 0.668537 0.740953
Si Si7 0.753308 0.670964 0.622122
O O1 0.337885 0.500000 0.822500
O O2 0.472447 0.727645 0.866285
O O3 0.263076 0.743198 0.730097
O O4 0.337558 0.725974 0.942480
O O5 0.583834 0.500000 0.943286
O O6 0.662771 0.297100 0.867730
O O7 0.131995 0.211202 0.524741
O O8 0.054100 0.204170 0.659402
O O9 0.187599 0.000000 0.665988
O O10 0.500000 0.852602 0.500000
O O11 0.489282 0.757711 0.324752
O O12 0.674274 0.744379 0.506304
O O13 0.597966 0.000000 0.415319
O O14 0.126261 0.264000 0.338554
O O15 0.094053 0.000000 0.385117
O O16 0.592691 0.500000 0.713413
O O17 0.716048 0.712265 0.710835
O O18 0.752699 0.500000 0.606300
#
# Coordination Sequence:
#
# PCOD8059427 Si02
#       7
#     4   4   4   4   4   4   4
#     4   9  17  31  52  74  95 123 159 197 235 280
#     4   8  16  31  49  71  99 128 156 189 237 285
#     4   9  19  35  52  70  94 124 156 196 244 286
#     4   9  17  28  41  61  92 128 161 189 225 276
#     4   9  19  35  51  68  95 128 157 190 241 294
#     4   9  17  30  46  66  96 129 159 193 233 278
#     4  10  19  29  45  69  95 124 160 199 232 272
#
# _framework density 17.563186000000002
#
# number of rings (size 3 to 8) (size 9 to 14) (size 15 to 20)
#    0.000    3.000    0.000    2.571    2.000    3.429 
#    0.000    3.571    0.000    0.857    0.000    6.000 
#    0.000    0.000    0.000    0.000    0.000    0.000 
#
# Total GULP energy -346985.736445 kJ/mol
# GULP energy per Si atom -12392.347730 kJ/mol
# Density = 1.752321 g / cm^3
# Si number density = 17.563186 Si / 1000 Ang^3
#
#
#
# Elastic Constant Matrix: (Units=GPa)
#
#
# Indices 1 2 3 4 5 6 
#
# 1 75.2613 25.1583 16.6032 0.0000 -9.7922 0.0000
# 2 25.1583 51.5368 16.0594 0.0000 -2.7958 0.0000
# 3 16.6032 16.0594 57.0950 0.0000 -2.9475 0.0000
# 4 0.0000 0.0000 0.0000 16.3603 0.0000 0.1196
# 5 -9.7922 -2.7958 -2.9475 0.0000 27.0108 0.0000
# 6 0.0000 0.0000 0.0000 0.1196 0.0000 14.2748
#
#
#
# Elastic Compliance Matrix: (Units=1/GPa)
#
#
# Indices 1 2 3 4 5 6 
#
# 1 0.016929 -0.007163 -0.002645 0.000000 0.005107 0.000000
# 2 -0.007163 0.024364 -0.004801 0.000000 -0.000599 0.000000
# 3 -0.002645 -0.004801 0.019670 0.000000 0.000691 0.000000
# 4 0.000000 0.000000 0.000000 0.061127 0.000000 -0.000512
# 5 0.005107 -0.000599 0.000691 0.000000 0.038887 0.000000
# 6 0.000000 0.000000 0.000000 -0.000512 0.000000 0.070058
#
#
# Mechanical properties :
#
#
# Convention : Reuss Voigt Hill
#
# Bulk Modulus (GPa) = 31.50012 33.28166 32.39089
# Shear Modulus (GPa) = 18.46143 19.93397 19.19770
#
# Velocity S-wave (km/s) = 3.24565 3.37261 3.30974
# Velocity P-wave (km/s) = 5.65861 5.84438 5.75225
#
# Compressibility (1/GPa) = 0.03174591
#
# Stress axis : x y z
#
# Youngs Moduli (GPa) = 59.06851 41.04431 50.83954
#
# Poissons Ratio (x) = 0.29401 0.13445
# Poissons Ratio (y) = 0.42312 0.24407
# Poissons Ratio (z) = 0.15621 0.19705
#
# Static dielectric constant tensor:
#      x y z
#    x 3.272870 0.000000 -0.161360 
#    y 0.000000 3.155570 0.000000 
#    z -0.161360 0.000000 3.180750 
# 
# 
# High freq. dielectric constant tensor:
#      x y z
#    x 1.674810 0.000000 -0.017280 
#    y 0.000000 1.665880 0.000000 
#    z -0.017280 0.000000 1.655280 
# 
# From -- ./inp_files/49636.got.cif
#   From: 2010.06.25/outbox.cif.g09.slc.cpg/sg10_25_cif.got.tgz:49636.got - 2010.06.27 22:07:45.
