data_PCOD8059682
_publ_section_title
;
Structure prediction by ZEFSAII (Michael W. Deem and Ramdas Pophale) SiO2 
 PCOD8059682
Probable space group: P 2/M
;
_chemical_formula_sum "Si O2"
_cell_formula_units_Z 28
_cell_length_a 5.058635
_cell_length_b 23.142576
_cell_length_c 12.903270
_cell_angle_alpha 90.000000
_cell_angle_beta 92.859797
_cell_angle_gamma 90.000000
_cell_volume 1508.702554
_symmetry_space_group_name_H-M "P 2/M"
_symmetry_group_IT_number 10
_symmetry_cell_setting 'monoclinic'
loop_
_space_group_symop_operation_xyz
x,y,z
-x,y,-z
-x,-y,-z
x,-y,z
loop_
_atom_site_type_symbol
_atom_site_label
_atom_site_fract_x
_atom_site_fract_y
_atom_site_fract_z
Si Si1 0.971546 0.934367 0.757245
Si Si2 0.084936 0.566598 0.244046
Si Si3 0.541260 0.764808 0.619740
Si Si4 0.414448 0.566422 0.888743
Si Si5 0.497005 0.934480 0.112449
Si Si6 0.034622 0.828994 0.623349
Si Si7 0.751886 0.644747 0.567594
O O1 0.205872 0.931821 0.843375
O O2 0.057952 0.894846 0.661970
O O3 0.710812 0.907977 0.808819
O O4 0.926146 0.000000 0.715273
O O5 0.020974 0.500000 0.268692
O O6 0.352752 0.573944 0.187312
O O7 0.117301 0.598443 0.353815
O O8 0.847651 0.593891 0.169522
O O9 0.500000 0.780734 0.500000
O O10 0.271257 0.786735 0.668380
O O11 0.620506 0.697318 0.630318
O O12 0.777325 0.801959 0.672621
O O13 0.345950 0.500000 0.911856
O O14 0.500000 0.596105 0.000000
O O15 0.395872 0.000000 0.094987
O O16 0.500000 0.902953 0.000000
O O17 0.000000 0.829759 0.500000
O O18 0.500000 0.617512 0.500000
O O19 0.000000 0.666129 0.500000
#
# Coordination Sequence:
#
# PCOD8059682 Si02
#       7
#     4   4   4   4   4   4   4
#     4  10  19  30  47  74 102 128 159 194 245 303
#     4  10  20  32  49  77 107 135 168 203 253 312
#     4   9  18  33  50  68  90 125 172 211 236 270
#     4   9  17  31  50  72 101 135 171 211 248 289
#     4   9  17  30  47  68  97 130 163 199 235 279
#     4  10  19  32  50  71  98 127 160 202 242 286
#     4  11  21  34  52  74 103 135 169 209 248 294
#
# _framework density 18.558992
#
# number of rings (size 3 to 8) (size 9 to 14) (size 15 to 20)
#    0.000    2.286    0.000    4.714    0.000    4.286 
#    0.000    0.000    0.000    5.143    0.000   15.000 
#    0.000    0.000    0.000    0.000    0.000    0.000 
#
# Total GULP energy -346922.953887 kJ/mol
# GULP energy per Si atom -12390.105496 kJ/mol
# Density = 1.851675 g / cm^3
# Si number density = 18.558992 Si / 1000 Ang^3
#
#
#
# Elastic Constant Matrix: (Units=GPa)
#
#
# Indices 1 2 3 4 5 6 
#
# 1 110.8415 28.8905 24.1707 0.0000 12.9481 0.0000
# 2 28.8905 69.9821 35.9316 0.0000 4.3557 0.0000
# 3 24.1707 35.9316 59.7968 0.0000 12.0262 0.0000
# 4 0.0000 0.0000 0.0000 4.7598 0.0000 -0.9112
# 5 12.9481 4.3557 12.0262 0.0000 29.1964 0.0000
# 6 0.0000 0.0000 0.0000 -0.9112 0.0000 20.3378
#
#
#
# Elastic Compliance Matrix: (Units=1/GPa)
#
#
# Indices 1 2 3 4 5 6 
#
# 1 0.010661 -0.003377 -0.001559 0.000000 -0.003582 0.000000
# 2 -0.003377 0.021867 -0.012451 0.000000 0.003364 0.000000
# 3 -0.001559 -0.012451 0.026520 0.000000 -0.008375 0.000000
# 4 0.000000 0.000000 0.000000 0.211909 0.000000 0.009494
# 5 -0.003582 0.003364 -0.008375 0.000000 0.038787 0.000000
# 6 0.000000 0.000000 0.000000 0.009494 0.000000 0.049595
#
#
# Mechanical properties :
#
#
# Convention : Reuss Voigt Hill
#
# Bulk Modulus (GPa) = 41.20061 46.51175 43.85618
# Shear Modulus (GPa) = 12.43147 20.96731 16.69939
#
# Velocity S-wave (km/s) = 2.59093 3.36485 3.00292
# Velocity P-wave (km/s) = 5.58556 6.34131 5.97540
#
# Compressibility (1/GPa) = 0.02427148
#
# Stress axis : x y z
#
# Youngs Moduli (GPa) = 93.80297 45.73041 37.70759
#
# Poissons Ratio (x) = 0.15445 0.05880
# Poissons Ratio (y) = 0.31681 0.46951
# Poissons Ratio (z) = 0.14627 0.56941
#
# Static dielectric constant tensor:
#      x y z
#    x 3.844330 0.000000 0.077950 
#    y 0.000000 3.109710 0.000000 
#    z 0.077950 0.000000 3.227870 
# 
# 
# High freq. dielectric constant tensor:
#      x y z
#    x 1.750970 0.000000 0.006800 
#    y 0.000000 1.676080 0.000000 
#    z 0.006800 0.000000 1.693670 
# 
# From -- ./inp_files/39605.got.cif
#   From: 2010.06.25/outbox.cif.g09.slc.cpg/sg10_20_cif.got.tgz:39605.got - 2010.06.27 22:07:45.
