data_PCOD8059001
_publ_section_title
;
Structure prediction by ZEFSAII (Michael W. Deem and Ramdas Pophale) SiO2 
 PCOD8059001
Probable space group: P 2/M
;
_chemical_formula_sum "Si O2"
_cell_formula_units_Z 32
_cell_length_a 14.683679
_cell_length_b 9.023888
_cell_length_c 14.539741
_cell_angle_alpha 90.000000
_cell_angle_beta 58.200095
_cell_angle_gamma 90.000000
_cell_volume 1637.381166
_symmetry_space_group_name_H-M "P 2/M"
_symmetry_group_IT_number 10
_symmetry_cell_setting 'monoclinic'
loop_
_space_group_symop_operation_xyz
x,y,z
-x,y,-z
-x,-y,-z
x,-y,z
loop_
_atom_site_type_symbol
_atom_site_label
_atom_site_fract_x
_atom_site_fract_y
_atom_site_fract_z
Si Si1 0.602651 0.329933 0.002999
Si Si2 0.320513 0.323664 0.367579
Si Si3 0.528135 0.826038 0.211090
Si Si4 0.386130 0.329166 0.530227
Si Si5 0.891189 0.323083 0.012076
Si Si6 0.897212 0.323031 0.609349
Si Si7 0.160083 0.328631 0.162760
Si Si8 0.691503 0.329076 0.237650
O O1 0.592792 0.500000 0.041267
O O2 0.608084 0.222600 0.087335
O O3 0.500000 0.280840 0.000000
O O4 0.712629 0.306330 0.888975
O O5 0.327695 0.500000 0.355866
O O6 0.413691 0.252042 0.255996
O O7 0.336554 0.261301 0.463120
O O8 0.207147 0.266363 0.389682
O O9 0.584940 0.765060 0.272338
O O10 0.512931 0.000000 0.223540
O O11 0.500000 0.256017 0.500000
O O12 0.409338 0.500000 0.496033
O O13 0.296536 0.311465 0.658322
O O14 0.890371 0.500000 0.010159
O O15 0.794990 0.266659 0.128928
O O16 0.878628 0.258390 0.914397
O O17 0.000000 0.262380 0.000000
O O18 0.898620 0.500000 0.611130
O O19 0.896829 0.261567 0.715453
O O20 0.000000 0.260578 0.500000
O O21 0.130558 0.500000 0.172761
O O22 0.671108 0.500000 0.221528
#
# Coordination Sequence:
#
# PCOD8059001 Si02
#       8
#     4   4   4   4   4   4   4   4
#     4  10  19  33  55  79 104 142 182 215 264 324
#     4  10  19  34  54  76 106 144 181 218 267 323
#     4  12  23  33  50  78 111 141 176 223 272 317
#     4   9  16  27  49  76 100 133 179 220 259 313
#     4   9  17  28  47  75 104 133 170 218 264 310
#     4   9  18  31  50  78 109 137 170 217 262 306
#     4   9  16  28  47  74 105 137 172 209 256 316
#     4  10  18  33  53  73 103 140 177 217 268 324
#
# _framework density 19.543403000000001
#
# number of rings (size 3 to 8) (size 9 to 14) (size 15 to 20)
#    0.000    2.250    2.500    1.875    0.000    3.250 
#    0.000    6.250    0.000    0.750    0.000    0.000 
#    0.000    0.000    0.000    0.000    0.000    0.000 
#
# Total GULP energy -396602.124526 kJ/mol
# GULP energy per Si atom -12393.816391 kJ/mol
# Density = 1.949892 g / cm^3
# Si number density = 19.543403 Si / 1000 Ang^3
#
#
#
# Elastic Constant Matrix: (Units=GPa)
#
#
# Indices 1 2 3 4 5 6 
#
# 1 119.8877 11.1870 56.1431 0.0000 -2.2456 0.0000
# 2 11.1870 31.5189 11.6984 0.0000 -3.5807 0.0000
# 3 56.1431 11.6984 146.2245 0.0000 2.2285 0.0000
# 4 0.0000 0.0000 0.0000 2.5795 0.0000 -0.2633
# 5 -2.2456 -3.5807 2.2285 0.0000 33.5216 0.0000
# 6 0.0000 0.0000 0.0000 -0.2633 0.0000 3.7543
#
#
#
# Elastic Compliance Matrix: (Units=1/GPa)
#
#
# Indices 1 2 3 4 5 6 
#
# 1 0.010340 -0.002176 -0.003807 0.000000 0.000713 0.000000
# 2 -0.002176 0.033613 -0.001908 0.000000 0.003572 0.000000
# 3 -0.003807 -0.001908 0.008469 0.000000 -0.001022 0.000000
# 4 0.000000 0.000000 0.000000 0.390469 0.000000 0.027385
# 5 0.000713 0.003572 -0.001022 0.000000 0.030329 0.000000
# 6 0.000000 0.000000 0.000000 0.027385 0.000000 0.268282
#
#
# Mechanical properties :
#
#
# Convention : Reuss Voigt Hill
#
# Bulk Modulus (GPa) = 27.29250 50.63201 38.96225
# Shear Modulus (GPa) = 6.49774 22.54457 14.52116
#
# Velocity S-wave (km/s) = 1.82537 3.40010 2.72880
# Velocity P-wave (km/s) = 4.29395 6.43257 5.46882
#
# Compressibility (1/GPa) = 0.03664011
#
# Stress axis : x y z
#
# Youngs Moduli (GPa) = 96.70847 29.75010 118.08164
#
# Poissons Ratio (x) = 0.06474 0.44953
# Poissons Ratio (y) = 0.21045 0.22531
# Poissons Ratio (z) = 0.36817 0.05677
#
# Static dielectric constant tensor:
#      x y z
#    x 3.730440 0.000000 0.134580 
#    y 0.000000 2.809260 0.000000 
#    z 0.134580 0.000000 3.819980 
# 
# 
# High freq. dielectric constant tensor:
#      x y z
#    x 1.759200 0.000000 0.008590 
#    y 0.000000 1.677600 0.000000 
#    z 0.008590 0.000000 1.777770 
# 
# From -- ./inp_files/66452.got.cif
#   From: 2010.06.25/outbox.cif.g09.slc.cpg/sg10_34_cif.got.tgz:66452.got - 2010.06.27 22:07:45.
