data_PCOD8059863
_publ_section_title
;
Structure prediction by ZEFSAII (Michael W. Deem and Ramdas Pophale) SiO2 
 PCOD8059863
Probable space group: P 2/M
;
_chemical_formula_sum "Si O2"
_cell_formula_units_Z 28
_cell_length_a 20.292941
_cell_length_b 16.765371
_cell_length_c 23.211565
_cell_angle_alpha 90.000000
_cell_angle_beta 11.110807
_cell_angle_gamma 90.000000
_cell_volume 1521.809155
_symmetry_space_group_name_H-M "P 2/M"
_symmetry_group_IT_number 10
_symmetry_cell_setting 'monoclinic'
loop_
_space_group_symop_operation_xyz
x,y,z
-x,y,-z
-x,-y,-z
x,-y,z
loop_
_atom_site_type_symbol
_atom_site_label
_atom_site_fract_x
_atom_site_fract_y
_atom_site_fract_z
Si Si1 0.875910 0.381765 0.670844
Si Si2 0.337880 0.091324 0.362701
Si Si3 0.794701 0.309284 0.918390
Si Si4 0.142764 0.780268 0.438774
Si Si5 0.609737 0.906479 0.342969
Si Si6 0.299880 0.587481 0.409474
Si Si7 0.916418 0.851715 0.297657
O O1 0.000000 0.393722 0.500000
O O2 0.881422 0.287908 0.684674
O O3 0.128599 0.430363 0.494759
O O4 0.500000 0.416946 0.000000
O O5 0.151870 0.146000 0.474698
O O6 0.164827 0.105956 0.572447
O O7 0.280391 0.000000 0.393830
O O8 0.739014 0.109966 0.023465
O O9 0.018088 0.373037 0.692331
O O10 0.048493 0.242934 0.725424
O O11 0.514157 0.264728 0.118061
O O12 0.620220 0.353649 0.123052
O O13 0.000000 0.812318 0.500000
O O14 0.500000 0.877324 0.500000
O O15 0.389774 0.862142 0.483935
O O16 0.549301 0.000000 0.386775
O O17 0.000000 0.881954 0.000000
O O18 0.412557 0.500000 0.337263
#
# Coordination Sequence:
#
# PCOD8059863 Si02
#       7
#     4   4   4   4   4   4   4
#     4  10  19  31  47  66  91 127 164 202 264 330
#     4  11  22  34  52  76 101 139 184 225 268 300
#     4  10  21  36  54  75  98 138 177 206 260 319
#     4   9  19  34  52  69  97 135 182 229 267 308
#     4  10  20  33  53  83 114 141 168 204 252 298
#     4  11  21  34  51  74 102 125 162 219 264 309
#     4  11  21  38  57  75 109 144 177 211 248 315
#
# _framework density 18.399152999999998
#
# number of rings (size 3 to 8) (size 9 to 14) (size 15 to 20)
#    0.000    1.714    0.000    7.714    0.000    4.286 
#    0.000    0.000    0.000    5.143    0.000    0.000 
#    0.000   11.429    0.000    0.000    0.000    0.000 
#
# Total GULP energy -347108.145625 kJ/mol
# GULP energy per Si atom -12396.719487 kJ/mol
# Density = 1.835728 g / cm^3
# Si number density = 18.399153 Si / 1000 Ang^3
#
#
#
# Elastic Constant Matrix: (Units=GPa)
#
#
# Indices 1 2 3 4 5 6 
#
# 1 83.2255 37.0425 31.6324 0.0000 -7.7270 0.0000
# 2 37.0425 109.4318 24.5803 0.0000 -0.2897 0.0000
# 3 31.6324 24.5803 80.2181 0.0000 11.2669 0.0000
# 4 0.0000 0.0000 0.0000 14.9487 0.0000 5.9265
# 5 -7.7270 -0.2897 11.2669 0.0000 34.0631 0.0000
# 6 0.0000 0.0000 0.0000 5.9265 0.0000 15.3649
#
#
#
# Elastic Compliance Matrix: (Units=1/GPa)
#
#
# Indices 1 2 3 4 5 6 
#
# 1 0.016791 -0.004294 -0.006120 0.000000 0.005796 0.000000
# 2 -0.004294 0.010953 -0.001614 0.000000 -0.000347 0.000000
# 3 -0.006120 -0.001614 0.016329 0.000000 -0.006803 0.000000
# 4 0.000000 0.000000 0.000000 0.078972 0.000000 -0.030461
# 5 0.005796 -0.000347 -0.006803 0.000000 0.032919 0.000000
# 6 0.000000 0.000000 0.000000 -0.030461 0.000000 0.076833
#
#
# Mechanical properties :
#
#
# Convention : Reuss Voigt Hill
#
# Bulk Modulus (GPa) = 49.95520 51.04285 50.49903
# Shear Modulus (GPa) = 18.97353 24.85004 21.91178
#
# Velocity S-wave (km/s) = 3.21474 3.67905 3.45470
# Velocity P-wave (km/s) = 6.40228 6.77122 6.58933
#
# Compressibility (1/GPa) = 0.02001793
#
# Stress axis : x y z
#
# Youngs Moduli (GPa) = 59.55678 91.29726 61.23957
#
# Poissons Ratio (x) = 0.39201 0.37476
# Poissons Ratio (y) = 0.25572 0.09887
# Poissons Ratio (z) = 0.36446 0.14739
#
# Static dielectric constant tensor:
#      x y z
#    x 3.175360 0.000000 0.133350 
#    y 0.000000 3.497530 0.000000 
#    z 0.133350 0.000000 3.421540 
# 
# 
# High freq. dielectric constant tensor:
#      x y z
#    x 1.686140 0.000000 0.021850 
#    y 0.000000 1.713070 0.000000 
#    z 0.021850 0.000000 1.717600 
# 
# From -- ./inp_files/90486.got.cif
#   From: 2010.06.25/outbox.cif.g09.slc.cpg/sg10_46_cif.got.tgz:90486.got - 2010.06.27 22:07:45.
