data_PCOD8059341
_publ_section_title
;
Structure prediction by ZEFSAII (Michael W. Deem and Ramdas Pophale) SiO2 
 PCOD8059341
Probable space group: P 2/M
;
_chemical_formula_sum "Si O2"
_cell_formula_units_Z 28
_cell_length_a 13.659856
_cell_length_b 8.877120
_cell_length_c 14.642502
_cell_angle_alpha 90.000000
_cell_angle_beta 102.951274
_cell_angle_gamma 90.000000
_cell_volume 1730.384194
_symmetry_space_group_name_H-M "P 2/M"
_symmetry_group_IT_number 10
_symmetry_cell_setting 'monoclinic'
loop_
_space_group_symop_operation_xyz
x,y,z
-x,y,-z
-x,-y,-z
x,-y,z
loop_
_atom_site_type_symbol
_atom_site_label
_atom_site_fract_x
_atom_site_fract_y
_atom_site_fract_z
Si Si1 0.372263 0.324698 0.901500
Si Si2 0.409360 0.678356 0.106562
Si Si3 0.716862 0.321380 0.567501
Si Si4 0.416565 0.824017 0.603188
Si Si5 0.635315 0.823178 0.717679
Si Si6 0.732635 0.325214 0.295174
Si Si7 0.889836 0.676009 0.469919
O O1 0.391186 0.500000 0.917365
O O2 0.474970 0.264198 0.876311
O O3 0.276584 0.290056 0.815494
O O4 0.354843 0.265136 0.000957
O O5 0.401020 0.500000 0.120849
O O6 0.353348 0.759960 0.177874
O O7 0.715270 0.500000 0.572603
O O8 0.616975 0.264902 0.494359
O O9 0.719277 0.252008 0.669701
O O10 0.814602 0.261369 0.532114
O O11 0.528210 0.776359 0.653839
O O12 0.346176 0.782297 0.672779
O O13 0.408933 0.000000 0.579800
O O14 0.652581 0.000000 0.723801
O O15 0.704159 0.500000 0.309126
O O16 0.843573 0.291883 0.358950
O O17 0.901894 0.500000 0.489555
O O18 0.000000 0.753489 0.500000
#
# Coordination Sequence:
#
# PCOD8059341 Si02
#       7
#     4   4   4   4   4   4   4
#     4   8  14  25  42  64  85 112 149 184 211 240
#     4   9  16  27  43  60  85 117 150 183 208 244
#     4  10  20  31  46  63  81 113 149 177 210 259
#     4  10  19  29  40  59  89 119 144 176 212 246
#     4  11  21  30  40  60  90 120 146 177 215 249
#     4   9  15  26  46  66  86 115 148 175 208 258
#     4   8  15  28  46  69  90 105 131 177 224 259
#
# _framework density 16.181379
#
# number of rings (size 3 to 8) (size 9 to 14) (size 15 to 20)
#    0.000    2.714    1.429    3.429    0.000    3.429 
#    0.000    2.143    0.000   10.714    0.000    1.000 
#    0.000    8.000    0.000    0.000    0.000    0.000 
#
# Total GULP energy -346956.813853 kJ/mol
# GULP energy per Si atom -12391.314780 kJ/mol
# Density = 1.614455 g / cm^3
# Si number density = 16.181379 Si / 1000 Ang^3
#
#
#
# Elastic Constant Matrix: (Units=GPa)
#
#
# Indices 1 2 3 4 5 6 
#
# 1 64.7952 14.6231 53.6874 0.0000 5.0509 0.0000
# 2 14.6231 35.1550 27.0338 0.0000 -2.0482 0.0000
# 3 53.6874 27.0338 149.4824 0.0000 -5.8985 0.0000
# 4 0.0000 0.0000 0.0000 14.2706 0.0000 -1.0207
# 5 5.0509 -2.0482 -5.8985 0.0000 19.1674 0.0000
# 6 0.0000 0.0000 0.0000 -1.0207 0.0000 8.8076
#
#
#
# Elastic Compliance Matrix: (Units=1/GPa)
#
#
# Indices 1 2 3 4 5 6 
#
# 1 0.023881 -0.004177 -0.008187 0.000000 -0.009259 0.000000
# 2 -0.004177 0.033827 -0.004486 0.000000 0.003335 0.000000
# 3 -0.008187 -0.004486 0.010637 0.000000 0.004951 0.000000
# 4 0.000000 0.000000 0.000000 0.070660 0.000000 0.008189
# 5 -0.009259 0.003335 0.004951 0.000000 0.056492 0.000000
# 6 0.000000 0.000000 0.000000 0.008189 0.000000 0.114487
#
#
# Mechanical properties :
#
#
# Convention : Reuss Voigt Hill
#
# Bulk Modulus (GPa) = 28.86438 48.90238 38.88338
# Shear Modulus (GPa) = 14.07531 18.72167 16.39849
#
# Velocity S-wave (km/s) = 2.95252 3.40514 3.18688
# Velocity P-wave (km/s) = 5.43138 6.76365 6.13379
#
# Compressibility (1/GPa) = 0.03464478
#
# Stress axis : x y z
#
# Youngs Moduli (GPa) = 41.87397 29.56236 94.01396
#
# Poissons Ratio (x) = 0.12349 0.76968
# Poissons Ratio (y) = 0.17493 0.42171
# Poissons Ratio (z) = 0.34282 0.13261
#
# Static dielectric constant tensor:
#      x y z
#    x 2.944900 0.000000 -0.000600 
#    y 0.000000 2.811380 0.000000 
#    z -0.000600 0.000000 3.323450 
# 
# 
# High freq. dielectric constant tensor:
#      x y z
#    x 1.573010 0.000000 -0.005180 
#    y 0.000000 1.601840 0.000000 
#    z -0.005180 0.000000 1.631920 
# 
# From -- ./inp_files/65764.got.cif
#   From: 2010.06.25/outbox.cif.g09.slc.cpg/sg10_33_cif.got.tgz:65764.got - 2010.06.27 22:07:45.
