data_PCOD8059199
_publ_section_title
;
Structure prediction by ZEFSAII (Michael W. Deem and Ramdas Pophale) SiO2 
 PCOD8059199
Probable space group: P 2/M
;
_chemical_formula_sum "Si O2"
_cell_formula_units_Z 28
_cell_length_a 19.539249
_cell_length_b 8.543177
_cell_length_c 14.193474
_cell_angle_alpha 90.000000
_cell_angle_beta 142.446516
_cell_angle_gamma 90.000000
_cell_volume 1444.078911
_symmetry_space_group_name_H-M "P 2/M"
_symmetry_group_IT_number 10
_symmetry_cell_setting 'monoclinic'
loop_
_space_group_symop_operation_xyz
x,y,z
-x,y,-z
-x,-y,-z
x,-y,z
loop_
_atom_site_type_symbol
_atom_site_label
_atom_site_fract_x
_atom_site_fract_y
_atom_site_fract_z
Si Si1 0.415252 0.316308 0.236972
Si Si2 0.670553 0.316758 0.507561
Si Si3 0.744663 0.182469 0.782022
Si Si4 0.770547 0.682734 0.105660
Si Si5 0.076147 0.684152 0.894052
Si Si6 0.146306 0.819039 0.416303
Si Si7 0.123596 0.680528 0.593596
O O1 0.407275 0.500000 0.252615
O O2 0.542121 0.257255 0.367733
O O3 0.354744 0.223652 0.254303
O O4 0.353580 0.280082 0.069821
O O5 0.675725 0.500000 0.493003
O O6 0.728326 0.279049 0.669231
O O7 0.731893 0.227980 0.489488
O O8 0.741406 0.000000 0.754932
O O9 0.866675 0.229119 0.955358
O O10 0.794081 0.500000 0.138873
O O11 0.863451 0.749182 0.134537
O O12 0.789788 0.747738 0.232296
O O13 0.095133 0.500000 0.927903
O O14 0.945110 0.722644 0.743875
O O15 0.140685 0.783997 0.520500
O O16 0.123032 0.000000 0.373830
O O17 0.146819 0.500000 0.591943
O O18 0.000000 0.700879 0.500000
#
# Coordination Sequence:
#
# PCOD8059199 Si02
#       7
#     4   4   4   4   4   4   4
#     4   9  19  37  61  86 111 148 198 242 275 326
#     4  11  23  40  59  79 109 155 203 238 276 333
#     4  11  22  36  58  89 119 147 183 233 293 342
#     4   8  15  31  58  87 111 137 183 239 279 318
#     4  10  19  37  60  84 113 149 192 233 276 335
#     4  12  25  38  54  83 120 151 185 235 297 347
#     4  10  18  34  60  87 112 148 190 228 278 343
#
# _framework density 19.389523000000001
#
# number of rings (size 3 to 8) (size 9 to 14) (size 15 to 20)
#    0.000    1.857    1.429    4.714    0.000    3.714 
#    0.000    4.286    0.000    4.286    0.000    0.000 
#    0.000    0.000    0.000    0.000    0.000    0.000 
#
# Total GULP energy -347227.789306 kJ/mol
# GULP energy per Si atom -12400.992475 kJ/mol
# Density = 1.934539 g / cm^3
# Si number density = 19.389523 Si / 1000 Ang^3
#
#
#
# Elastic Constant Matrix: (Units=GPa)
#
#
# Indices 1 2 3 4 5 6 
#
# 1 70.4673 13.9221 33.9397 0.0000 -3.3845 0.0000
# 2 13.9221 48.6256 13.1515 0.0000 0.3405 0.0000
# 3 33.9397 13.1515 83.0716 0.0000 -15.6013 0.0000
# 4 0.0000 0.0000 0.0000 18.8940 0.0000 2.8638
# 5 -3.3845 0.3405 -15.6013 0.0000 23.6910 0.0000
# 6 0.0000 0.0000 0.0000 2.8638 0.0000 11.5035
#
#
#
# Elastic Compliance Matrix: (Units=1/GPa)
#
#
# Indices 1 2 3 4 5 6 
#
# 1 0.018270 -0.003223 -0.007366 0.000000 -0.002195 0.000000
# 2 -0.003223 0.022231 -0.002681 0.000000 -0.002545 0.000000
# 3 -0.007366 -0.002681 0.017438 0.000000 0.010470 0.000000
# 4 0.000000 0.000000 0.000000 0.055002 0.000000 -0.013693
# 5 -0.002195 -0.002545 0.010470 0.000000 0.048828 0.000000
# 6 0.000000 0.000000 0.000000 -0.013693 0.000000 0.090339
#
#
# Mechanical properties :
#
#
# Convention : Reuss Voigt Hill
#
# Bulk Modulus (GPa) = 31.84834 36.02123 33.93478
# Shear Modulus (GPa) = 17.29413 20.22778 18.76095
#
# Velocity S-wave (km/s) = 2.98976 3.23342 3.11397
# Velocity P-wave (km/s) = 5.32724 5.70596 5.51985
#
# Compressibility (1/GPa) = 0.03139881
#
# Stress axis : x y z
#
# Youngs Moduli (GPa) = 54.73363 44.98223 57.34581
#
# Poissons Ratio (x) = 0.14499 0.42243
# Poissons Ratio (y) = 0.17642 0.15372
# Poissons Ratio (z) = 0.40319 0.12058
#
# Static dielectric constant tensor:
#      x y z
#    x 3.478280 0.000000 -0.116870 
#    y 0.000000 3.320460 0.000000 
#    z -0.116870 0.000000 3.824750 
# 
# 
# High freq. dielectric constant tensor:
#      x y z
#    x 1.738760 0.000000 -0.007680 
#    y 0.000000 1.739530 0.000000 
#    z -0.007680 0.000000 1.766400 
# 
# From -- ./inp_files/68691.got.cif
#   From: 2010.06.25/outbox.cif.g09.slc.cpg/sg10_35_cif.got.tgz:68691.got - 2010.06.27 22:07:45.
