data_PCOD8059000
_publ_section_title
;
Structure prediction by ZEFSAII (Michael W. Deem and Ramdas Pophale) SiO2 
 PCOD8059000
Probable space group: P 2/M
;
_chemical_formula_sum "Si O2"
_cell_formula_units_Z 32
_cell_length_a 25.053681
_cell_length_b 16.932480
_cell_length_c 10.217002
_cell_angle_alpha 90.000000
_cell_angle_beta 154.717741
_cell_angle_gamma 90.000000
_cell_volume 1851.069374
_symmetry_space_group_name_H-M "P 2/M"
_symmetry_group_IT_number 10
_symmetry_cell_setting 'monoclinic'
loop_
_space_group_symop_operation_xyz
x,y,z
-x,y,-z
-x,-y,-z
x,-y,z
loop_
_atom_site_type_symbol
_atom_site_label
_atom_site_fract_x
_atom_site_fract_y
_atom_site_fract_z
Si Si1 0.997766 0.688715 0.643797
Si Si2 0.560043 0.589467 0.273327
Si Si3 0.096846 0.591588 0.329763
Si Si4 0.651415 0.323469 0.097326
Si Si5 0.499670 0.178452 0.854882
Si Si6 0.275010 0.726647 0.270469
Si Si7 0.745555 0.233834 0.069936
Si Si8 0.397731 0.088880 0.161566
O O1 0.000000 0.654212 0.500000
O O2 0.962802 0.617912 0.664350
O O3 0.893714 0.757234 0.420125
O O4 0.127327 0.730620 0.972953
O O5 0.607004 0.500000 0.383677
O O6 0.679691 0.641886 0.575379
O O7 0.500000 0.610902 0.000000
O O8 0.449100 0.605580 0.131277
O O9 0.134617 0.500000 0.425050
O O10 0.217437 0.643573 0.557303
O O11 0.000000 0.606629 0.000000
O O12 0.666106 0.292355 0.983917
O O13 0.593641 0.253846 0.059925
O O14 0.355336 0.204194 0.514570
O O15 0.542301 0.114273 0.843570
O O16 0.500000 0.140069 0.000000
O O17 0.299237 0.739064 0.170955
O O18 0.716566 0.143737 0.045344
O O19 0.500000 0.095016 0.500000
O O20 0.346554 0.000000 0.033286
#
# Coordination Sequence:
#
# PCOD8059000 Si02
#       8
#     4   4   4   4   4   4   4   4
#     4   9  20  35  53  72  98 134 175 214 257 301
#     4  10  21  32  46  69  99 136 173 217 269 311
#     4  10  21  32  47  70  98 135 176 222 265 300
#     4   9  18  33  49  68 101 130 174 213 258 301
#     4  10  20  31  53  82 105 136 168 210 253 301
#     4  10  18  33  53  73 102 133 173 216 252 306
#     4   9  18  35  54  77  99 132 168 212 248 307
#     4  10  19  34  58  83 108 137 163 199 253 310
#
# _framework density 17.287305
#
# number of rings (size 3 to 8) (size 9 to 14) (size 15 to 20)
#    0.000    2.375    1.250    1.875    3.500    1.000 
#    0.000    6.250    0.000    4.125    0.000    0.875 
#    0.000    0.000    0.000    0.000    0.000    0.000 
#
# Total GULP energy -396636.519213 kJ/mol
# GULP energy per Si atom -12394.891225 kJ/mol
# Density = 1.724796 g / cm^3
# Si number density = 17.287305 Si / 1000 Ang^3
#
#
#
# Elastic Constant Matrix: (Units=GPa)
#
#
# Indices 1 2 3 4 5 6 
#
# 1 92.1180 39.5340 45.6870 0.0000 -5.4032 0.0000
# 2 39.5340 96.7204 48.1762 0.0000 -7.9390 0.0000
# 3 45.6870 48.1762 98.5082 0.0000 3.1219 0.0000
# 4 0.0000 0.0000 0.0000 19.1047 0.0000 -0.9443
# 5 -5.4032 -7.9390 3.1219 0.0000 28.1753 0.0000
# 6 0.0000 0.0000 0.0000 -0.9443 0.0000 13.8684
#
#
#
# Elastic Compliance Matrix: (Units=1/GPa)
#
#
# Indices 1 2 3 4 5 6 
#
# 1 0.015130 -0.003218 -0.005526 0.000000 0.002607 0.000000
# 2 -0.003218 0.014977 -0.005967 0.000000 0.004264 0.000000
# 3 -0.005526 -0.005967 0.015775 0.000000 -0.004489 0.000000
# 4 0.000000 0.000000 0.000000 0.052520 0.000000 0.003576
# 5 0.002607 0.004264 -0.004489 0.000000 0.037691 0.000000
# 6 0.000000 0.000000 0.000000 0.003576 0.000000 0.072350
#
#
# Mechanical properties :
#
#
# Convention : Reuss Voigt Hill
#
# Bulk Modulus (GPa) = 60.75519 61.57124 61.16322
# Shear Modulus (GPa) = 20.54643 22.49298 21.51971
#
# Velocity S-wave (km/s) = 3.45124 3.61103 3.53204
# Velocity P-wave (km/s) = 7.14857 7.28559 7.21741
#
# Compressibility (1/GPa) = 0.01645950
#
# Stress axis : x y z
#
# Youngs Moduli (GPa) = 66.09229 66.77093 63.39160
#
# Poissons Ratio (x) = 0.21486 0.35031
# Poissons Ratio (y) = 0.21268 0.37827
# Poissons Ratio (z) = 0.36524 0.39843
#
# Static dielectric constant tensor:
#      x y z
#    x 3.404400 0.000000 0.014860 
#    y 0.000000 3.098700 0.000000 
#    z 0.014860 0.000000 3.252150 
# 
# 
# High freq. dielectric constant tensor:
#      x y z
#    x 1.679550 0.000000 -0.001480 
#    y 0.000000 1.640740 0.000000 
#    z -0.001480 0.000000 1.668080 
# 
# From -- ./inp_files/36477.got.cif
#   From: 2010.06.25/outbox.cif.g09.slc.cpg/sg10_19_cif.got.tgz:36477.got - 2010.06.27 22:07:45.
