data_PCOD8059400
_publ_section_title
;
Structure prediction by ZEFSAII (Michael W. Deem and Ramdas Pophale) SiO2 
 PCOD8059400
Probable space group: P 2/M
;
_chemical_formula_sum "Si O2"
_cell_formula_units_Z 32
_cell_length_a 13.044913
_cell_length_b 9.519037
_cell_length_c 26.095884
_cell_angle_alpha 90.000000
_cell_angle_beta 32.610921
_cell_angle_gamma 90.000000
_cell_volume 1746.383683
_symmetry_space_group_name_H-M "P 2/M"
_symmetry_group_IT_number 10
_symmetry_cell_setting 'monoclinic'
loop_
_space_group_symop_operation_xyz
x,y,z
-x,y,-z
-x,-y,-z
x,-y,z
loop_
_atom_site_type_symbol
_atom_site_label
_atom_site_fract_x
_atom_site_fract_y
_atom_site_fract_z
Si Si1 0.416947 0.333664 0.588781
Si Si2 0.558799 0.664100 0.741048
Si Si3 0.639788 0.340605 0.987443
Si Si4 0.981532 0.658460 0.774744
Si Si5 0.614514 0.663615 0.606556
Si Si6 0.110076 0.154516 0.276496
Si Si7 0.539125 0.157041 0.126167
Si Si8 0.016637 0.659429 0.403215
O O1 0.500000 0.271856 0.500000
O O2 0.443031 0.500000 0.576855
O O3 0.197849 0.290169 0.689592
O O4 0.527635 0.267681 0.591321
O O5 0.508340 0.500000 0.769871
O O6 0.518018 0.718377 0.700079
O O7 0.429095 0.754395 0.834768
O O8 0.783626 0.689318 0.654120
O O9 0.583304 0.500000 0.027379
O O10 0.861729 0.334769 0.877699
O O11 0.500000 0.292474 0.000000
O O12 0.627083 0.238146 0.041048
O O13 0.977032 0.500000 0.754480
O O14 0.870623 0.762571 0.784231
O O15 0.569909 0.500000 0.622938
O O16 0.841619 0.690088 0.515139
O O17 0.316171 0.141793 0.213717
O O18 0.977877 0.241890 0.370608
O O19 0.021902 0.000000 0.304779
O O20 0.629524 0.000000 0.092499
O O21 0.007188 0.500000 0.386859
#
# Coordination Sequence:
#
# PCOD8059400 Si02
#       8
#     4   4   4   4   4   4   4   4
#     4   9  17  29  48  75 102 127 159 199 239 281
#     4   9  17  29  48  72  98 127 161 201 243 288
#     4  10  19  31  49  73 100 127 159 201 246 289
#     4  10  19  31  49  71  96 129 165 198 238 287
#     4   9  16  28  48  73  97 124 163 207 244 281
#     4  10  19  29  43  67  99 130 159 194 238 290
#     4  10  20  32  47  70 100 130 158 192 243 300
#     4   9  16  27  46  70  96 126 161 198 240 287
#
# _framework density 18.32358
#
# number of rings (size 3 to 8) (size 9 to 14) (size 15 to 20)
#    0.000    2.500    1.250    1.875    0.000    5.250 
#    0.000    0.625    0.000    7.875    0.000    5.250 
#    0.000    0.000    0.000    0.000    0.000    0.000 
#
# Total GULP energy -396551.293467 kJ/mol
# GULP energy per Si atom -12392.227921 kJ/mol
# Density = 1.828187 g / cm^3
# Si number density = 18.323580 Si / 1000 Ang^3
#
#
#
# Elastic Constant Matrix: (Units=GPa)
#
#
# Indices 1 2 3 4 5 6 
#
# 1 70.7372 31.3028 42.3959 0.0000 27.6642 0.0000
# 2 31.3028 82.9192 39.2521 0.0000 23.0578 0.0000
# 3 42.3959 39.2521 105.4643 0.0000 22.3937 0.0000
# 4 0.0000 0.0000 0.0000 9.3140 0.0000 -1.1150
# 5 27.6642 23.0578 22.3937 0.0000 35.4996 0.0000
# 6 0.0000 0.0000 0.0000 -1.1150 0.0000 5.5825
#
#
#
# Elastic Compliance Matrix: (Units=1/GPa)
#
#
# Indices 1 2 3 4 5 6 
#
# 1 0.024005 -0.002581 -0.005858 0.000000 -0.013335 0.000000
# 2 -0.002581 0.016602 -0.003786 0.000000 -0.006384 0.000000
# 3 -0.005858 -0.003786 0.013572 0.000000 -0.001538 0.000000
# 4 0.000000 0.000000 0.000000 0.109995 0.000000 0.021969
# 5 -0.013335 -0.006384 -0.001538 0.000000 0.043677 0.000000
# 6 0.000000 0.000000 0.000000 0.021969 0.000000 0.183518
#
#
# Mechanical properties :
#
#
# Convention : Reuss Voigt Hill
#
# Bulk Modulus (GPa) = 33.63656 53.89136 43.76396
# Shear Modulus (GPa) = 11.74460 19.82389 15.78425
#
# Velocity S-wave (km/s) = 2.53446 3.29276 2.93817
# Velocity P-wave (km/s) = 5.19244 6.62806 5.95368
#
# Compressibility (1/GPa) = 0.02972955
#
# Stress axis : x y z
#
# Youngs Moduli (GPa) = 41.65812 60.23541 73.68009
#
# Poissons Ratio (x) = 0.15547 0.43160
# Poissons Ratio (y) = 0.10752 0.27894
# Poissons Ratio (z) = 0.24402 0.22804
#
# Static dielectric constant tensor:
#      x y z
#    x 3.327520 0.000000 0.202960 
#    y 0.000000 3.338810 0.000000 
#    z 0.202960 0.000000 3.349900 
# 
# 
# High freq. dielectric constant tensor:
#      x y z
#    x 1.683390 0.000000 0.021070 
#    y 0.000000 1.678810 0.000000 
#    z 0.021070 0.000000 1.706630 
# 
# From -- ./inp_files/66602.got.cif
#   From: 2010.06.25/outbox.cif.g09.slc.cpg/sg10_34_cif.got.tgz:66602.got - 2010.06.27 22:07:45.
