data_PCOD8059319
_publ_section_title
;
Structure prediction by ZEFSAII (Michael W. Deem and Ramdas Pophale) SiO2 
 PCOD8059319
Probable space group: P 2/M
;
_chemical_formula_sum "Si O2"
_cell_formula_units_Z 32
_cell_length_a 14.638699
_cell_length_b 9.189387
_cell_length_c 13.819317
_cell_angle_alpha 90.000000
_cell_angle_beta 89.156550
_cell_angle_gamma 90.000000
_cell_volume 1858.782362
_symmetry_space_group_name_H-M "P 2/M"
_symmetry_group_IT_number 10
_symmetry_cell_setting 'monoclinic'
loop_
_space_group_symop_operation_xyz
x,y,z
-x,y,-z
-x,-y,-z
x,-y,z
loop_
_atom_site_type_symbol
_atom_site_label
_atom_site_fract_x
_atom_site_fract_y
_atom_site_fract_z
Si Si1 0.197761 0.838849 0.171339
Si Si2 0.245495 0.173267 0.878013
Si Si3 0.602801 0.167977 0.472293
Si Si4 0.661920 0.666281 0.283133
Si Si5 0.893363 0.667047 0.985460
Si Si6 0.623156 0.160307 0.961048
Si Si7 0.469398 0.664866 0.189394
Si Si8 0.330908 0.832146 0.322214
O O1 0.128884 0.725495 0.122552
O O2 0.292533 0.840953 0.113223
O O3 0.229752 0.793259 0.279952
O O4 0.152554 0.000000 0.170794
O O5 0.257371 0.244111 0.771840
O O6 0.232443 0.000000 0.870983
O O7 0.156781 0.239284 0.931628
O O8 0.336774 0.215253 0.937343
O O9 0.500000 0.217330 0.500000
O O10 0.643605 0.266138 0.387622
O O11 0.669031 0.194121 0.562924
O O12 0.602459 0.000000 0.438755
O O13 0.693401 0.500000 0.296411
O O14 0.573743 0.676937 0.217284
O O15 0.861290 0.500000 0.992990
O O16 0.000000 0.683568 0.000000
O O17 0.543696 0.260369 0.916155
O O18 0.581203 0.000000 0.972929
O O19 0.436155 0.500000 0.179506
O O20 0.410866 0.737724 0.274608
O O21 0.354200 0.000000 0.298402
#
# Coordination Sequence:
#
# PCOD8059319 Si02
#       8
#     4   4   4   4   4   4   4   4
#     4   8  15  28  47  72 100 128 160 198 238 285
#     4  10  21  36  52  70  94 127 165 202 240 290
#     4  10  19  32  51  70  91 129 176 217 252 287
#     4  11  23  34  45  66  98 131 166 210 253 292
#     4  10  20  34  54  80 107 130 153 188 238 297
#     4   8  16  30  46  64  89 123 163 203 239 279
#     4  10  19  28  42  65  92 127 166 204 246 288
#     4   9  17  30  47  68  95 127 167 212 249 281
#
# _framework density 17.21557
#
# number of rings (size 3 to 8) (size 9 to 14) (size 15 to 20)
#    0.000    2.500    1.250    3.000    0.000    8.750 
#    0.000    2.500    0.000    0.000    0.000    0.875 
#    0.000    7.000    0.000    0.000    0.000    0.000 
#
# Total GULP energy -396658.308496 kJ/mol
# GULP energy per Si atom -12395.572140 kJ/mol
# Density = 1.717639 g / cm^3
# Si number density = 17.215570 Si / 1000 Ang^3
#
#
#
# Elastic Constant Matrix: (Units=GPa)
#
#
# Indices 1 2 3 4 5 6 
#
# 1 52.3256 37.9452 33.7594 0.0000 7.8812 0.0000
# 2 37.9452 108.0994 59.3834 0.0000 -1.9620 0.0000
# 3 33.7594 59.3834 108.7475 0.0000 3.1161 0.0000
# 4 0.0000 0.0000 0.0000 -1.1714 0.0000 29.8436
# 5 7.8812 -1.9620 3.1161 0.0000 19.3681 0.0000
# 6 0.0000 0.0000 0.0000 29.8436 0.0000 -8.2323
#
#
#
# Elastic Compliance Matrix: (Units=1/GPa)
#
#
# Indices 1 2 3 4 5 6 
#
# 1 0.029778 -0.008271 -0.004377 0.000000 -0.012251 0.000000
# 2 -0.008271 0.015635 -0.006140 0.000000 0.005937 0.000000
# 3 -0.004377 -0.006140 0.013938 0.000000 -0.001084 0.000000
# 4 0.000000 0.000000 0.000000 0.009344 0.000000 0.033875
# 5 -0.012251 0.005937 -0.001084 0.000000 0.057392 0.000000
# 6 0.000000 0.000000 0.000000 0.033875 0.000000 0.001330
#
#
# Mechanical properties :
#
#
# Convention : Reuss Voigt Hill
#
# Bulk Modulus (GPa) = 45.92306 59.03874 52.48090
# Shear Modulus (GPa) = 29.02749 11.19853 20.11301
#
# Velocity S-wave (km/s) = 4.11069 2.55323 3.42175
# Velocity P-wave (km/s) = 7.01880 6.56203 6.79426
#
# Compressibility (1/GPa) = 0.02177555
#
# Stress axis : x y z
#
# Youngs Moduli (GPa) = 33.58212 63.96012 71.74443
#
# Poissons Ratio (x) = 0.52899 0.31401
# Poissons Ratio (y) = 0.27774 0.44053
# Poissons Ratio (z) = 0.14698 0.39273
#
# Static dielectric constant tensor:
#      x y z
#    x 2.874190 0.000000 0.300050 
#    y 0.000000 3.353050 0.000000 
#    z 0.300050 0.000000 3.458160 
# 
# 
# High freq. dielectric constant tensor:
#      x y z
#    x 1.620990 0.000000 0.013230 
#    y 0.000000 1.671760 0.000000 
#    z 0.013230 0.000000 1.662510 
# 
# From -- ./inp_files/66123.got.cif
#   From: 2010.06.25/outbox.cif.g09.slc.cpg/sg10_34_cif.got.tgz:66123.got - 2010.06.27 22:07:45.
