data_PCOD8059844
_publ_section_title
;
Structure prediction by ZEFSAII (Michael W. Deem and Ramdas Pophale) SiO2 
 PCOD8059844
Probable space group: P 2/M
;
_chemical_formula_sum "Si O2"
_cell_formula_units_Z 32
_cell_length_a 21.408783
_cell_length_b 8.722732
_cell_length_c 31.017695
_cell_angle_alpha 90.000000
_cell_angle_beta 19.256474
_cell_angle_gamma 90.000000
_cell_volume 1910.298130
_symmetry_space_group_name_H-M "P 2/M"
_symmetry_group_IT_number 10
_symmetry_cell_setting 'monoclinic'
loop_
_space_group_symop_operation_xyz
x,y,z
-x,y,-z
-x,-y,-z
x,-y,z
loop_
_atom_site_type_symbol
_atom_site_label
_atom_site_fract_x
_atom_site_fract_y
_atom_site_fract_z
Si Si1 0.061032 0.317817 0.026910
Si Si2 0.289963 0.681645 0.798203
Si Si3 0.310510 0.821567 0.597227
Si Si4 0.326184 0.680955 0.493767
Si Si5 0.370407 0.327549 0.126322
Si Si6 0.054820 0.821339 0.282007
Si Si7 0.691606 0.179070 0.965305
Si Si8 0.935874 0.681303 0.878549
O O1 0.054321 0.500000 0.033178
O O2 0.091012 0.254216 0.055475
O O3 0.861744 0.255339 0.137821
O O4 0.231419 0.261514 0.884411
O O5 0.281037 0.500000 0.803292
O O6 0.499184 0.738038 0.649565
O O7 0.500000 0.786158 0.500000
O O8 0.340282 0.771806 0.528957
O O9 0.143187 0.724552 0.727083
O O10 0.255014 0.000000 0.634608
O O11 0.332616 0.500000 0.498693
O O12 0.137153 0.724280 0.591170
O O13 0.310145 0.500000 0.177338
O O14 0.182679 0.228159 0.239426
O O15 0.500000 0.322699 0.000000
O O16 0.488243 0.256648 0.089078
O O17 0.158858 0.780238 0.169535
O O18 0.008573 0.000000 0.315504
O O19 0.771388 0.241128 0.958016
O O20 0.656339 0.000000 0.991108
O O21 0.912224 0.500000 0.890856
#
# Coordination Sequence:
#
# PCOD8059844 Si02
#       8
#     4   4   4   4   4   4   4   4
#     4   8  15  29  48  70  95 122 157 205 254 289
#     4   8  15  29  48  70  95 122 157 205 254 289
#     4  11  23  35  45  62  95 134 163 193 241 295
#     4  11  20  30  49  73  96 124 163 204 239 282
#     4   9  17  29  47  69  94 123 162 203 234 272
#     4  10  19  31  46  66  98 134 162 190 235 290
#     4  10  19  31  46  66  98 134 162 190 235 290
#     4  11  20  30  49  73  96 124 163 204 239 282
#
# _framework density 16.751311000000001
#
# number of rings (size 3 to 8) (size 9 to 14) (size 15 to 20)
#    0.000    2.250    1.250    3.750    0.000    4.500 
#    0.000    0.000    0.000    3.000    0.000    9.625 
#    0.000    7.000    0.000    0.000    0.000    0.000 
#
# Total GULP energy -396775.755555 kJ/mol
# GULP energy per Si atom -12399.242361 kJ/mol
# Density = 1.671318 g / cm^3
# Si number density = 16.751311 Si / 1000 Ang^3
#
#
#
# Elastic Constant Matrix: (Units=GPa)
#
#
# Indices 1 2 3 4 5 6 
#
# 1 112.9042 18.3872 59.0277 0.0000 -10.5785 0.0000
# 2 18.3872 30.0630 12.0820 0.0000 -4.1386 0.0000
# 3 59.0277 12.0820 84.3838 0.0000 -3.4999 0.0000
# 4 0.0000 0.0000 0.0000 9.8909 0.0000 -10.1454
# 5 -10.5785 -4.1386 -3.4999 0.0000 25.9685 0.0000
# 6 0.0000 0.0000 0.0000 -10.1454 0.0000 23.5690
#
#
#
# Elastic Compliance Matrix: (Units=1/GPa)
#
#
# Indices 1 2 3 4 5 6 
#
# 1 0.015088 -0.004767 -0.009703 0.000000 0.004079 0.000000
# 2 -0.004767 0.037451 -0.001871 0.000000 0.003774 0.000000
# 3 -0.009703 -0.001871 0.018835 0.000000 -0.001712 0.000000
# 4 0.000000 0.000000 0.000000 0.181038 0.000000 0.077929
# 5 0.004079 0.003774 -0.001712 0.000000 0.040540 0.000000
# 6 0.000000 0.000000 0.000000 0.077929 0.000000 0.075974
#
#
# Mechanical properties :
#
#
# Convention : Reuss Voigt Hill
#
# Bulk Modulus (GPa) = 25.84517 45.14943 35.49730
# Shear Modulus (GPa) = 12.06258 21.07594 16.56926
#
# Velocity S-wave (km/s) = 2.68638 3.55091 3.14846
# Velocity P-wave (km/s) = 5.00843 6.61991 5.86974
#
# Compressibility (1/GPa) = 0.03869194
#
# Stress axis : x y z
#
# Youngs Moduli (GPa) = 66.27621 26.70174 53.09356
#
# Poissons Ratio (x) = 0.12730 0.51515
# Poissons Ratio (y) = 0.31597 0.09932
# Poissons Ratio (z) = 0.64306 0.04995
#
# Static dielectric constant tensor:
#      x y z
#    x 3.291680 0.000000 -0.079550 
#    y 0.000000 3.043550 0.000000 
#    z -0.079550 0.000000 3.206910 
# 
# 
# High freq. dielectric constant tensor:
#      x y z
#    x 1.640080 0.000000 -0.019960 
#    y 0.000000 1.639580 0.000000 
#    z -0.019960 0.000000 1.624240 
# 
# From -- ./inp_files/83593.got.cif
#   From: 2010.06.25/outbox.cif.g09.slc.cpg/sg10_42_cif.got.tgz:83593.got - 2010.06.27 22:07:45.
