data_PCOD8059538
_publ_section_title
;
Structure prediction by ZEFSAII (Michael W. Deem and Ramdas Pophale) SiO2 
 PCOD8059538
Probable space group: P 2/M
;
_chemical_formula_sum "Si O2"
_cell_formula_units_Z 28
_cell_length_a 15.847959
_cell_length_b 9.091233
_cell_length_c 16.037691
_cell_angle_alpha 90.000000
_cell_angle_beta 129.442590
_cell_angle_gamma 90.000000
_cell_volume 1784.441755
_symmetry_space_group_name_H-M "P 2/M"
_symmetry_group_IT_number 10
_symmetry_cell_setting 'monoclinic'
loop_
_space_group_symop_operation_xyz
x,y,z
-x,y,-z
-x,-y,-z
x,-y,z
loop_
_atom_site_type_symbol
_atom_site_label
_atom_site_fract_x
_atom_site_fract_y
_atom_site_fract_z
Si Si1 0.303756 0.326003 0.993785
Si Si2 0.129849 0.829684 0.171049
Si Si3 0.672013 0.328738 0.630684
Si Si4 0.378690 0.161653 0.889188
Si Si5 0.880618 0.171800 0.025357
Si Si6 0.470050 0.327600 0.614298
Si Si7 0.489373 0.173828 0.796397
O O1 0.313780 0.500000 0.006295
O O2 0.310418 0.278178 0.900659
O O3 0.187859 0.272576 0.955341
O O4 0.398440 0.253400 0.108395
O O5 0.212494 0.748254 0.284062
O O6 0.146181 0.779060 0.085852
O O7 0.155820 0.000000 0.193895
O O8 0.007270 0.796444 0.124356
O O9 0.691247 0.500000 0.651829
O O10 0.584731 0.278035 0.645495
O O11 0.627354 0.290816 0.510862
O O12 0.391860 0.210932 0.800911
O O13 0.322971 0.000000 0.860719
O O14 0.500000 0.150470 0.000000
O O15 0.853138 0.000000 0.021295
O O16 0.471956 0.500000 0.637591
O O17 0.448122 0.231911 0.682140
O O18 0.512394 0.000000 0.808056
#
# Coordination Sequence:
#
# PCOD8059538 Si02
#       7
#     4   4   4   4   4   4   4
#     4  11  20  28  43  67  91 117 148 179 215 262
#     4   9  18  31  47  65  86 116 152 185 216 254
#     4   9  18  31  45  63  91 121 147 180 219 257
#     4   8  16  30  44  60  86 117 145 176 217 260
#     4   9  18  32  46  63  89 118 148 182 219 257
#     4   9  18  31  45  64  90 120 150 178 215 260
#     4  10  19  30  45  65  89 118 149 181 218 258
#
# _framework density 15.691183000000001
#
# number of rings (size 3 to 8) (size 9 to 14) (size 15 to 20)
#    0.000    2.714    0.000    5.143    0.000    7.714 
#    0.000    2.857    0.000    0.000    0.000    1.000 
#    0.000    8.000    0.000    0.000    0.000    0.000 
#
# Total GULP energy -347128.470514 kJ/mol
# GULP energy per Si atom -12397.445375 kJ/mol
# Density = 1.565547 g / cm^3
# Si number density = 15.691183 Si / 1000 Ang^3
#
#
#
# Elastic Constant Matrix: (Units=GPa)
#
#
# Indices 1 2 3 4 5 6 
#
# 1 99.8517 57.8725 51.7968 0.0000 -13.7954 0.0000
# 2 57.8725 84.8450 47.8814 0.0000 -7.0600 0.0000
# 3 51.7968 47.8814 90.1609 0.0000 -4.9448 0.0000
# 4 0.0000 0.0000 0.0000 27.3569 0.0000 1.5173
# 5 -13.7954 -7.0600 -4.9448 0.0000 26.2008 0.0000
# 6 0.0000 0.0000 0.0000 1.5173 0.0000 20.2230
#
#
#
# Elastic Compliance Matrix: (Units=1/GPa)
#
#
# Indices 1 2 3 4 5 6 
#
# 1 0.019369 -0.009408 -0.005771 0.000000 0.006574 0.000000
# 2 -0.009408 0.021618 -0.006091 0.000000 -0.000278 0.000000
# 3 -0.005771 -0.006091 0.017566 0.000000 -0.001364 0.000000
# 4 0.000000 0.000000 0.000000 0.036707 0.000000 -0.002754
# 5 0.006574 -0.000278 -0.001364 0.000000 0.041296 0.000000
# 6 0.000000 0.000000 0.000000 -0.002754 0.000000 0.049655
#
#
# Mechanical properties :
#
#
# Convention : Reuss Voigt Hill
#
# Bulk Modulus (GPa) = 62.44470 65.55099 63.99784
# Shear Modulus (GPa) = 21.35950 22.57662 21.96806
#
# Velocity S-wave (km/s) = 3.69350 3.79728 3.74575
# Velocity P-wave (km/s) = 7.62048 7.81615 7.71893
#
# Compressibility (1/GPa) = 0.01601417
#
# Stress axis : x y z
#
# Youngs Moduli (GPa) = 51.62780 46.25879 56.92737
#
# Poissons Ratio (x) = 0.43521 0.32851
# Poissons Ratio (y) = 0.48572 0.34673
# Poissons Ratio (z) = 0.29793 0.28175
#
# Static dielectric constant tensor:
#      x y z
#    x 3.084050 0.000000 -0.168710 
#    y 0.000000 2.926750 0.000000 
#    z -0.168710 0.000000 2.958520 
# 
# 
# High freq. dielectric constant tensor:
#      x y z
#    x 1.594020 0.000000 -0.013050 
#    y 0.000000 1.603760 0.000000 
#    z -0.013050 0.000000 1.577980 
# 
# From -- ./inp_files/49323.got.cif
#   From: 2010.06.25/outbox.cif.g09.slc.cpg/sg10_25_cif.got.tgz:49323.got - 2010.06.27 22:07:45.
