data_PCOD8059170
_publ_section_title
;
Structure prediction by ZEFSAII (Michael W. Deem and Ramdas Pophale) SiO2 
 PCOD8059170
Probable space group: P 2/M
;
_chemical_formula_sum "Si O2"
_cell_formula_units_Z 28
_cell_length_a 17.372253
_cell_length_b 9.011426
_cell_length_c 11.011918
_cell_angle_alpha 90.000000
_cell_angle_beta 53.716544
_cell_angle_gamma 90.000000
_cell_volume 1389.636204
_symmetry_space_group_name_H-M "P 2/M"
_symmetry_group_IT_number 10
_symmetry_cell_setting 'monoclinic'
loop_
_space_group_symop_operation_xyz
x,y,z
-x,y,-z
-x,-y,-z
x,-y,z
loop_
_atom_site_type_symbol
_atom_site_label
_atom_site_fract_x
_atom_site_fract_y
_atom_site_fract_z
Si Si1 0.254757 0.170546 0.182084
Si Si2 0.593698 0.834132 0.351238
Si Si3 0.559355 0.834984 0.102236
Si Si4 0.046114 0.822780 0.327448
Si Si5 0.262295 0.325542 0.637391
Si Si6 0.352363 0.170799 0.329267
Si Si7 0.044637 0.324042 0.828011
O O1 0.154915 0.239664 0.231390
O O2 0.264242 0.184142 0.318643
O O3 0.253168 0.000000 0.141203
O O4 0.349122 0.252644 0.038888
O O5 0.500000 0.761444 0.500000
O O6 0.574643 0.837546 0.229120
O O7 0.688893 0.738564 0.287031
O O8 0.609927 0.000000 0.388014
O O9 0.452827 0.770033 0.175117
O O10 0.562345 0.000000 0.042239
O O11 0.000000 0.773398 0.500000
O O12 0.001044 0.751963 0.248384
O O13 0.039656 0.000000 0.321363
O O14 0.264770 0.500000 0.640535
O O15 0.327017 0.270010 0.466797
O O16 0.153973 0.269725 0.728721
O O17 0.367939 0.000000 0.355964
O O18 0.034001 0.500000 0.821784
O O19 0.000000 0.274228 0.000000
#
# Coordination Sequence:
#
# PCOD8059170 Si02
#       7
#     4   4   4   4   4   4   4
#     4   9  18  31  54  85 114 143 179 228 278 328
#     4  10  19  34  55  82 112 143 182 222 265 328
#     4   9  17  30  51  82 114 143 180 221 266 325
#     4  10  21  38  60  90 121 148 189 244 297 345
#     4  11  23  37  56  80 109 145 186 228 278 331
#     4  10  18  34  58  82 111 147 183 221 270 329
#     4  10  24  44  61  81 113 153 199 245 289 344
#
# _framework density 20.149159000000001
#
# number of rings (size 3 to 8) (size 9 to 14) (size 15 to 20)
#    0.000    2.143    1.429    1.714    2.000    4.857 
#    0.000    0.714    0.000    3.429    0.000    0.000 
#    0.000    0.000    0.000    0.000    0.000    0.000 
#
# Total GULP energy -346930.772422 kJ/mol
# GULP energy per Si atom -12390.384729 kJ/mol
# Density = 2.010330 g / cm^3
# Si number density = 20.149159 Si / 1000 Ang^3
#
#
#
# Elastic Constant Matrix: (Units=GPa)
#
#
# Indices 1 2 3 4 5 6 
#
# 1 164.7999 36.2996 47.0741 0.0000 -19.5152 0.0000
# 2 36.2996 32.4926 17.7192 0.0000 -4.3237 0.0000
# 3 47.0741 17.7192 93.9685 0.0000 -13.9751 0.0000
# 4 0.0000 0.0000 0.0000 14.2294 0.0000 -3.5330
# 5 -19.5152 -4.3237 -13.9751 0.0000 38.8147 0.0000
# 6 0.0000 0.0000 0.0000 -3.5330 0.0000 21.5536
#
#
#
# Elastic Compliance Matrix: (Units=1/GPa)
#
#
# Indices 1 2 3 4 5 6 
#
# 1 0.008916 -0.008233 -0.002518 0.000000 0.002659 0.000000
# 2 -0.008233 0.041998 -0.003925 0.000000 -0.000874 0.000000
# 3 -0.002518 -0.003925 0.013091 0.000000 0.003010 0.000000
# 4 0.000000 0.000000 0.000000 0.073259 0.000000 0.012008
# 5 0.002659 -0.000874 0.003010 0.000000 0.028087 0.000000
# 6 0.000000 0.000000 0.000000 0.012008 0.000000 0.048364
#
#
# Mechanical properties :
#
#
# Convention : Reuss Voigt Hill
#
# Bulk Modulus (GPa) = 28.85845 54.82743 41.84294
# Shear Modulus (GPa) = 19.63723 27.59739 23.61731
#
# Velocity S-wave (km/s) = 3.12523 3.70490 3.42734
# Velocity P-wave (km/s) = 5.23224 6.75067 6.03936
#
# Compressibility (1/GPa) = 0.03465190
#
# Stress axis : x y z
#
# Youngs Moduli (GPa) = 112.16248 23.81062 76.38669
#
# Poissons Ratio (x) = 0.19603 0.19238
# Poissons Ratio (y) = 0.92344 0.29982
# Poissons Ratio (z) = 0.28248 0.09346
#
# Static dielectric constant tensor:
#      x y z
#    x 4.007570 0.000000 -0.256380 
#    y 0.000000 3.250730 0.000000 
#    z -0.256380 0.000000 3.900450 
# 
# 
# High freq. dielectric constant tensor:
#      x y z
#    x 1.812570 0.000000 -0.003180 
#    y 0.000000 1.726550 0.000000 
#    z -0.003180 0.000000 1.797160 
# 
# From -- ./inp_files/49568.got.cif
#   From: 2010.06.25/outbox.cif.g09.slc.cpg/sg10_25_cif.got.tgz:49568.got - 2010.06.27 22:07:45.
