data_PCOD8059761
_publ_section_title
;
Structure prediction by ZEFSAII (Michael W. Deem and Ramdas Pophale) SiO2 
 PCOD8059761
Probable space group: P 2/M
;
_chemical_formula_sum "Si O2"
_cell_formula_units_Z 28
_cell_length_a 11.811827
_cell_length_b 11.658398
_cell_length_c 11.715604
_cell_angle_alpha 90.000000
_cell_angle_beta 101.973738
_cell_angle_gamma 90.000000
_cell_volume 1578.219107
_symmetry_space_group_name_H-M "P 2/M"
_symmetry_group_IT_number 10
_symmetry_cell_setting 'monoclinic'
loop_
_space_group_symop_operation_xyz
x,y,z
-x,y,-z
-x,-y,-z
x,-y,z
loop_
_atom_site_type_symbol
_atom_site_label
_atom_site_fract_x
_atom_site_fract_y
_atom_site_fract_z
Si Si1 0.688124 0.366435 0.586158
Si Si2 0.842608 0.365074 0.206926
Si Si3 0.432144 0.760903 0.239666
Si Si4 0.902364 0.633024 0.779826
Si Si5 0.332597 0.000000 0.555912
Si Si6 0.261933 0.365953 0.057811
Si Si7 0.599158 0.000000 0.677366
Si Si8 0.311510 0.760544 0.647632
O O1 0.660695 0.500000 0.579376
O O2 0.597117 0.309440 0.652511
O O3 0.819660 0.342205 0.654729
O O4 0.668318 0.317681 0.457603
O O5 0.842942 0.500000 0.238546
O O6 0.790123 0.293170 0.299096
O O7 0.971246 0.313275 0.214809
O O8 0.767172 0.341935 0.078765
O O9 0.378526 0.701950 0.115868
O O10 0.570489 0.763956 0.254205
O O11 0.378404 0.888250 0.240817
O O12 0.925081 0.500000 0.803734
O O13 0.842361 0.679955 0.883021
O O14 0.468436 0.000000 0.606758
O O15 0.315357 0.000000 0.414856
O O16 0.274305 0.112093 0.599861
O O17 0.283883 0.500000 0.086703
#
# Coordination Sequence:
#
# PCOD8059761 Si02
#       8
#     4   4   4   4   2   4   2   4
#     4  10  19  30  49  77 104 129 160 204 252 297
#     4  10  20  33  51  74 102 137 168 200 247 297
#     4  10  19  32  51  76 100 128 168 207 246 295
#     4   8  16  32  52  73  97 129 171 208 238 286
#     4   9  18  34  51  69  96 135 172 207 238 288
#     4   9  18  33  53  76 101 131 167 206 247 291
#     4   9  16  32  55  72  91 129 178 211 238 279
#     4  11  21  32  49  74 104 134 164 199 251 304
#
# _framework density 17.741516000000001
#
# number of rings (size 3 to 8) (size 9 to 14) (size 15 to 20)
#    0.000    2.429    1.429    2.571    0.000    5.714 
#    0.000    4.286    0.000    7.714    0.000    5.000 
#    0.000    0.000    0.000    0.000    0.000    0.000 
#
# Total GULP energy -347163.310398 kJ/mol
# GULP energy per Si atom -12398.689657 kJ/mol
# Density = 1.770114 g / cm^3
# Si number density = 17.741516 Si / 1000 Ang^3
#
#
#
# Elastic Constant Matrix: (Units=GPa)
#
#
# Indices 1 2 3 4 5 6 
#
# 1 39.0965 15.4409 -0.2981 0.0000 1.2139 0.0000
# 2 15.4409 88.3267 19.7206 0.0000 -1.5329 0.0000
# 3 -0.2981 19.7206 36.0537 0.0000 1.9297 0.0000
# 4 0.0000 0.0000 0.0000 13.2110 0.0000 -8.3584
# 5 1.2139 -1.5329 1.9297 0.0000 17.1128 0.0000
# 6 0.0000 0.0000 0.0000 -8.3584 0.0000 7.9734
#
#
#
# Elastic Compliance Matrix: (Units=1/GPa)
#
#
# Indices 1 2 3 4 5 6 
#
# 1 0.027954 -0.005722 0.003516 0.000000 -0.002892 0.000000
# 2 -0.005722 0.014134 -0.007915 0.000000 0.002565 0.000000
# 3 0.003516 -0.007915 0.032342 0.000000 -0.004605 0.000000
# 4 0.000000 0.000000 0.000000 0.224771 0.000000 0.235625
# 5 -0.002892 0.002565 -0.004605 0.000000 0.059390 0.000000
# 6 0.000000 0.000000 0.000000 0.235625 0.000000 0.372421
#
#
# Mechanical properties :
#
#
# Convention : Reuss Voigt Hill
#
# Bulk Modulus (GPa) = 18.45489 25.91151 22.18320
# Shear Modulus (GPa) = 6.49928 16.23367 11.36648
#
# Velocity S-wave (km/s) = 1.91606 3.02820 2.53389
# Velocity P-wave (km/s) = 3.91404 5.18299 4.59255
#
# Compressibility (1/GPa) = 0.05418617
#
# Stress axis : x y z
#
# Youngs Moduli (GPa) = 35.77281 70.75311 30.91998
#
# Poissons Ratio (x) = 0.40485 -0.10871
# Poissons Ratio (y) = 0.20469 0.24474
# Poissons Ratio (z) = -0.12577 0.56004
#
# Static dielectric constant tensor:
#      x y z
#    x 3.245100 0.000000 0.047850 
#    y 0.000000 3.308890 0.000000 
#    z 0.047850 0.000000 3.208750 
# 
# 
# High freq. dielectric constant tensor:
#      x y z
#    x 1.672530 0.000000 0.002830 
#    y 0.000000 1.669540 0.000000 
#    z 0.002830 0.000000 1.679360 
# 
# From -- ./inp_files/46181.got.cif
#   From: 2010.06.25/outbox.cif.g09.slc.cpg/sg10_24_cif.got.tgz:46181.got - 2010.06.27 22:07:45.
