data_PCOD8059342
_publ_section_title
;
Structure prediction by ZEFSAII (Michael W. Deem and Ramdas Pophale) SiO2 
 PCOD8059342
Probable space group: P 2/M
;
_chemical_formula_sum "Si O2"
_cell_formula_units_Z 24
_cell_length_a 28.296032
_cell_length_b 11.548500
_cell_length_c 22.778963
_cell_angle_alpha 90.000000
_cell_angle_beta 11.508277
_cell_angle_gamma 90.000000
_cell_volume 1485.075834
_symmetry_space_group_name_H-M "P 2/M"
_symmetry_group_IT_number 10
_symmetry_cell_setting 'monoclinic'
loop_
_space_group_symop_operation_xyz
x,y,z
-x,y,-z
-x,-y,-z
x,-y,z
loop_
_atom_site_type_symbol
_atom_site_label
_atom_site_fract_x
_atom_site_fract_y
_atom_site_fract_z
Si Si1 0.209603 0.370584 0.290391
Si Si2 0.886892 0.000000 0.021118
Si Si3 0.815865 0.180321 0.276199
Si Si4 0.440329 0.362544 0.339496
Si Si5 0.481090 0.000000 0.426916
Si Si6 0.029245 0.364593 0.305072
Si Si7 0.633554 0.635408 0.700749
O O1 0.291367 0.500000 0.208624
O O2 0.000000 0.374259 0.500000
O O3 0.115843 0.306990 0.463711
O O4 0.434083 0.306990 0.986347
O O5 0.756791 0.000000 0.114820
O O6 0.683708 0.000000 0.316293
O O7 0.053836 0.111762 0.829183
O O8 0.728051 0.302762 0.407920
O O9 0.585887 0.111763 0.531096
O O10 0.000000 0.204920 0.000000
O O11 0.411665 0.500000 0.382500
O O12 0.368601 0.316235 0.362344
O O13 0.707591 0.316228 0.023330
O O14 0.052269 0.500000 0.291557
O O15 0.892141 0.339239 0.411802
O O16 0.572491 0.500000 0.771321
#
# Coordination Sequence:
#
# PCOD8059342 Si02
#       7
#     4   2   4   4   2   4   4
#     4   9  13  21  37  54  75 107 150 194 225 249
#     4   8  15  31  54  73  85 100 133 190 246 276
#     4   9  18  31  48  70  90 113 149 185 223 268
#     4  10  19  29  40  60  95 130 154 177 207 257
#     4   8  15  31  54  73  85 100 133 190 246 276
#     4   9  16  25  37  54  80 117 155 186 217 253
#     4   9  16  25  37  54  80 117 155 186 217 253
#
# _framework density 16.160792000000001
#
# number of rings (size 3 to 8) (size 9 to 14) (size 15 to 20)
#    0.000    3.000    1.667    1.500    0.000    3.667 
#    0.000    0.000    0.000    0.000    0.000    9.333 
#    0.000   10.667    0.000   18.667    0.000    6.000 
#
# Total GULP energy -297329.820632 kJ/mol
# GULP energy per Si atom -12388.742526 kJ/mol
# Density = 1.612401 g / cm^3
# Si number density = 16.160792 Si / 1000 Ang^3
#
#
#
# Elastic Constant Matrix: (Units=GPa)
#
#
# Indices 1 2 3 4 5 6 
#
# 1 94.8241 32.1104 66.4296 0.0000 -16.5154 0.0000
# 2 32.1104 42.3740 34.9169 0.0000 4.9631 0.0000
# 3 66.4296 34.9169 83.3158 0.0000 -3.5747 0.0000
# 4 0.0000 0.0000 0.0000 5.8413 0.0000 -2.0510
# 5 -16.5154 4.9631 -3.5747 0.0000 32.2407 0.0000
# 6 0.0000 0.0000 0.0000 -2.0510 0.0000 7.0083
#
#
#
# Elastic Compliance Matrix: (Units=1/GPa)
#
#
# Indices 1 2 3 4 5 6 
#
# 1 0.029262 -0.007772 -0.019473 0.000000 0.014027 0.000000
# 2 -0.007772 0.039886 -0.011006 0.000000 -0.011342 0.000000
# 3 -0.019473 -0.011006 0.031938 0.000000 -0.004740 0.000000
# 4 0.000000 0.000000 0.000000 0.190803 0.000000 0.055840
# 5 0.014027 -0.011342 -0.004740 0.000000 0.039423 0.000000
# 6 0.000000 0.000000 0.000000 0.055840 0.000000 0.159030
#
#
# Mechanical properties :
#
#
# Convention : Reuss Voigt Hill
#
# Bulk Modulus (GPa) = 40.67439 54.15863 47.41651
# Shear Modulus (GPa) = 8.69509 14.82185 11.75847
#
# Velocity S-wave (km/s) = 2.32208 3.03173 2.70032
# Velocity P-wave (km/s) = 5.69321 6.77055 6.25511
#
# Compressibility (1/GPa) = 0.02458550
#
# Stress axis : x y z
#
# Youngs Moduli (GPa) = 34.17361 25.07135 31.31114
#
# Poissons Ratio (x) = 0.19485 0.60971
# Poissons Ratio (y) = 0.26559 0.34461
# Poissons Ratio (z) = 0.66545 0.27593
#
# Static dielectric constant tensor:
#      x y z
#    x 3.228360 0.000000 -0.184440 
#    y 0.000000 2.442270 0.000000 
#    z -0.184440 0.000000 3.123420 
# 
# 
# High freq. dielectric constant tensor:
#      x y z
#    x 1.632270 0.000000 -0.013220 
#    y 0.000000 1.541720 0.000000 
#    z -0.013220 0.000000 1.624740 
# 
# From -- ./inp_files/67524.got.cif
#   From: 2010.06.25/outbox.cif.g09.slc.cpg/sg10_34_cif.got.tgz:67524.got - 2010.06.27 22:07:45.
