data_PCOD8059487
_publ_section_title
;
Structure prediction by ZEFSAII (Michael W. Deem and Ramdas Pophale) SiO2 
 PCOD8059487
Probable space group: P 2/M
;
_chemical_formula_sum "Si O2"
_cell_formula_units_Z 24
_cell_length_a 17.166516
_cell_length_b 22.738275
_cell_length_c 14.600574
_cell_angle_alpha 90.000000
_cell_angle_beta 16.477198
_cell_angle_gamma 90.000000
_cell_volume 1616.469445
_symmetry_space_group_name_H-M "P 2/M"
_symmetry_group_IT_number 10
_symmetry_cell_setting 'monoclinic'
loop_
_space_group_symop_operation_xyz
x,y,z
-x,y,-z
-x,-y,-z
x,-y,z
loop_
_atom_site_type_symbol
_atom_site_label
_atom_site_fract_x
_atom_site_fract_y
_atom_site_fract_z
Si Si1 0.390500 0.930364 0.719010
Si Si2 0.383147 0.566399 0.233702
Si Si3 0.117036 0.633669 0.265931
Si Si4 0.883992 0.765707 0.732011
Si Si5 0.226849 0.069503 0.546293
Si Si6 0.615967 0.835969 0.768070
O O1 0.500000 0.903157 0.500000
O O2 0.586167 0.909225 0.580200
O O3 0.398320 0.000000 0.703372
O O4 0.081121 0.909225 0.085253
O O5 0.342335 0.500000 0.315327
O O6 0.092952 0.599952 0.564004
O O7 0.500000 0.565884 0.000000
O O8 0.593125 0.599952 0.063831
O O9 0.159728 0.699842 0.180543
O O10 0.000000 0.634599 0.500000
O O11 0.000000 0.761352 0.500000
O O12 0.100959 0.799715 0.550587
O O13 0.595931 0.799712 0.055614
O O14 0.332447 0.100639 0.335110
O O15 0.246524 0.000000 0.506952
O O16 0.500000 0.847546 0.000000
#
# Coordination Sequence:
#
# PCOD8059487 Si02
#       6
#     4   4   4   4   4   4
#     4   9  17  30  47  65  83 101 123 154 195 245
#     4   9  15  21  30  46  66  85 108 147 201 247
#     4   9  15  23  34  46  62  87 120 155 193 235
#     4   9  17  28  40  52  68  97 135 169 199 228
#     4  10  19  30  45  64  83 104 129 159 204 252
#     4  10  19  30  42  57  79 105 135 170 203 236
#
# _framework density 14.847172
#
# number of rings (size 3 to 8) (size 9 to 14) (size 15 to 20)
#    0.000    2.667    0.000    3.000    0.000    8.333 
#    0.000    0.000    0.000    6.000    0.000    0.000 
#    0.000    0.000    0.000    0.000    0.000    0.000 
#
# Total GULP energy -297566.950474 kJ/mol
# GULP energy per Si atom -12398.622936 kJ/mol
# Density = 1.481338 g / cm^3
# Si number density = 14.847172 Si / 1000 Ang^3
#
#
#
# Elastic Constant Matrix: (Units=GPa)
#
#
# Indices 1 2 3 4 5 6 
#
# 1 73.5627 46.3355 57.8874 0.0000 -28.4097 0.0000
# 2 46.3355 98.2153 46.7339 0.0000 -10.6533 0.0000
# 3 57.8874 46.7339 75.7351 0.0000 -29.3745 0.0000
# 4 0.0000 0.0000 0.0000 9.7920 0.0000 -7.4275
# 5 -28.4097 -10.6533 -29.3745 0.0000 34.1044 0.0000
# 6 0.0000 0.0000 0.0000 -7.4275 0.0000 9.5131
#
#
#
# Elastic Compliance Matrix: (Units=1/GPa)
#
#
# Indices 1 2 3 4 5 6 
#
# 1 0.039384 -0.007401 -0.020584 0.000000 0.012766 0.000000
# 2 -0.007401 0.016334 -0.007260 0.000000 -0.007316 0.000000
# 3 -0.020584 -0.007260 0.038873 0.000000 0.014067 0.000000
# 4 0.000000 0.000000 0.000000 0.250453 0.000000 0.195547
# 5 0.012766 -0.007316 0.014067 0.000000 0.049787 0.000000
# 6 0.000000 0.000000 0.000000 0.195547 0.000000 0.257797
#
#
# Mechanical properties :
#
#
# Convention : Reuss Voigt Hill
#
# Bulk Modulus (GPa) = 41.49237 61.04739 51.26988
# Shear Modulus (GPa) = 6.83851 17.11898 11.97875
#
# Velocity S-wave (km/s) = 2.14847 3.39929 2.84351
# Velocity P-wave (km/s) = 5.84479 7.52418 6.73702
#
# Compressibility (1/GPa) = 0.02410082
#
# Stress axis : x y z
#
# Youngs Moduli (GPa) = 25.39114 61.22076 25.72460
#
# Poissons Ratio (x) = 0.45309 0.52952
# Poissons Ratio (y) = 0.18792 0.18676
# Poissons Ratio (z) = 0.52266 0.44447
#
# Static dielectric constant tensor:
#      x y z
#    x 2.784160 0.000000 -0.411170 
#    y 0.000000 2.867240 0.000000 
#    z -0.411170 0.000000 2.799500 
# 
# 
# High freq. dielectric constant tensor:
#      x y z
#    x 1.544860 0.000000 -0.049390 
#    y 0.000000 1.560420 0.000000 
#    z -0.049390 0.000000 1.546710 
# 
# From -- ./inp_files/7241.got.cif
#   From: 2010.06.25/outbox.cif.g09.slc.cpg/sg10_4_cif.got.tgz:7241.got - 2010.06.27 22:07:45.
