data_PCOD8059192
_publ_section_title
;
Structure prediction by ZEFSAII (Michael W. Deem and Ramdas Pophale) SiO2 
 PCOD8059192
Probable space group: P 2/M
;
_chemical_formula_sum "Si O2"
_cell_formula_units_Z 20
_cell_length_a 8.604279
_cell_length_b 12.985541
_cell_length_c 12.169455
_cell_angle_alpha 90.000000
_cell_angle_beta 46.861305
_cell_angle_gamma 90.000000
_cell_volume 992.179841
_symmetry_space_group_name_H-M "P 2/M"
_symmetry_group_IT_number 10
_symmetry_cell_setting 'monoclinic'
loop_
_space_group_symop_operation_xyz
x,y,z
-x,y,-z
-x,-y,-z
x,-y,z
loop_
_atom_site_type_symbol
_atom_site_label
_atom_site_fract_x
_atom_site_fract_y
_atom_site_fract_z
Si Si1 0.454457 0.294072 0.803909
Si Si2 0.600193 0.500000 0.834553
Si Si3 0.032353 0.886176 0.215174
Si Si4 0.935876 0.500000 0.405517
Si Si5 0.000000 0.219641 0.000000
Si Si6 0.500000 0.165976 0.000000
Si Si7 0.163879 0.277094 0.521775
O O1 0.540720 0.407520 0.783089
O O2 0.206950 0.292783 0.889278
O O3 0.602167 0.244840 0.636235
O O4 0.478906 0.235446 0.904578
O O5 0.839859 0.500000 0.764123
O O6 0.500000 0.500000 0.000000
O O7 0.004690 0.853898 0.102784
O O8 0.913703 0.804659 0.350647
O O9 0.931968 0.000000 0.281504
O O10 0.284199 0.898776 0.119264
O O11 0.000000 0.500000 0.500000
O O12 0.815851 0.392455 0.434266
O O13 0.000000 0.277792 0.500000
#
# Coordination Sequence:
#
# PCOD8059192 Si02
#       7
#     4   2   4   2   2   2   4
#     4  11  21  39  60  93 127 166 204 258 303 373
#     4  12  20  31  65  96 124 160 214 254 308 363
#     4  11  23  42  65  90 123 166 211 263 314 370
#     4  10  18  34  59  98 125 157 184 256 320 359
#     4  10  27  43  58  84 132 169 206 248 317 382
#     4  10  19  37  62  92 122 155 208 264 309 354
#     4  11  20  38  65  98 124 156 211 258 315 364
#
# _framework density 20.157634000000002
#
# number of rings (size 3 to 8) (size 9 to 14) (size 15 to 20)
#    0.000    1.200    7.000    0.600    2.800    1.600 
#    0.000    4.000    0.000    2.400    0.000    0.000 
#    0.000    0.000    0.000    0.000    0.000    0.000 
#
# Total GULP energy -247835.024711 kJ/mol
# GULP energy per Si atom -12391.751236 kJ/mol
# Density = 2.011175 g / cm^3
# Si number density = 20.157634 Si / 1000 Ang^3
#
#
#
# Elastic Constant Matrix: (Units=GPa)
#
#
# Indices 1 2 3 4 5 6 
#
# 1 82.2970 14.2885 39.7358 0.0000 -17.8910 0.0000
# 2 14.2885 113.6128 43.0873 0.0000 -4.4206 0.0000
# 3 39.7358 43.0873 156.7188 0.0000 -20.3965 0.0000
# 4 0.0000 0.0000 0.0000 30.4635 0.0000 -6.9216
# 5 -17.8910 -4.4206 -20.3965 0.0000 32.3317 0.0000
# 6 0.0000 0.0000 0.0000 -6.9216 0.0000 19.6431
#
#
#
# Elastic Compliance Matrix: (Units=1/GPa)
#
#
# Indices 1 2 3 4 5 6 
#
# 1 0.015010 -0.000571 -0.002808 0.000000 0.006456 0.000000
# 2 -0.000571 0.009853 -0.002647 0.000000 -0.000639 0.000000
# 3 -0.002808 -0.002647 0.008249 0.000000 0.003288 0.000000
# 4 0.000000 0.000000 0.000000 0.035683 0.000000 0.012574
# 5 0.006456 -0.000639 0.003288 0.000000 0.036489 0.000000
# 6 0.000000 0.000000 0.000000 0.012574 0.000000 0.055339
#
#
# Mechanical properties :
#
#
# Convention : Reuss Voigt Hill
#
# Bulk Modulus (GPa) = 47.48959 60.76132 54.12546
# Shear Modulus (GPa) = 27.82495 33.52212 30.67354
#
# Velocity S-wave (km/s) = 3.71936 4.08241 3.90511
# Velocity P-wave (km/s) = 6.48499 7.24085 6.87332
#
# Compressibility (1/GPa) = 0.02105725
#
# Stress axis : x y z
#
# Youngs Moduli (GPa) = 66.62309 101.49455 121.23299
#
# Poissons Ratio (x) = 0.05800 0.34047
# Poissons Ratio (y) = 0.03807 0.32092
# Poissons Ratio (z) = 0.18710 0.26867
#
# Static dielectric constant tensor:
#      x y z
#    x 3.538300 0.000000 -0.186240 
#    y 0.000000 3.708730 0.000000 
#    z -0.186240 0.000000 3.916960 
# 
# 
# High freq. dielectric constant tensor:
#      x y z
#    x 1.762090 0.000000 -0.008750 
#    y 0.000000 1.781770 0.000000 
#    z -0.008750 0.000000 1.809050 
# 
# From -- ./inp_files/41913.got.cif
#   From: 2010.06.25/outbox.cif.g09.slc.cpg/sg10_21_cif.got.tgz:41913.got - 2010.06.27 22:07:45.
