data_PCOD8059123
_publ_section_title
;
Structure prediction by ZEFSAII (Michael W. Deem and Ramdas Pophale) SiO2 
 PCOD8059123
Probable space group: P 2/M
;
_chemical_formula_sum "Si O2"
_cell_formula_units_Z 28
_cell_length_a 7.422727
_cell_length_b 13.960836
_cell_length_c 16.129747
_cell_angle_alpha 90.000000
_cell_angle_beta 52.508878
_cell_angle_gamma 90.000000
_cell_volume 1326.235814
_symmetry_space_group_name_H-M "P 2/M"
_symmetry_group_IT_number 10
_symmetry_cell_setting 'monoclinic'
loop_
_space_group_symop_operation_xyz
x,y,z
-x,y,-z
-x,-y,-z
x,-y,z
loop_
_atom_site_type_symbol
_atom_site_label
_atom_site_fract_x
_atom_site_fract_y
_atom_site_fract_z
Si Si1 0.505095 0.109995 0.686700
Si Si2 0.689828 0.259863 0.382863
Si Si3 0.684017 0.302443 0.014884
Si Si4 0.022714 0.608281 0.805881
Si Si5 0.894632 0.240419 0.614968
Si Si6 0.631480 0.606142 0.779308
Si Si7 0.266409 0.104577 0.923753
O O1 0.414665 0.168123 0.633127
O O2 0.760145 0.140989 0.640773
O O3 0.340074 0.128231 0.809983
O O4 0.512600 0.000000 0.657535
O O5 0.500000 0.300842 0.500000
O O6 0.757099 0.340691 0.296296
O O7 0.916144 0.226371 0.367633
O O8 0.934484 0.333550 0.912528
O O9 0.500000 0.334667 0.000000
O O10 0.614962 0.359385 0.117860
O O11 0.657740 0.188376 0.035557
O O12 0.090619 0.500000 0.811834
O O13 0.819989 0.607226 0.797467
O O14 0.709544 0.321999 0.686121
O O15 0.000000 0.275425 0.500000
O O16 0.603770 0.500000 0.749664
O O17 0.366555 0.000000 0.923287
O O18 0.000000 0.099610 0.000000
#
# Coordination Sequence:
#
# PCOD8059123 Si02
#       7
#     4   4   4   4   4   4   4
#     4  11  24  43  65  91 124 161 207 257 307 367
#     4  11  23  41  64  89 124 165 205 255 311 366
#     4  10  18  33  61  88 121 155 197 254 303 360
#     4   9  19  35  59  91 123 161 203 247 306 365
#     4  11  22  41  64  89 125 160 206 257 309 366
#     4   9  18  34  59  89 121 159 201 250 307 365
#     4  10  21  38  59  84 121 164 199 247 310 363
#
# _framework density 21.112383999999999
#
# number of rings (size 3 to 8) (size 9 to 14) (size 15 to 20)
#    0.000    1.857    2.857    1.286    0.000    3.714 
#    0.000    0.714    0.000    1.714    0.000    0.000 
#    0.000    0.000    0.000    0.000    0.000    0.000 
#
# Total GULP energy -347131.254160 kJ/mol
# GULP energy per Si atom -12397.544791 kJ/mol
# Density = 2.106433 g / cm^3
# Si number density = 21.112384 Si / 1000 Ang^3
#
#
#
# Elastic Constant Matrix: (Units=GPa)
#
#
# Indices 1 2 3 4 5 6 
#
# 1 49.7196 18.7036 16.0340 0.0000 -14.7126 0.0000
# 2 18.7036 155.5349 73.2482 0.0000 -1.0577 0.0000
# 3 16.0340 73.2482 185.7231 0.0000 -9.1856 0.0000
# 4 0.0000 0.0000 0.0000 33.3287 0.0000 4.0914
# 5 -14.7126 -1.0577 -9.1856 0.0000 22.0678 0.0000
# 6 0.0000 0.0000 0.0000 4.0914 0.0000 16.5755
#
#
#
# Elastic Compliance Matrix: (Units=1/GPa)
#
#
# Indices 1 2 3 4 5 6 
#
# 1 0.026446 -0.002937 -0.000265 0.000000 0.017381 0.000000
# 2 -0.002937 0.008241 -0.003139 0.000000 -0.002870 0.000000
# 3 -0.000265 -0.003139 0.006768 0.000000 0.002490 0.000000
# 4 0.000000 0.000000 0.000000 0.030942 0.000000 -0.007637
# 5 0.017381 -0.002870 0.002490 0.000000 0.057802 0.000000
# 6 0.000000 0.000000 0.000000 -0.007637 0.000000 0.062215
#
#
# Mechanical properties :
#
#
# Convention : Reuss Voigt Hill
#
# Bulk Modulus (GPa) = 34.75374 67.43880 51.09627
# Shear Modulus (GPa) = 23.28965 33.26052 28.27509
#
# Velocity S-wave (km/s) = 3.32494 3.97344 3.66357
# Velocity P-wave (km/s) = 5.58904 7.28444 6.49232
#
# Compressibility (1/GPa) = 0.02877389
#
# Stress axis : x y z
#
# Youngs Moduli (GPa) = 37.81237 121.34080 147.74812
#
# Poissons Ratio (x) = 0.35640 0.03918
# Poissons Ratio (y) = 0.11106 0.46373
# Poissons Ratio (z) = 0.01003 0.38085
#
# Static dielectric constant tensor:
#      x y z
#    x 3.501880 0.000000 -0.048450 
#    y 0.000000 4.147750 0.000000 
#    z -0.048450 0.000000 4.276460 
# 
# 
# High freq. dielectric constant tensor:
#      x y z
#    x 1.807280 0.000000 -0.005520 
#    y 0.000000 1.826080 0.000000 
#    z -0.005520 0.000000 1.845070 
# 
# From -- ./inp_files/75288.got.cif
#   From: 2010.06.25/outbox.cif.g09.slc.cpg/sg10_38_cif.got.tgz:75288.got - 2010.06.27 22:07:45.
