data_PCOD8059681
_publ_section_title
;
Structure prediction by ZEFSAII (Michael W. Deem and Ramdas Pophale) SiO2 
 PCOD8059681
Probable space group: P 2/M
;
_chemical_formula_sum "Si O2"
_cell_formula_units_Z 28
_cell_length_a 13.129647
_cell_length_b 23.083018
_cell_length_c 5.095346
_cell_angle_alpha 90.000000
_cell_angle_beta 80.369655
_cell_angle_gamma 90.000000
_cell_volume 1522.493768
_symmetry_space_group_name_H-M "P 2/M"
_symmetry_group_IT_number 10
_symmetry_cell_setting 'monoclinic'
loop_
_space_group_symop_operation_xyz
x,y,z
-x,y,-z
-x,-y,-z
x,-y,z
loop_
_atom_site_type_symbol
_atom_site_label
_atom_site_fract_x
_atom_site_fract_y
_atom_site_fract_z
Si Si1 0.757412 0.933109 0.101198
Si Si2 0.568600 0.851825 0.209667
Si Si3 0.886850 0.566440 0.036441
Si Si4 0.113814 0.933186 0.439861
Si Si5 0.757473 0.566416 0.607145
Si Si6 0.378033 0.333094 0.504432
Si Si7 0.382622 0.272994 0.001913
O O1 0.654893 0.899273 0.229385
O O2 0.838726 0.924924 0.296670
O O3 0.725549 0.000000 0.076650
O O4 0.810834 0.906422 0.816174
O O5 0.500000 0.840558 0.500000
O O6 0.624141 0.793229 0.088485
O O7 0.500000 0.875923 0.000000
O O8 0.902090 0.500000 0.943964
O O9 0.840116 0.572857 0.342506
O O10 0.810830 0.592613 0.846579
O O11 0.000000 0.596702 0.000000
O O12 0.000000 0.903785 0.500000
O O13 0.100159 0.000000 0.364979
O O14 0.720539 0.500000 0.659752
O O15 0.656500 0.603221 0.572765
O O16 0.500000 0.332121 0.500000
O O17 0.328621 0.313230 0.803364
O O18 0.334226 0.286320 0.308789
O O19 0.500000 0.292443 0.000000
#
# Coordination Sequence:
#
# PCOD8059681 Si02
#       7
#     4   4   4   4   4   4   4
#     4  10  20  32  49  77 106 132 163 198 250 308
#     4  11  21  34  52  74 102 133 167 206 243 288
#     4   9  17  30  47  68  96 127 160 197 232 276
#     4   9  17  31  50  72 100 132 168 208 243 284
#     4  10  19  30  47  74 101 125 155 190 242 301
#     4  10  19  32  50  71  97 126 158 199 238 280
#     4   9  18  33  50  68  90 124 172 209 230 264
#
# _framework density 18.390881
#
# number of rings (size 3 to 8) (size 9 to 14) (size 15 to 20)
#    0.000    2.286    0.000    4.714    0.000    4.286 
#    0.000    0.000    0.000    5.143    0.000   20.000 
#    0.000    0.000    0.000    0.000    0.000    0.000 
#
# Total GULP energy -346985.325640 kJ/mol
# GULP energy per Si atom -12392.333059 kJ/mol
# Density = 1.834902 g / cm^3
# Si number density = 18.390881 Si / 1000 Ang^3
#
#
#
# Elastic Constant Matrix: (Units=GPa)
#
#
# Indices 1 2 3 4 5 6 
#
# 1 59.5288 38.6090 22.0715 0.0000 8.0166 0.0000
# 2 38.6090 69.1785 29.3393 0.0000 5.8798 0.0000
# 3 22.0715 29.3393 104.7727 0.0000 7.9755 0.0000
# 4 0.0000 0.0000 0.0000 20.1107 0.0000 2.9228
# 5 8.0166 5.8798 7.9755 0.0000 27.7750 0.0000
# 6 0.0000 0.0000 0.0000 2.9228 0.0000 4.4748
#
#
#
# Elastic Compliance Matrix: (Units=1/GPa)
#
#
# Indices 1 2 3 4 5 6 
#
# 1 0.027091 -0.014147 -0.001409 0.000000 -0.004420 0.000000
# 2 -0.014147 0.023923 -0.003726 0.000000 0.000089 0.000000
# 3 -0.001409 -0.003726 0.011035 0.000000 -0.001973 0.000000
# 4 0.000000 0.000000 0.000000 0.054940 0.000000 -0.035886
# 5 -0.004420 0.000089 -0.001973 0.000000 0.037827 0.000000
# 6 0.000000 0.000000 0.000000 -0.035886 0.000000 0.246914
#
#
# Mechanical properties :
#
#
# Convention : Reuss Voigt Hill
#
# Bulk Modulus (GPa) = 42.57785 45.94664 44.26225
# Shear Modulus (GPa) = 11.15765 20.03611 15.59688
#
# Velocity S-wave (km/s) = 2.46579 3.30428 2.91534
# Velocity P-wave (km/s) = 5.59542 6.29248 5.95416
#
# Compressibility (1/GPa) = 0.02348639
#
# Stress axis : x y z
#
# Youngs Moduli (GPa) = 36.91201 41.80021 90.62184
#
# Poissons Ratio (x) = 0.59133 0.12770
# Poissons Ratio (y) = 0.52218 0.33764
# Poissons Ratio (z) = 0.05202 0.15574
#
# Static dielectric constant tensor:
#      x y z
#    x 3.239860 0.000000 0.123410 
#    y 0.000000 3.063800 0.000000 
#    z 0.123410 0.000000 3.819400 
# 
# 
# High freq. dielectric constant tensor:
#      x y z
#    x 1.690860 0.000000 0.013600 
#    y 0.000000 1.670060 0.000000 
#    z 0.013600 0.000000 1.742910 
# 
# From -- ./inp_files/7565.got.cif
#   From: 2010.06.25/outbox.cif.g09.slc.cpg/sg10_4_cif.got.tgz:7565.got - 2010.06.27 22:07:45.
