data_PCOD8059476
_publ_section_title
;
Structure prediction by ZEFSAII (Michael W. Deem and Ramdas Pophale) SiO2 
 PCOD8059476
Probable space group: P 2/M
;
_chemical_formula_sum "Si O2"
_cell_formula_units_Z 28
_cell_length_a 15.485756
_cell_length_b 9.754550
_cell_length_c 11.829120
_cell_angle_alpha 90.000000
_cell_angle_beta 59.568463
_cell_angle_gamma 90.000000
_cell_volume 1540.698782
_symmetry_space_group_name_H-M "P 2/M"
_symmetry_group_IT_number 10
_symmetry_cell_setting 'monoclinic'
loop_
_space_group_symop_operation_xyz
x,y,z
-x,y,-z
-x,-y,-z
x,-y,z
loop_
_atom_site_type_symbol
_atom_site_label
_atom_site_fract_x
_atom_site_fract_y
_atom_site_fract_z
Si Si1 0.838586 0.843373 0.094000
Si Si2 0.709831 0.336505 0.628588
Si Si3 0.066363 0.340838 0.565844
Si Si4 0.470364 0.339780 0.399012
Si Si5 0.012580 0.842895 0.806901
Si Si6 0.334144 0.658595 0.868154
Si Si7 0.388084 0.337583 0.078478
O O1 0.890477 0.818117 0.179888
O O2 0.743188 0.746032 0.152916
O O3 0.803339 0.000000 0.106405
O O4 0.913912 0.806179 0.943119
O O5 0.708179 0.500000 0.634380
O O6 0.821621 0.283649 0.529742
O O7 0.634436 0.281005 0.580942
O O8 0.673460 0.277908 0.774202
O O9 0.068605 0.500000 0.599031
O O10 0.014847 0.257174 0.699604
O O11 0.000000 0.316812 0.500000
O O12 0.500000 0.270952 0.500000
O O13 0.455526 0.500000 0.428830
O O14 0.554945 0.310356 0.250316
O O15 0.009287 0.000000 0.767712
O O16 0.306396 0.500000 0.869347
O O17 0.329531 0.701744 0.002654
O O18 0.397370 0.500000 0.083387
O O19 0.500000 0.274574 0.000000
#
# Coordination Sequence:
#
# PCOD8059476 Si02
#       7
#     4   4   4   4   4   4   4
#     4   9  20  38  57  76 102 137 173 219 274 315
#     4   9  17  30  46  68 107 147 166 202 263 309
#     4  10  22  35  52  82 114 139 170 220 275 309
#     4   9  17  28  44  73 109 139 172 209 252 312
#     4   9  20  40  59  73  98 141 185 214 254 325
#     4  10  19  29  52  83 102 129 176 220 257 309
#     4   9  15  27  46  71 102 135 174 209 244 302
#
# _framework density 18.173573000000001
#
# number of rings (size 3 to 8) (size 9 to 14) (size 15 to 20)
#    0.000    2.714    1.429    0.857    4.000    1.429 
#    0.000    1.429    0.000    1.714    0.000    0.000 
#    0.000    0.000    0.000    0.000    0.000    0.000 
#
# Total GULP energy -347149.073327 kJ/mol
# GULP energy per Si atom -12398.181190 kJ/mol
# Density = 1.813221 g / cm^3
# Si number density = 18.173573 Si / 1000 Ang^3
#
#
#
# Elastic Constant Matrix: (Units=GPa)
#
#
# Indices 1 2 3 4 5 6 
#
# 1 105.7186 31.8682 23.2120 0.0000 1.5899 0.0000
# 2 31.8682 42.3040 27.2867 0.0000 1.9291 0.0000
# 3 23.2120 27.2867 85.6941 0.0000 18.5050 0.0000
# 4 0.0000 0.0000 0.0000 17.7009 0.0000 4.7956
# 5 1.5899 1.9291 18.5050 0.0000 22.3435 0.0000
# 6 0.0000 0.0000 0.0000 4.7956 0.0000 14.6860
#
#
#
# Elastic Compliance Matrix: (Units=1/GPa)
#
#
# Indices 1 2 3 4 5 6 
#
# 1 0.012256 -0.008881 -0.000571 0.000000 0.000368 0.000000
# 2 -0.008881 0.036961 -0.010730 0.000000 0.006327 0.000000
# 3 -0.000571 -0.010730 0.018306 0.000000 -0.014194 0.000000
# 4 0.000000 0.000000 0.000000 0.061977 0.000000 -0.020238
# 5 0.000368 0.006327 -0.014194 0.000000 0.055939 0.000000
# 6 0.000000 0.000000 0.000000 -0.020238 0.000000 0.074700
#
#
# Mechanical properties :
#
#
# Convention : Reuss Voigt Hill
#
# Bulk Modulus (GPa) = 36.82078 44.27226 40.54652
# Shear Modulus (GPa) = 16.15213 21.03607 18.59410
#
# Velocity S-wave (km/s) = 2.98446 3.40591 3.20213
# Velocity P-wave (km/s) = 5.67279 6.31511 6.00255
#
# Compressibility (1/GPa) = 0.02715858
#
# Stress axis : x y z
#
# Youngs Moduli (GPa) = 81.59206 27.05559 54.62723
#
# Poissons Ratio (x) = 0.24028 0.03121
# Poissons Ratio (y) = 0.72461 0.58614
# Poissons Ratio (z) = 0.04662 0.29030
#
# Static dielectric constant tensor:
#      x y z
#    x 3.464130 0.000000 0.054190 
#    y 0.000000 2.824280 0.000000 
#    z 0.054190 0.000000 3.429180 
# 
# 
# High freq. dielectric constant tensor:
#      x y z
#    x 1.715090 0.000000 0.004150 
#    y 0.000000 1.644920 0.000000 
#    z 0.004150 0.000000 1.712200 
# 
# From -- ./inp_files/49069.got.cif
#   From: 2010.06.25/outbox.cif.g09.slc.cpg/sg10_25_cif.got.tgz:49069.got - 2010.06.27 22:07:45.
