data_PCOD8059385
_publ_section_title
;
Structure prediction by ZEFSAII (Michael W. Deem and Ramdas Pophale) SiO2 
 PCOD8059385
Probable space group: P 2/M
;
_chemical_formula_sum "Si O2"
_cell_formula_units_Z 32
_cell_length_a 15.879096
_cell_length_b 8.685445
_cell_length_c 30.247202
_cell_angle_alpha 90.000000
_cell_angle_beta 150.416768
_cell_angle_gamma 90.000000
_cell_volume 2059.468163
_symmetry_space_group_name_H-M "P 2/M"
_symmetry_group_IT_number 10
_symmetry_cell_setting 'monoclinic'
loop_
_space_group_symop_operation_xyz
x,y,z
-x,y,-z
-x,-y,-z
x,-y,z
loop_
_atom_site_type_symbol
_atom_site_label
_atom_site_fract_x
_atom_site_fract_y
_atom_site_fract_z
Si Si1 0.597681 0.321461 0.810399
Si Si2 0.655837 0.819974 0.664362
Si Si3 0.088806 0.318819 0.478420
Si Si4 0.239812 0.181122 0.631990
Si Si5 0.734377 0.180117 0.521997
Si Si6 0.298136 0.326857 0.403483
Si Si7 0.183405 0.321578 0.176696
Si Si8 0.110628 0.173515 0.006538
O O1 0.554556 0.500000 0.797199
O O2 0.427017 0.222100 0.734175
O O3 0.690987 0.290992 0.806722
O O4 0.714654 0.264665 0.904387
O O5 0.458730 0.767996 0.577151
O O6 0.752661 0.739750 0.667548
O O7 0.749056 0.775488 0.751647
O O8 0.667141 0.000000 0.661367
O O9 0.104641 0.500000 0.492817
O O10 0.216709 0.235560 0.570934
O O11 0.140212 0.273737 0.452507
O O12 0.895441 0.266288 0.398421
O O13 0.209233 0.000000 0.620961
O O14 0.783277 0.224684 0.594572
O O15 0.762251 0.000000 0.527480
O O16 0.500000 0.319972 0.500000
O O17 0.228339 0.500000 0.375717
O O18 0.176130 0.500000 0.186085
O O19 0.993307 0.263260 0.078759
O O20 0.151137 0.000000 0.009224
O O21 0.000000 0.170645 0.000000
#
# Coordination Sequence:
#
# PCOD8059385 Si02
#       8
#     4   4   4   4   4   4   4   4
#     4  10  19  31  46  64  87 116 149 182 219 261
#     4  10  19  29  43  63  88 117 148 182 218 259
#     4  11  21  33  47  64  87 115 148 185 223 259
#     4  11  21  33  47  64  87 115 148 185 223 259
#     4  10  19  31  46  64  87 116 149 182 219 261
#     4   9  17  29  44  62  85 113 145 180 217 258
#     4  10  19  29  43  63  88 117 148 182 218 259
#     4   9  17  29  44  62  85 113 145 180 217 258
#
# _framework density 15.537991999999999
#
# number of rings (size 3 to 8) (size 9 to 14) (size 15 to 20)
#    0.000    2.000    0.000    6.000    0.000    8.000 
#    0.000    0.000    0.000    0.000    0.000    0.000 
#    0.000    1.000    0.000   10.000    0.000    6.000 
#
# Total GULP energy -396881.361536 kJ/mol
# GULP energy per Si atom -12402.542548 kJ/mol
# Density = 1.550263 g / cm^3
# Si number density = 15.537992 Si / 1000 Ang^3
#
#
#
# Elastic Constant Matrix: (Units=GPa)
#
#
# Indices 1 2 3 4 5 6 
#
# 1 66.3269 21.5159 20.6544 0.0000 -3.9290 0.0000
# 2 21.5159 66.4788 17.4990 0.0000 0.6887 0.0000
# 3 20.6544 17.4990 70.1430 0.0000 -0.3337 0.0000
# 4 0.0000 0.0000 0.0000 27.3787 0.0000 -3.0575
# 5 -3.9290 0.6887 -0.3337 0.0000 14.0049 0.0000
# 6 0.0000 0.0000 0.0000 -3.0575 0.0000 26.4358
#
#
#
# Elastic Compliance Matrix: (Units=1/GPa)
#
#
# Indices 1 2 3 4 5 6 
#
# 1 0.018258 -0.004875 -0.004135 0.000000 0.005263 0.000000
# 2 -0.004875 0.017412 -0.002919 0.000000 -0.002294 0.000000
# 3 -0.004135 -0.002919 0.016199 0.000000 -0.000630 0.000000
# 4 0.000000 0.000000 0.000000 0.037003 0.000000 0.004280
# 5 0.005263 -0.002294 -0.000630 0.000000 0.072978 0.000000
# 6 0.000000 0.000000 0.000000 0.004280 0.000000 0.038322
#
#
# Mechanical properties :
#
#
# Convention : Reuss Voigt Hill
#
# Bulk Modulus (GPa) = 35.70062 35.80969 35.75516
# Shear Modulus (GPa) = 21.42536 23.11586 22.27061
#
# Velocity S-wave (km/s) = 3.71738 3.86126 3.79000
# Velocity P-wave (km/s) = 6.43828 6.55558 6.49720
#
# Compressibility (1/GPa) = 0.02801072
#
# Stress axis : x y z
#
# Youngs Moduli (GPa) = 54.77132 57.43016 61.73045
#
# Poissons Ratio (x) = 0.27999 0.25525
# Poissons Ratio (y) = 0.26702 0.18021
# Poissons Ratio (z) = 0.22647 0.16766
#
# Static dielectric constant tensor:
#      x y z
#    x 2.825400 0.000000 -0.085260 
#    y 0.000000 3.133710 0.000000 
#    z -0.085260 0.000000 2.874600 
# 
# 
# High freq. dielectric constant tensor:
#      x y z
#    x 1.568830 0.000000 -0.011220 
#    y 0.000000 1.619050 0.000000 
#    z -0.011220 0.000000 1.574150 
# 
# From -- ./inp_files/95271.got.cif
#   From: 2010.06.25/outbox.cif.g09.slc.cpg/sg10_48_cif.got.tgz:95271.got - 2010.06.27 22:07:45.
