data_PCOD8059350
_publ_section_title
;
Structure prediction by ZEFSAII (Michael W. Deem and Ramdas Pophale) SiO2 
 PCOD8059350
Probable space group: P 2/M
;
_chemical_formula_sum "Si O2"
_cell_formula_units_Z 32
_cell_length_a 28.253879
_cell_length_b 9.195321
_cell_length_c 21.077925
_cell_angle_alpha 90.000000
_cell_angle_beta 159.028489
_cell_angle_gamma 90.000000
_cell_volume 1959.923063
_symmetry_space_group_name_H-M "P 2/M"
_symmetry_group_IT_number 10
_symmetry_cell_setting 'monoclinic'
loop_
_space_group_symop_operation_xyz
x,y,z
-x,y,-z
-x,-y,-z
x,-y,z
loop_
_atom_site_type_symbol
_atom_site_label
_atom_site_fract_x
_atom_site_fract_y
_atom_site_fract_z
Si Si1 0.774249 0.169285 0.561509
Si Si2 0.481418 0.328336 0.712479
Si Si3 0.584483 0.338860 0.971309
Si Si4 0.652329 0.836559 0.170718
Si Si5 0.279303 0.663852 0.626924
Si Si6 0.971101 0.831977 0.034341
Si Si7 0.712559 0.327680 0.752177
Si Si8 0.470600 0.671440 0.367090
O O1 0.652540 0.239408 0.446490
O O2 0.798925 0.246983 0.524777
O O3 0.744361 0.000000 0.511861
O O4 0.901760 0.194280 0.763601
O O5 0.446510 0.500000 0.670407
O O6 0.587335 0.291364 0.900759
O O7 0.545968 0.279323 0.726615
O O8 0.644594 0.500000 0.055539
O O9 0.432504 0.339338 0.801407
O O10 0.668036 0.229341 0.119605
O O11 0.739462 0.742691 0.328802
O O12 0.707650 0.000000 0.239010
O O13 0.500000 0.833758 0.000000
O O14 0.222667 0.500000 0.560543
O O15 0.852589 0.745749 0.917852
O O16 0.930685 0.000000 0.980232
O O17 0.000000 0.771692 0.000000
O O18 0.732728 0.500000 0.775407
O O19 0.653218 0.274098 0.745833
O O20 0.610568 0.272811 0.570256
O O21 0.474096 0.500000 0.377478
#
# Coordination Sequence:
#
# PCOD8059350 Si02
#       8
#     4   4   4   4   4   4   4   4
#     4  10  19  29  41  59  85 114 145 180 214 251
#     4   9  16  27  43  61  85 115 144 175 214 258
#     4   8  14  22  33  52  77 107 139 169 203 246
#     4   9  15  22  34  52  76 107 139 171 206 244
#     4   9  16  26  39  54  76 107 142 176 209 250
#     4  10  21  34  45  61  89 119 144 176 217 255
#     4   9  17  30  49  68  85 109 144 182 216 255
#     4   8  15  29  47  67  88 109 138 180 223 254
#
# _framework density 16.327171
#
# number of rings (size 3 to 8) (size 9 to 14) (size 15 to 20)
#    0.000    3.000    0.000    3.375    0.000    5.750 
#    0.000    1.875    0.000    0.000    0.000    0.000 
#    0.000    1.000    0.000   11.500    0.000    5.250 
#
# Total GULP energy -396642.698854 kJ/mol
# GULP energy per Si atom -12395.084339 kJ/mol
# Density = 1.629001 g / cm^3
# Si number density = 16.327171 Si / 1000 Ang^3
#
#
#
# Elastic Constant Matrix: (Units=GPa)
#
#
# Indices 1 2 3 4 5 6 
#
# 1 121.3775 54.2331 56.5736 0.0000 -30.6311 0.0000
# 2 54.2331 88.7654 42.6430 0.0000 -15.0897 0.0000
# 3 56.5736 42.6430 57.1967 0.0000 -18.6487 0.0000
# 4 0.0000 0.0000 0.0000 19.9201 0.0000 -8.8026
# 5 -30.6311 -15.0897 -18.6487 0.0000 31.1035 0.0000
# 6 0.0000 0.0000 0.0000 -8.8026 0.0000 15.2190
#
#
#
# Elastic Compliance Matrix: (Units=1/GPa)
#
#
# Indices 1 2 3 4 5 6 
#
# 1 0.017491 -0.003527 -0.011948 0.000000 0.008350 0.000000
# 2 -0.003527 0.018281 -0.010418 0.000000 -0.000851 0.000000
# 3 -0.011948 -0.010418 0.039259 0.000000 0.006717 0.000000
# 4 0.000000 0.000000 0.000000 0.067437 0.000000 0.039005
# 5 0.008350 -0.000851 0.006717 0.000000 0.043989 0.000000
# 6 0.000000 0.000000 0.000000 0.039005 0.000000 0.088268
#
#
# Mechanical properties :
#
#
# Convention : Reuss Voigt Hill
#
# Bulk Modulus (GPa) = 43.02177 63.80434 53.41305
# Shear Modulus (GPa) = 14.95842 20.84117 17.89979
#
# Velocity S-wave (km/s) = 3.03011 3.57665 3.31466
# Velocity P-wave (km/s) = 6.21684 7.49800 6.88728
#
# Compressibility (1/GPa) = 0.02324405
#
# Stress axis : x y z
#
# Youngs Moduli (GPa) = 57.17187 54.70233 25.47176
#
# Poissons Ratio (x) = 0.19294 0.30435
# Poissons Ratio (y) = 0.20165 0.26537
# Poissons Ratio (z) = 0.68311 0.56989
#
# Static dielectric constant tensor:
#      x y z
#    x 3.287040 0.000000 -0.423930 
#    y 0.000000 3.093530 0.000000 
#    z -0.423930 0.000000 2.832190 
# 
# 
# High freq. dielectric constant tensor:
#      x y z
#    x 1.616540 0.000000 -0.040710 
#    y 0.000000 1.624430 0.000000 
#    z -0.040710 0.000000 1.593000 
# 
# From -- ./inp_files/56450.got.cif
#   From: 2010.06.25/outbox.cif.g09.slc.cpg/sg10_29_cif.got.tgz:56450.got - 2010.06.27 22:07:45.
