data_PCOD8059236
_publ_section_title
;
Structure prediction by ZEFSAII (Michael W. Deem and Ramdas Pophale) SiO2 
 PCOD8059236
Probable space group: P 2/M
;
_chemical_formula_sum "Si O2"
_cell_formula_units_Z 32
_cell_length_a 12.509186
_cell_length_b 8.781126
_cell_length_c 18.930682
_cell_angle_alpha 90.000000
_cell_angle_beta 48.795184
_cell_angle_gamma 90.000000
_cell_volume 1564.483371
_symmetry_space_group_name_H-M "P 2/M"
_symmetry_group_IT_number 10
_symmetry_cell_setting 'monoclinic'
loop_
_space_group_symop_operation_xyz
x,y,z
-x,y,-z
-x,-y,-z
x,-y,z
loop_
_atom_site_type_symbol
_atom_site_label
_atom_site_fract_x
_atom_site_fract_y
_atom_site_fract_z
Si Si1 0.072023 0.820721 0.819738
Si Si2 0.313746 0.330783 0.233457
Si Si3 0.679033 0.319562 0.217719
Si Si4 0.954280 0.675292 0.731264
Si Si5 0.630052 0.176935 0.652214
Si Si6 0.829614 0.318082 0.008800
Si Si7 0.897111 0.322343 0.480840
Si Si8 0.420227 0.329224 0.971463
O O1 0.230328 0.750800 0.756976
O O2 0.007427 0.778277 0.772105
O O3 0.981837 0.754398 0.925643
O O4 0.078762 0.000000 0.824016
O O5 0.267975 0.500000 0.281064
O O6 0.298933 0.210733 0.302620
O O7 0.477815 0.333559 0.140544
O O8 0.212936 0.289496 0.210657
O O9 0.678544 0.500000 0.223134
O O10 0.517861 0.263999 0.293177
O O11 0.758068 0.261555 0.112258
O O12 0.978241 0.500000 0.742542
O O13 0.033237 0.717427 0.624430
O O14 0.746927 0.233589 0.545363
O O15 0.600425 0.000000 0.655681
O O16 0.844406 0.500000 0.002915
O O17 0.728047 0.257849 0.989051
O O18 0.864904 0.500000 0.502569
O O19 0.000000 0.267929 0.500000
O O20 0.386532 0.500000 0.013476
O O21 0.500000 0.237778 0.000000
#
# Coordination Sequence:
#
# PCOD8059236 Si02
#       8
#     4   4   4   4   4   4   4   4
#     4  12  26  41  59  88 129 164 198 251 317 374
#     4  10  18  35  60  86 118 159 207 252 293 349
#     4  11  23  43  68  88 115 160 219 265 293 348
#     4  10  21  39  66  92 120 160 209 256 297 354
#     4  12  24  37  59  93 131 160 190 243 315 374
#     4  10  20  37  62  89 116 157 213 258 295 350
#     4  10  20  39  67  95 121 157 209 255 292 352
#     4   9  16  28  52  84 116 151 198 251 295 340
#
# _framework density 20.454035999999999
#
# number of rings (size 3 to 8) (size 9 to 14) (size 15 to 20)
#    0.000    1.500    2.500    3.750    0.000    5.750 
#    0.000    0.625    0.000    5.250    0.000    0.000 
#    0.000    0.000    0.000    0.000    0.000    0.000 
#
# Total GULP energy -396726.236907 kJ/mol
# GULP energy per Si atom -12397.694903 kJ/mol
# Density = 2.040748 g / cm^3
# Si number density = 20.454036 Si / 1000 Ang^3
#
#
#
# Elastic Constant Matrix: (Units=GPa)
#
#
# Indices 1 2 3 4 5 6 
#
# 1 103.8424 32.0440 22.0635 0.0000 -24.3351 0.0000
# 2 32.0440 81.0182 26.6172 0.0000 -9.6549 0.0000
# 3 22.0635 26.6172 68.5579 0.0000 -15.9301 0.0000
# 4 0.0000 0.0000 0.0000 12.3125 0.0000 -0.5072
# 5 -24.3351 -9.6549 -15.9301 0.0000 27.9045 0.0000
# 6 0.0000 0.0000 0.0000 -0.5072 0.0000 22.1339
#
#
#
# Elastic Compliance Matrix: (Units=1/GPa)
#
#
# Indices 1 2 3 4 5 6 
#
# 1 0.013266 -0.003917 -0.000433 0.000000 0.009967 0.000000
# 2 -0.003917 0.015404 -0.004929 0.000000 -0.000900 0.000000
# 3 -0.000433 -0.004929 0.018626 0.000000 0.008550 0.000000
# 4 0.000000 0.000000 0.000000 0.081295 0.000000 0.001863
# 5 0.009967 -0.000900 0.008550 0.000000 0.049098 0.000000
# 6 0.000000 0.000000 0.000000 0.001863 0.000000 0.045222
#
#
# Mechanical properties :
#
#
# Convention : Reuss Voigt Hill
#
# Bulk Modulus (GPa) = 34.79633 46.09643 40.44638
# Shear Modulus (GPa) = 19.91637 23.98310 21.94974
#
# Velocity S-wave (km/s) = 3.12382 3.42795 3.27941
# Velocity P-wave (km/s) = 5.48269 6.18492 5.84437
#
# Compressibility (1/GPa) = 0.02873866
#
# Stress axis : x y z
#
# Youngs Moduli (GPa) = 75.37815 64.91675 53.68857
#
# Poissons Ratio (x) = 0.25429 0.02323
# Poissons Ratio (y) = 0.29527 0.26464
# Poissons Ratio (z) = 0.03261 0.31999
#
# Static dielectric constant tensor:
#      x y z
#    x 3.883020 0.000000 -0.119010 
#    y 0.000000 3.344390 0.000000 
#    z -0.119010 0.000000 3.734650 
# 
# 
# High freq. dielectric constant tensor:
#      x y z
#    x 1.810280 0.000000 -0.012710 
#    y 0.000000 1.763110 0.000000 
#    z -0.012710 0.000000 1.798670 
# 
# From -- ./inp_files/63830.got.cif
#   From: 2010.06.25/outbox.cif.g09.slc.cpg/sg10_32_cif.got.tgz:63830.got - 2010.06.27 22:07:45.
