data_PCOD8059583
_publ_section_title
;
Structure prediction by ZEFSAII (Michael W. Deem and Ramdas Pophale) SiO2 
 PCOD8059583
Probable space group: P 2/M
;
_chemical_formula_sum "Si O2"
_cell_formula_units_Z 32
_cell_length_a 13.768164
_cell_length_b 9.246959
_cell_length_c 26.055046
_cell_angle_alpha 90.000000
_cell_angle_beta 146.445414
_cell_angle_gamma 90.000000
_cell_volume 1833.499402
_symmetry_space_group_name_H-M "P 2/M"
_symmetry_group_IT_number 10
_symmetry_cell_setting 'monoclinic'
loop_
_space_group_symop_operation_xyz
x,y,z
-x,y,-z
-x,-y,-z
x,-y,z
loop_
_atom_site_type_symbol
_atom_site_label
_atom_site_fract_x
_atom_site_fract_y
_atom_site_fract_z
Si Si1 0.325307 0.163285 0.456628
Si Si2 0.785695 0.832962 0.121854
Si Si3 0.479697 0.335864 0.378905
Si Si4 0.016958 0.839107 0.947110
Si Si5 0.679816 0.665928 0.795171
Si Si6 0.521683 0.833381 0.092232
Si Si7 0.867259 0.668669 0.710682
Si Si8 0.638566 0.669851 0.893203
O O1 0.500000 0.168969 0.500000
O O2 0.369905 0.233322 0.531494
O O3 0.173653 0.253515 0.361547
O O4 0.259002 0.000000 0.435861
O O5 0.699534 0.799938 0.139409
O O6 0.955387 0.734184 0.187552
O O7 0.842069 0.000000 0.143471
O O8 0.645493 0.794807 0.016463
O O9 0.531530 0.500000 0.415385
O O10 0.472787 0.311425 0.314333
O O11 0.287870 0.301019 0.317375
O O12 0.843161 0.762989 0.849081
O O13 0.035628 0.000000 0.931083
O O14 0.000000 0.850539 0.000000
O O15 0.185476 0.743985 0.007304
O O16 0.745206 0.500000 0.824608
O O17 0.606879 0.708611 0.819302
O O18 0.520498 0.734952 0.143067
O O19 0.515430 0.000000 0.106272
O O20 0.893477 0.500000 0.711569
O O21 0.653037 0.500000 0.908190
#
# Coordination Sequence:
#
# PCOD8059583 Si02
#       8
#     4   4   4   4   4   4   4   4
#     4   9  17  30  47  68  94 124 156 188 228 276
#     4   9  19  35  51  68  92 121 156 198 241 282
#     4   9  18  31  46  67  98 128 155 189 228 271
#     4   9  17  28  41  59  85 118 157 195 226 264
#     4   9  18  31  44  64  94 126 157 190 230 276
#     4   9  19  35  51  67  91 123 157 198 243 278
#     4  10  19  30  48  72  96 123 156 191 231 278
#     4  10  19  30  46  65  90 124 158 193 234 277
#
# _framework density 17.452964000000001
#
# number of rings (size 3 to 8) (size 9 to 14) (size 15 to 20)
#    0.000    2.750    0.000    2.250    1.750    5.500 
#    0.000    1.250    0.000    0.000    0.000    0.875 
#    0.000    7.000    0.000    0.000    0.000    0.000 
#
# Total GULP energy -396742.648127 kJ/mol
# GULP energy per Si atom -12398.207754 kJ/mol
# Density = 1.741324 g / cm^3
# Si number density = 17.452964 Si / 1000 Ang^3
#
#
#
# Elastic Constant Matrix: (Units=GPa)
#
#
# Indices 1 2 3 4 5 6 
#
# 1 62.9470 27.6921 8.1254 0.0000 -13.4222 0.0000
# 2 27.6921 89.4358 25.5417 0.0000 -7.9117 0.0000
# 3 8.1254 25.5417 47.3939 0.0000 -10.9677 0.0000
# 4 0.0000 0.0000 0.0000 26.9939 0.0000 -0.4193
# 5 -13.4222 -7.9117 -10.9677 0.0000 20.6521 0.0000
# 6 0.0000 0.0000 0.0000 -0.4193 0.0000 24.7361
#
#
#
# Elastic Compliance Matrix: (Units=1/GPa)
#
#
# Indices 1 2 3 4 5 6 
#
# 1 0.020937 -0.006115 0.002637 0.000000 0.012665 0.000000
# 2 -0.006115 0.015040 -0.007574 0.000000 -0.002235 0.000000
# 3 0.002637 -0.007574 0.027881 0.000000 0.013619 0.000000
# 4 0.000000 0.000000 0.000000 0.037055 0.000000 0.000628
# 5 0.012665 -0.002235 0.013619 0.000000 0.063029 0.000000
# 6 0.000000 0.000000 0.000000 0.000628 0.000000 0.040437
#
#
# Mechanical properties :
#
#
# Convention : Reuss Voigt Hill
#
# Bulk Modulus (GPa) = 23.95027 35.83278 29.89153
# Shear Modulus (GPa) = 20.79843 23.70428 22.25136
#
# Velocity S-wave (km/s) = 3.45582 3.68935 3.57449
# Velocity P-wave (km/s) = 5.44758 6.22286 5.84808
#
# Compressibility (1/GPa) = 0.04175318
#
# Stress axis : x y z
#
# Youngs Moduli (GPa) = 47.76252 66.48876 35.86624
#
# Poissons Ratio (x) = 0.40661 -0.09459
# Poissons Ratio (y) = 0.29209 0.27166
# Poissons Ratio (z) = -0.12596 0.50361
#
# Static dielectric constant tensor:
#      x y z
#    x 3.138370 0.000000 -0.177960 
#    y 0.000000 3.347350 0.000000 
#    z -0.177960 0.000000 3.053220 
# 
# 
# High freq. dielectric constant tensor:
#      x y z
#    x 1.650390 0.000000 -0.021700 
#    y 0.000000 1.682510 0.000000 
#    z -0.021700 0.000000 1.648010 
# 
# From -- ./inp_files/66458.got.cif
#   From: 2010.06.25/outbox.cif.g09.slc.cpg/sg10_34_cif.got.tgz:66458.got - 2010.06.27 22:07:45.
