data_PCOD8059161
_publ_section_title
;
Structure prediction by ZEFSAII (Michael W. Deem and Ramdas Pophale) SiO2 
 PCOD8059161
Probable space group: P 2/M
;
_chemical_formula_sum "Si O2"
_cell_formula_units_Z 32
_cell_length_a 20.689279
_cell_length_b 8.547050
_cell_length_c 14.339183
_cell_angle_alpha 90.000000
_cell_angle_beta 136.607790
_cell_angle_gamma 90.000000
_cell_volume 1741.949713
_symmetry_space_group_name_H-M "P 2/M"
_symmetry_group_IT_number 10
_symmetry_cell_setting 'monoclinic'
loop_
_space_group_symop_operation_xyz
x,y,z
-x,y,-z
-x,-y,-z
x,-y,z
loop_
_atom_site_type_symbol
_atom_site_label
_atom_site_fract_x
_atom_site_fract_y
_atom_site_fract_z
Si Si1 0.956788 0.682012 0.651519
Si Si2 0.184830 0.815981 0.631687
Si Si3 0.100826 0.183992 0.075348
Si Si4 0.854728 0.816183 0.081782
Si Si5 0.731012 0.681319 0.100729
Si Si6 0.339850 0.817165 0.651823
Si Si7 0.531160 0.181299 0.926739
Si Si8 0.813889 0.817533 0.646027
O O1 0.981488 0.500000 0.675789
O O2 0.909084 0.731487 0.503820
O O3 0.888965 0.718332 0.667250
O O4 0.052185 0.779292 0.761648
O O5 0.204258 0.776451 0.758966
O O6 0.272659 0.750788 0.662916
O O7 0.171413 0.000000 0.604023
O O8 0.177862 0.224085 0.235983
O O9 0.088106 0.000000 0.048825
O O10 0.134735 0.253512 0.012212
O O11 0.000000 0.256108 0.000000
O O12 0.764863 0.731630 0.033447
O O13 0.835685 0.000000 0.060682
O O14 0.748360 0.500000 0.135942
O O15 0.621430 0.717389 0.996961
O O16 0.445957 0.751813 0.772131
O O17 0.292159 0.779135 0.501297
O O18 0.349269 0.000000 0.679841
O O19 0.555206 0.000000 0.932637
O O20 0.500000 0.206142 0.000000
O O21 0.837342 0.000000 0.652666
#
# Coordination Sequence:
#
# PCOD8059161 Si02
#       8
#     4   4   4   4   4   4   4   4
#     4  11  21  33  50  80 115 145 177 221 267 320
#     4  10  19  36  57  78 105 146 187 219 259 318
#     4   9  16  30  56  85 106 133 184 237 269 309
#     4  11  22  38  57  76 104 148 189 225 271 325
#     4  12  25  38  52  79 113 143 178 227 279 328
#     4   8  15  28  53  82 106 134 174 224 264 310
#     4  10  18  34  57  81 107 141 186 224 262 323
#     4   9  16  31  54  81 110 142 180 224 273 320
#
# _framework density 18.37022
#
# number of rings (size 3 to 8) (size 9 to 14) (size 15 to 20)
#    0.000    2.000    2.500    3.750    0.000    0.750 
#    0.000    5.000    0.000    0.750    0.000    5.250 
#    0.000    0.000    0.000    0.000    0.000    0.000 
#
# Total GULP energy -396738.873235 kJ/mol
# GULP energy per Si atom -12398.089789 kJ/mol
# Density = 1.832841 g / cm^3
# Si number density = 18.370220 Si / 1000 Ang^3
#
#
#
# Elastic Constant Matrix: (Units=GPa)
#
#
# Indices 1 2 3 4 5 6 
#
# 1 91.8616 14.4019 46.1350 0.0000 -7.3052 0.0000
# 2 14.4019 44.1819 14.2352 0.0000 0.3894 0.0000
# 3 46.1350 14.2352 116.2279 0.0000 -6.4281 0.0000
# 4 0.0000 0.0000 0.0000 13.9021 0.0000 0.7107
# 5 -7.3052 0.3894 -6.4281 0.0000 23.7265 0.0000
# 6 0.0000 0.0000 0.0000 0.7107 0.0000 13.6174
#
#
#
# Elastic Compliance Matrix: (Units=1/GPa)
#
#
# Indices 1 2 3 4 5 6 
#
# 1 0.014149 -0.003002 -0.005081 0.000000 0.003029 0.000000
# 2 -0.003002 0.024233 -0.001878 0.000000 -0.001831 0.000000
# 3 -0.005081 -0.001878 0.010930 0.000000 0.001427 0.000000
# 4 0.000000 0.000000 0.000000 0.072124 0.000000 -0.003764
# 5 0.003029 -0.001831 0.001427 0.000000 0.043496 0.000000
# 6 0.000000 0.000000 0.000000 -0.003764 0.000000 0.073632
#
#
# Mechanical properties :
#
#
# Convention : Reuss Voigt Hill
#
# Bulk Modulus (GPa) = 34.02426 44.64619 39.33522
# Shear Modulus (GPa) = 18.63702 22.08247 20.35975
#
# Velocity S-wave (km/s) = 3.18861 3.47086 3.33273
# Velocity P-wave (km/s) = 5.66727 6.35758 6.02233
#
# Compressibility (1/GPa) = 0.02939080
#
# Stress axis : x y z
#
# Youngs Moduli (GPa) = 70.67470 41.26547 91.49442
#
# Poissons Ratio (x) = 0.12387 0.46490
# Poissons Ratio (y) = 0.21215 0.17180
# Poissons Ratio (z) = 0.35911 0.07749
#
# Static dielectric constant tensor:
#      x y z
#    x 3.302930 0.000000 -0.015690 
#    y 0.000000 3.092860 0.000000 
#    z -0.015690 0.000000 3.683030 
# 
# 
# High freq. dielectric constant tensor:
#      x y z
#    x 1.685950 0.000000 -0.002260 
#    y 0.000000 1.689180 0.000000 
#    z -0.002260 0.000000 1.719580 
# 
# From -- ./inp_files/70051.got.cif
#   From: 2010.06.25/outbox.cif.g09.slc.cpg/sg10_36_cif.got.tgz:70051.got - 2010.06.27 22:07:45.
