data_PCOD8059667
_publ_section_title
;
Structure prediction by ZEFSAII (Michael W. Deem and Ramdas Pophale) SiO2 
 PCOD8059667
Probable space group: P 2/M
;
_chemical_formula_sum "Si O2"
_cell_formula_units_Z 28
_cell_length_a 15.338308
_cell_length_b 10.081981
_cell_length_c 16.763028
_cell_angle_alpha 90.000000
_cell_angle_beta 36.871027
_cell_angle_gamma 90.000000
_cell_volume 1555.386995
_symmetry_space_group_name_H-M "P 2/M"
_symmetry_group_IT_number 10
_symmetry_cell_setting 'monoclinic'
loop_
_space_group_symop_operation_xyz
x,y,z
-x,y,-z
-x,-y,-z
x,-y,z
loop_
_atom_site_type_symbol
_atom_site_label
_atom_site_fract_x
_atom_site_fract_y
_atom_site_fract_z
Si Si1 0.195349 0.153871 0.078359
Si Si2 0.882773 0.149140 0.339927
Si Si3 0.352139 0.647426 0.267042
Si Si4 0.760495 0.647556 0.820147
Si Si5 0.450798 0.152585 0.782493
Si Si6 0.571195 0.842266 0.527847
Si Si7 0.944568 0.742632 0.458456
O O1 0.275172 0.242346 0.087040
O O2 0.028707 0.206562 0.190461
O O3 0.194416 0.000000 0.107779
O O4 0.281880 0.168968 0.931754
O O5 0.733326 0.220681 0.421107
O O6 0.899113 0.151725 0.424112
O O7 0.866008 0.000000 0.323842
O O8 0.415559 0.500000 0.236607
O O9 0.344517 0.675199 0.177977
O O10 0.452272 0.759350 0.230860
O O11 0.192174 0.650227 0.422436
O O12 0.731138 0.500000 0.876200
O O13 0.928027 0.651391 0.669880
O O14 0.470096 0.198381 0.676896
O O15 0.501462 0.000000 0.755821
O O16 0.500000 0.781512 0.500000
O O17 0.579746 0.000000 0.515261
O O18 0.000000 0.814153 0.500000
#
# Coordination Sequence:
#
# PCOD8059667 Si02
#       7
#     4   4   4   4   4   4   4
#     4   9  19  33  48  69 101 134 164 201 243 288
#     4   9  16  29  48  72 100 129 163 202 243 292
#     4  10  19  30  47  72 100 132 169 209 246 285
#     4   9  18  31  47  69 100 135 171 204 240 290
#     4  10  20  34  50  71  99 130 163 203 250 296
#     4   9  17  31  53  77  98 124 161 206 253 297
#     4   9  16  27  45  70  99 130 165 205 244 285
#
# _framework density 18.001950000000001
#
# number of rings (size 3 to 8) (size 9 to 14) (size 15 to 20)
#    0.000    2.714    1.429    0.429    0.000    3.714 
#    0.000    6.429    0.000    4.714    0.000    0.000 
#    0.000    3.714    0.000    0.000    0.000    0.000 
#
# Total GULP energy -346929.520758 kJ/mol
# GULP energy per Si atom -12390.340027 kJ/mol
# Density = 1.796098 g / cm^3
# Si number density = 18.001950 Si / 1000 Ang^3
#
#
#
# Elastic Constant Matrix: (Units=GPa)
#
#
# Indices 1 2 3 4 5 6 
#
# 1 120.8529 29.8175 65.3596 0.0000 1.9056 0.0000
# 2 29.8175 51.9512 32.6548 0.0000 4.3862 0.0000
# 3 65.3596 32.6548 120.8643 0.0000 6.4622 0.0000
# 4 0.0000 0.0000 0.0000 11.7064 0.0000 -3.1954
# 5 1.9056 4.3862 6.4622 0.0000 14.0652 0.0000
# 6 0.0000 0.0000 0.0000 -3.1954 0.0000 8.0476
#
#
#
# Elastic Compliance Matrix: (Units=1/GPa)
#
#
# Indices 1 2 3 4 5 6 
#
# 1 0.012243 -0.003581 -0.005766 0.000000 0.002107 0.000000
# 2 -0.003581 0.024510 -0.004411 0.000000 -0.005131 0.000000
# 3 -0.005766 -0.004411 0.012782 0.000000 -0.003716 0.000000
# 4 0.000000 0.000000 0.000000 0.095806 0.000000 0.038040
# 5 0.002107 -0.005131 -0.003716 0.000000 0.074119 0.000000
# 6 0.000000 0.000000 0.000000 0.038040 0.000000 0.139364
#
#
# Mechanical properties :
#
#
# Convention : Reuss Voigt Hill
#
# Bulk Modulus (GPa) = 45.41413 61.03690 53.22552
# Shear Modulus (GPa) = 12.70063 17.81962 15.26013
#
# Velocity S-wave (km/s) = 2.65903 3.14964 2.91468
# Velocity P-wave (km/s) = 5.89147 6.87068 6.39983
#
# Compressibility (1/GPa) = 0.02201958
#
# Stress axis : x y z
#
# Youngs Moduli (GPa) = 81.67903 40.79959 78.23304
#
# Poissons Ratio (x) = 0.14608 0.45109
# Poissons Ratio (y) = 0.29246 0.34512
# Poissons Ratio (z) = 0.47096 0.17999
#
# Static dielectric constant tensor:
#      x y z
#    x 3.379410 0.000000 -0.107770 
#    y 0.000000 3.003890 0.000000 
#    z -0.107770 0.000000 3.577070 
# 
# 
# High freq. dielectric constant tensor:
#      x y z
#    x 1.669750 0.000000 -0.011690 
#    y 0.000000 1.660750 0.000000 
#    z -0.011690 0.000000 1.709860 
# 
# From -- ./inp_files/67102.got.cif
#   From: 2010.06.25/outbox.cif.g09.slc.cpg/sg10_34_cif.got.tgz:67102.got - 2010.06.27 22:07:45.
