data_PCOD8059252
_publ_section_title
;
Structure prediction by ZEFSAII (Michael W. Deem and Ramdas Pophale) SiO2 
 PCOD8059252
Probable space group: P 2/M
;
_chemical_formula_sum "Si O2"
_cell_formula_units_Z 16
_cell_length_a 9.446152
_cell_length_b 11.003494
_cell_length_c 9.171967
_cell_angle_alpha 90.000000
_cell_angle_beta 42.376600
_cell_angle_gamma 90.000000
_cell_volume 642.552175
_symmetry_space_group_name_H-M "P 2/M"
_symmetry_group_IT_number 10
_symmetry_cell_setting 'monoclinic'
loop_
_space_group_symop_operation_xyz
x,y,z
-x,y,-z
-x,-y,-z
x,-y,z
loop_
_atom_site_type_symbol
_atom_site_label
_atom_site_fract_x
_atom_site_fract_y
_atom_site_fract_z
Si Si1 0.215855 0.133279 0.750992
Si Si2 0.069509 0.500000 0.204525
Si Si3 0.058095 0.857490 0.299513
Si Si4 0.670993 0.500000 0.694210
Si Si5 0.667805 0.702588 0.095166
O O1 0.150511 0.172125 0.637532
O O2 0.364139 0.230534 0.722864
O O3 0.325635 0.000000 0.668612
O O4 0.000000 0.123304 0.000000
O O5 0.219998 0.500000 0.232449
O O6 0.829537 0.500000 0.437123
O O7 0.123413 0.616804 0.064147
O O8 0.000000 0.799220 0.500000
O O9 0.099847 0.000000 0.279465
O O10 0.276407 0.801866 0.071894
O O11 0.535022 0.622747 0.786195
#
# Coordination Sequence:
#
# PCOD8059252 Si02
#       5
#     4   2   4   2   4
#     4   8  15  31  59  93 132 171 204 251 315 374
#     4  10  23  41  62  91 125 166 211 276 320 368
#     4   9  18  33  61 101 134 170 210 253 314 377
#     4  10  23  41  61  92 129 163 218 268 321 372
#     4  10  18  35  66  96 122 169 210 255 318 377
#
# _framework density 24.900701000000002
#
# number of rings (size 3 to 8) (size 9 to 14) (size 15 to 20)
#    0.000    2.750    0.000    3.750    3.500    0.000 
#    0.000   22.500    0.000   45.000    0.000   31.500 
#    0.000    0.000    0.000    3.000    0.000    0.000 
#
# Total GULP energy -198251.282809 kJ/mol
# GULP energy per Si atom -12390.705176 kJ/mol
# Density = 2.484403 g / cm^3
# Si number density = 24.900701 Si / 1000 Ang^3
#
#
#
# Elastic Constant Matrix: (Units=GPa)
#
#
# Indices 1 2 3 4 5 6 
#
# 1 111.3482 55.0752 65.9798 0.0000 14.1626 0.0000
# 2 55.0752 127.1139 38.7402 0.0000 7.8072 0.0000
# 3 65.9798 38.7402 103.2952 0.0000 10.3690 0.0000
# 4 0.0000 0.0000 0.0000 -31.9326 0.0000 13.3517
# 5 14.1626 7.8072 10.3690 0.0000 52.4064 0.0000
# 6 0.0000 0.0000 0.0000 13.3517 0.0000 30.7432
#
#
#
# Elastic Compliance Matrix: (Units=1/GPa)
#
#
# Indices 1 2 3 4 5 6 
#
# 1 0.016608 -0.004401 -0.008747 0.000000 -0.002102 0.000000
# 2 -0.004401 0.010072 -0.000954 0.000000 -0.000122 0.000000
# 3 -0.008747 -0.000954 0.015686 0.000000 -0.000598 0.000000
# 4 0.000000 0.000000 0.000000 -0.026503 0.000000 0.011510
# 5 -0.002102 -0.000122 -0.000598 0.000000 0.019786 0.000000
# 6 0.000000 0.000000 0.000000 0.011510 0.000000 0.027529
#
#
# Mechanical properties :
#
#
# Convention : Reuss Voigt Hill
#
# Bulk Modulus (GPa) = 70.61043 73.48308 72.04675
# Shear Modulus (GPa) = 52.02829 22.37422 37.20125
#
# Velocity S-wave (km/s) = 4.57599 3.00081 3.86940
# Velocity P-wave (km/s) = 7.50586 6.44833 6.99710
#
# Compressibility (1/GPa) = 0.01416221
#
# Stress axis : x y z
#
# Youngs Moduli (GPa) = 60.21220 99.28452 63.75193
#
# Poissons Ratio (x) = 0.43695 0.55762
# Poissons Ratio (y) = 0.26499 0.06082
# Poissons Ratio (z) = 0.52666 0.09472
#
# Static dielectric constant tensor:
#      x y z
#    x 4.866720 0.000000 0.583270 
#    y 0.000000 4.886070 0.000000 
#    z 0.583270 0.000000 4.835820 
# 
# 
# High freq. dielectric constant tensor:
#      x y z
#    x 1.963500 0.000000 0.011360 
#    y 0.000000 2.006520 0.000000 
#    z 0.011360 0.000000 1.994450 
# 
# From -- ./inp_files/17596.got.cif
#   From: 2010.06.25/outbox.cif.g09.slc.cpg/sg10_9_cif.got.tgz:17596.got - 2010.06.27 22:07:45.
