data_PCOD8059982
_publ_section_title
;
Structure prediction by ZEFSAII (Michael W. Deem and Ramdas Pophale) SiO2 
 PCOD8059982
Probable space group: P 2/M
;
_chemical_formula_sum "Si O2"
_cell_formula_units_Z 30
_cell_length_a 5.253540
_cell_length_b 8.197551
_cell_length_c 34.323331
_cell_angle_alpha 90.000000
_cell_angle_beta 68.602741
_cell_angle_gamma 90.000000
_cell_volume 1376.288427
_symmetry_space_group_name_H-M "P 2/M"
_symmetry_group_IT_number 10
_symmetry_cell_setting 'monoclinic'
loop_
_space_group_symop_operation_xyz
x,y,z
-x,y,-z
-x,-y,-z
x,-y,z
loop_
_atom_site_type_symbol
_atom_site_label
_atom_site_fract_x
_atom_site_fract_y
_atom_site_fract_z
Si Si1 0.948913 0.191670 0.310982
Si Si2 0.443304 0.194664 0.734266
Si Si3 0.416309 0.812867 0.127507
Si Si4 0.274089 0.306252 0.594924
Si Si5 0.178159 0.500000 0.027916
Si Si6 0.685166 0.822034 0.951696
Si Si7 0.888100 0.694059 0.547075
Si Si8 0.810348 0.805126 0.170918
O O1 0.748320 0.265874 0.289363
O O2 0.835415 0.231559 0.359456
O O3 0.252148 0.266069 0.288821
O O4 0.965261 0.000000 0.304244
O O5 0.329752 0.258352 0.781796
O O6 0.446214 0.000000 0.732909
O O7 0.495478 0.793045 0.077263
O O8 0.641796 0.732615 0.143257
O O9 0.116978 0.733572 0.151043
O O10 0.397193 0.000000 0.140990
O O11 0.266920 0.500000 0.597980
O O12 0.082968 0.241650 0.570656
O O13 0.580979 0.241531 0.570774
O O14 0.110019 0.667352 0.055403
O O15 0.500000 0.500000 0.000000
O O16 0.000000 0.500000 0.000000
O O17 0.839829 0.000000 0.938729
O O18 0.500000 0.831908 0.000000
O O19 0.890827 0.500000 0.545849
O O20 0.000000 0.764265 0.500000
O O21 0.818687 0.000000 0.169268
#
# Coordination Sequence:
#
# PCOD8059982 Si02
#       8
#     4   4   4   4   2   4   4   4
#     4  10  19  31  48  72  99 128 161 200 250 298
#     4   9  17  29  47  71  98 128 163 204 247 293
#     4   9  17  28  46  73 101 130 164 206 255 297
#     4  10  19  31  49  73  96 124 161 200 246 290
#     4  10  22  38  56  80 108 144 184 220 268 320
#     4   9  19  36  57  83 114 146 182 226 275 329
#     4   9  17  30  49  71  95 124 163 206 242 284
#     4   9  16  28  46  72 100 125 166 212 246 296
#
# _framework density 21.797757000000001
#
# number of rings (size 3 to 8) (size 9 to 14) (size 15 to 20)
#    0.000    2.667    0.000    2.000    0.000    7.200 
#    0.000    4.000    0.000    2.400   10.400    0.000 
#    0.000    0.000    0.000    0.000    0.000    0.000 
#
# Total GULP energy -371794.080838 kJ/mol
# GULP energy per Si atom -12393.136028 kJ/mol
# Density = 2.174814 g / cm^3
# Si number density = 21.797757 Si / 1000 Ang^3
#
#
#
# Elastic Constant Matrix: (Units=GPa)
#
#
# Indices 1 2 3 4 5 6 
#
# 1 178.8784 2.0351 70.0887 0.0000 19.1141 0.0000
# 2 2.0351 56.1386 -8.9744 0.0000 13.9227 0.0000
# 3 70.0887 -8.9744 163.3291 0.0000 15.6295 0.0000
# 4 0.0000 0.0000 0.0000 252.1134 0.0000 -5.6762
# 5 19.1141 13.9227 15.6295 0.0000 49.4328 0.0000
# 6 0.0000 0.0000 0.0000 -5.6762 0.0000 6.3325
#
#
#
# Elastic Compliance Matrix: (Units=1/GPa)
#
#
# Indices 1 2 3 4 5 6 
#
# 1 0.006873 -0.000277 -0.002802 0.000000 -0.001693 0.000000
# 2 -0.000277 0.019585 0.001766 0.000000 -0.005967 0.000000
# 3 -0.002802 0.001766 0.007596 0.000000 -0.001816 0.000000
# 4 0.000000 0.000000 0.000000 0.004048 0.000000 0.003629
# 5 -0.001693 -0.005967 -0.001816 0.000000 0.023139 0.000000
# 6 0.000000 0.000000 0.000000 0.003629 0.000000 0.161167
#
#
# Mechanical properties :
#
#
# Convention : Reuss Voigt Hill
#
# Bulk Modulus (GPa) = 31.81971 58.29389 45.05680
# Shear Modulus (GPa) = 21.23044 83.92220 52.57632
#
# Velocity S-wave (km/s) = 3.12424 6.21160 4.91655
# Velocity P-wave (km/s) = 5.25775 8.84570 7.27634
#
# Compressibility (1/GPa) = 0.03142706
#
# Stress axis : x y z
#
# Youngs Moduli (GPa) = 145.50724 51.05840 131.64907
#
# Poissons Ratio (x) = 0.01415 0.36893
# Poissons Ratio (y) = 0.04033 -0.23251
# Poissons Ratio (z) = 0.40776 -0.09018
#
# Static dielectric constant tensor:
#      x y z
#    x 4.238390 0.000000 0.134220 
#    y 0.000000 4.056410 0.000000 
#    z 0.134220 0.000000 3.994270 
# 
# 
# High freq. dielectric constant tensor:
#      x y z
#    x 1.862930 0.000000 0.010240 
#    y 0.000000 1.801600 0.000000 
#    z 0.010240 0.000000 1.867800 
# 
# From -- ./inp_files/94323.got.cif
#   From: 2010.06.25/outbox.cif.g09.slc.cpg/sg10_48_cif.got.tgz:94323.got - 2010.06.27 22:07:45.
