data_PCOD8059248
_publ_section_title
;
Structure prediction by ZEFSAII (Michael W. Deem and Ramdas Pophale) SiO2 
 PCOD8059248
Probable space group: P 2/M
;
_chemical_formula_sum "Si O2"
_cell_formula_units_Z 20
_cell_length_a 9.666332
_cell_length_b 15.375790
_cell_length_c 9.914551
_cell_angle_alpha 90.000000
_cell_angle_beta 40.849490
_cell_angle_gamma 90.000000
_cell_volume 963.827320
_symmetry_space_group_name_H-M "P 2/M"
_symmetry_group_IT_number 10
_symmetry_cell_setting 'monoclinic'
loop_
_space_group_symop_operation_xyz
x,y,z
-x,y,-z
-x,-y,-z
x,-y,z
loop_
_atom_site_type_symbol
_atom_site_label
_atom_site_fract_x
_atom_site_fract_y
_atom_site_fract_z
Si Si1 0.874155 0.400505 0.454621
Si Si2 0.310709 0.871370 0.230856
Si Si3 0.090887 0.905452 0.647275
Si Si4 0.054108 0.266606 0.111523
Si Si5 0.481459 0.309036 0.155055
O O1 0.880395 0.500000 0.402933
O O2 0.629251 0.371320 0.654243
O O3 0.000000 0.385779 0.500000
O O4 0.973225 0.343821 0.264192
O O5 0.301289 0.900918 0.395925
O O6 0.319994 0.767138 0.228973
O O7 0.101856 0.902028 0.312395
O O8 0.500000 0.911069 0.000000
O O9 0.064368 0.825246 0.770416
O O10 0.095441 0.000000 0.719228
O O11 0.307925 0.263563 0.941086
O O12 0.000000 0.292291 0.000000
O O13 0.500000 0.363111 0.000000
#
# Coordination Sequence:
#
# PCOD8059248 Si02
#       5
#     4   4   4   4   4
#     4  11  23  42  72 101 127 161 214 267 314 381
#     4  10  18  35  62  92 121 157 211 269 313 360
#     4  11  22  36  60  93 128 167 214 263 317 378
#     4  12  26  44  63  92 136 174 208 263 325 375
#     4  11  20  39  69  92 124 170 213 258 311 387
#
# _framework density 20.750606999999999
#
# number of rings (size 3 to 8) (size 9 to 14) (size 15 to 20)
#    0.000    1.000    8.000    1.200    0.000    4.400 
#    0.000    1.000    0.000    1.200    0.000    0.000 
#    0.000    0.000    0.000    0.000    0.000    0.000 
#
# Total GULP energy -247786.504574 kJ/mol
# GULP energy per Si atom -12389.325229 kJ/mol
# Density = 2.070338 g / cm^3
# Si number density = 20.750607 Si / 1000 Ang^3
#
#
#
# Elastic Constant Matrix: (Units=GPa)
#
#
# Indices 1 2 3 4 5 6 
#
# 1 57.5810 26.9038 32.8496 0.0000 11.0577 0.0000
# 2 26.9038 165.7923 65.6156 0.0000 10.1590 0.0000
# 3 32.8496 65.6156 122.2455 0.0000 -2.9844 0.0000
# 4 0.0000 0.0000 0.0000 9.9610 0.0000 -6.9548
# 5 11.0577 10.1590 -2.9844 0.0000 30.2968 0.0000
# 6 0.0000 0.0000 0.0000 -6.9548 0.0000 18.8457
#
#
#
# Elastic Compliance Matrix: (Units=1/GPa)
#
#
# Indices 1 2 3 4 5 6 
#
# 1 0.022765 -0.000841 -0.005876 0.000000 -0.008605 0.000000
# 2 -0.000841 0.007968 -0.004118 0.000000 -0.002770 0.000000
# 3 -0.005876 -0.004118 0.012085 0.000000 0.004716 0.000000
# 4 0.000000 0.000000 0.000000 0.135238 0.000000 0.049908
# 5 -0.008605 -0.002770 0.004716 0.000000 0.037541 0.000000
# 6 0.000000 0.000000 0.000000 0.049908 0.000000 0.071481
#
#
# Mechanical properties :
#
#
# Convention : Reuss Voigt Hill
#
# Bulk Modulus (GPa) = 47.28937 66.26188 56.77563
# Shear Modulus (GPa) = 15.83299 26.50401 21.16850
#
# Velocity S-wave (km/s) = 2.76527 3.57776 3.19743
# Velocity P-wave (km/s) = 5.74756 7.00493 6.40716
#
# Compressibility (1/GPa) = 0.02114640
#
# Stress axis : x y z
#
# Youngs Moduli (GPa) = 43.92794 125.50479 82.74847
#
# Poissons Ratio (x) = 0.10560 0.48621
# Poissons Ratio (y) = 0.03696 0.34078
# Poissons Ratio (z) = 0.25811 0.51687
#
# Static dielectric constant tensor:
#      x y z
#    x 3.347540 0.000000 -0.136730 
#    y 0.000000 3.799340 0.000000 
#    z -0.136730 0.000000 4.496400 
# 
# 
# High freq. dielectric constant tensor:
#      x y z
#    x 1.760670 0.000000 -0.010350 
#    y 0.000000 1.811940 0.000000 
#    z -0.010350 0.000000 1.832680 
# 
# From -- ./inp_files/19528.got.cif
#   From: 2010.06.25/outbox.cif.g09.slc.cpg/sg10_10_cif.got.tgz:19528.got - 2010.06.27 22:07:45.
