data_PCOD8059686
_publ_section_title
;
Structure prediction by ZEFSAII (Michael W. Deem and Ramdas Pophale) SiO2 
 PCOD8059686
Probable space group: P 2/M
;
_chemical_formula_sum "Si O2"
_cell_formula_units_Z 32
_cell_length_a 12.308177
_cell_length_b 8.891731
_cell_length_c 23.739500
_cell_angle_alpha 90.000000
_cell_angle_beta 134.336239
_cell_angle_gamma 90.000000
_cell_volume 1858.275063
_symmetry_space_group_name_H-M "P 2/M"
_symmetry_group_IT_number 10
_symmetry_cell_setting 'monoclinic'
loop_
_space_group_symop_operation_xyz
x,y,z
-x,y,-z
-x,-y,-z
x,-y,z
loop_
_atom_site_type_symbol
_atom_site_label
_atom_site_fract_x
_atom_site_fract_y
_atom_site_fract_z
Si Si1 0.458955 0.327476 0.422478
Si Si2 0.111653 0.328092 0.309845
Si Si3 0.315948 0.822760 0.579352
Si Si4 0.371135 0.330404 0.000191
Si Si5 0.944900 0.676252 0.583418
Si Si6 0.584089 0.823264 0.158535
Si Si7 0.833678 0.824362 0.157232
Si Si8 0.290926 0.322387 0.687916
O O1 0.500000 0.274209 0.500000
O O2 0.512409 0.500000 0.433377
O O3 0.280233 0.309687 0.346832
O O4 0.545753 0.221256 0.410904
O O5 0.054624 0.500000 0.285322
O O6 0.107241 0.275848 0.373119
O O7 0.004200 0.225103 0.232945
O O8 0.155636 0.765048 0.497784
O O9 0.348969 0.749000 0.651350
O O10 0.308840 0.000000 0.583427
O O11 0.335700 0.500000 0.006680
O O12 0.219324 0.257800 0.919117
O O13 0.500000 0.325767 0.000000
O O14 0.427430 0.234602 0.074094
O O15 0.920344 0.500000 0.563927
O O16 0.117783 0.725434 0.636893
O O17 0.726429 0.779407 0.170662
O O18 0.602915 0.740636 0.224465
O O19 0.572883 0.000000 0.164178
O O20 0.827295 0.000000 0.143020
O O21 0.309236 0.500000 0.691735
#
# Coordination Sequence:
#
# PCOD8059686 Si02
#       8
#     4   4   4   4   4   4   4   4
#     4  10  20  38  59  75  97 133 177 221 262 308
#     4  10  19  33  55  78 101 134 177 217 257 308
#     4  12  25  37  52  75 105 136 174 221 267 311
#     4   9  17  29  47  70 100 139 179 210 245 303
#     4  10  20  36  55  75 101 137 178 215 256 309
#     4  10  19  31  48  74 108 139 169 209 262 310
#     4  10  19  30  47  74 109 139 167 210 263 312
#     4  11  22  36  55  75 102 140 181 215 252 310
#
# _framework density 17.220272000000001
#
# number of rings (size 3 to 8) (size 9 to 14) (size 15 to 20)
#    0.000    1.750    2.500    3.000    0.000    6.250 
#    0.000    0.000    0.000    0.000    0.000    0.875 
#    0.000    7.000    0.000    0.000    0.000    0.000 
#
# Total GULP energy -396954.962694 kJ/mol
# GULP energy per Si atom -12404.842584 kJ/mol
# Density = 1.718108 g / cm^3
# Si number density = 17.220272 Si / 1000 Ang^3
#
#
#
# Elastic Constant Matrix: (Units=GPa)
#
#
# Indices 1 2 3 4 5 6 
#
# 1 51.7838 28.4858 34.4506 0.0000 -11.3202 0.0000
# 2 28.4858 87.1249 52.6719 0.0000 -7.0589 0.0000
# 3 34.4506 52.6719 126.8352 0.0000 -8.6159 0.0000
# 4 0.0000 0.0000 0.0000 26.4437 0.0000 -3.5942
# 5 -11.3202 -7.0589 -8.6159 0.0000 17.7627 0.0000
# 6 0.0000 0.0000 0.0000 -3.5942 0.0000 19.1333
#
#
#
# Elastic Compliance Matrix: (Units=1/GPa)
#
#
# Indices 1 2 3 4 5 6 
#
# 1 0.028276 -0.005414 -0.004502 0.000000 0.013685 0.000000
# 2 -0.005414 0.016530 -0.005358 0.000000 0.000519 0.000000
# 3 -0.004502 -0.005358 0.011367 0.000000 0.000515 0.000000
# 4 0.000000 0.000000 0.000000 0.038807 0.000000 0.007290
# 5 0.013685 0.000519 0.000515 0.000000 0.065475 0.000000
# 6 0.000000 0.000000 0.000000 0.007290 0.000000 0.053634
#
#
# Mechanical properties :
#
#
# Convention : Reuss Voigt Hill
#
# Bulk Modulus (GPa) = 39.02742 55.21784 47.12263
# Shear Modulus (GPa) = 19.74872 22.67699 21.21285
#
# Velocity S-wave (km/s) = 3.39016 3.63282 3.51358
# Velocity P-wave (km/s) = 6.16742 7.05207 6.62453
#
# Compressibility (1/GPa) = 0.02562301
#
# Stress axis : x y z
#
# Youngs Moduli (GPa) = 35.36532 60.49749 87.97107
#
# Poissons Ratio (x) = 0.32756 0.39606
# Poissons Ratio (y) = 0.19148 0.47139
# Poissons Ratio (z) = 0.15922 0.32417
#
# Static dielectric constant tensor:
#      x y z
#    x 2.946370 0.000000 0.005510 
#    y 0.000000 3.208210 0.000000 
#    z 0.005510 0.000000 3.283560 
# 
# 
# High freq. dielectric constant tensor:
#      x y z
#    x 1.626140 0.000000 0.002330 
#    y 0.000000 1.671290 0.000000 
#    z 0.002330 0.000000 1.671890 
# 
# From -- ./inp_files/55245.got.cif
#   From: 2010.06.25/outbox.cif.g09.slc.cpg/sg10_28_cif.got.tgz:55245.got - 2010.06.27 22:07:45.
