data_PCOD8059149
_publ_section_title
;
Structure prediction by ZEFSAII (Michael W. Deem and Ramdas Pophale) SiO2 
 PCOD8059149
Probable space group: P 2/M
;
_chemical_formula_sum "Si O2"
_cell_formula_units_Z 28
_cell_length_a 12.072746
_cell_length_b 13.915793
_cell_length_c 8.696207
_cell_angle_alpha 90.000000
_cell_angle_beta 110.428353
_cell_angle_gamma 90.000000
_cell_volume 1369.096873
_symmetry_space_group_name_H-M "P 2/M"
_symmetry_group_IT_number 10
_symmetry_cell_setting 'monoclinic'
loop_
_space_group_symop_operation_xyz
x,y,z
-x,y,-z
-x,-y,-z
x,-y,z
loop_
_atom_site_type_symbol
_atom_site_label
_atom_site_fract_x
_atom_site_fract_y
_atom_site_fract_z
Si Si1 0.327152 0.301500 0.588742
Si Si2 0.745994 0.603164 0.750514
Si Si3 0.114262 0.264399 0.977473
Si Si4 0.415208 0.106065 0.732238
Si Si5 0.546652 0.631220 0.874462
Si Si6 0.351913 0.830966 0.028378
Si Si7 0.890913 0.386924 0.331794
O O1 0.308152 0.327354 0.402888
O O2 0.342920 0.185701 0.601291
O O3 0.446437 0.350946 0.701083
O O4 0.222124 0.341532 0.641111
O O5 0.786655 0.500000 0.699336
O O6 0.649720 0.578196 0.834320
O O7 0.855279 0.654494 0.882379
O O8 0.086125 0.319963 0.805244
O O9 0.215235 0.181074 0.014782
O O10 0.000000 0.213621 0.000000
O O11 0.558222 0.124508 0.800397
O O12 0.391527 0.000000 0.650880
O O13 0.363298 0.106840 0.880172
O O14 0.601532 0.724637 0.984904
O O15 0.500000 0.570406 0.000000
O O16 0.870709 0.500000 0.279419
O O17 0.000000 0.376336 0.500000
#
# Coordination Sequence:
#
# PCOD8059149 Si02
#       7
#     4   4   4   4   4   4   4
#     4  11  20  37  57  86 122 155 199 253 312 360
#     4  11  24  36  53  84 123 168 207 248 297 356
#     4  11  22  38  58  84 123 168 206 244 296 361
#     4  10  18  34  68  97 117 148 199 258 311 371
#     4  10  18  34  56  80 116 160 198 244 301 361
#     4   9  16  34  58  92 119 150 195 243 310 361
#     4  11  23  38  59  86 117 161 213 255 294 352
#
# _framework density 20.451439000000001
#
# number of rings (size 3 to 8) (size 9 to 14) (size 15 to 20)
#    0.000    1.571    4.286    3.857    0.000    4.286 
#    0.000    0.000    0.000   21.857    0.000    0.000 
#    0.000    0.000    0.000    0.000    0.000    0.000 
#
# Total GULP energy -346887.875160 kJ/mol
# GULP energy per Si atom -12388.852684 kJ/mol
# Density = 2.040489 g / cm^3
# Si number density = 20.451439 Si / 1000 Ang^3
#
#
#
# Elastic Constant Matrix: (Units=GPa)
#
#
# Indices 1 2 3 4 5 6 
#
# 1 138.2536 18.5295 13.7666 0.0000 -0.3074 0.0000
# 2 18.5295 107.0764 12.4286 0.0000 3.7411 0.0000
# 3 13.7666 12.4286 81.5323 0.0000 -1.6847 0.0000
# 4 0.0000 0.0000 0.0000 26.2648 0.0000 0.3787
# 5 -0.3074 3.7411 -1.6847 0.0000 29.8982 0.0000
# 6 0.0000 0.0000 0.0000 0.3787 0.0000 14.9562
#
#
#
# Elastic Compliance Matrix: (Units=1/GPa)
#
#
# Indices 1 2 3 4 5 6 
#
# 1 0.007499 -0.001178 -0.001083 0.000000 0.000163 0.000000
# 2 -0.001178 0.009741 -0.001313 0.000000 -0.001305 0.000000
# 3 -0.001083 -0.001313 0.012666 0.000000 0.000867 0.000000
# 4 0.000000 0.000000 0.000000 0.038088 0.000000 -0.000964
# 5 0.000163 -0.001305 0.000867 0.000000 0.033661 0.000000
# 6 0.000000 0.000000 0.000000 -0.000964 0.000000 0.066886
#
#
# Mechanical properties :
#
#
# Convention : Reuss Voigt Hill
#
# Bulk Modulus (GPa) = 43.94037 46.25686 45.09861
# Shear Modulus (GPa) = 27.28142 33.03300 30.15721
#
# Velocity S-wave (km/s) = 3.65631 4.02331 3.84419
# Velocity P-wave (km/s) = 6.27349 6.65204 6.46553
#
# Compressibility (1/GPa) = 0.02275812
#
# Stress axis : x y z
#
# Youngs Moduli (GPa) = 133.34830 102.65966 78.95121
#
# Poissons Ratio (x) = 0.12090 0.08553
# Poissons Ratio (y) = 0.15704 0.10366
# Poissons Ratio (z) = 0.14446 0.13479
#
# Static dielectric constant tensor:
#      x y z
#    x 4.147430 0.000000 0.121350 
#    y 0.000000 3.555310 0.000000 
#    z 0.121350 0.000000 3.737330 
# 
# 
# High freq. dielectric constant tensor:
#      x y z
#    x 1.801580 0.000000 -0.000620 
#    y 0.000000 1.777090 0.000000 
#    z -0.000620 0.000000 1.794330 
# 
# From -- ./inp_files/25035.got.cif
#   From: 2010.06.25/outbox.cif.g09.slc.cpg/sg10_13_cif.got.tgz:25035.got - 2010.06.27 22:07:45.
