data_PCOD8059728
_publ_section_title
;
Structure prediction by ZEFSAII (Michael W. Deem and Ramdas Pophale) SiO2 
 PCOD8059728
Probable space group: P 2/M
;
_chemical_formula_sum "Si O2"
_cell_formula_units_Z 28
_cell_length_a 22.241832
_cell_length_b 13.104461
_cell_length_c 5.151140
_cell_angle_alpha 90.000000
_cell_angle_beta 95.416773
_cell_angle_gamma 90.000000
_cell_volume 1494.683814
_symmetry_space_group_name_H-M "P 2/M"
_symmetry_group_IT_number 10
_symmetry_cell_setting 'monoclinic'
loop_
_space_group_symop_operation_xyz
x,y,z
-x,y,-z
-x,-y,-z
x,-y,z
loop_
_atom_site_type_symbol
_atom_site_label
_atom_site_fract_x
_atom_site_fract_y
_atom_site_fract_z
Si Si1 0.755507 0.385723 0.173800
Si Si2 0.429902 0.234673 0.487797
Si Si3 0.762785 0.884416 0.669453
Si Si4 0.690112 0.316113 0.648047
Si Si5 0.429845 0.110038 0.987550
Si Si6 0.961386 0.118687 0.235078
Si Si7 0.170687 0.188267 0.804088
O O1 0.781166 0.500000 0.150768
O O2 0.723627 0.378827 0.439224
O O3 0.810894 0.307334 0.174733
O O4 0.706277 0.362604 0.932438
O O5 0.500000 0.271829 0.500000
O O6 0.382671 0.326726 0.419156
O O7 0.410959 0.189636 0.758943
O O8 0.414897 0.150584 0.265763
O O9 0.707692 0.804174 0.639288
O O10 0.808631 0.863275 0.454014
O O11 0.737449 0.000000 0.639828
O O12 0.799849 0.873974 0.949588
O O13 0.397017 0.000000 0.936266
O O14 0.500000 0.090977 0.000000
O O15 0.901208 0.185818 0.206373
O O16 0.000000 0.149565 0.500000
O O17 0.943151 0.000000 0.232774
O O18 0.000000 0.146720 0.000000
#
# Coordination Sequence:
#
# PCOD8059728 Si02
#       7
#     4   4   4   4   4   4   4
#     4  10  21  39  61  78  97 129 173 228 273 306
#     4  10  19  32  49  69 100 136 166 208 264 318
#     4  10  19  31  49  74 106 139 170 212 257 300
#     4  10  21  35  53  80 102 128 172 214 264 321
#     4   9  17  28  43  65  94 134 177 203 229 287
#     4  10  19  30  48  76 111 148 176 200 237 290
#     4  10  20  34  53  77 105 139 180 214 252 303
#
# _framework density 18.733056999999999
#
# number of rings (size 3 to 8) (size 9 to 14) (size 15 to 20)
#    0.000    2.143    0.000    3.857    0.000    4.000 
#    0.000    0.000    0.000    3.429    0.000    0.000 
#    0.000    0.000    0.000    0.000    0.000    0.000 
#
# Total GULP energy -347159.588129 kJ/mol
# GULP energy per Si atom -12398.556719 kJ/mol
# Density = 1.869042 g / cm^3
# Si number density = 18.733057 Si / 1000 Ang^3
#
#
#
# Elastic Constant Matrix: (Units=GPa)
#
#
# Indices 1 2 3 4 5 6 
#
# 1 102.3070 29.6120 16.1512 0.0000 7.0051 0.0000
# 2 29.6120 101.8104 11.6055 0.0000 3.2110 0.0000
# 3 16.1512 11.6055 70.2015 0.0000 -4.6426 0.0000
# 4 0.0000 0.0000 0.0000 287.5819 0.0000 -17.0476
# 5 7.0051 3.2110 -4.6426 0.0000 15.2323 0.0000
# 6 0.0000 0.0000 0.0000 -17.0476 0.0000 12.9247
#
#
#
# Elastic Compliance Matrix: (Units=1/GPa)
#
#
# Indices 1 2 3 4 5 6 
#
# 1 0.011363 -0.002850 -0.002499 0.000000 -0.005387 0.000000
# 2 -0.002850 0.010833 -0.001224 0.000000 -0.001346 0.000000
# 3 -0.002499 -0.001224 0.015426 0.000000 0.006109 0.000000
# 4 0.000000 0.000000 0.000000 0.003772 0.000000 0.004976
# 5 -0.005387 -0.001346 0.006109 0.000000 0.070273 0.000000
# 6 0.000000 0.000000 0.000000 0.004976 0.000000 0.083934
#
#
# Mechanical properties :
#
#
# Convention : Reuss Voigt Hill
#
# Bulk Modulus (GPa) = 40.85826 43.22848 42.04337
# Shear Modulus (GPa) = 23.05138 77.61114 50.33126
#
# Velocity S-wave (km/s) = 3.51168 6.44360 5.18902
# Velocity P-wave (km/s) = 6.18875 8.85924 7.64156
#
# Compressibility (1/GPa) = 0.02447486
#
# Stress axis : x y z
#
# Youngs Moduli (GPa) = 88.00621 92.30927 64.82520
#
# Poissons Ratio (x) = 0.26309 0.16202
# Poissons Ratio (y) = 0.25083 0.07936
# Poissons Ratio (z) = 0.21995 0.11300
#
# Static dielectric constant tensor:
#      x y z
#    x 3.254390 0.000000 0.127100 
#    y 0.000000 3.362700 0.000000 
#    z 0.127100 0.000000 3.518320 
# 
# 
# High freq. dielectric constant tensor:
#      x y z
#    x 1.712410 0.000000 -0.000990 
#    y 0.000000 1.694680 0.000000 
#    z -0.000990 0.000000 1.754190 
# 
# From -- ./inp_files/12248.got.cif
#   From: 2010.06.25/outbox.cif.g09.slc.cpg/sg10_7_cif.got.tgz:12248.got - 2010.06.27 22:07:45.
