data_PCOD8059435
_publ_section_title
;
Structure prediction by ZEFSAII (Michael W. Deem and Ramdas Pophale) SiO2 
 PCOD8059435
Probable space group: P 2/M
;
_chemical_formula_sum "Si O2"
_cell_formula_units_Z 30
_cell_length_a 19.822303
_cell_length_b 9.504204
_cell_length_c 16.038079
_cell_angle_alpha 90.000000
_cell_angle_beta 34.639891
_cell_angle_gamma 90.000000
_cell_volume 1717.469513
_symmetry_space_group_name_H-M "P 2/M"
_symmetry_group_IT_number 10
_symmetry_cell_setting 'monoclinic'
loop_
_space_group_symop_operation_xyz
x,y,z
-x,y,-z
-x,-y,-z
x,-y,z
loop_
_atom_site_type_symbol
_atom_site_label
_atom_site_fract_x
_atom_site_fract_y
_atom_site_fract_z
Si Si1 0.638532 0.665988 0.528149
Si Si2 0.632808 0.333108 0.190659
Si Si3 0.258906 0.658043 0.747836
Si Si4 0.000000 0.252627 0.000000
Si Si5 0.836034 0.665709 0.450492
Si Si6 0.987620 0.834120 0.417627
Si Si7 0.014613 0.849589 0.811460
Si Si8 0.802371 0.843886 0.918261
O O1 0.651355 0.500000 0.507275
O O2 0.503688 0.714481 0.674535
O O3 0.695189 0.732248 0.385024
O O4 0.707811 0.710609 0.542922
O O5 0.649545 0.500000 0.165120
O O6 0.685022 0.273721 0.225335
O O7 0.694983 0.263063 0.046101
O O8 0.307467 0.500000 0.697246
O O9 0.116104 0.653633 0.899158
O O10 0.972958 0.149234 0.102957
O O11 0.846067 0.500000 0.458712
O O12 0.873499 0.752488 0.495023
O O13 0.926306 0.710005 0.285757
O O14 0.000000 0.785330 0.500000
O O15 0.109582 0.792872 0.245816
O O16 0.963202 0.000000 0.434679
O O17 0.876664 0.847142 0.928037
O O18 0.068863 0.000000 0.723224
O O19 0.752345 0.000000 0.947887
#
# Coordination Sequence:
#
# PCOD8059435 Si02
#       8
#     4   4   4   2   4   4   4   4
#     4   9  18  32  48  69 101 138 176 215 250 285
#     4  10  19  32  51  70  95 139 183 211 245 292
#     4  10  19  29  45  71 100 132 176 223 258 291
#     4  12  18  28  46  68  95 136 173 218 261 300
#     4  10  19  32  52  77 103 128 162 209 252 296
#     4   9  19  37  59  81 106 133 156 190 250 318
#     4  10  20  32  46  67  98 136 168 205 256 306
#     4   9  18  33  50  72 100 125 157 204 252 296
#
# _framework density 17.467559000000001
#
# number of rings (size 3 to 8) (size 9 to 14) (size 15 to 20)
#    0.000    2.267    2.667    2.000    0.000    4.533 
#    0.000    1.333    0.000    1.600    0.000    5.600 
#    0.000    0.000    0.000    0.000    0.000    0.000 
#
# Total GULP energy -371643.374203 kJ/mol
# GULP energy per Si atom -12388.112473 kJ/mol
# Density = 1.742780 g / cm^3
# Si number density = 17.467559 Si / 1000 Ang^3
#
#
#
# Elastic Constant Matrix: (Units=GPa)
#
#
# Indices 1 2 3 4 5 6 
#
# 1 130.5536 32.8242 64.1573 0.0000 6.1458 0.0000
# 2 32.8242 50.1408 30.8709 0.0000 -2.1011 0.0000
# 3 64.1573 30.8709 98.7445 0.0000 -11.7726 0.0000
# 4 0.0000 0.0000 0.0000 20.6630 0.0000 2.9537
# 5 6.1458 -2.1011 -11.7726 0.0000 28.3693 0.0000
# 6 0.0000 0.0000 0.0000 2.9537 0.0000 16.5987
#
#
#
# Elastic Compliance Matrix: (Units=1/GPa)
#
#
# Indices 1 2 3 4 5 6 
#
# 1 0.012776 -0.003782 -0.007871 0.000000 -0.006314 0.000000
# 2 -0.003782 0.025874 -0.005582 0.000000 0.000419 0.000000
# 3 -0.007871 -0.005582 0.018033 0.000000 0.008775 0.000000
# 4 0.000000 0.000000 0.000000 0.049659 0.000000 -0.008837
# 5 -0.006314 0.000419 0.008775 0.000000 0.040290 0.000000
# 6 0.000000 0.000000 0.000000 -0.008837 0.000000 0.061818
#
#
# Mechanical properties :
#
#
# Convention : Reuss Voigt Hill
#
# Bulk Modulus (GPa) = 45.02031 59.46041 52.24036
# Shear Modulus (GPa) = 19.97416 23.23197 21.60307
#
# Velocity S-wave (km/s) = 3.38524 3.65088 3.52057
# Velocity P-wave (km/s) = 6.41166 7.20321 6.81893
#
# Compressibility (1/GPa) = 0.02221220
#
# Stress axis : x y z
#
# Youngs Moduli (GPa) = 78.27171 38.64899 55.45503
#
# Poissons Ratio (x) = 0.14617 0.43651
# Poissons Ratio (y) = 0.29603 0.30954
# Poissons Ratio (z) = 0.61611 0.21573
#
# Static dielectric constant tensor:
#      x y z
#    x 3.384290 0.000000 -0.032390 
#    y 0.000000 3.054430 0.000000 
#    z -0.032390 0.000000 3.121050 
# 
# 
# High freq. dielectric constant tensor:
#      x y z
#    x 1.668090 0.000000 -0.003490 
#    y 0.000000 1.653320 0.000000 
#    z -0.003490 0.000000 1.654120 
# 
# From -- ./inp_files/79361.got.cif
#   From: 2010.06.25/outbox.cif.g09.slc.cpg/sg10_40_cif.got.tgz:79361.got - 2010.06.27 22:07:45.
