data_PCOD8059972
_publ_section_title
;
Structure prediction by ZEFSAII (Michael W. Deem and Ramdas Pophale) SiO2 
 PCOD8059972
Probable space group: P 2/M
;
_chemical_formula_sum "Si O2"
_cell_formula_units_Z 32
_cell_length_a 12.141541
_cell_length_b 17.126947
_cell_length_c 16.937960
_cell_angle_alpha 90.000000
_cell_angle_beta 30.409227
_cell_angle_gamma 90.000000
_cell_volume 1782.844845
_symmetry_space_group_name_H-M "P 2/M"
_symmetry_group_IT_number 10
_symmetry_cell_setting 'monoclinic'
loop_
_space_group_symop_operation_xyz
x,y,z
-x,y,-z
-x,-y,-z
x,-y,z
loop_
_atom_site_type_symbol
_atom_site_label
_atom_site_fract_x
_atom_site_fract_y
_atom_site_fract_z
Si Si1 0.411943 0.914616 0.468056
Si Si2 0.239172 0.586702 0.998817
Si Si3 0.998182 0.409141 0.408832
Si Si4 0.493577 0.587781 0.317937
Si Si5 0.738077 0.302572 0.870637
Si Si6 0.922580 0.195312 0.260068
Si Si7 0.117629 0.090840 0.852744
Si Si8 0.869435 0.682274 0.156828
O O1 0.500000 0.930265 0.500000
O O2 0.246061 0.841329 0.571456
O O3 0.628136 0.889378 0.286901
O O4 0.317942 0.000000 0.496181
O O5 0.208846 0.500000 0.050333
O O6 0.295965 0.640026 0.036287
O O7 0.015198 0.609901 0.094886
O O8 0.440505 0.592430 0.814471
O O9 0.064725 0.500000 0.354775
O O10 0.761118 0.392275 0.517963
O O11 0.000000 0.388750 0.500000
O O12 0.163400 0.350554 0.263543
O O13 0.538123 0.500000 0.322096
O O14 0.630426 0.650228 0.283525
O O15 0.884641 0.229329 0.806243
O O16 0.500000 0.267981 0.000000
O O17 0.989159 0.124127 0.161810
O O18 0.829738 0.258528 0.254245
O O19 0.074206 0.000000 0.873385
O O20 0.000000 0.129131 0.000000
O O21 0.000000 0.718956 0.000000
#
# Coordination Sequence:
#
# PCOD8059972 Si02
#       8
#     4   4   4   4   4   4   4   4
#     4   8  15  29  49  73 100 129 158 185 220 271
#     4   9  17  31  51  70  90 123 163 204 250 297
#     4  10  21  36  52  69  89 121 170 221 262 297
#     4   9  17  30  48  69  94 124 160 203 248 297
#     4  11  23  36  49  68  93 124 167 214 256 296
#     4  10  19  31  48  72 104 134 161 197 242 294
#     4   9  17  31  54  83 110 134 161 190 221 271
#     4   9  17  28  45  72 103 131 158 191 240 302
#
# _framework density 17.948843
#
# number of rings (size 3 to 8) (size 9 to 14) (size 15 to 20)
#    0.000    2.625    0.000    3.000    0.000    6.500 
#    0.000    3.125    0.000    8.250    0.000    0.000 
#    0.000    5.000    0.000    0.000    0.000    0.375 
#
# Total GULP energy -396456.270191 kJ/mol
# GULP energy per Si atom -12389.258443 kJ/mol
# Density = 1.790799 g / cm^3
# Si number density = 17.948843 Si / 1000 Ang^3
#
#
#
# Elastic Constant Matrix: (Units=GPa)
#
#
# Indices 1 2 3 4 5 6 
#
# 1 75.9609 37.1498 41.6511 0.0000 -10.9345 0.0000
# 2 37.1498 91.7712 53.0052 0.0000 -12.5703 0.0000
# 3 41.6511 53.0052 114.6645 0.0000 -5.3603 0.0000
# 4 0.0000 0.0000 0.0000 13.2704 0.0000 -7.3021
# 5 -10.9345 -12.5703 -5.3603 0.0000 22.5776 0.0000
# 6 0.0000 0.0000 0.0000 -7.3021 0.0000 13.8748
#
#
#
# Elastic Compliance Matrix: (Units=1/GPa)
#
#
# Indices 1 2 3 4 5 6 
#
# 1 0.018463 -0.004073 -0.004562 0.000000 0.005591 0.000000
# 2 -0.004073 0.016846 -0.006028 0.000000 0.005975 0.000000
# 3 -0.004562 -0.006028 0.013050 0.000000 -0.002468 0.000000
# 4 0.000000 0.000000 0.000000 0.106074 0.000000 0.055825
# 5 0.005591 0.005975 -0.002468 0.000000 0.049740 0.000000
# 6 0.000000 0.000000 0.000000 0.055825 0.000000 0.101453
#
#
# Mechanical properties :
#
#
# Convention : Reuss Voigt Hill
#
# Bulk Modulus (GPa) = 52.54605 60.66768 56.60686
# Shear Modulus (GPa) = 14.64997 19.98390 17.31693
#
# Velocity S-wave (km/s) = 2.86003 3.34036 3.10948
# Velocity P-wave (km/s) = 6.34393 6.98219 6.67070
#
# Compressibility (1/GPa) = 0.01903093
#
# Stress axis : x y z
#
# Youngs Moduli (GPa) = 54.16197 59.36207 76.63018
#
# Poissons Ratio (x) = 0.24179 0.34962
# Poissons Ratio (y) = 0.22061 0.46195
# Poissons Ratio (z) = 0.24711 0.35786
#
# Static dielectric constant tensor:
#      x y z
#    x 3.148450 0.000000 0.138190 
#    y 0.000000 3.346490 0.000000 
#    z 0.138190 0.000000 4.151030 
# 
# 
# High freq. dielectric constant tensor:
#      x y z
#    x 1.662760 0.000000 0.008730 
#    y 0.000000 1.691700 0.000000 
#    z 0.008730 0.000000 1.699270 
# 
# From -- ./inp_files/77129.got.cif
#   From: 2010.06.25/outbox.cif.g09.slc.cpg/sg10_39_cif.got.tgz:77129.got - 2010.06.27 22:07:45.
