data_PCOD8059491
_publ_section_title
;
Structure prediction by ZEFSAII (Michael W. Deem and Ramdas Pophale) SiO2 
 PCOD8059491
Probable space group: P 2/M
;
_chemical_formula_sum "Si O2"
_cell_formula_units_Z 32
_cell_length_a 18.362605
_cell_length_b 16.872108
_cell_length_c 13.960878
_cell_angle_alpha 90.000000
_cell_angle_beta 25.008517
_cell_angle_gamma 90.000000
_cell_volume 1828.534033
_symmetry_space_group_name_H-M "P 2/M"
_symmetry_group_IT_number 10
_symmetry_cell_setting 'monoclinic'
loop_
_space_group_symop_operation_xyz
x,y,z
-x,y,-z
-x,-y,-z
x,-y,z
loop_
_atom_site_type_symbol
_atom_site_label
_atom_site_fract_x
_atom_site_fract_y
_atom_site_fract_z
Si Si1 0.817982 0.910207 0.668451
Si Si2 0.616576 0.909758 0.278900
Si Si3 0.889696 0.411109 0.491443
Si Si4 0.253220 0.410307 0.125539
Si Si5 0.256636 0.845002 0.441750
Si Si6 0.999077 0.090341 0.110006
Si Si7 0.417754 0.088426 0.888061
Si Si8 0.426421 0.684866 0.194770
O O1 0.824516 0.855984 0.566462
O O2 0.000000 0.909696 0.500000
O O3 0.761926 0.000000 0.707823
O O4 0.689368 0.869459 0.898747
O O5 0.500000 0.867552 0.500000
O O6 0.596965 0.867981 0.197976
O O7 0.548687 0.000000 0.348690
O O8 0.811379 0.906096 0.076313
O O9 0.893827 0.500000 0.445065
O O10 0.812327 0.411950 0.688841
O O11 0.757244 0.361271 0.584400
O O12 0.089743 0.378633 0.255820
O O13 0.301891 0.500000 0.035991
O O14 0.426962 0.356821 0.913358
O O15 0.109402 0.847432 0.697734
O O16 0.384888 0.916731 0.314133
O O17 0.377072 0.767501 0.303199
O O18 0.927292 0.000000 0.202745
O O19 0.000000 0.120065 0.000000
O O20 0.339258 0.000000 0.971519
O O21 0.500000 0.696079 0.000000
#
# Coordination Sequence:
#
# PCOD8059491 Si02
#       8
#     4   4   4   4   4   4   4   4
#     4  10  20  34  48  62  85 125 172 207 237 285
#     4   9  17  31  51  73  89 107 150 210 261 294
#     4   8  14  27  47  68  91 128 172 206 235 270
#     4   8  14  27  47  68  92 128 171 206 233 272
#     4  12  22  33  45  69  98 127 159 198 254 307
#     4  10  20  35  55  73  89 117 162 215 261 302
#     4  10  19  31  47  64  88 124 163 201 238 287
#     4  10  19  30  42  68 103 136 165 198 240 293
#
# _framework density 17.500359
#
# number of rings (size 3 to 8) (size 9 to 14) (size 15 to 20)
#    0.000    2.375    0.000    4.875    0.000    6.500 
#    9.000    0.000    0.000    0.000    0.000    0.000 
#    0.000    2.000    0.000    2.750    0.000    0.250 
#
# Total GULP energy -396474.101960 kJ/mol
# GULP energy per Si atom -12389.815686 kJ/mol
# Density = 1.746053 g / cm^3
# Si number density = 17.500359 Si / 1000 Ang^3
#
#
#
# Elastic Constant Matrix: (Units=GPa)
#
#
# Indices 1 2 3 4 5 6 
#
# 1 97.4642 23.9940 52.7934 0.0000 0.7010 0.0000
# 2 23.9940 52.6281 38.2795 0.0000 -3.9573 0.0000
# 3 52.7934 38.2795 108.3553 0.0000 -0.5192 0.0000
# 4 0.0000 0.0000 0.0000 24.3576 0.0000 -4.3707
# 5 0.7010 -3.9573 -0.5192 0.0000 36.4176 0.0000
# 6 0.0000 0.0000 0.0000 -4.3707 0.0000 4.7934
#
#
#
# Elastic Compliance Matrix: (Units=1/GPa)
#
#
# Indices 1 2 3 4 5 6 
#
# 1 0.014094 -0.001981 -0.006170 0.000000 -0.000575 0.000000
# 2 -0.001981 0.026109 -0.008245 0.000000 0.002758 0.000000
# 3 -0.006170 -0.008245 0.015145 0.000000 -0.000561 0.000000
# 4 0.000000 0.000000 0.000000 0.049086 0.000000 0.044757
# 5 -0.000575 0.002758 -0.000561 0.000000 0.027762 0.000000
# 6 0.000000 0.000000 0.000000 0.044757 0.000000 0.249430
#
#
# Mechanical properties :
#
#
# Convention : Reuss Voigt Hill
#
# Bulk Modulus (GPa) = 44.33461 54.28684 49.31072
# Shear Modulus (GPa) = 11.85011 22.67244 17.26127
#
# Velocity S-wave (km/s) = 2.60500 3.60327 3.14401
# Velocity P-wave (km/s) = 5.86827 6.95695 6.43567
#
# Compressibility (1/GPa) = 0.02255574
#
# Stress axis : x y z
#
# Youngs Moduli (GPa) = 70.95194 38.30078 66.02782
#
# Poissons Ratio (x) = 0.07588 0.40738
# Poissons Ratio (y) = 0.14057 0.54441
# Poissons Ratio (z) = 0.43776 0.31580
#
# Static dielectric constant tensor:
#      x y z
#    x 3.270120 0.000000 -0.231390 
#    y 0.000000 3.044850 0.000000 
#    z -0.231390 0.000000 3.314920 
# 
# 
# High freq. dielectric constant tensor:
#      x y z
#    x 1.667250 0.000000 -0.030780 
#    y 0.000000 1.628450 0.000000 
#    z -0.030780 0.000000 1.673840 
# 
# From -- ./inp_files/51965.got.cif
#   From: 2010.06.25/outbox.cif.g09.slc.cpg/sg10_26_cif.got.tgz:51965.got - 2010.06.27 22:07:45.
