data_PCOD8059577
_publ_section_title
;
Structure prediction by ZEFSAII (Michael W. Deem and Ramdas Pophale) SiO2 
 PCOD8059577
Probable space group: P 2/M
;
_chemical_formula_sum "Si O2"
_cell_formula_units_Z 24
_cell_length_a 31.275336
_cell_length_b 8.792886
_cell_length_c 19.610453
_cell_angle_alpha 90.000000
_cell_angle_beta 16.654393
_cell_angle_gamma 90.000000
_cell_volume 1545.589727
_symmetry_space_group_name_H-M "P 2/M"
_symmetry_group_IT_number 10
_symmetry_cell_setting 'monoclinic'
loop_
_space_group_symop_operation_xyz
x,y,z
-x,y,-z
-x,-y,-z
x,-y,z
loop_
_atom_site_type_symbol
_atom_site_label
_atom_site_fract_x
_atom_site_fract_y
_atom_site_fract_z
Si Si1 0.119520 0.827860 0.959485
Si Si2 0.425451 0.827493 0.546167
Si Si3 0.812866 0.322606 0.458107
Si Si4 0.571252 0.179904 0.730615
Si Si5 0.364059 0.320954 0.508861
Si Si6 0.356552 0.167262 0.172035
O O1 0.984114 0.722751 0.188741
O O2 0.065955 0.000000 0.025817
O O3 0.244121 0.826184 0.829681
O O4 0.200268 0.757443 0.768603
O O5 0.500000 0.755989 0.500000
O O6 0.469489 0.727803 0.412032
O O7 0.483784 0.000000 0.446463
O O8 0.792637 0.500000 0.476545
O O9 0.716884 0.234172 0.548801
O O10 0.761663 0.282255 0.613637
O O11 0.559670 0.261983 0.676149
O O12 0.583949 0.000000 0.701584
O O13 0.418101 0.223940 0.004645
O O14 0.344122 0.500000 0.536413
O O15 0.281690 0.000000 0.280263
O O16 0.500000 0.154054 0.000000
#
# Coordination Sequence:
#
# PCOD8059577 Si02
#       6
#     4   4   4   4   4   4
#     4   9  18  32  47  65  91 121 153 183 218 271
#     4   8  16  32  51  68  88 117 150 182 219 270
#     4  11  20  29  44  67  94 121 152 191 228 263
#     4  10  19  32  47  63  89 126 160 187 218 263
#     4  10  19  30  45  70  96 116 147 187 230 270
#     4   8  16  30  46  62  83 118 160 190 217 259
#
# _framework density 15.528053999999999
#
# number of rings (size 3 to 8) (size 9 to 14) (size 15 to 20)
#    1.000    1.667    0.000    4.500    0.000    4.667 
#    0.000    3.333    0.000    0.000    0.000    1.167 
#    0.000    9.333    0.000    0.000    0.000    0.000 
#
# Total GULP energy -297353.173218 kJ/mol
# GULP energy per Si atom -12389.715551 kJ/mol
# Density = 1.549271 g / cm^3
# Si number density = 15.528054 Si / 1000 Ang^3
#
#
#
# Elastic Constant Matrix: (Units=GPa)
#
#
# Indices 1 2 3 4 5 6 
#
# 1 81.8040 27.9067 36.7771 0.0000 18.8666 0.0000
# 2 27.9067 82.6761 23.0245 0.0000 13.4982 0.0000
# 3 36.7771 23.0245 47.4996 0.0000 27.9417 0.0000
# 4 0.0000 0.0000 0.0000 19.5418 0.0000 2.5294
# 5 18.8666 13.4982 27.9417 0.0000 20.0336 0.0000
# 6 0.0000 0.0000 0.0000 2.5294 0.0000 15.2967
#
#
#
# Elastic Compliance Matrix: (Units=1/GPa)
#
#
# Indices 1 2 3 4 5 6 
#
# 1 0.020085 -0.002821 -0.023253 0.000000 0.015418 0.000000
# 2 -0.002821 0.014379 -0.003617 0.000000 -0.001987 0.000000
# 3 -0.023253 -0.003617 0.147568 0.000000 -0.181484 0.000000
# 4 0.000000 0.000000 0.000000 0.052292 0.000000 -0.008647
# 5 0.015418 -0.001987 -0.181484 0.000000 0.289858 0.000000
# 6 0.000000 0.000000 0.000000 -0.008647 0.000000 0.066803
#
#
# Mechanical properties :
#
#
# Convention : Reuss Voigt Hill
#
# Bulk Modulus (GPa) = 8.15330 43.04403 25.59867
# Shear Modulus (GPa) = 7.23326 19.25918 13.24622
#
# Velocity S-wave (km/s) = 2.16062 3.52559 2.92387
# Velocity P-wave (km/s) = 3.38917 6.65983 5.28393
#
# Compressibility (1/GPa) = 0.12264973
#
# Stress axis : x y z
#
# Youngs Moduli (GPa) = 49.78868 69.54436 6.77653
#
# Poissons Ratio (x) = 0.19618 0.15758
# Poissons Ratio (y) = 0.14045 0.02451
# Poissons Ratio (z) = 1.15775 0.25154
#
# Static dielectric constant tensor:
#      x y z
#    x 2.846130 0.000000 0.286360 
#    y 0.000000 2.982570 0.000000 
#    z 0.286360 0.000000 2.951580 
# 
# 
# High freq. dielectric constant tensor:
#      x y z
#    x 1.564250 0.000000 0.022870 
#    y 0.000000 1.606140 0.000000 
#    z 0.022870 0.000000 1.575590 
# 
# From -- ./inp_files/75715.got.cif
#   From: 2010.06.25/outbox.cif.g09.slc.cpg/sg10_38_cif.got.tgz:75715.got - 2010.06.27 22:07:45.
