data_PCOD8059092
_publ_section_title
;
Structure prediction by ZEFSAII (Michael W. Deem and Ramdas Pophale) SiO2 
 PCOD8059092
Probable space group: P 2/M
;
_chemical_formula_sum "Si O2"
_cell_formula_units_Z 32
_cell_length_a 12.003152
_cell_length_b 8.716934
_cell_length_c 28.754706
_cell_angle_alpha 90.000000
_cell_angle_beta 32.833747
_cell_angle_gamma 90.000000
_cell_volume 1631.285880
_symmetry_space_group_name_H-M "P 2/M"
_symmetry_group_IT_number 10
_symmetry_cell_setting 'monoclinic'
loop_
_space_group_symop_operation_xyz
x,y,z
-x,y,-z
-x,-y,-z
x,-y,z
loop_
_atom_site_type_symbol
_atom_site_label
_atom_site_fract_x
_atom_site_fract_y
_atom_site_fract_z
Si Si1 0.049756 0.317505 0.591268
Si Si2 0.107641 0.682740 0.755583
Si Si3 0.863652 0.317598 0.752043
Si Si4 0.075438 0.320182 0.082987
Si Si5 0.413854 0.179652 0.907296
Si Si6 0.676763 0.682320 0.661449
Si Si7 0.568061 0.682914 0.598469
Si Si8 0.706943 0.320318 0.143705
O O1 0.040712 0.500000 0.594600
O O2 0.277135 0.260809 0.496540
O O3 0.992195 0.255279 0.662576
O O4 0.886188 0.254817 0.610827
O O5 0.114044 0.500000 0.753603
O O6 0.339741 0.747245 0.669042
O O7 0.974103 0.746082 0.759502
O O8 0.007695 0.742086 0.838535
O O9 0.859245 0.500000 0.753489
O O10 0.632778 0.260527 0.830596
O O11 0.122216 0.500000 0.069401
O O12 0.909923 0.282977 0.101441
O O13 0.285977 0.232319 0.997416
O O14 0.284699 0.228738 0.907322
O O15 0.448173 0.000000 0.896523
O O16 0.676639 0.500000 0.659640
O O17 0.651801 0.747825 0.618205
O O18 0.487247 0.739026 0.758999
O O19 0.561926 0.500000 0.602557
O O20 0.690102 0.500000 0.138071
#
# Coordination Sequence:
#
# PCOD8059092 Si02
#       8
#     4   4   4   4   4   4   4   4
#     4   9  16  25  45  77 113 146 172 208 261 313
#     4   9  18  32  52  78 109 142 179 222 263 307
#     4  10  20  36  55  77 107 144 184 222 261 311
#     4  10  20  36  58  82 107 140 176 216 266 321
#     4  12  25  38  54  78 107 139 176 225 274 319
#     4   9  14  24  45  75 111 143 170 206 257 314
#     4   9  15  25  44  79 117 141 168 214 266 311
#     4  10  18  33  58  82 108 140 174 212 262 325
#
# _framework density 19.616427000000002
#
# number of rings (size 3 to 8) (size 9 to 14) (size 15 to 20)
#    0.000    2.250    2.500    1.875    0.000    4.500 
#    0.000    5.625    0.000    0.000    0.000    4.375 
#    0.000    0.000    0.000    0.000    0.000    0.000 
#
# Total GULP energy -396760.511789 kJ/mol
# GULP energy per Si atom -12398.765993 kJ/mol
# Density = 1.957178 g / cm^3
# Si number density = 19.616427 Si / 1000 Ang^3
#
#
#
# Elastic Constant Matrix: (Units=GPa)
#
#
# Indices 1 2 3 4 5 6 
#
# 1 133.0409 15.6460 66.1621 0.0000 6.8160 0.0000
# 2 15.6460 10.7037 12.0290 0.0000 -0.4305 0.0000
# 3 66.1621 12.0290 165.4901 0.0000 17.3946 0.0000
# 4 0.0000 0.0000 0.0000 0.2383 0.0000 -1.9652
# 5 6.8160 -0.4305 17.3946 0.0000 14.7141 0.0000
# 6 0.0000 0.0000 0.0000 -1.9652 0.0000 1.6975
#
#
#
# Elastic Compliance Matrix: (Units=1/GPa)
#
#
# Indices 1 2 3 4 5 6 
#
# 1 0.010593 -0.011929 -0.003215 0.000000 -0.001455 0.000000
# 2 -0.011929 0.117532 -0.005385 0.000000 0.015331 0.000000
# 3 -0.003215 -0.005385 0.008655 0.000000 -0.008900 0.000000
# 4 0.000000 0.000000 0.000000 -0.490949 0.000000 -0.568369
# 5 -0.001455 0.015331 -0.008900 0.000000 0.079606 0.000000
# 6 0.000000 0.000000 0.000000 -0.568369 0.000000 -0.068906
#
#
# Mechanical properties :
#
#
# Convention : Reuss Voigt Hill
#
# Bulk Modulus (GPa) = 10.44709 55.21208 32.82958
# Shear Modulus (GPa) = -18.48401 17.68981 -0.39710
#
# Velocity S-wave (km/s) = -3.07298 3.00623 -0.45041
# Velocity P-wave (km/s) = 2.69326 6.34483 4.06222
#
# Compressibility (1/GPa) = 0.09572045
#
# Stress axis : x y z
#
# Youngs Moduli (GPa) = 94.40421 8.50835 115.54257
#
# Poissons Ratio (x) = 0.10150 0.37145
# Poissons Ratio (y) = 1.12619 0.62221
# Poissons Ratio (z) = 0.30349 0.04582
#
# Static dielectric constant tensor:
#      x y z
#    x 3.754070 0.000000 0.083780 
#    y 0.000000 2.876910 0.000000 
#    z 0.083780 0.000000 3.859800 
# 
# 
# High freq. dielectric constant tensor:
#      x y z
#    x 1.765850 0.000000 0.003110 
#    y 0.000000 1.690190 0.000000 
#    z 0.003110 0.000000 1.785090 
# 
# From -- ./inp_files/63773.got.cif
#   From: 2010.06.25/outbox.cif.g09.slc.cpg/sg10_32_cif.got.tgz:63773.got - 2010.06.27 22:07:45.
