data_PCOD8059126
_publ_section_title
;
Structure prediction by ZEFSAII (Michael W. Deem and Ramdas Pophale) SiO2 
 PCOD8059126
Probable space group: P 2/M
;
_chemical_formula_sum "Si O2"
_cell_formula_units_Z 20
_cell_length_a 10.552341
_cell_length_b 7.947889
_cell_length_c 17.237293
_cell_angle_alpha 90.000000
_cell_angle_beta 42.376318
_cell_angle_gamma 90.000000
_cell_volume 974.378528
_symmetry_space_group_name_H-M "P 2/M"
_symmetry_group_IT_number 10
_symmetry_cell_setting 'monoclinic'
loop_
_space_group_symop_operation_xyz
x,y,z
-x,y,-z
-x,-y,-z
x,-y,z
loop_
_atom_site_type_symbol
_atom_site_label
_atom_site_fract_x
_atom_site_fract_y
_atom_site_fract_z
Si Si1 0.563192 0.299616 0.236088
Si Si2 0.830812 0.181672 0.636201
Si Si3 0.722931 0.500000 0.402955
Si Si4 0.003192 0.500000 0.404614
Si Si5 0.823412 0.812586 0.255232
Si Si6 0.131134 0.315018 0.015068
O O1 0.570240 0.500000 0.244567
O O2 0.353790 0.229761 0.328675
O O3 0.663565 0.213414 0.263261
O O4 0.667538 0.248475 0.107740
O O5 0.000000 0.164944 0.500000
O O6 0.881279 0.332072 0.673909
O O7 0.804163 0.000000 0.690465
O O8 0.500000 0.500000 0.500000
O O9 0.796949 0.500000 0.458635
O O10 0.802836 0.669726 0.329139
O O11 0.000000 0.500000 0.500000
O O12 0.032620 0.804106 0.122960
O O13 0.799948 0.000000 0.301856
O O14 0.153454 0.500000 0.042784
O O15 0.000000 0.329943 0.000000
#
# Coordination Sequence:
#
# PCOD8059126 Si02
#       6
#     4   4   2   2   4   4
#     4  10  18  33  62  95 129 166 208 254 305 360
#     4  10  21  35  58  88 120 158 206 253 298 360
#     4  12  28  44  64  90 128 164 203 259 316 371
#     4  10  24  44  65  84 115 163 204 252 306 368
#     4  11  22  37  61  91 129 167 204 254 313 367
#     4   8  15  31  55  89 126 164 204 250 304 361
#
# _framework density 20.525901999999999
#
# number of rings (size 3 to 8) (size 9 to 14) (size 15 to 20)
#    0.000    2.000    3.000    1.800    5.600    5.600 
#    0.000    0.000    0.000    2.400    0.000    2.800 
#    0.000    0.000    0.000    0.000    0.000    0.000 
#
# Total GULP energy -247779.968268 kJ/mol
# GULP energy per Si atom -12388.998413 kJ/mol
# Density = 2.047918 g / cm^3
# Si number density = 20.525902 Si / 1000 Ang^3
#
#
#
# Elastic Constant Matrix: (Units=GPa)
#
#
# Indices 1 2 3 4 5 6 
#
# 1 96.1767 36.2341 36.6568 0.0000 -11.4292 0.0000
# 2 36.2341 178.9773 26.3040 0.0000 4.0143 0.0000
# 3 36.6568 26.3040 85.8370 0.0000 -12.3667 0.0000
# 4 0.0000 0.0000 0.0000 3.2729 0.0000 -7.7092
# 5 -11.4292 4.0143 -12.3667 0.0000 25.3627 0.0000
# 6 0.0000 0.0000 0.0000 -7.7092 0.0000 15.6714
#
#
#
# Elastic Compliance Matrix: (Units=1/GPa)
#
#
# Indices 1 2 3 4 5 6 
#
# 1 0.013409 -0.002154 -0.004460 0.000000 0.004209 0.000000
# 2 -0.002154 0.006286 -0.001387 0.000000 -0.002642 0.000000
# 3 -0.004460 -0.001387 0.014759 0.000000 0.005406 0.000000
# 4 0.000000 0.000000 0.000000 -1.925011 0.000000 -0.946962
# 5 0.004209 -0.002642 0.005406 0.000000 0.044379 0.000000
# 6 0.000000 0.000000 0.000000 -0.946962 0.000000 -0.402025
#
#
# Mechanical properties :
#
#
# Convention : Reuss Voigt Hill
#
# Bulk Modulus (GPa) = 54.19433 62.15343 58.17388
# Shear Modulus (GPa) = -2.24613 26.31448 12.03418
#
# Velocity S-wave (km/s) = -1.04722 3.58441 2.42397
# Velocity P-wave (km/s) = 4.99980 6.89034 6.01975
#
# Compressibility (1/GPa) = 0.01845212
#
# Stress axis : x y z
#
# Youngs Moduli (GPa) = 74.57743 159.07239 67.75700
#
# Poissons Ratio (x) = 0.34257 0.30219
# Poissons Ratio (y) = 0.16061 0.09400
# Poissons Ratio (z) = 0.33261 0.22069
#
# Static dielectric constant tensor:
#      x y z
#    x 3.342300 0.000000 -0.364020 
#    y 0.000000 5.035840 0.000000 
#    z -0.364020 0.000000 4.081250 
# 
# 
# High freq. dielectric constant tensor:
#      x y z
#    x 1.755790 0.000000 -0.030620 
#    y 0.000000 1.822300 0.000000 
#    z -0.030620 0.000000 1.787650 
# 
# From -- ./inp_files/74301.got.cif
#   From: 2010.06.25/outbox.cif.g09.slc.cpg/sg10_38_cif.got.tgz:74301.got - 2010.06.27 22:07:45.
