data_PCOD8059058
_publ_section_title
;
Structure prediction by ZEFSAII (Michael W. Deem and Ramdas Pophale) SiO2 
 PCOD8059058
Probable space group: P 2/M
;
_chemical_formula_sum "Si O2"
_cell_formula_units_Z 28
_cell_length_a 14.874506
_cell_length_b 8.943609
_cell_length_c 11.736033
_cell_angle_alpha 90.000000
_cell_angle_beta 69.966208
_cell_angle_gamma 90.000000
_cell_volume 1466.794191
_symmetry_space_group_name_H-M "P 2/M"
_symmetry_group_IT_number 10
_symmetry_cell_setting 'monoclinic'
loop_
_space_group_symop_operation_xyz
x,y,z
-x,y,-z
-x,-y,-z
x,-y,z
loop_
_atom_site_type_symbol
_atom_site_label
_atom_site_fract_x
_atom_site_fract_y
_atom_site_fract_z
Si Si1 0.168913 0.673247 0.124426
Si Si2 0.366045 0.177100 0.652312
Si Si3 0.191274 0.327442 0.854905
Si Si4 0.965090 0.824785 0.212584
Si Si5 0.905730 0.175293 0.484918
Si Si6 0.573776 0.823665 0.619626
Si Si7 0.734442 0.177567 0.714061
O O1 0.151550 0.500000 0.159032
O O2 0.249192 0.740489 0.173387
O O3 0.069993 0.759326 0.184858
O O4 0.209499 0.697051 0.980408
O O5 0.277744 0.256915 0.748671
O O6 0.376206 0.235706 0.517996
O O7 0.463121 0.225717 0.676954
O O8 0.348419 0.000000 0.666074
O O9 0.182328 0.500000 0.826580
O O10 0.090158 0.249854 0.868635
O O11 0.901938 0.789566 0.352387
O O12 0.975369 0.000000 0.185450
O O13 0.812268 0.237013 0.588868
O O14 0.000000 0.249877 0.500000
O O15 0.909946 0.000000 0.504493
O O16 0.631724 0.772351 0.706891
O O17 0.577691 0.000000 0.605683
O O18 0.739896 0.000000 0.730888
#
# Coordination Sequence:
#
# PCOD8059058 Si02
#       7
#     4   4   4   4   4   4   4
#     4  11  24  39  51  71 110 151 183 221 266 314
#     4   9  17  35  61  86 109 136 176 220 268 327
#     4  11  24  39  53  74 109 147 181 223 272 314
#     4  11  21  36  60  83 103 137 183 225 268 322
#     4   9  16  29  51  81 110 132 162 212 266 311
#     4   8  16  32  59  90 113 134 167 223 281 318
#     4  10  18  33  56  80 109 143 178 216 264 320
#
# _framework density 19.089248999999999
#
# number of rings (size 3 to 8) (size 9 to 14) (size 15 to 20)
#    0.000    2.143    1.429    3.429    0.000    6.286 
#    0.000    7.143    0.000    4.286    0.000    0.000 
#    0.000    0.000    0.000    0.000    0.000    0.000 
#
# Total GULP energy -347156.926848 kJ/mol
# GULP energy per Si atom -12398.461673 kJ/mol
# Density = 1.904580 g / cm^3
# Si number density = 19.089249 Si / 1000 Ang^3
#
#
#
# Elastic Constant Matrix: (Units=GPa)
#
#
# Indices 1 2 3 4 5 6 
#
# 1 126.5862 42.1863 37.4777 0.0000 25.7988 0.0000
# 2 42.1863 78.5563 37.3686 0.0000 11.5162 0.0000
# 3 37.4777 37.3686 61.2248 0.0000 16.4764 0.0000
# 4 0.0000 0.0000 0.0000 6.3193 0.0000 -8.6488
# 5 25.7988 11.5162 16.4764 0.0000 30.2289 0.0000
# 6 0.0000 0.0000 0.0000 -8.6488 0.0000 3.0139
#
#
#
# Elastic Compliance Matrix: (Units=1/GPa)
#
#
# Indices 1 2 3 4 5 6 
#
# 1 0.011367 -0.003762 -0.002856 0.000000 -0.006711 0.000000
# 2 -0.003762 0.019209 -0.009746 0.000000 0.001204 0.000000
# 3 -0.002856 -0.009746 0.026221 0.000000 -0.008142 0.000000
# 4 0.000000 0.000000 0.000000 -0.054056 0.000000 -0.155118
# 5 -0.006711 0.001204 -0.008142 0.000000 0.042787 0.000000
# 6 0.000000 0.000000 0.000000 -0.155118 0.000000 -0.113338
#
#
# Mechanical properties :
#
#
# Convention : Reuss Voigt Hill
#
# Bulk Modulus (GPa) = 41.54572 55.60361 48.57467
# Shear Modulus (GPa) = -184.78162 17.86808 -83.45677
#
# Velocity S-wave (km/s) = -9.84931 3.06278 -6.61923
# Velocity P-wave (km/s) = 10.36986 6.45747 5.73738
#
# Compressibility (1/GPa) = 0.02406987
#
# Stress axis : x y z
#
# Youngs Moduli (GPa) = 87.97629 52.05797 38.13762
#
# Poissons Ratio (x) = 0.19583 0.10892
# Poissons Ratio (y) = 0.33095 0.37168
# Poissons Ratio (z) = 0.25125 0.50735
#
# Static dielectric constant tensor:
#      x y z
#    x 3.838560 0.000000 0.174380 
#    y 0.000000 3.229260 0.000000 
#    z 0.174380 0.000000 3.482510 
# 
# 
# High freq. dielectric constant tensor:
#      x y z
#    x 1.750740 0.000000 0.010160 
#    y 0.000000 1.711980 0.000000 
#    z 0.010160 0.000000 1.736640 
# 
# From -- ./inp_files/49192.got.cif
#   From: 2010.06.25/outbox.cif.g09.slc.cpg/sg10_25_cif.got.tgz:49192.got - 2010.06.27 22:07:45.
