data_PCOD8059346
_publ_section_title
;
Structure prediction by ZEFSAII (Michael W. Deem and Ramdas Pophale) SiO2 
 PCOD8059346
Probable space group: P 2/M
;
_chemical_formula_sum "Si O2"
_cell_formula_units_Z 32
_cell_length_a 31.055789
_cell_length_b 13.188710
_cell_length_c 32.010888
_cell_angle_alpha 90.000000
_cell_angle_beta 9.191727
_cell_angle_gamma 90.000000
_cell_volume 2094.366219
_symmetry_space_group_name_H-M "P 2/M"
_symmetry_group_IT_number 10
_symmetry_cell_setting 'monoclinic'
loop_
_space_group_symop_operation_xyz
x,y,z
-x,y,-z
-x,-y,-z
x,-y,z
loop_
_atom_site_type_symbol
_atom_site_label
_atom_site_fract_x
_atom_site_fract_y
_atom_site_fract_z
Si Si1 0.045727 0.616505 0.409489
Si Si2 0.292666 0.885589 0.236077
Si Si3 0.791607 0.379058 0.233753
Si Si4 0.710700 0.618952 0.559792
Si Si5 0.529331 0.621075 0.644454
Si Si6 0.495911 0.298237 0.919663
Si Si7 0.945676 0.379135 0.177339
Si Si8 0.696381 0.620070 0.980017
O O1 0.131025 0.500000 0.327815
O O2 0.000000 0.658928 0.500000
O O3 0.757305 0.629444 0.663204
O O4 0.297176 0.673932 0.148095
O O5 0.391660 0.814851 0.179632
O O6 0.000000 0.850330 0.500000
O O7 0.277834 0.000000 0.268016
O O8 0.500000 0.877478 0.000000
O O9 0.500000 0.337582 0.500000
O O10 0.793216 0.500000 0.233028
O O11 0.871726 0.336303 0.202460
O O12 0.000000 0.337462 0.000000
O O13 0.668156 0.500000 0.597707
O O14 0.614407 0.666460 0.608002
O O15 0.018850 0.647808 0.272334
O O16 0.529299 0.658648 0.771642
O O17 0.535582 0.500000 0.639405
O O18 0.732191 0.662632 0.415143
O O19 0.235698 0.662102 0.913592
O O20 0.328818 0.311260 0.037224
O O21 0.944617 0.500000 0.177319
O O22 0.676922 0.500000 0.987755
#
# Coordination Sequence:
#
# PCOD8059346 Si02
#       8
#     4   4   4   4   4   4   4   4
#     4  11  22  33  46  66  91 116 139 161 188 226
#     4  10  21  37  55  72  88 108 137 171 203 232
#     4   9  15  21  27  36  53  74  95 127 175 226
#     4   9  17  28  39  52  72  97 122 150 183 218
#     4   9  15  23  34  45  58  78 108 144 175 207
#     4  12  21  33  50  67  88 113 138 165 196 233
#     4   9  15  21  30  43  55  73 105 140 175 218
#     4  10  19  29  41  58  80 104 127 149 181 229
#
# _framework density 15.279086
#
# number of rings (size 3 to 8) (size 9 to 14) (size 15 to 20)
#    0.000    2.125    0.000    5.625    0.000    8.000 
#    0.000    0.000    0.000    0.000    0.000    0.000 
#    0.000    0.000    0.000    0.000    0.000    0.000 
#
# Total GULP energy -396750.321794 kJ/mol
# GULP energy per Si atom -12398.447556 kJ/mol
# Density = 1.524431 g / cm^3
# Si number density = 15.279086 Si / 1000 Ang^3
#
#
#
# Elastic Constant Matrix: (Units=GPa)
#
#
# Indices 1 2 3 4 5 6 
#
# 1 117.8971 29.9937 38.4256 0.0000 -2.3841 0.0000
# 2 29.9937 34.9861 20.2457 0.0000 -0.4297 0.0000
# 3 38.4256 20.2457 114.5720 0.0000 1.8753 0.0000
# 4 0.0000 0.0000 0.0000 9.4596 0.0000 0.0805
# 5 -2.3841 -0.4297 1.8753 0.0000 28.7548 0.0000
# 6 0.0000 0.0000 0.0000 0.0805 0.0000 4.6112
#
#
#
# Elastic Compliance Matrix: (Units=1/GPa)
#
#
# Indices 1 2 3 4 5 6 
#
# 1 0.011408 -0.008404 -0.002357 0.000000 0.000974 0.000000
# 2 -0.008404 0.038050 -0.003907 0.000000 0.000127 0.000000
# 3 -0.002357 -0.003907 0.010224 0.000000 -0.000921 0.000000
# 4 0.000000 0.000000 0.000000 0.105728 0.000000 -0.001845
# 5 0.000974 0.000127 -0.000921 0.000000 0.034920 0.000000
# 6 0.000000 0.000000 0.000000 -0.001845 0.000000 0.216896
#
#
# Mechanical properties :
#
#
# Convention : Reuss Voigt Hill
#
# Bulk Modulus (GPa) = 32.95358 49.42058 41.18708
# Shear Modulus (GPa) = 10.94863 20.48446 15.71654
#
# Velocity S-wave (km/s) = 2.67980 3.66551 3.21071
# Velocity P-wave (km/s) = 5.58477 7.09437 6.38435
#
# Compressibility (1/GPa) = 0.03034572
#
# Stress axis : x y z
#
# Youngs Moduli (GPa) = 87.65848 26.28102 97.80808
#
# Poissons Ratio (x) = 0.22087 0.23052
# Poissons Ratio (y) = 0.73670 0.38216
# Poissons Ratio (z) = 0.20660 0.10269
#
# Static dielectric constant tensor:
#      x y z
#    x 3.065660 0.000000 -0.003790 
#    y 0.000000 2.366640 0.000000 
#    z -0.003790 0.000000 3.174980 
# 
# 
# High freq. dielectric constant tensor:
#      x y z
#    x 1.590110 0.000000 -0.002090 
#    y 0.000000 1.495350 0.000000 
#    z -0.002090 0.000000 1.614230 
# 
# From -- ./inp_files/96083.got.cif
#   From: 2010.06.25/outbox.cif.g09.slc.cpg/sg10_49_cif.got.tgz:96083.got - 2010.06.27 22:07:45.
