data_PCOD8059216
_publ_section_title
;
Structure prediction by ZEFSAII (Michael W. Deem and Ramdas Pophale) SiO2 
 PCOD8059216
Probable space group: P 2/M
;
_chemical_formula_sum "Si O2"
_cell_formula_units_Z 30
_cell_length_a 9.307191
_cell_length_b 10.579289
_cell_length_c 18.337699
_cell_angle_alpha 90.000000
_cell_angle_beta 121.312139
_cell_angle_gamma 90.000000
_cell_volume 1542.606412
_symmetry_space_group_name_H-M "P 2/M"
_symmetry_group_IT_number 10
_symmetry_cell_setting 'monoclinic'
loop_
_space_group_symop_operation_xyz
x,y,z
-x,y,-z
-x,-y,-z
x,-y,z
loop_
_atom_site_type_symbol
_atom_site_label
_atom_site_fract_x
_atom_site_fract_y
_atom_site_fract_z
Si Si1 0.434651 0.356027 0.213356
Si Si2 0.043366 0.643576 0.095405
Si Si3 0.348596 0.641167 0.591152
Si Si4 0.500000 0.786480 0.500000
Si Si5 0.938266 0.855274 0.172245
Si Si6 0.337195 0.137966 0.778338
Si Si7 0.082584 0.196375 0.591470
Si Si8 0.838527 0.860312 0.640522
O O1 0.472206 0.500000 0.195235
O O2 0.238442 0.326585 0.159036
O O3 0.496501 0.341226 0.312437
O O4 0.529086 0.252071 0.188393
O O5 0.000863 0.500000 0.111091
O O6 0.932277 0.749280 0.107737
O O7 0.000000 0.657485 0.000000
O O8 0.324246 0.500000 0.560183
O O9 0.389635 0.710125 0.527466
O O10 0.171758 0.681220 0.580343
O O11 0.636846 0.866274 0.581244
O O12 0.109134 0.827440 0.263114
O O13 0.779305 0.834585 0.182787
O O14 0.939343 0.000000 0.141389
O O15 0.227366 0.124815 0.675086
O O16 0.426154 0.000000 0.810835
O O17 0.000000 0.120990 0.500000
O O18 0.931494 0.233090 0.607508
O O19 0.910961 0.000000 0.641006
#
# Coordination Sequence:
#
# PCOD8059216 Si02
#       8
#     4   4   4   2   4   4   4   4
#     4   9  19  37  56  78 109 142 179 223 273 330
#     4  10  21  38  61  87 112 140 178 222 270 330
#     4  10  21  35  51  72 103 141 181 225 270 321
#     4  12  20  34  46  74 102 140 182 226 274 316
#     4   9  19  37  57  80 113 144 179 223 271 327
#     4   9  19  34  56  82 108 143 185 227 272 321
#     4  10  18  35  50  74 102 140 185 231 270 312
#     4  10  21  35  51  74 105 140 179 226 271 317
#
# _framework density 19.447606
#
# number of rings (size 3 to 8) (size 9 to 14) (size 15 to 20)
#    0.000    2.267    1.333    2.400    0.000    2.667 
#    0.000    5.333    0.000    4.000    0.000    0.000 
#    0.000    0.000    0.000    0.000    0.000    0.000 
#
# Total GULP energy -371645.634392 kJ/mol
# GULP energy per Si atom -12388.187813 kJ/mol
# Density = 1.940334 g / cm^3
# Si number density = 19.447606 Si / 1000 Ang^3
#
#
#
# Elastic Constant Matrix: (Units=GPa)
#
#
# Indices 1 2 3 4 5 6 
#
# 1 60.7498 46.0214 19.1780 0.0000 -7.4806 0.0000
# 2 46.0214 116.5884 28.8854 0.0000 -15.6926 0.0000
# 3 19.1780 28.8854 52.8731 0.0000 -11.5493 0.0000
# 4 0.0000 0.0000 0.0000 -19.7823 0.0000 6.5228
# 5 -7.4806 -15.6926 -11.5493 0.0000 21.2071 0.0000
# 6 0.0000 0.0000 0.0000 6.5228 0.0000 24.0978
#
#
#
# Elastic Compliance Matrix: (Units=1/GPa)
#
#
# Indices 1 2 3 4 5 6 
#
# 1 0.024236 -0.008548 -0.004126 0.000000 -0.000023 0.000000
# 2 -0.008548 0.013421 -0.003088 0.000000 0.005234 0.000000
# 3 -0.004126 -0.003088 0.024153 0.000000 0.009413 0.000000
# 4 0.000000 0.000000 0.000000 -0.046408 0.000000 0.012562
# 5 -0.000023 0.005234 0.009413 0.000000 0.056145 0.000000
# 6 0.000000 0.000000 0.000000 0.012562 0.000000 0.038097
#
#
# Mechanical properties :
#
#
# Convention : Reuss Voigt Hill
#
# Bulk Modulus (GPa) = 33.01879 46.48676 39.75277
# Shear Modulus (GPa) = 33.05484 14.17962 23.61723
#
# Velocity S-wave (km/s) = 4.12720 2.70315 3.48861
# Velocity P-wave (km/s) = 6.30293 5.80501 6.05909
#
# Compressibility (1/GPa) = 0.03028578
#
# Stress axis : x y z
#
# Youngs Moduli (GPa) = 41.26093 74.51083 41.40241
#
# Poissons Ratio (x) = 0.63689 0.17083
# Poissons Ratio (y) = 0.35268 0.12787
# Poissons Ratio (z) = 0.17025 0.23012
#
# Static dielectric constant tensor:
#      x y z
#    x 3.410570 0.000000 0.095890 
#    y 0.000000 3.554170 0.000000 
#    z 0.095890 0.000000 3.554600 
# 
# 
# High freq. dielectric constant tensor:
#      x y z
#    x 1.748480 0.000000 0.005470 
#    y 0.000000 1.749980 0.000000 
#    z 0.005470 0.000000 1.745640 
# 
# From -- ./inp_files/75008.got.cif
#   From: 2010.06.25/outbox.cif.g09.slc.cpg/sg10_38_cif.got.tgz:75008.got - 2010.06.27 22:07:45.
