data_PCOD8059788
_publ_section_title
;
Structure prediction by ZEFSAII (Michael W. Deem and Ramdas Pophale) SiO2 
 PCOD8059788
Probable space group: P 2/M
;
_chemical_formula_sum "Si O2"
_cell_formula_units_Z 20
_cell_length_a 9.125306
_cell_length_b 12.622921
_cell_length_c 10.953148
_cell_angle_alpha 90.000000
_cell_angle_beta 122.018357
_cell_angle_gamma 90.000000
_cell_volume 1069.743762
_symmetry_space_group_name_H-M "P 2/M"
_symmetry_group_IT_number 10
_symmetry_cell_setting 'monoclinic'
loop_
_space_group_symop_operation_xyz
x,y,z
-x,y,-z
-x,-y,-z
x,-y,z
loop_
_atom_site_type_symbol
_atom_site_label
_atom_site_fract_x
_atom_site_fract_y
_atom_site_fract_z
Si Si1 0.605369 0.879804 0.662442
Si Si2 0.222344 0.295309 0.845352
Si Si3 0.291343 0.500000 0.179759
Si Si4 0.048635 0.500000 0.836205
Si Si5 0.998431 0.120286 0.859908
Si Si6 0.469911 0.702635 0.183395
O O1 0.500000 0.835733 0.500000
O O2 0.807317 0.874195 0.720458
O O3 0.565932 0.811409 0.763671
O O4 0.548847 0.000000 0.667556
O O5 0.091967 0.394300 0.779648
O O6 0.328074 0.294914 0.764989
O O7 0.116605 0.187515 0.820654
O O8 0.355613 0.307351 0.013392
O O9 0.418033 0.601698 0.243404
O O10 0.157698 0.500000 0.233330
O O11 0.167285 0.500000 0.008209
O O12 0.069845 0.000000 0.893789
O O13 0.000000 0.166058 0.000000
#
# Coordination Sequence:
#
# PCOD8059788 Si02
#       6
#     4   4   2   2   4   4
#     4  10  21  37  55  75 104 142 179 213 256 314
#     4  10  19  30  51  80 110 134 170 219 267 306
#     4   9  17  29  50  74 106 140 174 211 255 311
#     4   9  17  27  47  78 107 139 170 211 260 312
#     4  10  19  33  53  77 103 133 176 220 257 304
#     4  10  19  32  50  78 109 138 171 217 264 308
#
# _framework density 18.696066999999999
#
# number of rings (size 3 to 8) (size 9 to 14) (size 15 to 20)
#    0.000    2.200    2.000    1.800    2.800    3.200 
#    0.000    3.500    0.000    3.600    0.000    4.200 
#    0.000    0.000    0.000    0.000    0.000    0.000 
#
# Total GULP energy -247960.781931 kJ/mol
# GULP energy per Si atom -12398.039097 kJ/mol
# Density = 1.865351 g / cm^3
# Si number density = 18.696067 Si / 1000 Ang^3
#
#
#
# Elastic Constant Matrix: (Units=GPa)
#
#
# Indices 1 2 3 4 5 6 
#
# 1 161.2880 78.5693 9.2148 0.0000 1.5166 0.0000
# 2 78.5693 119.2701 5.5808 0.0000 -2.9916 0.0000
# 3 9.2148 5.5808 31.0479 0.0000 11.4297 0.0000
# 4 0.0000 0.0000 0.0000 7.1955 0.0000 9.9685
# 5 1.5166 -2.9916 11.4297 0.0000 14.1030 0.0000
# 6 0.0000 0.0000 0.0000 9.9685 0.0000 25.8238
#
#
#
# Elastic Compliance Matrix: (Units=1/GPa)
#
#
# Indices 1 2 3 4 5 6 
#
# 1 0.009231 -0.006060 -0.001157 0.000000 -0.001341 0.000000
# 2 -0.006060 0.012622 -0.002417 0.000000 0.005288 0.000000
# 3 -0.001157 -0.002417 0.047216 0.000000 -0.038654 0.000000
# 4 0.000000 0.000000 0.000000 0.298732 0.000000 -0.115316
# 5 -0.001341 0.005288 -0.038654 0.000000 0.103500 0.000000
# 6 0.000000 0.000000 0.000000 -0.115316 0.000000 0.083238
#
#
# Mechanical properties :
#
#
# Convention : Reuss Voigt Hill
#
# Bulk Modulus (GPa) = 20.07992 55.37065 37.72529
# Shear Modulus (GPa) = 8.46873 23.97386 16.22130
#
# Velocity S-wave (km/s) = 2.13061 3.58480 2.94875
# Velocity P-wave (km/s) = 4.10076 6.84214 5.64053
#
# Compressibility (1/GPa) = 0.04980099
#
# Stress axis : x y z
#
# Youngs Moduli (GPa) = 108.32981 79.22427 21.17945
#
# Poissons Ratio (x) = 0.48014 0.02450
# Poissons Ratio (y) = 0.65653 0.05119
# Poissons Ratio (z) = 0.12532 0.19146
#
# Static dielectric constant tensor:
#      x y z
#    x 3.644790 0.000000 0.114770 
#    y 0.000000 3.550960 0.000000 
#    z 0.114770 0.000000 3.009390 
# 
# 
# High freq. dielectric constant tensor:
#      x y z
#    x 1.730250 0.000000 0.013070 
#    y 0.000000 1.738080 0.000000 
#    z 0.013070 0.000000 1.669290 
# 
# From -- ./inp_files/23422.got.cif
#   From: 2010.06.25/outbox.cif.g09.slc.cpg/sg10_12_cif.got.tgz:23422.got - 2010.06.27 22:07:45.
