data_PCOD8059688
_publ_section_title
;
Structure prediction by ZEFSAII (Michael W. Deem and Ramdas Pophale) SiO2 
 PCOD8059688
Probable space group: P 2/M
;
_chemical_formula_sum "Si O2"
_cell_formula_units_Z 28
_cell_length_a 18.232002
_cell_length_b 13.156092
_cell_length_c 22.159346
_cell_angle_alpha 90.000000
_cell_angle_beta 162.204898
_cell_angle_gamma 90.000000
_cell_volume 1624.393778
_symmetry_space_group_name_H-M "P 2/M"
_symmetry_group_IT_number 10
_symmetry_cell_setting 'monoclinic'
loop_
_space_group_symop_operation_xyz
x,y,z
-x,y,-z
-x,-y,-z
x,-y,z
loop_
_atom_site_type_symbol
_atom_site_label
_atom_site_fract_x
_atom_site_fract_y
_atom_site_fract_z
Si Si1 0.964602 0.297436 0.241384
Si Si2 0.268940 0.618405 0.280713
Si Si3 0.724541 0.884272 0.104384
Si Si4 0.198064 0.182947 0.703091
Si Si5 0.522528 0.617268 0.362974
Si Si6 0.215899 0.387591 0.777385
Si Si7 0.164190 0.617092 0.982097
O O1 0.244642 0.313426 0.448006
O O2 0.920906 0.178360 0.220350
O O3 0.879945 0.366665 0.230657
O O4 0.814237 0.325576 0.064200
O O5 0.500000 0.646681 0.500000
O O6 0.213673 0.500000 0.234846
O O7 0.319593 0.655368 0.251824
O O8 0.038605 0.667901 0.133200
O O9 0.802921 0.882072 0.235991
O O10 0.718575 0.000000 0.077194
O O11 0.468384 0.830123 0.889859
O O12 0.129046 0.300592 0.663044
O O13 0.000000 0.142048 0.500000
O O14 0.591627 0.500000 0.431748
O O15 0.420129 0.628095 0.215429
O O16 0.125142 0.500000 0.686120
O O17 0.500000 0.383498 0.000000
O O18 0.101403 0.500000 0.919411
#
# Coordination Sequence:
#
# PCOD8059688 Si02
#       7
#     4   4   4   4   4   4   4
#     4  11  20  34  50  70  99 135 171 210 245 296
#     4   9  15  27  47  70 102 139 168 197 237 285
#     4  10  22  39  54  74  98 123 163 221 273 310
#     4  10  19  36  59  80  97 124 167 212 258 308
#     4  10  19  30  47  75 107 136 168 200 238 294
#     4  10  19  34  51  71 106 145 172 200 236 285
#     4  10  19  30  48  74 106 139 165 198 243 291
#
# _framework density 17.237199
#
# number of rings (size 3 to 8) (size 9 to 14) (size 15 to 20)
#    0.000    2.000    4.286    2.571    0.000    5.429 
#    0.000    0.000    0.000    0.000    0.000    2.000 
#    0.000    2.286    0.000    0.000    0.000    0.000 
#
# Total GULP energy -347046.442596 kJ/mol
# GULP energy per Si atom -12394.515807 kJ/mol
# Density = 1.719797 g / cm^3
# Si number density = 17.237199 Si / 1000 Ang^3
#
#
#
# Elastic Constant Matrix: (Units=GPa)
#
#
# Indices 1 2 3 4 5 6 
#
# 1 78.4552 28.4740 21.6626 0.0000 2.7548 0.0000
# 2 28.4740 90.0158 20.1309 0.0000 2.2274 0.0000
# 3 21.6626 20.1309 73.7336 0.0000 -22.1684 0.0000
# 4 0.0000 0.0000 0.0000 1.2385 0.0000 -11.3947
# 5 2.7548 2.2274 -22.1684 0.0000 29.5167 0.0000
# 6 0.0000 0.0000 0.0000 -11.3947 0.0000 -1.3399
#
#
#
# Elastic Compliance Matrix: (Units=1/GPa)
#
#
# Indices 1 2 3 4 5 6 
#
# 1 0.015672 -0.003691 -0.005105 0.000000 -0.005018 0.000000
# 2 -0.003691 0.013136 -0.003483 0.000000 -0.003263 0.000000
# 3 -0.005105 -0.003483 0.020971 0.000000 0.016489 0.000000
# 4 0.000000 0.000000 0.000000 0.010190 0.000000 -0.086653
# 5 -0.005018 -0.003263 0.016489 0.000000 0.046978 0.000000
# 6 0.000000 0.000000 0.000000 -0.086653 0.000000 -0.009419
#
#
# Mechanical properties :
#
#
# Convention : Reuss Voigt Hill
#
# Bulk Modulus (GPa) = 39.65151 42.52663 41.08907
# Shear Modulus (GPa) = 38.31613 17.34555 27.83084
#
# Velocity S-wave (km/s) = 4.71985 3.17564 4.02254
# Velocity P-wave (km/s) = 7.26334 6.17829 6.74267
#
# Compressibility (1/GPa) = 0.02521972
#
# Stress axis : x y z
#
# Youngs Moduli (GPa) = 63.80930 76.12386 47.68551
#
# Poissons Ratio (x) = 0.28100 0.24345
# Poissons Ratio (y) = 0.23555 0.16609
# Poissons Ratio (z) = 0.32576 0.26514
#
# Static dielectric constant tensor:
#      x y z
#    x 3.355160 0.000000 0.048560 
#    y 0.000000 2.970730 0.000000 
#    z 0.048560 0.000000 3.138980 
# 
# 
# High freq. dielectric constant tensor:
#      x y z
#    x 1.667830 0.000000 -0.000800 
#    y 0.000000 1.614270 0.000000 
#    z -0.000800 0.000000 1.664930 
# 
# From -- ./inp_files/85924.got.cif
#   From: 2010.06.25/outbox.cif.g09.slc.cpg/sg10_43_cif.got.tgz:85924.got - 2010.06.27 22:07:45.
