data_PCOD8059334
_publ_section_title
;
Structure prediction by ZEFSAII (Michael W. Deem and Ramdas Pophale) SiO2 
 PCOD8059334
Probable space group: P 2/M
;
_chemical_formula_sum "Si O2"
_cell_formula_units_Z 30
_cell_length_a 30.818070
_cell_length_b 16.078311
_cell_length_c 28.490096
_cell_angle_alpha 90.000000
_cell_angle_beta 8.864797
_cell_angle_gamma 90.000000
_cell_volume 2175.463718
_symmetry_space_group_name_H-M "P 2/M"
_symmetry_group_IT_number 10
_symmetry_cell_setting 'monoclinic'
loop_
_space_group_symop_operation_xyz
x,y,z
-x,y,-z
-x,-y,-z
x,-y,z
loop_
_atom_site_type_symbol
_atom_site_label
_atom_site_fract_x
_atom_site_fract_y
_atom_site_fract_z
Si Si1 0.751727 0.400672 0.365200
Si Si2 0.488296 0.402268 0.281237
Si Si3 0.377430 0.400842 0.679816
Si Si4 0.673756 0.819898 0.861840
Si Si5 0.431963 0.336146 0.166447
Si Si6 0.678404 0.000000 0.855717
Si Si7 0.884355 0.401351 0.408990
Si Si8 0.986578 0.595389 0.461748
O O1 0.752118 0.500000 0.366149
O O2 0.631849 0.363435 0.542080
O O3 0.563769 0.367102 0.523447
O O4 0.064491 0.366526 0.022275
O O5 0.498393 0.500000 0.277219
O O6 0.289113 0.377152 0.451483
O O7 0.800472 0.370124 0.937159
O O8 0.500000 0.365623 0.500000
O O9 0.379631 0.500000 0.676331
O O10 0.000000 0.804879 0.500000
O O11 0.619948 0.911293 0.943763
O O12 0.500000 0.810239 0.000000
O O13 0.561910 0.755522 0.020569
O O14 0.222971 0.344979 0.433434
O O15 0.257340 0.358890 0.306359
O O16 0.695975 0.396134 0.897061
O O17 0.000000 0.000000 0.500000
O O18 0.500000 0.000000 0.000000
O O19 0.866756 0.500000 0.440071
O O20 0.895065 0.500000 0.560269
O O21 0.000000 0.633507 0.500000
#
# Coordination Sequence:
#
# PCOD8059334 Si02
#       8
#     4   4   4   4   4   2   4   4
#     4   9  15  23  34  45  59  81 108 137 171 214
#     4   9  17  28  39  49  62  86 120 152 179 210
#     4   9  15  21  30  46  65  81  99 130 175 223
#     4  10  19  32  48  65  82  98 118 143 177 226
#     4  12  21  31  45  60  77  98 123 153 187 221
#     4   8  16  30  48  66  82  98 114 138 172 216
#     4  10  19  29  39  51  68  90 119 153 183 209
#     4  11  22  33  43  56  76 101 126 149 177 218
#
# _framework density 13.790163
#
# number of rings (size 3 to 8) (size 9 to 14) (size 15 to 20)
#    0.000    2.133    0.000    5.600    0.000    6.933 
#    0.000    0.000    0.000    0.000    0.000    0.000 
#    0.000    0.000    0.000    0.000    0.000    0.000 
#
# Total GULP energy -371819.375095 kJ/mol
# GULP energy per Si atom -12393.979170 kJ/mol
# Density = 1.375878 g / cm^3
# Si number density = 13.790163 Si / 1000 Ang^3
#
#
#
# Elastic Constant Matrix: (Units=GPa)
#
#
# Indices 1 2 3 4 5 6 
#
# 1 110.4221 35.8224 58.9376 0.0000 -4.6050 0.0000
# 2 35.8224 49.2221 30.1912 0.0000 4.0903 0.0000
# 3 58.9376 30.1912 115.9010 0.0000 -5.9231 0.0000
# 4 0.0000 0.0000 0.0000 9.9577 0.0000 -1.8739
# 5 -4.6050 4.0903 -5.9231 0.0000 35.5184 0.0000
# 6 0.0000 0.0000 0.0000 -1.8739 0.0000 5.3393
#
#
#
# Elastic Compliance Matrix: (Units=1/GPa)
#
#
# Indices 1 2 3 4 5 6 
#
# 1 0.014334 -0.007343 -0.005283 0.000000 0.001823 0.000000
# 2 -0.007343 0.028480 -0.003934 0.000000 -0.004888 0.000000
# 3 -0.005283 -0.003934 0.012434 0.000000 0.001842 0.000000
# 4 0.000000 0.000000 0.000000 0.107526 0.000000 0.037738
# 5 0.001823 -0.004888 0.001842 0.000000 0.029261 0.000000
# 6 0.000000 0.000000 0.000000 0.037738 0.000000 0.200535
#
#
# Mechanical properties :
#
#
# Convention : Reuss Voigt Hill
#
# Bulk Modulus (GPa) = 45.19544 58.38305 51.78924
# Shear Modulus (GPa) = 11.54558 20.20269 15.87414
#
# Velocity S-wave (km/s) = 2.89664 3.83169 3.39650
# Velocity P-wave (km/s) = 6.63567 7.87429 7.28137
#
# Compressibility (1/GPa) = 0.02212613
#
# Stress axis : x y z
#
# Youngs Moduli (GPa) = 69.76280 35.11295 80.42670
#
# Poissons Ratio (x) = 0.25783 0.42492
# Poissons Ratio (y) = 0.51227 0.31643
# Poissons Ratio (z) = 0.36858 0.13815
#
# Static dielectric constant tensor:
#      x y z
#    x 2.836340 0.000000 -0.160930 
#    y 0.000000 2.516890 0.000000 
#    z -0.160930 0.000000 3.034490 
# 
# 
# High freq. dielectric constant tensor:
#      x y z
#    x 1.526450 0.000000 -0.019200 
#    y 0.000000 1.456140 0.000000 
#    z -0.019200 0.000000 1.544880 
# 
# From -- ./inp_files/94257.got.cif
#   From: 2010.06.25/outbox.cif.g09.slc.cpg/sg10_48_cif.got.tgz:94257.got - 2010.06.27 22:07:45.
