data_PCOD8059937
_publ_section_title
;
Structure prediction by ZEFSAII (Michael W. Deem and Ramdas Pophale) SiO2 
 PCOD8059937
Probable space group: P 2/M
;
_chemical_formula_sum "Si O2"
_cell_formula_units_Z 30
_cell_length_a 16.012892
_cell_length_b 13.234626
_cell_length_c 28.299998
_cell_angle_alpha 90.000000
_cell_angle_beta 163.403702
_cell_angle_gamma 90.000000
_cell_volume 1713.035136
_symmetry_space_group_name_H-M "P 2/M"
_symmetry_group_IT_number 10
_symmetry_cell_setting 'monoclinic'
loop_
_space_group_symop_operation_xyz
x,y,z
-x,y,-z
-x,-y,-z
x,-y,z
loop_
_atom_site_type_symbol
_atom_site_label
_atom_site_fract_x
_atom_site_fract_y
_atom_site_fract_z
Si Si1 0.326218 0.618931 0.664839
Si Si2 0.789430 0.815607 0.681604
Si Si3 0.256058 0.736086 0.176050
Si Si4 0.070669 0.614734 0.833608
Si Si5 0.829945 0.386883 0.005613
Si Si6 0.500000 0.270368 0.000000
Si Si7 0.538395 0.883162 0.637146
Si Si8 0.063914 0.883627 0.740763
O O1 0.317303 0.500000 0.648666
O O2 0.475187 0.674341 0.701002
O O3 0.523472 0.647666 0.816885
O O4 0.000000 0.658997 0.500000
O O5 0.500000 0.855966 0.500000
O O6 0.793919 0.854597 0.738030
O O7 0.039018 0.866853 0.784518
O O8 0.800638 0.693115 0.686111
O O9 0.402248 0.832901 0.279960
O O10 0.000000 0.765760 0.000000
O O11 0.109621 0.673903 0.139013
O O12 0.966211 0.500000 0.765690
O O13 0.216521 0.621846 0.963996
O O14 0.306477 0.651700 0.924258
O O15 0.897915 0.500000 0.025944
O O16 0.317266 0.196805 0.864916
O O17 0.224940 0.851541 0.445023
O O18 0.546930 0.000000 0.652451
O O19 0.151970 0.000000 0.778342
#
# Coordination Sequence:
#
# PCOD8059937 Si02
#       8
#     4   4   4   4   4   2   4   4
#     4   9  18  32  51  76 101 127 166 214 256 295
#     4   9  17  31  50  72  96 126 164 205 250 293
#     4  10  19  32  52  76 102 133 168 208 256 307
#     4  10  19  31  48  70 101 136 166 196 241 299
#     4   9  17  31  51  72  98 133 171 208 248 299
#     4  10  20  32  48  72 104 136 168 204 246 308
#     4  10  19  32  51  75 100 126 164 213 260 299
#     4   9  18  32  51  72  96 129 169 215 254 292
#
# _framework density 17.512777
#
# number of rings (size 3 to 8) (size 9 to 14) (size 15 to 20)
#    0.000    2.533    1.333    1.200    0.000    4.800 
#    0.000    0.000    0.000    2.000    0.000    0.000 
#    0.000    0.000    0.000    0.000    0.000    0.000 
#
# Total GULP energy -371727.443149 kJ/mol
# GULP energy per Si atom -12390.914772 kJ/mol
# Density = 1.747292 g / cm^3
# Si number density = 17.512777 Si / 1000 Ang^3
#
#
#
# Elastic Constant Matrix: (Units=GPa)
#
#
# Indices 1 2 3 4 5 6 
#
# 1 60.0921 22.0133 26.2270 0.0000 -4.7802 0.0000
# 2 22.0133 76.1542 28.3598 0.0000 -2.3679 0.0000
# 3 26.2270 28.3598 68.8785 0.0000 7.2647 0.0000
# 4 0.0000 0.0000 0.0000 23.7964 0.0000 -6.4374
# 5 -4.7802 -2.3679 7.2647 0.0000 19.8799 0.0000
# 6 0.0000 0.0000 0.0000 -6.4374 0.0000 23.8090
#
#
#
# Elastic Compliance Matrix: (Units=1/GPa)
#
#
# Indices 1 2 3 4 5 6 
#
# 1 0.021829 -0.003154 -0.007829 0.000000 0.007734 0.000000
# 2 -0.003154 0.016335 -0.005877 0.000000 0.003335 0.000000
# 3 -0.007829 -0.005877 0.021001 0.000000 -0.010257 0.000000
# 4 0.000000 0.000000 0.000000 0.045339 0.000000 0.012259
# 5 0.007734 0.003335 -0.010257 0.000000 0.056307 0.000000
# 6 0.000000 0.000000 0.000000 0.012259 0.000000 0.045315
#
#
# Mechanical properties :
#
#
# Convention : Reuss Voigt Hill
#
# Bulk Modulus (GPa) = 39.29930 39.81390 39.55660
# Shear Modulus (GPa) = 20.13477 22.06537 21.10007
#
# Velocity S-wave (km/s) = 3.39443 3.55344 3.47484
# Velocity P-wave (km/s) = 6.15239 6.29440 6.22380
#
# Compressibility (1/GPa) = 0.02544575
#
# Stress axis : x y z
#
# Youngs Moduli (GPa) = 45.81149 61.21809 47.61747
#
# Poissons Ratio (x) = 0.19307 0.37279
# Poissons Ratio (y) = 0.14448 0.27983
# Poissons Ratio (z) = 0.35865 0.35975
#
# Static dielectric constant tensor:
#      x y z
#    x 3.234640 0.000000 0.048240 
#    y 0.000000 3.236120 0.000000 
#    z 0.048240 0.000000 3.265790 
# 
# 
# High freq. dielectric constant tensor:
#      x y z
#    x 1.667920 0.000000 0.003580 
#    y 0.000000 1.673810 0.000000 
#    z 0.003580 0.000000 1.666300 
# 
# From -- ./inp_files/93271.got.cif
#   From: 2010.06.25/outbox.cif.g09.slc.cpg/sg10_47_cif.got.tgz:93271.got - 2010.06.27 22:07:45.
