data_PCOD8059372
_publ_section_title
;
Structure prediction by ZEFSAII (Michael W. Deem and Ramdas Pophale) SiO2 
 PCOD8059372
Probable space group: P 2/M
;
_chemical_formula_sum "Si O2"
_cell_formula_units_Z 32
_cell_length_a 16.276510
_cell_length_b 8.956641
_cell_length_c 22.116847
_cell_angle_alpha 90.000000
_cell_angle_beta 38.097078
_cell_angle_gamma 90.000000
_cell_volume 1989.352925
_symmetry_space_group_name_H-M "P 2/M"
_symmetry_group_IT_number 10
_symmetry_cell_setting 'monoclinic'
loop_
_space_group_symop_operation_xyz
x,y,z
-x,y,-z
-x,-y,-z
x,-y,z
loop_
_atom_site_type_symbol
_atom_site_label
_atom_site_fract_x
_atom_site_fract_y
_atom_site_fract_z
Si Si1 0.428594 0.335951 0.977545
Si Si2 0.290415 0.832370 0.644203
Si Si3 0.925594 0.329845 0.296246
Si Si4 0.298250 0.323270 0.227512
Si Si5 0.750101 0.670251 0.517011
Si Si6 0.847090 0.174689 0.578789
Si Si7 0.194942 0.824520 0.167068
Si Si8 0.533765 0.832309 0.576995
O O1 0.374044 0.500000 0.990342
O O2 0.544007 0.280956 0.864605
O O3 0.500000 0.349384 0.000000
O O4 0.306442 0.220959 0.052799
O O5 0.165793 0.721885 0.707360
O O6 0.383845 0.778856 0.646189
O O7 0.378107 0.832158 0.533650
O O8 0.237841 0.000000 0.686997
O O9 0.969065 0.500000 0.260302
O O10 0.846653 0.311607 0.404253
O O11 0.053629 0.225049 0.223149
O O12 0.278433 0.500000 0.233575
O O13 0.241788 0.265030 0.322800
O O14 0.218892 0.251089 0.217878
O O15 0.744768 0.500000 0.542922
O O16 0.807149 0.777572 0.535010
O O17 0.599710 0.721326 0.587544
O O18 0.000000 0.217358 0.500000
O O19 0.821712 0.000000 0.602423
O O20 0.198009 0.000000 0.174645
O O21 0.529051 0.000000 0.606631
#
# Coordination Sequence:
#
# PCOD8059372 Si02
#       8
#     4   4   4   4   4   4   4   4
#     4   8  16  31  48  65  85 110 140 176 220 265
#     4   8  14  25  41  61  84 112 144 177 217 262
#     4  10  19  29  42  62  90 121 150 182 219 260
#     4  10  20  34  50  65  85 114 147 184 223 262
#     4  10  20  31  44  62  85 117 154 188 220 257
#     4  11  23  35  47  64  87 117 152 188 223 258
#     4  11  20  29  45  67  90 116 146 180 218 263
#     4   8  14  26  43  60  82 112 144 180 219 259
#
# _framework density 16.085633000000001
#
# number of rings (size 3 to 8) (size 9 to 14) (size 15 to 20)
#    0.000    2.500    0.000    4.875    0.000    7.750 
#    0.000    2.500    0.000    0.000    0.000    0.000 
#    0.000    1.000    0.000   10.500    0.000    5.000 
#
# Total GULP energy -396676.004448 kJ/mol
# GULP energy per Si atom -12396.125139 kJ/mol
# Density = 1.604902 g / cm^3
# Si number density = 16.085633 Si / 1000 Ang^3
#
#
#
# Elastic Constant Matrix: (Units=GPa)
#
#
# Indices 1 2 3 4 5 6 
#
# 1 88.4091 38.5881 29.4165 0.0000 -18.2976 0.0000
# 2 38.5881 87.6026 39.2513 0.0000 -10.9828 0.0000
# 3 29.4165 39.2513 62.7441 0.0000 -10.2359 0.0000
# 4 0.0000 0.0000 0.0000 21.5880 0.0000 -4.3779
# 5 -18.2976 -10.9828 -10.2359 0.0000 15.7829 0.0000
# 6 0.0000 0.0000 0.0000 -4.3779 0.0000 25.0916
#
#
#
# Elastic Compliance Matrix: (Units=1/GPa)
#
#
# Indices 1 2 3 4 5 6 
#
# 1 0.017346 -0.004454 -0.002876 0.000000 0.015146 0.000000
# 2 -0.004454 0.017387 -0.008564 0.000000 0.001382 0.000000
# 3 -0.002876 -0.008564 0.023627 0.000000 0.006030 0.000000
# 4 0.000000 0.000000 0.000000 0.048021 0.000000 0.008379
# 5 0.015146 0.001382 0.006030 0.000000 0.085792 0.000000
# 6 0.000000 0.000000 0.000000 0.008379 0.000000 0.041316
#
#
# Mechanical properties :
#
#
# Convention : Reuss Voigt Hill
#
# Bulk Modulus (GPa) = 37.62940 50.36306 43.99623
# Shear Modulus (GPa) = 18.23931 21.25916 19.74924
#
# Velocity S-wave (km/s) = 3.37098 3.63936 3.50774
# Velocity P-wave (km/s) = 6.21251 7.00266 6.61938
#
# Compressibility (1/GPa) = 0.02657496
#
# Stress axis : x y z
#
# Youngs Moduli (GPa) = 57.64854 57.51342 42.32470
#
# Poissons Ratio (x) = 0.25614 0.12171
# Poissons Ratio (y) = 0.25674 0.36245
# Poissons Ratio (z) = 0.16578 0.49252
#
# Static dielectric constant tensor:
#      x y z
#    x 3.085340 0.000000 -0.259490 
#    y 0.000000 3.161270 0.000000 
#    z -0.259490 0.000000 3.046180 
# 
# 
# High freq. dielectric constant tensor:
#      x y z
#    x 1.602180 0.000000 -0.025850 
#    y 0.000000 1.628730 0.000000 
#    z -0.025850 0.000000 1.584290 
# 
# From -- ./inp_files/66214.got.cif
#   From: 2010.06.25/outbox.cif.g09.slc.cpg/sg10_34_cif.got.tgz:66214.got - 2010.06.27 22:07:45.
