data_PCOD8059137
_publ_section_title
;
Structure prediction by ZEFSAII (Michael W. Deem and Ramdas Pophale) SiO2 
 PCOD8059137
Probable space group: P 2/M
;
_chemical_formula_sum "Si O2"
_cell_formula_units_Z 24
_cell_length_a 12.547206
_cell_length_b 17.410651
_cell_length_c 17.407204
_cell_angle_alpha 90.000000
_cell_angle_beta 19.138609
_cell_angle_gamma 90.000000
_cell_volume 1246.729729
_symmetry_space_group_name_H-M "P 2/M"
_symmetry_group_IT_number 10
_symmetry_cell_setting 'monoclinic'
loop_
_space_group_symop_operation_xyz
x,y,z
-x,y,-z
-x,-y,-z
x,-y,z
loop_
_atom_site_type_symbol
_atom_site_label
_atom_site_fract_x
_atom_site_fract_y
_atom_site_fract_z
Si Si1 0.247818 0.709944 0.045979
Si Si2 0.647162 0.585448 0.705289
Si Si3 0.766222 0.758406 0.260784
Si Si4 0.053713 0.915869 0.053586
Si Si5 0.308260 0.710645 0.447146
Si Si6 0.662991 0.832800 0.699852
O O1 0.438612 0.629728 0.912668
O O2 0.486199 0.784382 0.889283
O O3 0.097012 0.716616 0.061637
O O4 0.987991 0.709465 0.290729
O O5 0.503008 0.500000 0.790856
O O6 0.651212 0.627634 0.619728
O O7 0.000000 0.580002 0.500000
O O8 0.500000 0.726360 0.500000
O O9 0.651231 0.737020 0.253262
O O10 0.809789 0.849604 0.247604
O O11 0.968916 0.000000 0.146766
O O12 0.425764 0.896722 0.824812
O O13 0.000000 0.919577 0.000000
O O14 0.218455 0.772622 0.444866
O O15 0.000000 0.871697 0.500000
#
# Coordination Sequence:
#
# PCOD8059137 Si02
#       6
#     4   4   4   4   4   4
#     4   9  19  33  54  78 102 133 176 213 254 309
#     4  10  22  36  50  74 104 135 172 208 253 315
#     4   9  18  33  54  80 100 130 175 217 252 305
#     4  10  19  33  53  75 103 141 175 207 260 317
#     4  10  18  34  55  76 104 135 169 216 261 298
#     4  10  20  32  51  79 106 135 177 221 256 302
#
# _framework density 19.250364000000001
#
# number of rings (size 3 to 8) (size 9 to 14) (size 15 to 20)
#    0.000    2.333    1.667    2.000    0.000    4.000 
#    0.000    3.333    0.000    3.000    0.000    4.667 
#    0.000    0.000    0.000    0.000    0.000    0.000 
#
# Total GULP energy -297345.787497 kJ/mol
# GULP energy per Si atom -12389.407812 kJ/mol
# Density = 1.920655 g / cm^3
# Si number density = 19.250364 Si / 1000 Ang^3
#
#
#
# Elastic Constant Matrix: (Units=GPa)
#
#
# Indices 1 2 3 4 5 6 
#
# 1 49.7026 13.9256 12.0755 0.0000 -11.3194 0.0000
# 2 13.9256 107.6881 17.7216 0.0000 -10.0482 0.0000
# 3 12.0755 17.7216 59.3199 0.0000 -12.9203 0.0000
# 4 0.0000 0.0000 0.0000 20.5656 0.0000 -11.1965
# 5 -11.3194 -10.0482 -12.9203 0.0000 37.5235 0.0000
# 6 0.0000 0.0000 0.0000 -11.1965 0.0000 26.8166
#
#
#
# Elastic Compliance Matrix: (Units=1/GPa)
#
#
# Indices 1 2 3 4 5 6 
#
# 1 0.022568 -0.001954 -0.002856 0.000000 0.005301 0.000000
# 2 -0.001954 0.010042 -0.002319 0.000000 0.001301 0.000000
# 3 -0.002856 -0.002319 0.019253 0.000000 0.005147 0.000000
# 4 0.000000 0.000000 0.000000 0.062929 0.000000 0.026274
# 5 0.005301 0.001301 0.005147 0.000000 0.030370 0.000000
# 6 0.000000 0.000000 0.000000 0.026274 0.000000 0.048260
#
#
# Mechanical properties :
#
#
# Convention : Reuss Voigt Hill
#
# Bulk Modulus (GPa) = 26.59133 33.79507 30.19320
# Shear Modulus (GPa) = 22.70516 28.51367 25.60941
#
# Velocity S-wave (km/s) = 3.43806 3.85281 3.65133
# Velocity P-wave (km/s) = 5.44093 6.11440 5.78747
#
# Compressibility (1/GPa) = 0.03760625
#
# Stress axis : x y z
#
# Youngs Moduli (GPa) = 44.30999 99.58441 51.94042
#
# Poissons Ratio (x) = 0.19456 0.14833
# Poissons Ratio (y) = 0.08657 0.12044
# Poissons Ratio (z) = 0.12654 0.23092
#
# Static dielectric constant tensor:
#      x y z
#    x 3.552120 0.000000 -0.248150 
#    y 0.000000 3.746690 0.000000 
#    z -0.248150 0.000000 3.617430 
# 
# 
# High freq. dielectric constant tensor:
#      x y z
#    x 1.744530 0.000000 -0.011290 
#    y 0.000000 1.726710 0.000000 
#    z -0.011290 0.000000 1.758590 
# 
# From -- ./inp_files/54171.got.cif
#   From: 2010.06.25/outbox.cif.g09.slc.cpg/sg10_28_cif.got.tgz:54171.got - 2010.06.27 22:07:45.
