data_PCOD8059212
_publ_section_title
;
Structure prediction by ZEFSAII (Michael W. Deem and Ramdas Pophale) SiO2 
 PCOD8059212
Probable space group: P 2/M
;
_chemical_formula_sum "Si O2"
_cell_formula_units_Z 32
_cell_length_a 14.666494
_cell_length_b 13.982464
_cell_length_c 21.676236
_cell_angle_alpha 90.000000
_cell_angle_beta 19.402801
_cell_angle_gamma 90.000000
_cell_volume 1476.736420
_symmetry_space_group_name_H-M "P 2/M"
_symmetry_group_IT_number 10
_symmetry_cell_setting 'monoclinic'
loop_
_space_group_symop_operation_xyz
x,y,z
-x,y,-z
-x,-y,-z
x,-y,z
loop_
_atom_site_type_symbol
_atom_site_label
_atom_site_fract_x
_atom_site_fract_y
_atom_site_fract_z
Si Si1 0.615537 0.105428 0.043261
Si Si2 0.630207 0.108533 0.298748
Si Si3 0.020659 0.608384 0.799030
Si Si4 0.464186 0.839573 0.270683
Si Si5 0.885721 0.787574 0.328990
Si Si6 0.957174 0.281609 0.959811
Si Si7 0.893753 0.217048 0.674593
Si Si8 0.435934 0.606556 0.111037
O O1 0.535514 0.096999 0.166013
O O2 0.360274 0.144597 0.166956
O O3 0.682942 0.000000 0.974978
O O4 0.885546 0.170603 0.863336
O O5 0.537483 0.104929 0.286631
O O6 0.885260 0.179343 0.146060
O O7 0.382353 0.145851 0.500126
O O8 0.709926 0.000000 0.267531
O O9 0.133222 0.500000 0.719482
O O10 0.193039 0.681240 0.645592
O O11 0.055505 0.640690 0.847661
O O12 0.704146 0.614416 0.981669
O O13 0.142099 0.815074 0.472399
O O14 0.634631 0.740572 0.157805
O O15 0.005639 0.778857 0.320021
O O16 0.000000 0.327518 0.000000
O O17 0.792638 0.321461 0.716879
O O18 0.312258 0.500000 0.191735
O O19 0.500000 0.636999 0.000000
#
# Coordination Sequence:
#
# PCOD8059212 Si02
#       8
#     4   4   4   4   4   4   4   4
#     4  12  23  36  58  87 127 173 209 248 312 386
#     4  10  23  42  66  92 123 166 217 270 318 374
#     4  11  22  40  67  94 125 162 208 261 320 382
#     4  10  22  39  62  87 129 167 214 260 307 370
#     4  11  22  40  61  92 128 161 206 267 320 368
#     4  10  22  44  65  90 123 167 213 266 325 373
#     4  11  21  36  59  90 131 166 204 256 306 373
#     4  10  18  34  63  95 125 163 205 249 309 374
#
# _framework density 21.669405999999999
#
# number of rings (size 3 to 8) (size 9 to 14) (size 15 to 20)
#    0.000    1.375    3.750    1.500    0.000    7.500 
#    0.000    2.500    0.000    6.750    0.000    0.000 
#    0.000    0.000    0.000    0.000    0.000    0.000 
#
# Total GULP energy -396821.203255 kJ/mol
# GULP energy per Si atom -12400.662602 kJ/mol
# Density = 2.162009 g / cm^3
# Si number density = 21.669406 Si / 1000 Ang^3
#
#
#
# Elastic Constant Matrix: (Units=GPa)
#
#
# Indices 1 2 3 4 5 6 
#
# 1 84.8714 27.4750 12.6508 0.0000 11.5106 0.0000
# 2 27.4750 132.7690 28.9375 0.0000 7.8734 0.0000
# 3 12.6508 28.9375 96.4428 0.0000 9.1051 0.0000
# 4 0.0000 0.0000 0.0000 21.4041 0.0000 3.7733
# 5 11.5106 7.8734 9.1051 0.0000 25.9927 0.0000
# 6 0.0000 0.0000 0.0000 3.7733 0.0000 24.9572
#
#
#
# Elastic Compliance Matrix: (Units=1/GPa)
#
#
# Indices 1 2 3 4 5 6 
#
# 1 0.013299 -0.002331 -0.000575 0.000000 -0.004982 0.000000
# 2 -0.002331 0.008536 -0.002181 0.000000 -0.000789 0.000000
# 3 -0.000575 -0.002181 0.011389 0.000000 -0.003074 0.000000
# 4 0.000000 0.000000 0.000000 0.047999 0.000000 -0.007257
# 5 -0.004982 -0.000789 -0.003074 0.000000 0.041995 0.000000
# 6 0.000000 0.000000 0.000000 -0.007257 0.000000 0.041166
#
#
# Mechanical properties :
#
#
# Convention : Reuss Voigt Hill
#
# Bulk Modulus (GPa) = 43.38393 50.24551 46.81472
# Shear Modulus (GPa) = 27.43624 30.80546 29.12085
#
# Velocity S-wave (km/s) = 3.56213 3.77452 3.66986
# Velocity P-wave (km/s) = 6.08134 6.49874 6.29350
#
# Compressibility (1/GPa) = 0.02305001
#
# Stress axis : x y z
#
# Youngs Moduli (GPa) = 75.19629 117.14413 87.80496
#
# Poissons Ratio (x) = 0.27310 0.05045
# Poissons Ratio (y) = 0.17531 0.19151
# Poissons Ratio (z) = 0.04321 0.25550
#
# Static dielectric constant tensor:
#      x y z
#    x 3.945450 0.000000 -0.010010 
#    y 0.000000 3.882500 0.000000 
#    z -0.010010 0.000000 4.000010 
# 
# 
# High freq. dielectric constant tensor:
#      x y z
#    x 1.861900 0.000000 -0.001000 
#    y 0.000000 1.840680 0.000000 
#    z -0.001000 0.000000 1.839720 
# 
# From -- ./inp_files/85400.got.cif
#   From: 2010.06.25/outbox.cif.g09.slc.cpg/sg10_43_cif.got.tgz:85400.got - 2010.06.27 22:07:45.
