data_PCOD8059679
_publ_section_title
;
Structure prediction by ZEFSAII (Michael W. Deem and Ramdas Pophale) SiO2 
 PCOD8059679
Probable space group: P 2/M
;
_chemical_formula_sum "Si O2"
_cell_formula_units_Z 28
_cell_length_a 14.374180
_cell_length_b 9.418455
_cell_length_c 10.448560
_cell_angle_alpha 90.000000
_cell_angle_beta 79.346781
_cell_angle_gamma 90.000000
_cell_volume 1390.171734
_symmetry_space_group_name_H-M "P 2/M"
_symmetry_group_IT_number 10
_symmetry_cell_setting 'monoclinic'
loop_
_space_group_symop_operation_xyz
x,y,z
-x,y,-z
-x,-y,-z
x,-y,z
loop_
_atom_site_type_symbol
_atom_site_label
_atom_site_fract_x
_atom_site_fract_y
_atom_site_fract_z
Si Si1 0.798519 0.830450 0.800813
Si Si2 0.771350 0.336429 0.330874
Si Si3 0.889332 0.663962 0.546446
Si Si4 0.605161 0.158931 0.459484
Si Si5 0.603429 0.842884 0.742858
Si Si6 0.770246 0.335358 0.048353
Si Si7 0.446141 0.661329 0.881354
O O1 0.859953 0.762148 0.672222
O O2 0.688225 0.787042 0.810949
O O3 0.814418 0.000000 0.797855
O O4 0.826594 0.760955 0.930672
O O5 0.746236 0.500000 0.356967
O O6 0.840945 0.283984 0.425686
O O7 0.671263 0.255359 0.354913
O O8 0.816730 0.312452 0.177794
O O9 0.862605 0.500000 0.582521
O O10 0.000000 0.682353 0.500000
O O11 0.500000 0.222557 0.500000
O O12 0.649584 0.155922 0.590213
O O13 0.600655 0.000000 0.401459
O O14 0.507608 0.750790 0.764644
O O15 0.573246 0.000000 0.794106
O O16 0.777325 0.500000 0.004304
O O17 0.661018 0.284904 0.082227
O O18 0.447754 0.500000 0.833978
O O19 0.500000 0.683463 0.000000
#
# Coordination Sequence:
#
# PCOD8059679 Si02
#       7
#     4   4   4   4   4   4   4
#     4  11  22  37  59  86 114 149 191 234 286 346
#     4  10  21  37  59  86 115 149 192 242 292 343
#     4  10  22  42  67  91 113 144 189 242 302 359
#     4  10  20  34  52  77 115 157 193 233 283 337
#     4  10  20  32  48  75 109 147 192 235 274 327
#     4  10  21  37  55  81 118 155 192 236 285 337
#     4  10  19  30  47  73 108 153 197 234 273 322
#
# _framework density 20.141397000000001
#
# number of rings (size 3 to 8) (size 9 to 14) (size 15 to 20)
#    0.000    1.857    2.857    1.286    0.000    3.143 
#    0.000    0.714    0.000    4.286    0.000    0.000 
#    0.000    0.000    0.000    0.000    0.000    0.000 
#
# Total GULP energy -347104.510203 kJ/mol
# GULP energy per Si atom -12396.589650 kJ/mol
# Density = 2.009555 g / cm^3
# Si number density = 20.141397 Si / 1000 Ang^3
#
#
#
# Elastic Constant Matrix: (Units=GPa)
#
#
# Indices 1 2 3 4 5 6 
#
# 1 65.3226 31.1281 37.5693 0.0000 1.5955 0.0000
# 2 31.1281 78.7253 61.7253 0.0000 -8.2356 0.0000
# 3 37.5693 61.7253 131.9392 0.0000 5.5156 0.0000
# 4 0.0000 0.0000 0.0000 13.6935 0.0000 2.8487
# 5 1.5955 -8.2356 5.5156 0.0000 18.9238 0.0000
# 6 0.0000 0.0000 0.0000 2.8487 0.0000 16.4149
#
#
#
# Elastic Compliance Matrix: (Units=1/GPa)
#
#
# Indices 1 2 3 4 5 6 
#
# 1 0.019840 -0.006175 -0.002610 0.000000 -0.003599 0.000000
# 2 -0.006175 0.024863 -0.010475 0.000000 0.014394 0.000000
# 3 -0.002610 -0.010475 0.013570 0.000000 -0.008294 0.000000
# 4 0.000000 0.000000 0.000000 0.075763 0.000000 -0.013148
# 5 -0.003599 0.014394 -0.008294 0.000000 0.061829 0.000000
# 6 0.000000 0.000000 0.000000 -0.013148 0.000000 0.063202
#
#
# Mechanical properties :
#
#
# Convention : Reuss Voigt Hill
#
# Bulk Modulus (GPa) = 50.62620 59.64806 55.13713
# Shear Modulus (GPa) = 16.43812 19.51072 17.97442
#
# Velocity S-wave (km/s) = 2.85991 3.11575 2.99057
# Velocity P-wave (km/s) = 6.00795 6.52862 6.27368
#
# Compressibility (1/GPa) = 0.01975262
#
# Stress axis : x y z
#
# Youngs Moduli (GPa) = 50.40258 40.22074 73.69323
#
# Poissons Ratio (x) = 0.24836 0.19235
# Poissons Ratio (y) = 0.31123 0.77194
# Poissons Ratio (z) = 0.13156 0.42131
#
# Static dielectric constant tensor:
#      x y z
#    x 3.438010 0.000000 0.251060 
#    y 0.000000 3.579930 0.000000 
#    z 0.251060 0.000000 3.729680 
# 
# 
# High freq. dielectric constant tensor:
#      x y z
#    x 1.760400 0.000000 0.019480 
#    y 0.000000 1.777000 0.000000 
#    z 0.019480 0.000000 1.793870 
# 
# From -- ./inp_files/49123.got.cif
#   From: 2010.06.25/outbox.cif.g09.slc.cpg/sg10_25_cif.got.tgz:49123.got - 2010.06.27 22:07:45.
