data_PCOD8059376
_publ_section_title
;
Structure prediction by ZEFSAII (Michael W. Deem and Ramdas Pophale) SiO2 
 PCOD8059376
Probable space group: P 2/M
;
_chemical_formula_sum "Si O2"
_cell_formula_units_Z 32
_cell_length_a 20.804425
_cell_length_b 9.236433
_cell_length_c 11.225059
_cell_angle_alpha 90.000000
_cell_angle_beta 64.673441
_cell_angle_gamma 90.000000
_cell_volume 1949.671767
_symmetry_space_group_name_H-M "P 2/M"
_symmetry_group_IT_number 10
_symmetry_cell_setting 'monoclinic'
loop_
_space_group_symop_operation_xyz
x,y,z
-x,y,-z
-x,-y,-z
x,-y,z
loop_
_atom_site_type_symbol
_atom_site_label
_atom_site_fract_x
_atom_site_fract_y
_atom_site_fract_z
Si Si1 0.536196 0.834492 0.285800
Si Si2 0.719926 0.668827 0.528302
Si Si3 0.693013 0.832376 0.795159
Si Si4 0.568240 0.330272 0.024601
Si Si5 0.875634 0.665382 0.440587
Si Si6 0.848850 0.834753 0.696742
Si Si7 0.610613 0.165139 0.471421
Si Si8 0.994597 0.160403 0.647129
O O1 0.554992 0.722596 0.168323
O O2 0.455642 0.805981 0.389331
O O3 0.589098 0.803489 0.352912
O O4 0.544924 0.000000 0.234552
O O5 0.704062 0.500000 0.566262
O O6 0.698776 0.760372 0.661171
O O7 0.802823 0.690498 0.423963
O O8 0.673760 0.725698 0.454552
O O9 0.768135 0.819364 0.808099
O O10 0.671536 0.000000 0.794682
O O11 0.635447 0.752362 0.919363
O O12 0.584448 0.500000 0.012697
O O13 0.500000 0.292077 0.000000
O O14 0.896641 0.500000 0.432121
O O15 0.857815 0.721506 0.584957
O O16 0.946502 0.742290 0.331974
O O17 0.911438 0.801352 0.744834
O O18 0.860945 0.000000 0.639723
O O19 0.636675 0.000000 0.464595
O O20 0.000000 0.178020 0.500000
O O21 0.012731 0.000000 0.675437
#
# Coordination Sequence:
#
# PCOD8059376 Si02
#       8
#     4   4   4   4   4   4   4   4
#     4   9  19  35  52  70  89 112 146 185 222 261
#     4  10  19  29  42  64  94 122 149 183 222 263
#     4  10  19  31  47  64  86 119 155 188 222 262
#     4  11  23  35  47  67  94 120 147 181 220 262
#     4   9  16  23  33  54  83 113 144 176 210 253
#     4   8  15  26  38  54  77 108 145 181 217 255
#     4   9  18  33  52  70  88 112 146 185 221 262
#     4   8  13  22  35  51  75 107 142 178 213 252
#
# _framework density 16.413021000000001
#
# number of rings (size 3 to 8) (size 9 to 14) (size 15 to 20)
#    0.000    2.750    0.000    3.750    0.000    8.250 
#    0.000    1.250    0.000    0.000    0.000    0.000 
#    0.000    1.000    0.000   11.250    0.000    7.000 
#
# Total GULP energy -396505.738605 kJ/mol
# GULP energy per Si atom -12390.804331 kJ/mol
# Density = 1.637566 g / cm^3
# Si number density = 16.413021 Si / 1000 Ang^3
#
#
#
# Elastic Constant Matrix: (Units=GPa)
#
#
# Indices 1 2 3 4 5 6 
#
# 1 132.8227 76.3247 42.1789 0.0000 -20.8260 0.0000
# 2 76.3247 104.5019 34.9675 0.0000 -11.5921 0.0000
# 3 42.1789 34.9675 48.6559 0.0000 -5.3514 0.0000
# 4 0.0000 0.0000 0.0000 19.0999 0.0000 -2.9342
# 5 -20.8260 -11.5921 -5.3514 0.0000 18.4556 0.0000
# 6 0.0000 0.0000 0.0000 -2.9342 0.0000 26.4025
#
#
#
# Elastic Compliance Matrix: (Units=1/GPa)
#
#
# Indices 1 2 3 4 5 6 
#
# 1 0.016236 -0.008329 -0.006869 0.000000 0.011099 0.000000
# 2 -0.008329 0.017428 -0.005304 0.000000 0.000010 0.000000
# 3 -0.006869 -0.005304 0.030058 0.000000 -0.002366 0.000000
# 4 0.000000 0.000000 0.000000 0.053266 0.000000 0.005920
# 5 0.011099 0.000010 -0.002366 0.000000 0.066028 0.000000
# 6 0.000000 0.000000 0.000000 0.005920 0.000000 0.038533
#
#
# Mechanical properties :
#
#
# Convention : Reuss Voigt Hill
#
# Bulk Modulus (GPa) = 44.01393 65.88030 54.94712
# Shear Modulus (GPa) = 18.50990 21.62557 20.06774
#
# Velocity S-wave (km/s) = 3.36185 3.63380 3.50047
# Velocity P-wave (km/s) = 6.47643 7.60474 7.06315
#
# Compressibility (1/GPa) = 0.02272008
#
# Stress axis : x y z
#
# Youngs Moduli (GPa) = 61.59007 57.37795 33.26900
#
# Poissons Ratio (x) = 0.47791 0.22851
# Poissons Ratio (y) = 0.51299 0.17645
# Poissons Ratio (z) = 0.42303 0.30432
#
# Static dielectric constant tensor:
#      x y z
#    x 3.583640 0.000000 -0.351470 
#    y 0.000000 3.174210 0.000000 
#    z -0.351470 0.000000 2.671270 
# 
# 
# High freq. dielectric constant tensor:
#      x y z
#    x 1.646920 0.000000 -0.028080 
#    y 0.000000 1.642870 0.000000 
#    z -0.028080 0.000000 1.568440 
# 
# From -- ./inp_files/54821.got.cif
#   From: 2010.06.25/outbox.cif.g09.slc.cpg/sg10_28_cif.got.tgz:54821.got - 2010.06.27 22:07:45.
