data_PCOD8059469
_publ_section_title
;
Structure prediction by ZEFSAII (Michael W. Deem and Ramdas Pophale) SiO2 
 PCOD8059469
Probable space group: P 2/M
;
_chemical_formula_sum "Si O2"
_cell_formula_units_Z 30
_cell_length_a 8.310164
_cell_length_b 18.223304
_cell_length_c 10.912136
_cell_angle_alpha 90.000000
_cell_angle_beta 61.072289
_cell_angle_gamma 90.000000
_cell_volume 1446.335415
_symmetry_space_group_name_H-M "P 2/M"
_symmetry_group_IT_number 10
_symmetry_cell_setting 'monoclinic'
loop_
_space_group_symop_operation_xyz
x,y,z
-x,y,-z
-x,-y,-z
x,-y,z
loop_
_atom_site_type_symbol
_atom_site_label
_atom_site_fract_x
_atom_site_fract_y
_atom_site_fract_z
Si Si1 0.166134 0.579922 0.664496
Si Si2 0.686117 0.306134 0.776733
Si Si3 0.000000 0.645033 0.500000
Si Si4 0.742480 0.154375 0.155661
Si Si5 0.779758 0.582900 0.939029
Si Si6 0.934786 0.085635 0.850200
Si Si7 0.613855 0.143852 0.843724
Si Si8 0.314499 0.678053 0.798782
O O1 0.261331 0.500000 0.640746
O O2 0.129174 0.593318 0.534606
O O3 0.292290 0.644521 0.671402
O O4 0.983549 0.580218 0.812800
O O5 0.881145 0.304737 0.635329
O O6 0.660352 0.370356 0.886068
O O7 0.660305 0.228683 0.853015
O O8 0.531974 0.318438 0.732622
O O9 0.520614 0.134667 0.227182
O O10 0.773051 0.241169 0.160103
O O11 0.851021 0.114355 0.229101
O O12 0.835132 0.129547 0.995222
O O13 0.700687 0.500000 0.981610
O O14 0.780682 0.624084 0.068276
O O15 0.813320 0.101583 0.770359
O O16 0.938459 0.000000 0.876243
O O17 0.500000 0.111900 0.000000
#
# Coordination Sequence:
#
# PCOD8059469 Si02
#       8
#     4   4   2   4   4   4   4   4
#     4  10  22  37  54  77 107 143 187 233 280 330
#     4  10  21  37  54  78 105 143 190 225 281 330
#     4  10  23  40  58  68 101 146 186 246 279 326
#     4   9  19  29  45  75 111 145 178 218 254 320
#     4  10  20  33  52  80 111 142 177 223 279 337
#     4  10  19  29  49  79 115 157 180 198 265 345
#     4   9  18  33  52  78 113 145 178 226 271 325
#     4  11  21  33  55  82 109 141 181 228 280 332
#
# _framework density 20.742076000000001
#
# number of rings (size 3 to 8) (size 9 to 14) (size 15 to 20)
#    0.000    2.133    0.000    4.600    7.467    6.667 
#    0.000    0.667    0.000    0.000    0.000    0.467 
#    0.000    2.400    0.000    0.000    0.000    0.000 
#
# Total GULP energy -371681.757339 kJ/mol
# GULP energy per Si atom -12389.391911 kJ/mol
# Density = 2.069487 g / cm^3
# Si number density = 20.742076 Si / 1000 Ang^3
#
#
#
# Elastic Constant Matrix: (Units=GPa)
#
#
# Indices 1 2 3 4 5 6 
#
# 1 158.2437 70.0657 9.3147 0.0000 15.8271 0.0000
# 2 70.0657 135.1300 4.1291 0.0000 13.4133 0.0000
# 3 9.3147 4.1291 34.7128 0.0000 9.8443 0.0000
# 4 0.0000 0.0000 0.0000 6.0972 0.0000 2.0657
# 5 15.8271 13.4133 9.8443 0.0000 23.5000 0.0000
# 6 0.0000 0.0000 0.0000 2.0657 0.0000 27.0979
#
#
#
# Elastic Compliance Matrix: (Units=1/GPa)
#
#
# Indices 1 2 3 4 5 6 
#
# 1 0.008476 -0.004069 -0.000942 0.000000 -0.002991 0.000000
# 2 -0.004069 0.009803 0.000835 0.000000 -0.003204 0.000000
# 3 -0.000942 0.000835 0.032815 0.000000 -0.013588 0.000000
# 4 0.000000 0.000000 0.000000 0.168356 0.000000 -0.012834
# 5 -0.002991 -0.003204 -0.013588 0.000000 0.052089 0.000000
# 6 0.000000 0.000000 0.000000 -0.012834 0.000000 0.037882
#
#
# Mechanical properties :
#
#
# Convention : Reuss Voigt Hill
#
# Bulk Modulus (GPa) = 23.39721 55.01172 39.20447
# Shear Modulus (GPa) = 15.05937 27.64416 21.35177
#
# Velocity S-wave (km/s) = 2.69742 3.65466 3.21190
# Velocity P-wave (km/s) = 4.58323 6.66244 5.71813
#
# Compressibility (1/GPa) = 0.04274014
#
# Stress axis : x y z
#
# Youngs Moduli (GPa) = 117.98569 102.01348 30.47404
#
# Poissons Ratio (x) = 0.41509 0.02871
# Poissons Ratio (y) = 0.48008 -0.02543
# Poissons Ratio (z) = 0.11115 -0.08513
#
# Static dielectric constant tensor:
#      x y z
#    x 4.677160 0.000000 0.028230 
#    y 0.000000 3.803420 0.000000 
#    z 0.028230 0.000000 3.155490 
# 
# 
# High freq. dielectric constant tensor:
#      x y z
#    x 1.839680 0.000000 0.001160 
#    y 0.000000 1.808230 0.000000 
#    z 0.001160 0.000000 1.740560 
# 
# From -- ./inp_files/43404.got.cif
#   From: 2010.06.25/outbox.cif.g09.slc.cpg/sg10_22_cif.got.tgz:43404.got - 2010.06.27 22:07:45.
