data_PCOD8059141
_publ_section_title
;
Structure prediction by ZEFSAII (Michael W. Deem and Ramdas Pophale) SiO2 
 PCOD8059141
Probable space group: P 2/M
;
_chemical_formula_sum "Si O2"
_cell_formula_units_Z 24
_cell_length_a 15.855404
_cell_length_b 15.774899
_cell_length_c 8.743462
_cell_angle_alpha 90.000000
_cell_angle_beta 34.121491
_cell_angle_gamma 90.000000
_cell_volume 1226.736060
_symmetry_space_group_name_H-M "P 2/M"
_symmetry_group_IT_number 10
_symmetry_cell_setting 'monoclinic'
loop_
_space_group_symop_operation_xyz
x,y,z
-x,y,-z
-x,-y,-z
x,-y,z
loop_
_atom_site_type_symbol
_atom_site_label
_atom_site_fract_x
_atom_site_fract_y
_atom_site_fract_z
Si Si1 0.871066 0.240118 0.408225
Si Si2 0.680641 0.206846 0.405859
Si Si3 0.079971 0.907886 0.040542
Si Si4 0.977568 0.406367 0.709697
Si Si5 0.650728 0.357256 0.215586
Si Si6 0.587610 0.735378 0.014835
O O1 0.810692 0.239670 0.325709
O O2 0.994708 0.167589 0.259290
O O3 0.939061 0.334178 0.320186
O O4 0.739372 0.220139 0.728141
O O5 0.661453 0.269982 0.293725
O O6 0.522268 0.196878 0.734170
O O7 0.743628 0.117826 0.245657
O O8 0.074740 0.000000 0.133073
O O9 0.000000 0.919485 0.000000
O O10 0.044065 0.500000 0.647713
O O11 0.000000 0.383116 0.500000
O O12 0.800354 0.411115 0.016178
O O13 0.500000 0.406362 0.500000
O O14 0.631404 0.339813 0.063810
O O15 0.500000 0.695684 0.000000
#
# Coordination Sequence:
#
# PCOD8059141 Si02
#       6
#     4   4   4   4   4   4
#     4  10  18  34  55  79 110 141 182 222 264 316
#     4   9  18  32  55  80 107 142 178 216 270 319
#     4   9  17  30  53  83 112 141 175 218 270 321
#     4  11  22  35  55  81 109 145 181 222 272 317
#     4  10  19  34  55  78 105 139 178 219 273 314
#     4   9  18  32  54  78 102 145 182 217 264 321
#
# _framework density 19.564111
#
# number of rings (size 3 to 8) (size 9 to 14) (size 15 to 20)
#    0.000    2.333    3.333    0.000    0.000    0.333 
#    0.000    2.500    0.000   25.000    0.000    0.000 
#    0.000    0.000    0.000    0.000    0.000    0.000 
#
# Total GULP energy -297343.574184 kJ/mol
# GULP energy per Si atom -12389.315591 kJ/mol
# Density = 1.951958 g / cm^3
# Si number density = 19.564111 Si / 1000 Ang^3
#
#
#
# Elastic Constant Matrix: (Units=GPa)
#
#
# Indices 1 2 3 4 5 6 
#
# 1 58.0438 29.7443 28.1293 0.0000 0.9745 0.0000
# 2 29.7443 118.8049 40.3286 0.0000 -7.7990 0.0000
# 3 28.1293 40.3286 110.3388 0.0000 -16.5203 0.0000
# 4 0.0000 0.0000 0.0000 4.8469 0.0000 -10.4072
# 5 0.9745 -7.7990 -16.5203 0.0000 32.8366 0.0000
# 6 0.0000 0.0000 0.0000 -10.4072 0.0000 0.2513
#
#
#
# Elastic Compliance Matrix: (Units=1/GPa)
#
#
# Indices 1 2 3 4 5 6 
#
# 1 0.021631 -0.004112 -0.004600 0.000000 -0.003933 0.000000
# 2 -0.004112 0.010401 -0.002558 0.000000 0.001306 0.000000
# 3 -0.004600 -0.002558 0.012004 0.000000 0.005569 0.000000
# 4 0.000000 0.000000 0.000000 -0.002346 0.000000 -0.097180
# 5 -0.003933 0.001306 0.005569 0.000000 0.033682 0.000000
# 6 0.000000 0.000000 0.000000 -0.097180 0.000000 -0.045260
#
#
# Mechanical properties :
#
#
# Convention : Reuss Voigt Hill
#
# Bulk Modulus (GPa) = 46.52103 53.73242 50.12672
# Shear Modulus (GPa) = 83.58729 20.18599 51.88664
#
# Velocity S-wave (km/s) = 6.54351 3.21563 5.15547
# Velocity P-wave (km/s) = 8.99558 6.42740 7.81767
#
# Compressibility (1/GPa) = 0.02149566
#
# Stress axis : x y z
#
# Youngs Moduli (GPa) = 46.22966 96.14851 83.30321
#
# Poissons Ratio (x) = 0.39538 0.38323
# Poissons Ratio (y) = 0.19011 0.21305
# Poissons Ratio (z) = 0.21268 0.24591
#
# Static dielectric constant tensor:
#      x y z
#    x 3.545820 0.000000 -0.198360 
#    y 0.000000 3.358770 0.000000 
#    z -0.198360 0.000000 4.071010 
# 
# 
# High freq. dielectric constant tensor:
#      x y z
#    x 1.751150 0.000000 -0.010430 
#    y 0.000000 1.718430 0.000000 
#    z -0.010430 0.000000 1.783490 
# 
# From -- ./inp_files/32962.got.cif
#   From: 2010.06.25/outbox.cif.g09.slc.cpg/sg10_17_cif.got.tgz:32962.got - 2010.06.27 22:07:45.
