data_PCOD8059027
_publ_section_title
;
Structure prediction by ZEFSAII (Michael W. Deem and Ramdas Pophale) SiO2 
 PCOD8059027
Probable space group: P 2/M
;
_chemical_formula_sum "Si O2"
_cell_formula_units_Z 28
_cell_length_a 11.967648
_cell_length_b 8.772071
_cell_length_c 15.902588
_cell_angle_alpha 90.000000
_cell_angle_beta 56.865149
_cell_angle_gamma 90.000000
_cell_volume 1397.991881
_symmetry_space_group_name_H-M "P 2/M"
_symmetry_group_IT_number 10
_symmetry_cell_setting 'monoclinic'
loop_
_space_group_symop_operation_xyz
x,y,z
-x,y,-z
-x,-y,-z
x,-y,z
loop_
_atom_site_type_symbol
_atom_site_label
_atom_site_fract_x
_atom_site_fract_y
_atom_site_fract_z
Si Si1 0.365567 0.818019 0.012039
Si Si2 0.095418 0.179661 0.202448
Si Si3 0.637072 0.678139 0.643878
Si Si4 0.890519 0.178862 0.612865
Si Si5 0.368156 0.818948 0.821128
Si Si6 0.826428 0.818605 0.239205
Si Si7 0.348315 0.173428 0.535350
O O1 0.357553 0.755924 0.920071
O O2 0.367293 0.000000 0.012618
O O3 0.500000 0.754063 0.000000
O O4 0.237676 0.751574 0.114891
O O5 0.059918 0.219590 0.313587
O O6 0.977360 0.243218 0.190373
O O7 0.104355 0.000000 0.187487
O O8 0.614612 0.500000 0.662174
O O9 0.752959 0.731605 0.658609
O O10 0.501060 0.762139 0.722141
O O11 0.681018 0.720759 0.531908
O O12 0.000000 0.234211 0.500000
O O13 0.861980 0.000000 0.614200
O O14 0.238723 0.760759 0.821520
O O15 0.374229 0.000000 0.818182
O O16 0.738181 0.758991 0.353047
O O17 0.824931 0.000000 0.241010
O O18 0.500000 0.180813 0.500000
O O19 0.306311 0.000000 0.529916
#
# Coordination Sequence:
#
# PCOD8059027 Si02
#       7
#     4   4   4   4   4   4   4
#     4   9  17  29  49  78 109 140 176 227 280 322
#     4   9  17  30  51  82 112 135 174 231 281 323
#     4  12  24  35  52  80 114 145 181 228 276 325
#     4  10  20  36  59  81 106 145 188 226 272 331
#     4  10  19  34  55  78 106 142 184 223 270 328
#     4   9  17  30  51  80 109 138 176 223 272 326
#     4  10  18  33  55  77 107 145 184 223 266 322
#
# _framework density 20.028727
#
# number of rings (size 3 to 8) (size 9 to 14) (size 15 to 20)
#    0.000    2.143    1.429    3.000    0.000    5.714 
#    0.000    2.857    0.000    4.714    0.000    1.000 
#    0.000    0.000    0.000    0.000    0.000    0.000 
#
# Total GULP energy -347162.347360 kJ/mol
# GULP energy per Si atom -12398.655263 kJ/mol
# Density = 1.998314 g / cm^3
# Si number density = 20.028727 Si / 1000 Ang^3
#
#
#
# Elastic Constant Matrix: (Units=GPa)
#
#
# Indices 1 2 3 4 5 6 
#
# 1 178.2828 9.9338 83.2002 0.0000 2.1360 0.0000
# 2 9.9338 9.7780 8.7494 0.0000 4.9192 0.0000
# 3 83.2002 8.7494 138.1940 0.0000 4.8854 0.0000
# 4 0.0000 0.0000 0.0000 1.8193 0.0000 1.4088
# 5 2.1360 4.9192 4.8854 0.0000 38.4663 0.0000
# 6 0.0000 0.0000 0.0000 1.4088 0.0000 3.8207
#
#
#
# Elastic Compliance Matrix: (Units=1/GPa)
#
#
# Indices 1 2 3 4 5 6 
#
# 1 0.007964 -0.004376 -0.004543 0.000000 0.000694 0.000000
# 2 -0.004376 0.117756 -0.004316 0.000000 -0.014268 0.000000
# 3 -0.004543 -0.004316 0.010262 0.000000 -0.000499 0.000000
# 4 0.000000 0.000000 0.000000 0.769280 0.000000 -0.283644
# 5 0.000694 -0.014268 -0.000499 0.000000 0.027846 0.000000
# 6 0.000000 0.000000 0.000000 -0.283644 0.000000 0.366312
#
#
# Mechanical properties :
#
#
# Convention : Reuss Voigt Hill
#
# Bulk Modulus (GPa) = 9.13138 58.89132 34.01135
# Shear Modulus (GPa) = 3.67001 23.77937 13.72469
#
# Velocity S-wave (km/s) = 1.35512 3.44941 2.62057
# Velocity P-wave (km/s) = 2.64906 6.73289 5.11612
#
# Compressibility (1/GPa) = 0.10951245
#
# Stress axis : x y z
#
# Youngs Moduli (GPa) = 125.55777 8.49214 97.44706
#
# Poissons Ratio (x) = 0.03716 0.44266
# Poissons Ratio (y) = 0.54944 0.42063
# Poissons Ratio (z) = 0.57035 0.03666
#
# Static dielectric constant tensor:
#      x y z
#    x 4.003140 0.000000 0.072480 
#    y 0.000000 2.994660 0.000000 
#    z 0.072480 0.000000 3.817490 
# 
# 
# High freq. dielectric constant tensor:
#      x y z
#    x 1.801860 0.000000 0.003030 
#    y 0.000000 1.711200 0.000000 
#    z 0.003030 0.000000 1.785900 
# 
# From -- ./inp_files/49379.got.cif
#   From: 2010.06.25/outbox.cif.g09.slc.cpg/sg10_25_cif.got.tgz:49379.got - 2010.06.27 22:07:45.
