data_PCOD8059264
_publ_section_title
;
Structure prediction by ZEFSAII (Michael W. Deem and Ramdas Pophale) SiO2 
 PCOD8059264
Probable space group: P 2/M
;
_chemical_formula_sum "Si O2"
_cell_formula_units_Z 26
_cell_length_a 12.618947
_cell_length_b 12.544316
_cell_length_c 8.988698
_cell_angle_alpha 90.000000
_cell_angle_beta 114.094363
_cell_angle_gamma 90.000000
_cell_volume 1298.906511
_symmetry_space_group_name_H-M "P 2/M"
_symmetry_group_IT_number 10
_symmetry_cell_setting 'monoclinic'
loop_
_space_group_symop_operation_xyz
x,y,z
-x,y,-z
-x,-y,-z
x,-y,z
loop_
_atom_site_type_symbol
_atom_site_label
_atom_site_fract_x
_atom_site_fract_y
_atom_site_fract_z
Si Si1 0.934653 0.881020 0.103151
Si Si2 0.761417 0.877887 0.514793
Si Si3 0.500000 0.282456 0.000000
Si Si4 0.266157 0.377451 0.969880
Si Si5 0.736084 0.191989 0.817968
Si Si6 0.106194 0.258354 0.652401
Si Si7 0.485233 0.879753 0.739925
O O1 0.958194 0.821154 0.270175
O O2 0.981068 0.000000 0.152951
O O3 0.797641 0.879651 0.981400
O O4 0.000000 0.825822 0.000000
O O5 0.798914 0.826106 0.694722
O O6 0.810533 0.809137 0.407222
O O7 0.621371 0.876066 0.435570
O O8 0.806228 0.000000 0.528781
O O9 0.397284 0.359139 0.992455
O O10 0.451710 0.203766 0.847365
O O11 0.245085 0.500000 0.995610
O O12 0.178735 0.344906 0.786643
O O13 0.247263 0.313343 0.113616
O O14 0.602968 0.157161 0.727338
O O15 0.000000 0.312967 0.500000
O O16 0.499619 0.000000 0.811265
#
# Coordination Sequence:
#
# PCOD8059264 Si02
#       7
#     4   4   2   4   4   4   4
#     4  10  20  35  55  82 116 158 196 230 282 350
#     4  11  21  35  56  88 126 158 186 228 287 352
#     4  10  18  36  60  86 116 148 188 246 286 348
#     4  10  22  41  62  82 108 151 202 249 296 333
#     4  10  21  35  56  81 116 156 198 239 284 341
#     4  11  23  38  58  86 119 151 193 243 289 346
#     4  10  19  31  54  87 124 158 186 224 285 353
#
# _framework density 20.016836000000001
#
# number of rings (size 3 to 8) (size 9 to 14) (size 15 to 20)
#    0.000    1.692    1.538    3.692    0.000    4.000 
#    0.000    0.769    0.000   17.538    0.000    0.000 
#    0.000    0.000    0.000    0.000    0.000    0.000 
#
# Total GULP energy -322288.950704 kJ/mol
# GULP energy per Si atom -12395.728873 kJ/mol
# Density = 1.997128 g / cm^3
# Si number density = 20.016836 Si / 1000 Ang^3
#
#
#
# Elastic Constant Matrix: (Units=GPa)
#
#
# Indices 1 2 3 4 5 6 
#
# 1 53.7133 20.7118 18.0058 0.0000 -3.4423 0.0000
# 2 20.7118 118.6771 33.8395 0.0000 -2.7379 0.0000
# 3 18.0058 33.8395 91.1251 0.0000 1.0349 0.0000
# 4 0.0000 0.0000 0.0000 15.8620 0.0000 -5.5385
# 5 -3.4423 -2.7379 1.0349 0.0000 37.5858 0.0000
# 6 0.0000 0.0000 0.0000 -5.5385 0.0000 15.5725
#
#
#
# Elastic Compliance Matrix: (Units=1/GPa)
#
#
# Indices 1 2 3 4 5 6 
#
# 1 0.020824 -0.002700 -0.003133 0.000000 0.001797 0.000000
# 2 -0.002700 0.009797 -0.003111 0.000000 0.000552 0.000000
# 3 -0.003133 -0.003111 0.012758 0.000000 -0.000865 0.000000
# 4 0.000000 0.000000 0.000000 0.071983 0.000000 0.025601
# 5 0.001797 0.000552 -0.000865 0.000000 0.026834 0.000000
# 6 0.000000 0.000000 0.000000 0.025601 0.000000 0.073321
#
#
# Mechanical properties :
#
#
# Convention : Reuss Voigt Hill
#
# Bulk Modulus (GPa) = 39.22725 45.40330 42.31528
# Shear Modulus (GPa) = 20.66961 26.53461 23.60211
#
# Velocity S-wave (km/s) = 3.21691 3.64485 3.43755
# Velocity P-wave (km/s) = 5.78254 6.35964 6.07794
#
# Compressibility (1/GPa) = 0.02549248
#
# Stress axis : x y z
#
# Youngs Moduli (GPa) = 48.02263 102.07028 78.38204
#
# Poissons Ratio (x) = 0.27554 0.24554
# Poissons Ratio (y) = 0.12964 0.24385
# Poissons Ratio (z) = 0.15043 0.31755
#
# Static dielectric constant tensor:
#      x y z
#    x 3.648710 0.000000 0.105720 
#    y 0.000000 3.277260 0.000000 
#    z 0.105720 0.000000 3.726700 
# 
# 
# High freq. dielectric constant tensor:
#      x y z
#    x 1.792770 0.000000 0.012530 
#    y 0.000000 1.741810 0.000000 
#    z 0.012530 0.000000 1.794680 
# 
# From -- ./inp_files/28406.got.cif
#   From: 2010.06.25/outbox.cif.g09.slc.cpg/sg10_15_cif.got.tgz:28406.got - 2010.06.27 22:07:45.
