data_PCOD8059132
_publ_section_title
;
Structure prediction by ZEFSAII (Michael W. Deem and Ramdas Pophale) SiO2 
 PCOD8059132
Probable space group: P 2/M
;
_chemical_formula_sum "Si O2"
_cell_formula_units_Z 30
_cell_length_a 18.171657
_cell_length_b 9.786906
_cell_length_c 12.023730
_cell_angle_alpha 90.000000
_cell_angle_beta 53.043405
_cell_angle_gamma 90.000000
_cell_volume 1708.738114
_symmetry_space_group_name_H-M "P 2/M"
_symmetry_group_IT_number 10
_symmetry_cell_setting 'monoclinic'
loop_
_space_group_symop_operation_xyz
x,y,z
-x,y,-z
-x,-y,-z
x,-y,z
loop_
_atom_site_type_symbol
_atom_site_label
_atom_site_fract_x
_atom_site_fract_y
_atom_site_fract_z
Si Si1 0.737929 0.841621 0.479814
Si Si2 0.500000 0.256556 0.000000
Si Si3 0.092261 0.660642 0.050455
Si Si4 0.433456 0.648293 0.836631
Si Si5 0.461971 0.841490 0.418034
Si Si6 0.764387 0.658507 0.902152
Si Si7 0.302741 0.154969 0.229192
Si Si8 0.116996 0.338319 0.780041
O O1 0.645938 0.810440 0.493124
O O2 0.720618 0.802919 0.623584
O O3 0.816269 0.744867 0.360595
O O4 0.766598 0.000000 0.441249
O O5 0.526409 0.356224 0.075937
O O6 0.412427 0.163020 0.110567
O O7 0.104911 0.500000 0.035164
O O8 0.151755 0.718378 0.099551
O O9 0.986050 0.698372 0.166238
O O10 0.128291 0.713363 0.897400
O O11 0.453126 0.500000 0.763949
O O12 0.481403 0.768538 0.728453
O O13 0.324785 0.676084 0.939219
O O14 0.500000 0.786298 0.500000
O O15 0.483066 0.000000 0.382710
O O16 0.778973 0.500000 0.854868
O O17 0.755728 0.746106 0.797685
O O18 0.271935 0.000000 0.233266
O O19 0.136654 0.500000 0.750663
#
# Coordination Sequence:
#
# PCOD8059132 Si02
#       8
#     4   2   4   4   4   4   4   4
#     4  10  21  37  52  75 109 139 171 219 264 301
#     4  10  18  34  54  72 102 142 180 216 256 302
#     4   8  16  35  58  81 107 132 168 215 262 314
#     4  10  20  32  51  79 106 134 172 217 262 302
#     4  10  22  38  52  70 104 147 181 209 253 308
#     4   9  19  34  53  77 108 135 165 217 269 306
#     4  10  20  34  53  75 101 139 183 217 253 305
#     4   9  18  34  60  83 100 135 177 211 256 317
#
# _framework density 17.556816000000001
#
# number of rings (size 3 to 8) (size 9 to 14) (size 15 to 20)
#    0.000    2.533    1.333    1.200    1.867    4.000 
#    0.000    3.333    0.000    4.000    0.000    0.000 
#    0.000    0.000    0.000    0.000    0.000    0.000 
#
# Total GULP energy -371926.019737 kJ/mol
# GULP energy per Si atom -12397.533991 kJ/mol
# Density = 1.751686 g / cm^3
# Si number density = 17.556816 Si / 1000 Ang^3
#
#
#
# Elastic Constant Matrix: (Units=GPa)
#
#
# Indices 1 2 3 4 5 6 
#
# 1 144.2657 44.5660 61.8411 0.0000 -0.0327 0.0000
# 2 44.5660 64.8006 53.7953 0.0000 -0.1313 0.0000
# 3 61.8411 53.7953 117.7401 0.0000 4.9018 0.0000
# 4 0.0000 0.0000 0.0000 22.0874 0.0000 0.5782
# 5 -0.0327 -0.1313 4.9018 0.0000 15.0567 0.0000
# 6 0.0000 0.0000 0.0000 0.5782 0.0000 23.6498
#
#
#
# Elastic Compliance Matrix: (Units=1/GPa)
#
#
# Indices 1 2 3 4 5 6 
#
# 1 0.009525 -0.003800 -0.003311 0.000000 0.001065 0.000000
# 2 -0.003800 0.026614 -0.010313 0.000000 0.003581 0.000000
# 3 -0.003311 -0.010313 0.015154 0.000000 -0.005031 0.000000
# 4 0.000000 0.000000 0.000000 0.045304 0.000000 -0.001108
# 5 0.001065 0.003581 -0.005031 0.000000 0.068087 0.000000
# 6 0.000000 0.000000 0.000000 -0.001108 0.000000 0.042311
#
#
# Mechanical properties :
#
#
# Convention : Reuss Voigt Hill
#
# Bulk Modulus (GPa) = 60.80958 71.91233 66.36095
# Shear Modulus (GPa) = 20.21634 23.26572 21.74103
#
# Velocity S-wave (km/s) = 3.39703 3.64423 3.52280
# Velocity P-wave (km/s) = 7.07796 7.66524 7.37745
#
# Compressibility (1/GPa) = 0.01644478
#
# Stress axis : x y z
#
# Youngs Moduli (GPa) = 104.98610 37.57381 65.98935
#
# Poissons Ratio (x) = 0.14277 0.21850
# Poissons Ratio (y) = 0.39893 0.68057
# Poissons Ratio (z) = 0.34762 0.38751
#
# Static dielectric constant tensor:
#      x y z
#    x 3.831080 0.000000 0.116870 
#    y 0.000000 3.064010 0.000000 
#    z 0.116870 0.000000 3.167260 
# 
# 
# High freq. dielectric constant tensor:
#      x y z
#    x 1.687440 0.000000 0.004090 
#    y 0.000000 1.665220 0.000000 
#    z 0.004090 0.000000 1.667160 
# 
# From -- ./inp_files/53643.got.cif
#   From: 2010.06.25/outbox.cif.g09.slc.cpg/sg10_27_cif.got.tgz:53643.got - 2010.06.27 22:07:45.
