data_PCOD8059247
_publ_section_title
;
Structure prediction by ZEFSAII (Michael W. Deem and Ramdas Pophale) SiO2 
 PCOD8059247
Probable space group: P 2/M
;
_chemical_formula_sum "Si O2"
_cell_formula_units_Z 20
_cell_length_a 11.367931
_cell_length_b 11.277849
_cell_length_c 14.385142
_cell_angle_alpha 90.000000
_cell_angle_beta 150.586061
_cell_angle_gamma 90.000000
_cell_volume 905.744418
_symmetry_space_group_name_H-M "P 2/M"
_symmetry_group_IT_number 10
_symmetry_cell_setting 'monoclinic'
loop_
_space_group_symop_operation_xyz
x,y,z
-x,y,-z
-x,-y,-z
x,-y,z
loop_
_atom_site_type_symbol
_atom_site_label
_atom_site_fract_x
_atom_site_fract_y
_atom_site_fract_z
Si Si1 0.162854 0.500000 0.215636
Si Si2 0.132110 0.135768 0.916549
Si Si3 0.225816 0.500000 0.459468
Si Si4 0.000000 0.708575 0.000000
Si Si5 0.032735 0.254224 0.373081
Si Si6 0.402707 0.500000 0.129466
Si Si7 0.607410 0.251282 0.217242
O O1 0.319388 0.500000 0.417061
O O2 0.203861 0.379620 0.183664
O O3 0.882306 0.500000 0.056243
O O4 0.950782 0.177515 0.710279
O O5 0.076942 0.000000 0.901923
O O6 0.401467 0.153188 0.065743
O O7 0.110197 0.211203 0.995615
O O8 0.053364 0.391280 0.362298
O O9 0.474423 0.500000 0.684695
O O10 0.248113 0.219244 0.589544
O O11 0.776630 0.236490 0.244940
O O12 0.493186 0.382863 0.137910
#
# Coordination Sequence:
#
# PCOD8059247 Si02
#       7
#     2   4   2   2   4   2   4
#     4  11  20  38  63  88 117 148 192 249 300 351
#     4  12  25  42  61  81 116 166 207 242 288 338
#     4  10  18  35  62  91 123 152 182 235 307 364
#     4  11  23  42  62  86 115 153 200 254 298 343
#     4  10  21  38  62  93 124 152 190 241 297 358
#     4  10  18  35  62  91 123 152 182 235 307 364
#     4  10  21  38  62  93 124 152 190 241 297 358
#
# _framework density 22.081285000000001
#
# number of rings (size 3 to 8) (size 9 to 14) (size 15 to 20)
#    0.000    1.400    4.000    1.500    0.000    4.800 
#    0.000   10.000    0.000    2.400    0.000    0.000 
#    0.000    0.000    0.000    0.000    0.000    0.000 
#
# Total GULP energy -247981.763129 kJ/mol
# GULP energy per Si atom -12399.088156 kJ/mol
# Density = 2.203103 g / cm^3
# Si number density = 22.081285 Si / 1000 Ang^3
#
#
#
# Elastic Constant Matrix: (Units=GPa)
#
#
# Indices 1 2 3 4 5 6 
#
# 1 90.0217 29.7080 20.1442 0.0000 -16.8138 0.0000
# 2 29.7080 124.1587 14.4901 0.0000 -8.7697 0.0000
# 3 20.1442 14.4901 28.6428 0.0000 -6.9328 0.0000
# 4 0.0000 0.0000 0.0000 18.0034 0.0000 2.8619
# 5 -16.8138 -8.7697 -6.9328 0.0000 41.7324 0.0000
# 6 0.0000 0.0000 0.0000 2.8619 0.0000 21.3970
#
#
#
# Elastic Compliance Matrix: (Units=1/GPa)
#
#
# Indices 1 2 3 4 5 6 
#
# 1 0.014384 -0.002223 -0.008024 0.000000 0.003995 0.000000
# 2 -0.002223 0.008954 -0.002842 0.000000 0.000514 0.000000
# 3 -0.008024 -0.002842 0.042787 0.000000 0.003278 0.000000
# 4 0.000000 0.000000 0.000000 0.056752 0.000000 -0.007591
# 5 0.003995 0.000514 0.003278 0.000000 0.026224 0.000000
# 6 0.000000 0.000000 0.000000 -0.007591 0.000000 0.047751
#
#
# Mechanical properties :
#
#
# Convention : Reuss Voigt Hill
#
# Bulk Modulus (GPa) = 25.03351 41.27864 33.15608
# Shear Modulus (GPa) = 21.15540 28.12529 24.64035
#
# Velocity S-wave (km/s) = 3.09863 3.57279 3.34412
# Velocity P-wave (km/s) = 4.91565 5.97949 5.47348
#
# Compressibility (1/GPa) = 0.03994646
#
# Stress axis : x y z
#
# Youngs Moduli (GPa) = 69.52253 111.68080 23.37138
#
# Poissons Ratio (x) = 0.24827 0.18754
# Poissons Ratio (y) = 0.15455 0.06642
# Poissons Ratio (z) = 0.55788 0.31740
#
# Static dielectric constant tensor:
#      x y z
#    x 4.102650 0.000000 -0.303360 
#    y 0.000000 3.818330 0.000000 
#    z -0.303360 0.000000 4.143520 
# 
# 
# High freq. dielectric constant tensor:
#      x y z
#    x 1.880020 0.000000 -0.014980 
#    y 0.000000 1.847020 0.000000 
#    z -0.014980 0.000000 1.875510 
# 
# From -- ./inp_files/64743.got.cif
#   From: 2010.06.25/outbox.cif.g09.slc.cpg/sg10_33_cif.got.tgz:64743.got - 2010.06.27 22:07:45.
