data_PCOD8059045
_publ_section_title
;
Structure prediction by ZEFSAII (Michael W. Deem and Ramdas Pophale) SiO2 
 PCOD8059045
Probable space group: P 2/M
;
_chemical_formula_sum "Si O2"
_cell_formula_units_Z 32
_cell_length_a 23.938548
_cell_length_b 9.094830
_cell_length_c 11.711404
_cell_angle_alpha 90.000000
_cell_angle_beta 44.001494
_cell_angle_gamma 90.000000
_cell_volume 1771.268310
_symmetry_space_group_name_H-M "P 2/M"
_symmetry_group_IT_number 10
_symmetry_cell_setting 'monoclinic'
loop_
_space_group_symop_operation_xyz
x,y,z
-x,y,-z
-x,-y,-z
x,-y,z
loop_
_atom_site_type_symbol
_atom_site_label
_atom_site_fract_x
_atom_site_fract_y
_atom_site_fract_z
Si Si1 0.420130 0.667659 0.544083
Si Si2 0.338611 0.330648 0.306603
Si Si3 0.469046 0.174251 0.248974
Si Si4 0.131687 0.327556 0.987227
Si Si5 0.022735 0.834500 0.834767
Si Si6 0.824028 0.671625 0.334624
Si Si7 0.638184 0.330250 0.983741
Si Si8 0.279577 0.673860 0.911113
O O1 0.500000 0.674121 0.500000
O O2 0.402646 0.500000 0.529911
O O3 0.425935 0.771211 0.426655
O O4 0.348718 0.734096 0.725724
O O5 0.358559 0.500000 0.305474
O O6 0.416539 0.233342 0.220401
O O7 0.262164 0.275787 0.491729
O O8 0.319452 0.310228 0.200707
O O9 0.558688 0.234201 0.109162
O O10 0.471577 0.000000 0.241774
O O11 0.114760 0.500000 0.021116
O O12 0.170552 0.288925 0.807123
O O13 0.192831 0.269525 0.995159
O O14 0.047455 0.246118 0.132593
O O15 0.107589 0.753750 0.692680
O O16 0.030521 0.000000 0.777876
O O17 0.000000 0.828564 0.000000
O O18 0.836698 0.500000 0.337754
O O19 0.613608 0.500000 0.042173
O O20 0.701928 0.276365 0.986226
O O21 0.280466 0.500000 0.900155
#
# Coordination Sequence:
#
# PCOD8059045 Si02
#       8
#     4   4   4   4   4   4   4   4
#     4  10  18  33  56  75  98 132 170 210 254 304
#     4  10  21  36  56  76  97 130 176 221 255 300
#     4  12  24  35  50  74 106 136 170 214 260 309
#     4   9  16  28  49  75 103 129 158 198 247 305
#     4   9  17  29  47  73 104 132 158 192 243 303
#     4   9  17  31  51  76 101 126 161 205 254 301
#     4  10  20  37  56  73  96 133 179 219 256 298
#     4   9  17  31  53  78 100 129 169 212 256 300
#
# _framework density 18.06615
#
# number of rings (size 3 to 8) (size 9 to 14) (size 15 to 20)
#    0.000    2.250    1.250    2.625    0.000    6.250 
#    0.000    3.750    0.000    0.750    0.000    5.250 
#    0.000    0.000    0.000    0.000    0.000    0.000 
#
# Total GULP energy -396806.485108 kJ/mol
# GULP energy per Si atom -12400.202660 kJ/mol
# Density = 1.802503 g / cm^3
# Si number density = 18.066150 Si / 1000 Ang^3
#
#
#
# Elastic Constant Matrix: (Units=GPa)
#
#
# Indices 1 2 3 4 5 6 
#
# 1 146.7333 52.2971 48.9017 0.0000 -14.2113 0.0000
# 2 52.2971 76.2779 28.8669 0.0000 -7.2068 0.0000
# 3 48.9017 28.8669 43.2651 0.0000 -0.4695 0.0000
# 4 0.0000 0.0000 0.0000 7.0546 0.0000 1.5573
# 5 -14.2113 -7.2068 -0.4695 0.0000 28.7967 0.0000
# 6 0.0000 0.0000 0.0000 1.5573 0.0000 5.1511
#
#
#
# Elastic Compliance Matrix: (Units=1/GPa)
#
#
# Indices 1 2 3 4 5 6 
#
# 1 0.012483 -0.003696 -0.011589 0.000000 0.005047 0.000000
# 2 -0.003696 0.019156 -0.008572 0.000000 0.002830 0.000000
# 3 -0.011589 -0.008572 0.041853 0.000000 -0.007182 0.000000
# 4 0.000000 0.000000 0.000000 0.151889 0.000000 -0.045919
# 5 0.005047 0.002830 -0.007182 0.000000 0.037808 0.000000
# 6 0.000000 0.000000 0.000000 -0.045919 0.000000 0.208016
#
#
# Mechanical properties :
#
#
# Convention : Reuss Voigt Hill
#
# Bulk Modulus (GPa) = 38.79305 58.48974 48.64139
# Shear Modulus (GPa) = 9.47844 17.28117 13.37981
#
# Velocity S-wave (km/s) = 2.29301 3.09617 2.72435
# Velocity P-wave (km/s) = 5.34134 6.72512 6.07278
#
# Compressibility (1/GPa) = 0.02577782
#
# Stress axis : x y z
#
# Youngs Moduli (GPa) = 80.10607 52.20380 23.89290
#
# Poissons Ratio (x) = 0.19296 0.27689
# Poissons Ratio (y) = 0.29610 0.20482
# Poissons Ratio (z) = 0.92833 0.44751
#
# Static dielectric constant tensor:
#      x y z
#    x 3.573880 0.000000 -0.043760 
#    y 0.000000 3.155820 0.000000 
#    z -0.043760 0.000000 3.239450 
# 
# 
# High freq. dielectric constant tensor:
#      x y z
#    x 1.704890 0.000000 -0.009130 
#    y 0.000000 1.676030 0.000000 
#    z -0.009130 0.000000 1.678300 
# 
# From -- ./inp_files/55203.got.cif
#   From: 2010.06.25/outbox.cif.g09.slc.cpg/sg10_28_cif.got.tgz:55203.got - 2010.06.27 22:07:45.
