data_PCOD8059991
_publ_section_title
;
Structure prediction by ZEFSAII (Michael W. Deem and Ramdas Pophale) SiO2 
 PCOD8059991
Probable space group: P 2/M
;
_chemical_formula_sum "Si O2"
_cell_formula_units_Z 32
_cell_length_a 15.284373
_cell_length_b 8.917077
_cell_length_c 22.670359
_cell_angle_alpha 90.000000
_cell_angle_beta 32.400895
_cell_angle_gamma 90.000000
_cell_volume 1655.631418
_symmetry_space_group_name_H-M "P 2/M"
_symmetry_group_IT_number 10
_symmetry_cell_setting 'monoclinic'
loop_
_space_group_symop_operation_xyz
x,y,z
-x,y,-z
-x,-y,-z
x,-y,z
loop_
_atom_site_type_symbol
_atom_site_label
_atom_site_fract_x
_atom_site_fract_y
_atom_site_fract_z
Si Si1 0.434526 0.677409 0.863383
Si Si2 0.887896 0.325338 0.118453
Si Si3 0.480776 0.674507 0.703847
Si Si4 0.698051 0.824020 0.790837
Si Si5 0.103257 0.178049 0.086344
Si Si6 0.221873 0.177341 0.514817
Si Si7 0.928675 0.177351 0.763000
Si Si8 0.017273 0.662200 0.424003
O O1 0.421856 0.500000 0.876778
O O2 0.510220 0.719971 0.756077
O O3 0.534522 0.740376 0.862829
O O4 0.254846 0.745969 0.967653
O O5 0.910680 0.500000 0.120190
O O6 0.703092 0.284603 0.208543
O O7 0.939698 0.228052 0.145718
O O8 0.000000 0.277279 0.000000
O O9 0.517322 0.500000 0.674650
O O10 0.592066 0.763698 0.592599
O O11 0.771688 0.771431 0.812674
O O12 0.836301 0.779636 0.665865
O O13 0.661413 0.000000 0.810856
O O14 0.091094 0.240752 0.160166
O O15 0.122461 0.000000 0.074399
O O16 0.103882 0.231108 0.636099
O O17 0.148382 0.254957 0.499074
O O18 0.221653 0.000000 0.509960
O O19 0.930526 0.000000 0.762307
O O20 0.044649 0.500000 0.375191
O O21 0.000000 0.617427 0.500000
#
# Coordination Sequence:
#
# PCOD8059991 Si02
#       8
#     4   4   4   4   4   4   4   4
#     4  11  22  37  55  82 118 152 185 229 289 340
#     4  10  20  40  62  83 114 150 178 220 289 346
#     4  10  21  37  58  82 115 150 179 222 286 344
#     4  10  20  35  54  78 109 149 193 234 274 324
#     4  11  22  38  61  85 109 144 191 236 276 332
#     4  10  20  35  56  80 109 146 188 231 274 324
#     4   8  19  39  57  77 113 154 186 227 285 328
#     4  10  19  31  48  73 108 148 186 227 281 335
#
# _framework density 19.327971999999999
#
# number of rings (size 3 to 8) (size 9 to 14) (size 15 to 20)
#    0.000    2.000    1.250    3.375    0.000    6.250 
#    0.000   10.625    0.000    3.750    0.000    0.000 
#    0.000    0.000    0.000    0.000    0.000    0.000 
#
# Total GULP energy -396544.860667 kJ/mol
# GULP energy per Si atom -12392.026896 kJ/mol
# Density = 1.928398 g / cm^3
# Si number density = 19.327972 Si / 1000 Ang^3
#
#
#
# Elastic Constant Matrix: (Units=GPa)
#
#
# Indices 1 2 3 4 5 6 
#
# 1 107.9114 37.4794 32.5663 0.0000 -1.9678 0.0000
# 2 37.4794 71.8121 25.7173 0.0000 -2.1434 0.0000
# 3 32.5663 25.7173 67.8079 0.0000 -9.4262 0.0000
# 4 0.0000 0.0000 0.0000 25.4327 0.0000 -18.9534
# 5 -1.9678 -2.1434 -9.4262 0.0000 27.6639 0.0000
# 6 0.0000 0.0000 0.0000 -18.9534 0.0000 61.6436
#
#
#
# Elastic Compliance Matrix: (Units=1/GPa)
#
#
# Indices 1 2 3 4 5 6 
#
# 1 0.012203 -0.004920 -0.004122 0.000000 -0.000918 0.000000
# 2 -0.004920 0.018118 -0.004579 0.000000 -0.000506 0.000000
# 3 -0.004122 -0.004579 0.019288 0.000000 0.005924 0.000000
# 4 0.000000 0.000000 0.000000 0.051007 0.000000 0.015683
# 5 -0.000918 -0.000506 0.005924 0.000000 0.038062 0.000000
# 6 0.000000 0.000000 0.000000 0.015683 0.000000 0.021044
#
#
# Mechanical properties :
#
#
# Convention : Reuss Voigt Hill
#
# Bulk Modulus (GPa) = 44.71124 48.78415 46.74770
# Shear Modulus (GPa) = 25.71759 33.06592 29.39175
#
# Velocity S-wave (km/s) = 3.65168 4.14065 3.90383
# Velocity P-wave (km/s) = 6.40022 6.93937 6.67524
#
# Compressibility (1/GPa) = 0.02236574
#
# Stress axis : x y z
#
# Youngs Moduli (GPa) = 81.94726 55.19470 51.84682
#
# Poissons Ratio (x) = 0.27155 0.21373
# Poissons Ratio (y) = 0.40317 0.23740
# Poissons Ratio (z) = 0.33782 0.25273
#
# Static dielectric constant tensor:
#      x y z
#    x 6.146750 0.000000 -0.003930 
#    y 0.000000 3.418710 0.000000 
#    z -0.003930 0.000000 3.607670 
# 
# 
# High freq. dielectric constant tensor:
#      x y z
#    x 1.742670 0.000000 -0.009140 
#    y 0.000000 1.750160 0.000000 
#    z -0.009140 0.000000 1.749420 
# 
# From -- ./inp_files/89561.got.cif
#   From: 2010.06.25/outbox.cif.g09.slc.cpg/sg10_45_cif.got.tgz:89561.got - 2010.06.27 22:07:45.
