data_PCOD8059423
_publ_section_title
;
Structure prediction by ZEFSAII (Michael W. Deem and Ramdas Pophale) SiO2 
 PCOD8059423
Probable space group: P 2/M
;
_chemical_formula_sum "Si O2"
_cell_formula_units_Z 24
_cell_length_a 15.274187
_cell_length_b 13.754490
_cell_length_c 12.164022
_cell_angle_alpha 90.000000
_cell_angle_beta 34.437566
_cell_angle_gamma 90.000000
_cell_volume 1445.168357
_symmetry_space_group_name_H-M "P 2/M"
_symmetry_group_IT_number 10
_symmetry_cell_setting 'monoclinic'
loop_
_space_group_symop_operation_xyz
x,y,z
-x,y,-z
-x,-y,-z
x,-y,z
loop_
_atom_site_type_symbol
_atom_site_label
_atom_site_fract_x
_atom_site_fract_y
_atom_site_fract_z
Si Si1 0.322957 0.755957 0.690653
Si Si2 0.658231 0.385739 0.964125
Si Si3 0.822433 0.614293 0.010350
Si Si4 0.308689 0.615743 0.316492
Si Si5 0.878423 0.272173 0.311200
Si Si6 0.922297 0.108171 0.962149
O O1 0.500000 0.786741 0.500000
O O2 0.303892 0.652917 0.772091
O O3 0.255546 0.743391 0.638720
O O4 0.240888 0.837964 0.850807
O O5 0.645872 0.500000 0.981404
O O6 0.773872 0.347697 0.938684
O O7 0.482489 0.349585 0.166071
O O8 0.723852 0.356635 0.776847
O O9 0.823176 0.500000 0.016599
O O10 0.991457 0.653561 0.868564
O O11 0.281316 0.500000 0.367363
O O12 0.191183 0.682755 0.506139
O O13 0.966881 0.168577 0.236634
O O14 0.896199 0.000000 0.940764
O O15 0.000000 0.103194 0.000000
#
# Coordination Sequence:
#
# PCOD8059423 Si02
#       6
#     4   4   4   4   4   4
#     4  10  20  31  45  67  90 115 150 183 219 268
#     4   8  16  29  44  63  89 124 159 186 212 246
#     4  10  19  30  43  62  92 125 154 182 213 255
#     4   9  16  28  45  66  93 121 152 186 216 251
#     4  10  19  29  45  68  90 116 147 182 224 267
#     4   8  16  32  49  65  88 113 140 180 225 267
#
# _framework density 16.607061999999999
#
# number of rings (size 3 to 8) (size 9 to 14) (size 15 to 20)
#    0.000    2.833    0.000    4.000    0.000    3.333 
#    0.000    2.500    0.000    0.000    0.000   11.667 
#    0.000    0.000    0.000    0.333    0.000    0.000 
#
# Total GULP energy -297419.932921 kJ/mol
# GULP energy per Si atom -12392.497205 kJ/mol
# Density = 1.656926 g / cm^3
# Si number density = 16.607062 Si / 1000 Ang^3
#
#
#
# Elastic Constant Matrix: (Units=GPa)
#
#
# Indices 1 2 3 4 5 6 
#
# 1 50.6400 22.5835 30.8093 0.0000 -13.6468 0.0000
# 2 22.5835 90.0510 46.1970 0.0000 -0.8243 0.0000
# 3 30.8093 46.1970 110.3623 0.0000 -3.7884 0.0000
# 4 0.0000 0.0000 0.0000 21.8547 0.0000 2.6174
# 5 -13.6468 -0.8243 -3.7884 0.0000 24.9426 0.0000
# 6 0.0000 0.0000 0.0000 2.6174 0.0000 8.6423
#
#
#
# Elastic Compliance Matrix: (Units=1/GPa)
#
#
# Indices 1 2 3 4 5 6 
#
# 1 0.029226 -0.004165 -0.005902 0.000000 0.014956 0.000000
# 2 -0.004165 0.014740 -0.005095 0.000000 -0.002565 0.000000
# 3 -0.005902 -0.005095 0.012792 0.000000 -0.001455 0.000000
# 4 0.000000 0.000000 0.000000 0.047479 0.000000 -0.014379
# 5 0.014956 -0.002565 -0.001455 0.000000 0.047969 0.000000
# 6 0.000000 0.000000 0.000000 -0.014379 0.000000 0.120065
#
#
# Mechanical properties :
#
#
# Convention : Reuss Voigt Hill
#
# Bulk Modulus (GPa) = 37.83164 50.02590 43.92877
# Shear Modulus (GPa) = 16.05622 21.18548 18.62085
#
# Velocity S-wave (km/s) = 3.11276 3.57556 3.35216
# Velocity P-wave (km/s) = 5.97904 6.87276 6.44142
#
# Compressibility (1/GPa) = 0.02643290
#
# Stress axis : x y z
#
# Youngs Moduli (GPa) = 34.21629 67.84362 78.17566
#
# Poissons Ratio (x) = 0.28255 0.46140
# Poissons Ratio (y) = 0.14250 0.39834
# Poissons Ratio (z) = 0.20195 0.34569
#
# Static dielectric constant tensor:
#      x y z
#    x 3.498540 0.000000 -0.052030 
#    y 0.000000 3.126610 0.000000 
#    z -0.052030 0.000000 3.093360 
# 
# 
# High freq. dielectric constant tensor:
#      x y z
#    x 1.630680 0.000000 -0.008380 
#    y 0.000000 1.610370 0.000000 
#    z -0.008380 0.000000 1.639630 
# 
# From -- ./inp_files/28801.got.cif
#   From: 2010.06.25/outbox.cif.g09.slc.cpg/sg10_15_cif.got.tgz:28801.got - 2010.06.27 22:07:45.
