data_PCOD8059438
_publ_section_title
;
Structure prediction by ZEFSAII (Michael W. Deem and Ramdas Pophale) SiO2 
 PCOD8059438
Probable space group: P 2/M
;
_chemical_formula_sum "Si O2"
_cell_formula_units_Z 32
_cell_length_a 11.641024
_cell_length_b 8.789418
_cell_length_c 18.186582
_cell_angle_alpha 90.000000
_cell_angle_beta 93.299831
_cell_angle_gamma 90.000000
_cell_volume 1857.726280
_symmetry_space_group_name_H-M "P 2/M"
_symmetry_group_IT_number 10
_symmetry_cell_setting 'monoclinic'
loop_
_space_group_symop_operation_xyz
x,y,z
-x,y,-z
-x,-y,-z
x,-y,z
loop_
_atom_site_type_symbol
_atom_site_label
_atom_site_fract_x
_atom_site_fract_y
_atom_site_fract_z
Si Si1 0.644066 0.830251 0.436473
Si Si2 0.744301 0.323665 0.881964
Si Si3 0.771912 0.679914 0.148731
Si Si4 0.368056 0.822678 0.983506
Si Si5 0.592737 0.322452 0.737110
Si Si6 0.372482 0.171639 0.407320
Si Si7 0.345796 0.818279 0.720742
Si Si8 0.000140 0.677545 0.081763
O O1 0.676166 0.754090 0.517108
O O2 0.508389 0.834444 0.420174
O O3 0.692220 0.755640 0.362494
O O4 0.692738 0.000000 0.444661
O O5 0.724948 0.500000 0.902498
O O6 0.677793 0.278155 0.806023
O O7 0.879271 0.290199 0.873402
O O8 0.702600 0.219776 0.946833
O O9 0.770597 0.500000 0.159038
O O10 0.674212 0.726102 0.087331
O O11 0.747539 0.756269 0.226138
O O12 0.895335 0.744757 0.126035
O O13 0.351750 0.000000 0.965579
O O14 0.500000 0.778915 0.000000
O O15 0.566357 0.500000 0.733195
O O16 0.658196 0.273797 0.664346
O O17 0.473303 0.236907 0.746822
O O18 0.325252 0.000000 0.393680
O O19 0.348006 0.000000 0.721108
O O20 0.974906 0.500000 0.072065
O O21 0.000000 0.751248 0.000000
#
# Coordination Sequence:
#
# PCOD8059438 Si02
#       8
#     4   4   4   4   4   4   4   4
#     4   7  12  24  43  64  88 127 164 187 219 275
#     4  10  20  35  52  69  91 123 159 195 234 280
#     4  11  21  34  53  72  92 119 157 198 238 282
#     4  11  23  35  48  69  97 126 154 186 230 281
#     4  10  19  29  45  72 102 127 156 192 235 279
#     4   8  13  25  44  64  91 127 163 189 224 275
#     4  10  19  32  48  68 100 131 158 191 233 280
#     4   9  17  34  56  71  85 116 159 199 239 281
#
# _framework density 17.225358
#
# number of rings (size 3 to 8) (size 9 to 14) (size 15 to 20)
#    0.000    2.500    1.250    3.750    0.000    4.000 
#    0.000    7.500    0.000    0.000    0.000    0.875 
#    0.000    7.000    0.000    0.000    0.000    0.000 
#
# Total GULP energy -396523.934055 kJ/mol
# GULP energy per Si atom -12391.372939 kJ/mol
# Density = 1.718615 g / cm^3
# Si number density = 17.225358 Si / 1000 Ang^3
#
#
#
# Elastic Constant Matrix: (Units=GPa)
#
#
# Indices 1 2 3 4 5 6 
#
# 1 68.8669 15.1179 34.5461 0.0000 -21.7306 0.0000
# 2 15.1179 44.8409 25.0643 0.0000 -8.9481 0.0000
# 3 34.5461 25.0643 134.3780 0.0000 -32.2226 0.0000
# 4 0.0000 0.0000 0.0000 24.7270 0.0000 -2.7244
# 5 -21.7306 -8.9481 -32.2226 0.0000 17.6703 0.0000
# 6 0.0000 0.0000 0.0000 -2.7244 0.0000 7.2538
#
#
#
# Elastic Compliance Matrix: (Units=1/GPa)
#
#
# Indices 1 2 3 4 5 6 
#
# 1 0.024249 -0.002901 0.001965 0.000000 0.031934 0.000000
# 2 -0.002901 0.025794 -0.003179 0.000000 0.003698 0.000000
# 3 0.001965 -0.003179 0.013724 0.000000 0.025833 0.000000
# 4 0.000000 0.000000 0.000000 0.042187 0.000000 0.015845
# 5 0.031934 0.003698 0.025833 0.000000 0.144845 0.000000
# 6 0.000000 0.000000 0.000000 0.015845 0.000000 0.143810
#
#
# Mechanical properties :
#
#
# Convention : Reuss Voigt Hill
#
# Bulk Modulus (GPa) = 18.00604 44.17139 31.08871
# Shear Modulus (GPa) = 11.86661 21.48738 16.67699
#
# Velocity S-wave (km/s) = 2.62754 3.53573 3.11491
# Velocity P-wave (km/s) = 4.43635 6.50902 5.56995
#
# Compressibility (1/GPa) = 0.05553691
#
# Stress axis : x y z
#
# Youngs Moduli (GPa) = 41.23929 38.76912 72.86507
#
# Poissons Ratio (x) = 0.11247 -0.14317
# Poissons Ratio (y) = 0.11964 0.23161
# Poissons Ratio (z) = -0.08103 0.12323
#
# Static dielectric constant tensor:
#      x y z
#    x 3.008710 0.000000 -0.176200 
#    y 0.000000 3.059270 0.000000 
#    z -0.176200 0.000000 3.879010 
# 
# 
# High freq. dielectric constant tensor:
#      x y z
#    x 1.624310 0.000000 -0.010580 
#    y 0.000000 1.646370 0.000000 
#    z -0.010580 0.000000 1.682310 
# 
# From -- ./inp_files/56453.got.cif
#   From: 2010.06.25/outbox.cif.g09.slc.cpg/sg10_29_cif.got.tgz:56453.got - 2010.06.27 22:07:45.
