data_PCOD8059029
_publ_section_title
;
Structure prediction by ZEFSAII (Michael W. Deem and Ramdas Pophale) SiO2 
 PCOD8059029
Probable space group: P 2/M
;
_chemical_formula_sum "Si O2"
_cell_formula_units_Z 26
_cell_length_a 8.774981
_cell_length_b 17.200229
_cell_length_c 9.588856
_cell_angle_alpha 90.000000
_cell_angle_beta 91.551071
_cell_angle_gamma 90.000000
_cell_volume 1446.731887
_symmetry_space_group_name_H-M "P 2/M"
_symmetry_group_IT_number 10
_symmetry_cell_setting 'monoclinic'
loop_
_space_group_symop_operation_xyz
x,y,z
-x,y,-z
-x,-y,-z
x,-y,z
loop_
_atom_site_type_symbol
_atom_site_label
_atom_site_fract_x
_atom_site_fract_y
_atom_site_fract_z
Si Si1 0.755021 0.725299 0.215406
Si Si2 0.856448 0.084611 0.593176
Si Si3 0.968684 0.586259 0.161074
Si Si4 0.751746 0.684231 0.794108
Si Si5 0.037069 0.825348 0.150145
Si Si6 0.331113 0.232586 0.487194
Si Si7 0.500000 0.299795 0.000000
O O1 0.821908 0.640301 0.181763
O O2 0.883273 0.790782 0.211013
O O3 0.707067 0.719968 0.374781
O O4 0.612073 0.747217 0.109196
O O5 0.760130 0.153193 0.525419
O O6 0.000000 0.075209 0.500000
O O7 0.901959 0.106043 0.751992
O O8 0.772408 0.000000 0.596302
O O9 0.933691 0.500000 0.219171
O O10 0.124657 0.617438 0.235258
O O11 0.000000 0.583582 0.000000
O O12 0.688401 0.709557 0.643008
O O13 0.837694 0.757121 0.868996
O O14 0.615905 0.654636 0.896145
O O15 0.000000 0.862699 0.000000
O O16 0.500000 0.201654 0.500000
#
# Coordination Sequence:
#
# PCOD8059029 Si02
#       7
#     4   4   4   4   4   4   2
#     4  11  20  35  55  83 106 139 183 225 263 318
#     4  10  21  36  54  80 107 140 183 218 261 325
#     4  10  20  37  57  79 109 145 182 221 266 315
#     4  10  20  33  54  84 106 137 187 225 256 322
#     4  10  18  33  55  78 104 141 181 228 263 304
#     4  11  22  35  57  82 111 141 174 219 280 316
#     4  12  18  32  57  82 111 136 176 232 266 306
#
# _framework density 17.971541999999999
#
# number of rings (size 3 to 8) (size 9 to 14) (size 15 to 20)
#    0.000    1.538    6.154    0.923    0.000    0.615 
#    0.000    3.077    0.000    0.923    0.000    4.308 
#    0.000    0.000    0.000    0.000    0.000    0.000 
#
# Total GULP energy -322140.559841 kJ/mol
# GULP energy per Si atom -12390.021532 kJ/mol
# Density = 1.793064 g / cm^3
# Si number density = 17.971542 Si / 1000 Ang^3
#
#
#
# Elastic Constant Matrix: (Units=GPa)
#
#
# Indices 1 2 3 4 5 6 
#
# 1 92.9258 27.0695 35.9259 0.0000 4.5908 0.0000
# 2 27.0695 98.8769 32.0832 0.0000 3.4392 0.0000
# 3 35.9259 32.0832 111.4591 0.0000 3.9356 0.0000
# 4 0.0000 0.0000 0.0000 16.3598 0.0000 -1.7341
# 5 4.5908 3.4392 3.9356 0.0000 32.7741 0.0000
# 6 0.0000 0.0000 0.0000 -1.7341 0.0000 9.1900
#
#
#
# Elastic Compliance Matrix: (Units=1/GPa)
#
#
# Indices 1 2 3 4 5 6 
#
# 1 0.012826 -0.002364 -0.003413 0.000000 -0.001139 0.000000
# 2 -0.002364 0.011612 -0.002560 0.000000 -0.000580 0.000000
# 3 -0.003413 -0.002560 0.010828 0.000000 -0.000554 0.000000
# 4 0.000000 0.000000 0.000000 0.062373 0.000000 0.011770
# 5 -0.001139 -0.000580 -0.000554 0.000000 0.030799 0.000000
# 6 0.000000 0.000000 0.000000 0.011770 0.000000 0.111034
#
#
# Mechanical properties :
#
#
# Convention : Reuss Voigt Hill
#
# Bulk Modulus (GPa) = 53.78894 54.82434 54.30664
# Shear Modulus (GPa) = 19.05895 25.54365 22.30130
#
# Velocity S-wave (km/s) = 3.26008 3.77416 3.52650
# Velocity P-wave (km/s) = 6.64574 7.04022 6.84582
#
# Compressibility (1/GPa) = 0.01859118
#
# Stress axis : x y z
#
# Youngs Moduli (GPa) = 77.96760 86.12065 92.34895
#
# Poissons Ratio (x) = 0.20360 0.31522
# Poissons Ratio (y) = 0.18433 0.23640
# Poissons Ratio (z) = 0.26613 0.22046
#
# Static dielectric constant tensor:
#      x y z
#    x 3.548540 0.000000 0.027140 
#    y 0.000000 3.272110 0.000000 
#    z 0.027140 0.000000 3.419270 
# 
# 
# High freq. dielectric constant tensor:
#      x y z
#    x 1.702180 0.000000 0.002630 
#    y 0.000000 1.656540 0.000000 
#    z 0.002630 0.000000 1.710440 
# 
# From -- ./inp_files/19618.got.cif
#   From: 2010.06.25/outbox.cif.g09.slc.cpg/sg10_10_cif.got.tgz:19618.got - 2010.06.27 22:07:45.
