data_PCOD8059579
_publ_section_title
;
Structure prediction by ZEFSAII (Michael W. Deem and Ramdas Pophale) SiO2 
 PCOD8059579
Probable space group: P 2/M
;
_chemical_formula_sum "Si O2"
_cell_formula_units_Z 28
_cell_length_a 19.027302
_cell_length_b 7.845894
_cell_length_c 20.507392
_cell_angle_alpha 90.000000
_cell_angle_beta 149.832888
_cell_angle_gamma 90.000000
_cell_volume 1538.461694
_symmetry_space_group_name_H-M "P 2/M"
_symmetry_group_IT_number 10
_symmetry_cell_setting 'monoclinic'
loop_
_space_group_symop_operation_xyz
x,y,z
-x,y,-z
-x,-y,-z
x,-y,z
loop_
_atom_site_type_symbol
_atom_site_label
_atom_site_fract_x
_atom_site_fract_y
_atom_site_fract_z
Si Si1 0.530539 0.810605 0.863811
Si Si2 0.362892 0.799443 0.185918
Si Si3 0.152747 0.697452 0.120553
Si Si4 0.652176 0.303130 0.613020
Si Si5 0.223797 0.811496 0.560095
Si Si6 0.544088 0.500000 0.110296
Si Si7 0.653407 0.199935 0.473357
Si Si8 0.852689 0.500000 0.417468
O O1 0.637711 0.755615 0.892103
O O2 0.381342 0.822755 0.710509
O O3 0.528476 0.668772 0.918355
O O4 0.568809 0.000000 0.922895
O O5 0.225200 0.720993 0.108293
O O6 0.501620 0.722156 0.332132
O O7 0.362075 0.000000 0.194433
O O8 0.134275 0.500000 0.121363
O O9 0.243836 0.784426 0.251393
O O10 0.000000 0.785226 0.000000
O O11 0.500000 0.215940 0.500000
O O12 0.640366 0.500000 0.621772
O O13 0.707886 0.280940 0.584176
O O14 0.231225 0.758690 0.489817
O O15 0.140626 0.669092 0.533053
O O16 0.153660 0.000000 0.512690
O O17 0.713280 0.500000 0.259136
O O18 0.500000 0.500000 0.000000
O O19 0.638806 0.000000 0.470406
O O20 0.000000 0.500000 0.500000
#
# Coordination Sequence:
#
# PCOD8059579 Si02
#       8
#     4   4   4   4   4   2   4   2
#     4   8  16  31  51  79 106 130 169 214 251 293
#     4   9  17  30  50  73  95 125 168 211 248 290
#     4  10  21  34  46  65  99 135 169 203 251 301
#     4  10  19  30  45  72  97 124 166 211 251 291
#     4   8  16  31  50  78 107 134 169 208 250 298
#     4  10  20  34  56  84 106 132 168 202 252 304
#     4   9  17  29  49  74  98 124 162 213 257 286
#     4  10  20  34  56  82 106 137 168 200 244 305
#
# _framework density 18.199998000000001
#
# number of rings (size 3 to 8) (size 9 to 14) (size 15 to 20)
#    0.000    2.857    1.429    1.714    2.000    1.714 
#    0.000    0.000    3.143    0.000    0.000    0.000 
#    0.000    0.000    0.000    0.000    0.000    0.000 
#
# Total GULP energy -346967.274731 kJ/mol
# GULP energy per Si atom -12391.688383 kJ/mol
# Density = 1.815857 g / cm^3
# Si number density = 18.199998 Si / 1000 Ang^3
#
#
#
# Elastic Constant Matrix: (Units=GPa)
#
#
# Indices 1 2 3 4 5 6 
#
# 1 148.6055 56.4632 63.9660 0.0000 -4.3933 0.0000
# 2 56.4632 69.1985 29.8837 0.0000 -3.3834 0.0000
# 3 63.9660 29.8837 84.9933 0.0000 -1.4126 0.0000
# 4 0.0000 0.0000 0.0000 10.3594 0.0000 -1.9755
# 5 -4.3933 -3.3834 -1.4126 0.0000 30.4629 0.0000
# 6 0.0000 0.0000 0.0000 -1.9755 0.0000 20.6566
#
#
#
# Elastic Compliance Matrix: (Units=1/GPa)
#
#
# Indices 1 2 3 4 5 6 
#
# 1 0.012390 -0.007138 -0.006804 0.000000 0.000679 0.000000
# 2 -0.007138 0.021231 -0.002072 0.000000 0.001232 0.000000
# 3 -0.006804 -0.002072 0.017608 0.000000 -0.000395 0.000000
# 4 0.000000 0.000000 0.000000 0.098324 0.000000 0.009403
# 5 0.000679 0.001232 -0.000395 0.000000 0.033043 0.000000
# 6 0.000000 0.000000 0.000000 0.009403 0.000000 0.049310
#
#
# Mechanical properties :
#
#
# Convention : Reuss Voigt Hill
#
# Bulk Modulus (GPa) = 52.08070 67.04700 59.56385
# Shear Modulus (GPa) = 18.49562 22.46143 20.47852
#
# Velocity S-wave (km/s) = 3.19132 3.51685 3.35803
# Velocity P-wave (km/s) = 6.50056 7.30821 6.91618
#
# Compressibility (1/GPa) = 0.01920097
#
# Stress axis : x y z
#
# Youngs Moduli (GPa) = 80.70926 47.10118 56.79248
#
# Poissons Ratio (x) = 0.33623 0.38640
# Poissons Ratio (y) = 0.57614 0.11767
# Poissons Ratio (z) = 0.54912 0.09759
#
# Static dielectric constant tensor:
#      x y z
#    x 3.468980 0.000000 -0.057090 
#    y 0.000000 3.559800 0.000000 
#    z -0.057090 0.000000 3.228880 
# 
# 
# High freq. dielectric constant tensor:
#      x y z
#    x 1.704250 0.000000 -0.009990 
#    y 0.000000 1.705110 0.000000 
#    z -0.009990 0.000000 1.654350 
# 
# From -- ./inp_files/77840.got.cif
#   From: 2010.06.25/outbox.cif.g09.slc.cpg/sg10_39_cif.got.tgz:77840.got - 2010.06.27 22:07:45.
