data_PCOD8059862
_publ_section_title
;
Structure prediction by ZEFSAII (Michael W. Deem and Ramdas Pophale) SiO2 
 PCOD8059862
Probable space group: P 2/M
;
_chemical_formula_sum "Si O2"
_cell_formula_units_Z 32
_cell_length_a 20.506801
_cell_length_b 9.069643
_cell_length_c 12.462876
_cell_angle_alpha 90.000000
_cell_angle_beta 65.172598
_cell_angle_gamma 90.000000
_cell_volume 2103.728811
_symmetry_space_group_name_H-M "P 2/M"
_symmetry_group_IT_number 10
_symmetry_cell_setting 'monoclinic'
loop_
_space_group_symop_operation_xyz
x,y,z
-x,y,-z
-x,-y,-z
x,-y,z
loop_
_atom_site_type_symbol
_atom_site_label
_atom_site_fract_x
_atom_site_fract_y
_atom_site_fract_z
Si Si1 0.668846 0.329951 0.906766
Si Si2 0.416398 0.825524 0.222856
Si Si3 0.560051 0.668870 0.167643
Si Si4 0.809625 0.163643 0.511185
Si Si5 0.082356 0.326554 0.439766
Si Si6 0.197652 0.164154 0.246658
Si Si7 0.424517 0.672580 0.598752
Si Si8 0.333328 0.174225 0.491909
O O1 0.678829 0.500000 0.867763
O O2 0.622440 0.251279 0.848746
O O3 0.747122 0.254992 0.864770
O O4 0.630905 0.312057 0.047419
O O5 0.498898 0.774927 0.164123
O O6 0.382170 0.772553 0.358868
O O7 0.411870 0.000000 0.210419
O O8 0.532009 0.500000 0.184282
O O9 0.581312 0.715639 0.273013
O O10 0.878411 0.272409 0.476534
O O11 0.769482 0.153454 0.655201
O O12 0.749875 0.222823 0.469430
O O13 0.836836 0.000000 0.459323
O O14 0.090690 0.500000 0.422486
O O15 0.120595 0.248402 0.310600
O O16 0.000000 0.276578 0.500000
O O17 0.186000 0.000000 0.206622
O O18 0.500000 0.731453 0.500000
O O19 0.416784 0.500000 0.583882
O O20 0.359254 0.751150 0.583032
O O21 0.338170 0.000000 0.500786
#
# Coordination Sequence:
#
# PCOD8059862 Si02
#       8
#     4   4   4   4   4   4   4   4
#     4  11  21  32  47  63  88 120 150 188 231 277
#     4  11  20  31  47  66  87 113 147 190 235 279
#     4  10  22  36  45  62  87 113 151 195 238 279
#     4   8  16  29  43  63  92 122 149 182 221 264
#     4   9  16  26  43  69  99 127 154 180 211 261
#     4   9  17  29  44  63  90 121 151 178 213 260
#     4  10  20  34  50  64  82 113 154 199 242 283
#     4  10  19  31  47  66  89 115 151 194 234 274
#
# _framework density 15.211085000000001
#
# number of rings (size 3 to 8) (size 9 to 14) (size 15 to 20)
#    0.750    1.500    2.500    1.500    0.000    5.250 
#    0.000    0.000    0.000    0.000    0.000    0.000 
#    0.000    1.000    0.000   11.250    0.000    5.625 
#
# Total GULP energy -396637.933165 kJ/mol
# GULP energy per Si atom -12394.935411 kJ/mol
# Density = 1.517646 g / cm^3
# Si number density = 15.211085 Si / 1000 Ang^3
#
#
#
# Elastic Constant Matrix: (Units=GPa)
#
#
# Indices 1 2 3 4 5 6 
#
# 1 97.7848 46.5163 43.6051 0.0000 -17.0432 0.0000
# 2 46.5163 78.7329 38.0409 0.0000 -11.0019 0.0000
# 3 43.6051 38.0409 74.0545 0.0000 -5.0758 0.0000
# 4 0.0000 0.0000 0.0000 18.0493 0.0000 -0.6658
# 5 -17.0432 -11.0019 -5.0758 0.0000 20.4765 0.0000
# 6 0.0000 0.0000 0.0000 -0.6658 0.0000 25.8868
#
#
#
# Elastic Compliance Matrix: (Units=1/GPa)
#
#
# Indices 1 2 3 4 5 6 
#
# 1 0.017758 -0.005821 -0.006783 0.000000 0.009972 0.000000
# 2 -0.005821 0.019864 -0.006487 0.000000 0.004220 0.000000
# 3 -0.006783 -0.006487 0.020553 0.000000 -0.004036 0.000000
# 4 0.000000 0.000000 0.000000 0.055456 0.000000 0.001426
# 5 0.009972 0.004220 -0.004036 0.000000 0.058403 0.000000
# 6 0.000000 0.000000 0.000000 0.001426 0.000000 0.038666
#
#
# Mechanical properties :
#
#
# Convention : Reuss Voigt Hill
#
# Bulk Modulus (GPa) = 50.01610 56.32186 53.16898
# Shear Modulus (GPa) = 19.56575 21.04320 20.30447
#
# Velocity S-wave (km/s) = 3.59037 3.72346 3.65752
# Velocity P-wave (km/s) = 7.08099 7.45606 7.27094
#
# Compressibility (1/GPa) = 0.01999356
#
# Stress axis : x y z
#
# Youngs Moduli (GPa) = 56.31156 50.34114 48.65418
#
# Poissons Ratio (x) = 0.29305 0.33001
# Poissons Ratio (y) = 0.32780 0.31563
# Poissons Ratio (z) = 0.38195 0.32657
#
# Static dielectric constant tensor:
#      x y z
#    x 2.794950 0.000000 -0.051360 
#    y 0.000000 2.950220 0.000000 
#    z -0.051360 0.000000 2.725970 
# 
# 
# High freq. dielectric constant tensor:
#      x y z
#    x 1.565700 0.000000 -0.007790 
#    y 0.000000 1.592920 0.000000 
#    z -0.007790 0.000000 1.549360 
# 
# From -- ./inp_files/54839.got.cif
#   From: 2010.06.25/outbox.cif.g09.slc.cpg/sg10_28_cif.got.tgz:54839.got - 2010.06.27 22:07:45.
