data_PCOD8059396
_publ_section_title
;
Structure prediction by ZEFSAII (Michael W. Deem and Ramdas Pophale) SiO2 
 PCOD8059396
Probable space group: P 2/M
;
_chemical_formula_sum "Si O2"
_cell_formula_units_Z 32
_cell_length_a 23.683789
_cell_length_b 8.895190
_cell_length_c 16.746357
_cell_angle_alpha 90.000000
_cell_angle_beta 29.599116
_cell_angle_gamma 90.000000
_cell_volume 1742.572278
_symmetry_space_group_name_H-M "P 2/M"
_symmetry_group_IT_number 10
_symmetry_cell_setting 'monoclinic'
loop_
_space_group_symop_operation_xyz
x,y,z
-x,y,-z
-x,-y,-z
x,-y,z
loop_
_atom_site_type_symbol
_atom_site_label
_atom_site_fract_x
_atom_site_fract_y
_atom_site_fract_z
Si Si1 0.029519 0.165486 0.548890
Si Si2 0.758225 0.822207 0.014506
Si Si3 0.294270 0.165808 0.236186
Si Si4 0.423042 0.673423 0.363105
Si Si5 0.343229 0.323794 0.011435
Si Si6 0.240088 0.677192 0.461475
Si Si7 0.984149 0.673635 0.756464
Si Si8 0.525522 0.822484 0.380927
O O1 0.162171 0.141641 0.388547
O O2 0.985366 0.295367 0.660768
O O3 0.000000 0.231089 0.500000
O O4 0.971874 0.000000 0.636564
O O5 0.871531 0.764948 0.923484
O O6 0.761814 0.000000 0.003415
O O7 0.747199 0.755163 0.937918
O O8 0.650366 0.766479 0.199277
O O9 0.309606 0.250225 0.302046
O O10 0.353417 0.000000 0.166208
O O11 0.341209 0.260128 0.103756
O O12 0.421372 0.500000 0.388593
O O13 0.529747 0.710885 0.175381
O O14 0.307148 0.719483 0.459626
O O15 0.429275 0.765208 0.437762
O O16 0.315179 0.500000 0.048060
O O17 0.238661 0.500000 0.446445
O O18 0.107806 0.732788 0.636884
O O19 0.965876 0.500000 0.799224
O O20 0.500000 0.755728 0.500000
O O21 0.518921 0.000000 0.390555
#
# Coordination Sequence:
#
# PCOD8059396 Si02
#       8
#     4   4   4   4   4   4   4   4
#     4   9  17  28  41  58  85 123 165 209 252 287
#     4  10  19  32  51  74 102 130 157 197 248 297
#     4  10  19  29  43  66  96 131 173 214 249 288
#     4   9  19  35  54  75  99 130 166 203 245 293
#     4  10  19  31  48  70  97 129 168 212 255 296
#     4   9  19  35  50  67  97 136 174 209 245 283
#     4  10  19  30  47  69  94 127 166 204 240 286
#     4   9  19  36  58  83 106 126 151 190 243 299
#
# _framework density 18.363657
#
# number of rings (size 3 to 8) (size 9 to 14) (size 15 to 20)
#    0.000    2.500    0.000    2.250    0.000    4.500 
#    0.000    2.500    0.000    0.750    0.000    5.250 
#    0.000    0.000    0.000    0.000    0.000    0.000 
#
# Total GULP energy -396541.441811 kJ/mol
# GULP energy per Si atom -12391.920057 kJ/mol
# Density = 1.832186 g / cm^3
# Si number density = 18.363657 Si / 1000 Ang^3
#
#
#
# Elastic Constant Matrix: (Units=GPa)
#
#
# Indices 1 2 3 4 5 6 
#
# 1 108.7447 34.3747 61.5419 0.0000 4.6514 0.0000
# 2 34.3747 59.6616 24.4628 0.0000 -0.6979 0.0000
# 3 61.5419 24.4628 73.3253 0.0000 0.5585 0.0000
# 4 0.0000 0.0000 0.0000 20.6637 0.0000 0.3623
# 5 4.6514 -0.6979 0.5585 0.0000 26.0583 0.0000
# 6 0.0000 0.0000 0.0000 0.3623 0.0000 23.8439
#
#
#
# Elastic Compliance Matrix: (Units=1/GPa)
#
#
# Indices 1 2 3 4 5 6 
#
# 1 0.019004 -0.005164 -0.014203 0.000000 -0.003226 0.000000
# 2 -0.005164 0.020832 -0.002628 0.000000 0.001536 0.000000
# 3 -0.014203 -0.002628 0.026420 0.000000 0.001899 0.000000
# 4 0.000000 0.000000 0.000000 0.048407 0.000000 -0.000736
# 5 -0.003226 0.001536 0.001899 0.000000 0.038952 0.000000
# 6 0.000000 0.000000 0.000000 -0.000736 0.000000 0.041951
#
#
# Mechanical properties :
#
#
# Convention : Reuss Voigt Hill
#
# Bulk Modulus (GPa) = 44.90778 53.61006 49.25892
# Shear Modulus (GPa) = 20.24491 22.20333 21.22412
#
# Velocity S-wave (km/s) = 3.32391 3.48097 3.40335
# Velocity P-wave (km/s) = 6.26410 6.73893 6.50585
#
# Compressibility (1/GPa) = 0.02226785
#
# Stress axis : x y z
#
# Youngs Moduli (GPa) = 52.62116 48.00379 37.84956
#
# Poissons Ratio (x) = 0.24787 0.53756
# Poissons Ratio (y) = 0.27171 0.09946
# Poissons Ratio (z) = 0.74736 0.12615
#
# Static dielectric constant tensor:
#      x y z
#    x 3.382510 0.000000 -0.216560 
#    y 0.000000 3.457360 0.000000 
#    z -0.216560 0.000000 3.403960 
# 
# 
# High freq. dielectric constant tensor:
#      x y z
#    x 1.698860 0.000000 -0.019450 
#    y 0.000000 1.713220 0.000000 
#    z -0.019450 0.000000 1.693920 
# 
# From -- ./inp_files/69972.got.cif
#   From: 2010.06.25/outbox.cif.g09.slc.cpg/sg10_35_cif.got.tgz:69972.got - 2010.06.27 22:07:45.
