data_PCOD8059032
_publ_section_title
;
Structure prediction by ZEFSAII (Michael W. Deem and Ramdas Pophale) SiO2 
 PCOD8059032
Probable space group: P 2/M
;
_chemical_formula_sum "Si O2"
_cell_formula_units_Z 32
_cell_length_a 19.733285
_cell_length_b 9.051763
_cell_length_c 14.187997
_cell_angle_alpha 90.000000
_cell_angle_beta 46.165546
_cell_angle_gamma 90.000000
_cell_volume 1828.083406
_symmetry_space_group_name_H-M "P 2/M"
_symmetry_group_IT_number 10
_symmetry_cell_setting 'monoclinic'
loop_
_space_group_symop_operation_xyz
x,y,z
-x,y,-z
-x,-y,-z
x,-y,z
loop_
_atom_site_type_symbol
_atom_site_label
_atom_site_fract_x
_atom_site_fract_y
_atom_site_fract_z
Si Si1 0.784237 0.331246 0.853644
Si Si2 0.167589 0.829309 0.520464
Si Si3 0.307819 0.673199 0.250253
Si Si4 0.027845 0.171199 0.370684
Si Si5 0.605383 0.829053 0.362423
Si Si6 0.450856 0.824254 0.234886
Si Si7 0.689451 0.171788 0.469125
Si Si8 0.374382 0.328284 0.853148
O O1 0.814371 0.500000 0.812511
O O2 0.714912 0.286052 0.835496
O O3 0.879902 0.240620 0.762514
O O4 0.729322 0.303412 0.004038
O O5 0.218830 0.725573 0.396637
O O6 0.206534 0.794863 0.588809
O O7 0.056546 0.799620 0.622157
O O8 0.191260 0.000000 0.472031
O O9 0.323916 0.500000 0.250348
O O10 0.402886 0.759596 0.186761
O O11 0.000000 0.238338 0.500000
O O12 0.049368 0.000000 0.363331
O O13 0.500000 0.808128 0.500000
O O14 0.674470 0.764964 0.378278
O O15 0.625555 0.731517 0.252389
O O16 0.624812 0.000000 0.318021
O O17 0.388043 0.767000 0.383339
O O18 0.553929 0.759149 0.148964
O O19 0.455644 0.000000 0.222916
O O20 0.668942 0.000000 0.478714
O O21 0.402051 0.500000 0.826711
#
# Coordination Sequence:
#
# PCOD8059032 Si02
#       8
#     4   4   4   4   4   4   4   4
#     4  10  23  38  51  71 107 147 178 212 264 319
#     4   9  17  31  51  78 108 136 166 212 267 311
#     4  10  19  32  50  74 103 140 178 212 250 309
#     4  10  19  32  54  82 106 131 175 227 262 302
#     4  10  18  33  55  79 103 133 175 216 262 318
#     4  10  19  34  53  75 104 140 174 213 259 308
#     4   8  15  29  51  75 103 133 162 204 259 315
#     4  11  23  37  51  74 106 141 179 219 261 312
#
# _framework density 17.504673
#
# number of rings (size 3 to 8) (size 9 to 14) (size 15 to 20)
#    0.000    2.250    2.500    1.875    0.000    3.000 
#    0.000    3.125    0.000    0.750    0.000    5.250 
#    0.000    0.000    0.000    0.000    0.000    0.000 
#
# Total GULP energy -396709.105738 kJ/mol
# GULP energy per Si atom -12397.159554 kJ/mol
# Density = 1.746483 g / cm^3
# Si number density = 17.504673 Si / 1000 Ang^3
#
#
#
# Elastic Constant Matrix: (Units=GPa)
#
#
# Indices 1 2 3 4 5 6 
#
# 1 120.7599 44.1571 48.7076 0.0000 -5.5549 0.0000
# 2 44.1571 68.2072 36.7558 0.0000 -2.3045 0.0000
# 3 48.7076 36.7558 75.2320 0.0000 -2.9608 0.0000
# 4 0.0000 0.0000 0.0000 24.6462 0.0000 -1.7923
# 5 -5.5549 -2.3045 -2.9608 0.0000 23.0989 0.0000
# 6 0.0000 0.0000 0.0000 -1.7923 0.0000 25.9708
#
#
#
# Elastic Compliance Matrix: (Units=1/GPa)
#
#
# Indices 1 2 3 4 5 6 
#
# 1 0.012422 -0.005003 -0.005528 0.000000 0.001780 0.000000
# 2 -0.005003 0.021928 -0.007473 0.000000 0.000027 0.000000
# 3 -0.005528 -0.007473 0.020544 0.000000 0.000558 0.000000
# 4 0.000000 0.000000 0.000000 0.040779 0.000000 0.002814
# 5 0.001780 0.000027 0.000558 0.000000 0.043794 0.000000
# 6 0.000000 0.000000 0.000000 0.002814 0.000000 0.038699
#
#
# Mechanical properties :
#
#
# Convention : Reuss Voigt Hill
#
# Bulk Modulus (GPa) = 52.94902 58.16000 55.55451
# Shear Modulus (GPa) = 22.67881 23.71509 23.19695
#
# Velocity S-wave (km/s) = 3.60333 3.68474 3.64426
# Velocity P-wave (km/s) = 6.90117 7.16942 7.03657
#
# Compressibility (1/GPa) = 0.01888609
#
# Stress axis : x y z
#
# Youngs Moduli (GPa) = 80.50409 45.60354 48.67487
#
# Poissons Ratio (x) = 0.22814 0.26908
# Poissons Ratio (y) = 0.40274 0.36377
# Poissons Ratio (z) = 0.44503 0.34081
#
# Static dielectric constant tensor:
#      x y z
#    x 3.558710 0.000000 0.057450 
#    y 0.000000 3.157690 0.000000 
#    z 0.057450 0.000000 2.992750 
# 
# 
# High freq. dielectric constant tensor:
#      x y z
#    x 1.687740 0.000000 -0.001030 
#    y 0.000000 1.668100 0.000000 
#    z -0.001030 0.000000 1.644680 
# 
# From -- ./inp_files/69951.got.cif
#   From: 2010.06.25/outbox.cif.g09.slc.cpg/sg10_35_cif.got.tgz:69951.got - 2010.06.27 22:07:45.
