data_PCOD8059908
_publ_section_title
;
Structure prediction by ZEFSAII (Michael W. Deem and Ramdas Pophale) SiO2 
 PCOD8059908
Probable space group: P 2/M
;
_chemical_formula_sum "Si O2"
_cell_formula_units_Z 28
_cell_length_a 20.445127
_cell_length_b 8.995181
_cell_length_c 12.538988
_cell_angle_alpha 90.000000
_cell_angle_beta 47.216360
_cell_angle_gamma 90.000000
_cell_volume 1692.439687
_symmetry_space_group_name_H-M "P 2/M"
_symmetry_group_IT_number 10
_symmetry_cell_setting 'monoclinic'
loop_
_space_group_symop_operation_xyz
x,y,z
-x,y,-z
-x,-y,-z
x,-y,z
loop_
_atom_site_type_symbol
_atom_site_label
_atom_site_fract_x
_atom_site_fract_y
_atom_site_fract_z
Si Si1 0.756055 0.326731 0.880696
Si Si2 0.119921 0.673461 0.063577
Si Si3 0.561409 0.671944 0.063878
Si Si4 0.894708 0.167470 0.130527
Si Si5 0.400557 0.171591 0.198676
Si Si6 0.084626 0.325874 0.681564
Si Si7 0.794848 0.828259 0.616749
O O1 0.772066 0.500000 0.835453
O O2 0.815536 0.273778 0.913677
O O3 0.784588 0.229941 0.747991
O O4 0.652429 0.299891 0.029572
O O5 0.128978 0.500000 0.030019
O O6 0.019498 0.715014 0.208043
O O7 0.150272 0.757116 0.922541
O O8 0.534671 0.500000 0.094752
O O9 0.474855 0.767115 0.201612
O O10 0.585249 0.724788 0.918986
O O11 0.868269 0.254069 0.267237
O O12 0.859215 0.000000 0.179857
O O13 0.000000 0.174115 0.000000
O O14 0.297781 0.191280 0.347663
O O15 0.420128 0.000000 0.150060
O O16 0.100837 0.500000 0.669236
O O17 0.128007 0.262534 0.526565
O O18 0.822708 0.000000 0.590983
#
# Coordination Sequence:
#
# PCOD8059908 Si02
#       7
#     4   4   4   4   4   4   4
#     4   9  18  31  45  64  92 122 150 180 216 262
#     4   9  18  32  48  66  89 118 151 183 217 260
#     4   9  15  24  41  62  83 110 144 181 216 252
#     4   9  17  30  48  68  88 110 143 188 228 259
#     4   9  16  26  40  58  83 114 144 178 219 259
#     4  10  19  31  48  66  87 118 152 185 220 259
#     4  10  20  31  43  63  92 122 151 183 220 264
#
# _framework density 16.544163999999999
#
# number of rings (size 3 to 8) (size 9 to 14) (size 15 to 20)
#    0.000    2.714    0.000    3.000    0.000    5.714 
#    0.000    2.857    0.000    0.000    0.000    1.000 
#    0.000    8.000    0.000    0.000    0.000    0.000 
#
# Total GULP energy -346998.360779 kJ/mol
# GULP energy per Si atom -12392.798599 kJ/mol
# Density = 1.650651 g / cm^3
# Si number density = 16.544164 Si / 1000 Ang^3
#
#
#
# Elastic Constant Matrix: (Units=GPa)
#
#
# Indices 1 2 3 4 5 6 
#
# 1 113.2625 46.3418 42.3813 0.0000 1.6163 0.0000
# 2 46.3418 72.4925 20.8530 0.0000 1.1978 0.0000
# 3 42.3813 20.8530 22.0769 0.0000 6.0653 0.0000
# 4 0.0000 0.0000 0.0000 22.8834 0.0000 -3.6177
# 5 1.6163 1.1978 6.0653 0.0000 15.7349 0.0000
# 6 0.0000 0.0000 0.0000 -3.6177 0.0000 19.7235
#
#
#
# Elastic Compliance Matrix: (Units=1/GPa)
#
#
# Indices 1 2 3 4 5 6 
#
# 1 0.040699 -0.002442 -0.083578 0.000000 0.028222 0.000000
# 2 -0.002442 0.019626 -0.015108 0.000000 0.004581 0.000000
# 3 -0.083578 -0.015108 0.243080 0.000000 -0.083965 0.000000
# 4 0.000000 0.000000 0.000000 0.045005 0.000000 0.008255
# 5 0.028222 0.004581 -0.083965 0.000000 0.092671 0.000000
# 6 0.000000 0.000000 0.000000 0.008255 0.000000 0.052215
#
#
# Mechanical properties :
#
#
# Convention : Reuss Voigt Hill
#
# Bulk Modulus (GPa) = 9.88638 47.44270 28.66454
# Shear Modulus (GPa) = 6.85618 18.21875 12.53747
#
# Velocity S-wave (km/s) = 2.03793 3.32206 2.75584
# Velocity P-wave (km/s) = 3.39504 6.59192 5.24308
#
# Compressibility (1/GPa) = 0.10114924
#
# Stress axis : x y z
#
# Youngs Moduli (GPa) = 24.57056 50.95281 4.11387
#
# Poissons Ratio (x) = 0.12443 0.34383
# Poissons Ratio (y) = 0.06000 0.06215
# Poissons Ratio (z) = 2.05355 0.76982
#
# Static dielectric constant tensor:
#      x y z
#    x 3.541970 0.000000 -0.325490 
#    y 0.000000 3.209310 0.000000 
#    z -0.325490 0.000000 2.915320 
# 
# 
# High freq. dielectric constant tensor:
#      x y z
#    x 1.629180 0.000000 -0.016180 
#    y 0.000000 1.651850 0.000000 
#    z -0.016180 0.000000 1.595900 
# 
# From -- ./inp_files/54704.got.cif
#   From: 2010.06.25/outbox.cif.g09.slc.cpg/sg10_28_cif.got.tgz:54704.got - 2010.06.27 22:07:45.
