data_PCOD8059770
_publ_section_title
;
Structure prediction by ZEFSAII (Michael W. Deem and Ramdas Pophale) SiO2 
 PCOD8059770
Probable space group: P 2/M
;
_chemical_formula_sum "Si O2"
_cell_formula_units_Z 32
_cell_length_a 12.479998
_cell_length_b 8.923545
_cell_length_c 31.949600
_cell_angle_alpha 90.000000
_cell_angle_beta 26.699297
_cell_angle_gamma 90.000000
_cell_volume 1598.680017
_symmetry_space_group_name_H-M "P 2/M"
_symmetry_group_IT_number 10
_symmetry_cell_setting 'monoclinic'
loop_
_space_group_symop_operation_xyz
x,y,z
-x,y,-z
-x,-y,-z
x,-y,z
loop_
_atom_site_type_symbol
_atom_site_label
_atom_site_fract_x
_atom_site_fract_y
_atom_site_fract_z
Si Si1 0.459067 0.171660 0.104359
Si Si2 0.949107 0.170882 0.902706
Si Si3 0.935810 0.821505 0.694665
Si Si4 0.365760 0.824827 0.427955
Si Si5 0.481823 0.172177 0.718323
Si Si6 0.166220 0.670052 0.141187
Si Si7 0.094286 0.677200 0.385094
Si Si8 0.259262 0.326306 0.647109
O O1 0.306196 0.233737 0.196898
O O2 0.386588 0.245905 0.085745
O O3 0.388907 0.000000 0.124307
O O4 0.745927 0.194670 0.009700
O O5 0.884911 0.276038 0.887100
O O6 0.212736 0.207836 0.827920
O O7 0.945182 0.000000 0.887816
O O8 0.930641 0.743961 0.652062
O O9 0.169124 0.762372 0.637673
O O10 0.949392 0.000000 0.684814
O O11 0.502052 0.795380 0.336876
O O12 0.497716 0.746980 0.420976
O O13 0.104645 0.751178 0.515561
O O14 0.342104 0.000000 0.445858
O O15 0.648731 0.282650 0.685908
O O16 0.552850 0.000000 0.703061
O O17 0.245547 0.500000 0.111380
O O18 0.930035 0.694943 0.250311
O O19 0.061909 0.500000 0.395335
O O20 0.302900 0.500000 0.620447
#
# Coordination Sequence:
#
# PCOD8059770 Si02
#       8
#     4   4   4   4   4   4   4   4
#     4   9  19  34  56  83 113 151 194 237 281 332
#     4  10  19  34  56  84 115 150 192 236 282 335
#     4  10  21  40  62  84 115 155 200 242 283 337
#     4  11  22  39  64  91 117 149 191 237 288 345
#     4  10  22  40  62  87 117 151 192 239 285 340
#     4  10  19  30  49  81 122 158 187 226 282 342
#     4  12  26  42  61  84 113 152 194 241 295 348
#     4  10  20  35  57  88 124 156 188 234 289 343
#
# _framework density 20.016513
#
# number of rings (size 3 to 8) (size 9 to 14) (size 15 to 20)
#    0.000    1.750    1.250    3.375    0.000    7.000 
#    0.000    3.125    0.000    3.750    0.000    0.000 
#    0.000    0.000    0.000    0.000    0.000    0.000 
#
# Total GULP energy -396819.573201 kJ/mol
# GULP energy per Si atom -12400.611663 kJ/mol
# Density = 1.997095 g / cm^3
# Si number density = 20.016513 Si / 1000 Ang^3
#
#
#
# Elastic Constant Matrix: (Units=GPa)
#
#
# Indices 1 2 3 4 5 6 
#
# 1 68.5737 24.3611 19.3608 0.0000 -10.7248 0.0000
# 2 24.3611 79.7629 21.0799 0.0000 -3.8597 0.0000
# 3 19.3608 21.0799 50.6643 0.0000 -22.9888 0.0000
# 4 0.0000 0.0000 0.0000 11.9400 0.0000 9.2983
# 5 -10.7248 -3.8597 -22.9888 0.0000 28.0297 0.0000
# 6 0.0000 0.0000 0.0000 9.2983 0.0000 22.0515
#
#
#
# Elastic Compliance Matrix: (Units=1/GPa)
#
#
# Indices 1 2 3 4 5 6 
#
# 1 0.017601 -0.004311 -0.003418 0.000000 0.003338 0.000000
# 2 -0.004311 0.015519 -0.007308 0.000000 -0.005506 0.000000
# 3 -0.003418 -0.007308 0.036688 0.000000 0.027776 0.000000
# 4 0.000000 0.000000 0.000000 0.124700 0.000000 -0.052581
# 5 0.003338 -0.005506 0.027776 0.000000 0.058976 0.000000
# 6 0.000000 0.000000 0.000000 -0.052581 0.000000 0.067520
#
#
# Mechanical properties :
#
#
# Convention : Reuss Voigt Hill
#
# Bulk Modulus (GPa) = 25.16737 36.51161 30.83949
# Shear Modulus (GPa) = 13.72414 21.35085 17.53749
#
# Velocity S-wave (km/s) = 2.62132 3.26952 2.96320
# Velocity P-wave (km/s) = 4.66501 5.70380 5.21036
#
# Compressibility (1/GPa) = 0.03973399
#
# Stress axis : x y z
#
# Youngs Moduli (GPa) = 56.81363 64.43833 27.25713
#
# Poissons Ratio (x) = 0.27779 0.09316
# Poissons Ratio (y) = 0.24492 0.19919
# Poissons Ratio (z) = 0.19419 0.47091
#
# Static dielectric constant tensor:
#      x y z
#    x 3.450200 0.000000 -0.161230 
#    y 0.000000 3.657250 0.000000 
#    z -0.161230 0.000000 3.959110 
# 
# 
# High freq. dielectric constant tensor:
#      x y z
#    x 1.759540 0.000000 -0.010560 
#    y 0.000000 1.783890 0.000000 
#    z -0.010560 0.000000 1.793800 
# 
# From -- ./inp_files/89623.got.cif
#   From: 2010.06.25/outbox.cif.g09.slc.cpg/sg10_45_cif.got.tgz:89623.got - 2010.06.27 22:07:45.
