data_PCOD8059361
_publ_section_title
;
Structure prediction by ZEFSAII (Michael W. Deem and Ramdas Pophale) SiO2 
 PCOD8059361
Probable space group: P 2/M
;
_chemical_formula_sum "Si O2"
_cell_formula_units_Z 32
_cell_length_a 14.952369
_cell_length_b 9.813863
_cell_length_c 20.571305
_cell_angle_alpha 90.000000
_cell_angle_beta 138.171930
_cell_angle_gamma 90.000000
_cell_volume 2013.126200
_symmetry_space_group_name_H-M "P 2/M"
_symmetry_group_IT_number 10
_symmetry_cell_setting 'monoclinic'
loop_
_space_group_symop_operation_xyz
x,y,z
-x,y,-z
-x,-y,-z
x,-y,z
loop_
_atom_site_type_symbol
_atom_site_label
_atom_site_fract_x
_atom_site_fract_y
_atom_site_fract_z
Si Si1 0.378498 0.159272 0.224658
Si Si2 0.081863 0.337856 0.483341
Si Si3 0.986278 0.845694 0.179839
Si Si4 0.334877 0.650102 0.455039
Si Si5 0.978914 0.652280 0.690156
Si Si6 0.617812 0.660837 0.374577
Si Si7 0.890555 0.838803 0.990652
Si Si8 0.301742 0.152046 0.328215
O O1 0.507243 0.251099 0.276067
O O2 0.259393 0.201130 0.111478
O O3 0.330055 0.197413 0.270403
O O4 0.414999 0.000000 0.237919
O O5 0.080016 0.500000 0.481883
O O6 0.010531 0.288991 0.377818
O O7 0.236417 0.290486 0.571687
O O8 0.000000 0.277023 0.500000
O O9 0.944206 0.752626 0.218614
O O10 0.143908 0.841498 0.253498
O O11 0.938824 0.000000 0.168683
O O12 0.914562 0.784646 0.076756
O O13 0.387542 0.500000 0.465677
O O14 0.175985 0.646129 0.375650
O O15 0.397062 0.698344 0.557179
O O16 0.379068 0.749285 0.420398
O O17 0.041181 0.500000 0.729113
O O18 0.595906 0.500000 0.350816
O O19 0.911460 0.000000 0.002037
O O20 0.000000 0.775144 0.000000
O O21 0.355427 0.000000 0.370248
#
# Coordination Sequence:
#
# PCOD8059361 Si02
#       8
#     4   4   4   4   4   4   4   4
#     4  10  19  29  42  60  83 112 147 184 217 246
#     4   8  14  28  51  72  87 110 143 171 203 259
#     4   9  15  25  43  62  82 111 147 184 216 247
#     4   8  15  27  40  54  79 114 142 165 204 254
#     4   8  14  25  42  65  89 108 132 172 216 255
#     4   9  18  31  44  61  86 112 138 172 212 256
#     4   9  15  27  45  61  79 111 156 194 216 242
#     4   9  16  25  39  59  79 106 146 185 211 234
#
# _framework density 15.895676
#
# number of rings (size 3 to 8) (size 9 to 14) (size 15 to 20)
#    0.000    3.250    1.250    1.500    0.000    1.500 
#    0.000    5.000    0.000    2.250    0.000    0.875 
#    0.000    7.000    0.000    0.000    0.000    0.000 
#
# Total GULP energy -396615.044142 kJ/mol
# GULP energy per Si atom -12394.220129 kJ/mol
# Density = 1.585950 g / cm^3
# Si number density = 15.895676 Si / 1000 Ang^3
#
#
#
# Elastic Constant Matrix: (Units=GPa)
#
#
# Indices 1 2 3 4 5 6 
#
# 1 76.5097 25.5819 43.6480 0.0000 -17.5360 0.0000
# 2 25.5819 49.3982 42.5329 0.0000 -8.7091 0.0000
# 3 43.6480 42.5329 105.2524 0.0000 -15.2664 0.0000
# 4 0.0000 0.0000 0.0000 21.9800 0.0000 -1.2192
# 5 -17.5360 -8.7091 -15.2664 0.0000 17.7750 0.0000
# 6 0.0000 0.0000 0.0000 -1.2192 0.0000 13.9245
#
#
#
# Elastic Compliance Matrix: (Units=1/GPa)
#
#
# Indices 1 2 3 4 5 6 
#
# 1 0.020340 -0.003912 -0.004822 0.000000 0.014008 0.000000
# 2 -0.003912 0.032203 -0.011037 0.000000 0.002440 0.000000
# 3 -0.004822 -0.011037 0.016548 0.000000 0.004047 0.000000
# 4 0.000000 0.000000 0.000000 0.045718 0.000000 0.004003
# 5 0.014008 0.002440 0.004047 0.000000 0.074750 0.000000
# 6 0.000000 0.000000 0.000000 0.004003 0.000000 0.072166
#
#
# Mechanical properties :
#
#
# Convention : Reuss Voigt Hill
#
# Bulk Modulus (GPa) = 33.84302 50.52066 42.18184
# Shear Modulus (GPa) = 16.07113 18.69574 17.38343
#
# Velocity S-wave (km/s) = 3.18313 3.43323 3.31054
# Velocity P-wave (km/s) = 5.90311 6.89694 6.41928
#
# Compressibility (1/GPa) = 0.02954819
#
# Stress axis : x y z
#
# Youngs Moduli (GPa) = 49.16436 31.05325 60.43009
#
# Poissons Ratio (x) = 0.12147 0.29142
# Poissons Ratio (y) = 0.19231 0.66698
# Poissons Ratio (z) = 0.23709 0.34274
#
# Static dielectric constant tensor:
#      x y z
#    x 2.941200 0.000000 -0.204950 
#    y 0.000000 2.984110 0.000000 
#    z -0.204950 0.000000 3.095760 
# 
# 
# High freq. dielectric constant tensor:
#      x y z
#    x 1.578470 0.000000 -0.011040 
#    y 0.000000 1.587330 0.000000 
#    z -0.011040 0.000000 1.604290 
# 
# From -- ./inp_files/66140.got.cif
#   From: 2010.06.25/outbox.cif.g09.slc.cpg/sg10_34_cif.got.tgz:66140.got - 2010.06.27 22:07:45.
