data_PCOD8059331
_publ_section_title
;
Structure prediction by ZEFSAII (Michael W. Deem and Ramdas Pophale) SiO2 
 PCOD8059331
Probable space group: P 2/M
;
_chemical_formula_sum "Si O2"
_cell_formula_units_Z 32
_cell_length_a 28.282456
_cell_length_b 9.500294
_cell_length_c 12.026573
_cell_angle_alpha 90.000000
_cell_angle_beta 147.583996
_cell_angle_gamma 90.000000
_cell_volume 1732.254016
_symmetry_space_group_name_H-M "P 2/M"
_symmetry_group_IT_number 10
_symmetry_cell_setting 'monoclinic'
loop_
_space_group_symop_operation_xyz
x,y,z
-x,y,-z
-x,-y,-z
x,-y,z
loop_
_atom_site_type_symbol
_atom_site_label
_atom_site_fract_x
_atom_site_fract_y
_atom_site_fract_z
Si Si1 0.577738 0.162364 0.583445
Si Si2 0.381810 0.833544 0.934784
Si Si3 0.287999 0.160267 0.966335
Si Si4 0.926075 0.167308 0.944940
Si Si5 0.049134 0.661629 0.778862
Si Si6 0.268460 0.167275 0.509715
Si Si7 0.129211 0.659984 0.710085
Si Si8 0.576393 0.168139 0.336633
O O1 0.500000 0.236336 0.500000
O O2 0.587183 0.231615 0.481662
O O3 0.550665 0.000000 0.511978
O O4 0.669951 0.178407 0.829121
O O5 0.357160 0.786678 0.010621
O O6 0.305192 0.776156 0.700866
O O7 0.384839 0.000000 0.929999
O O8 0.480718 0.779207 0.100584
O O9 0.200278 0.248849 0.787247
O O10 0.261769 0.000000 0.889445
O O11 0.830588 0.221959 0.711233
O O12 0.926916 0.000000 0.966322
O O13 0.944374 0.240244 0.099831
O O14 0.000000 0.209684 0.000000
O O15 0.066982 0.500000 0.849889
O O16 0.115481 0.709927 0.811300
O O17 0.954836 0.675846 0.534761
O O18 0.340252 0.228215 0.565265
O O19 0.265765 0.000000 0.500844
O O20 0.161298 0.500000 0.777380
O O21 0.580413 0.000000 0.341930
#
# Coordination Sequence:
#
# PCOD8059331 Si02
#       8
#     4   4   4   4   4   4   4   4
#     4   9  15  25  39  66 104 133 162 205 253 295
#     4   9  16  27  43  68 101 137 176 211 247 296
#     4  10  19  28  49  79 105 134 167 207 257 314
#     4  10  22  36  52  79 114 142 165 212 273 314
#     4   9  20  40  60  75  98 135 178 217 256 310
#     4   9  18  29  43  66 101 140 173 207 254 306
#     4   9  20  38  57  77 102 133 170 218 266 307
#     4   9  15  25  42  64  97 139 175 209 248 297
#
# _framework density 18.473040999999998
#
# number of rings (size 3 to 8) (size 9 to 14) (size 15 to 20)
#    0.000    2.750    1.250    1.125    3.500    2.750 
#    0.000    1.250    0.000    0.375    0.000    0.875 
#    0.000    2.000    0.000    0.000    0.000    0.000 
#
# Total GULP energy -396491.467823 kJ/mol
# GULP energy per Si atom -12390.358369 kJ/mol
# Density = 1.843100 g / cm^3
# Si number density = 18.473041 Si / 1000 Ang^3
#
#
#
# Elastic Constant Matrix: (Units=GPa)
#
#
# Indices 1 2 3 4 5 6 
#
# 1 120.6401 28.4951 71.9131 0.0000 6.2496 0.0000
# 2 28.4951 27.6042 26.0480 0.0000 2.4605 0.0000
# 3 71.9131 26.0480 106.8802 0.0000 -1.5801 0.0000
# 4 0.0000 0.0000 0.0000 12.9333 0.0000 -8.4432
# 5 6.2496 2.4605 -1.5801 0.0000 40.3946 0.0000
# 6 0.0000 0.0000 0.0000 -8.4432 0.0000 10.7678
#
#
#
# Elastic Compliance Matrix: (Units=1/GPa)
#
#
# Indices 1 2 3 4 5 6 
#
# 1 0.015212 -0.007552 -0.008427 0.000000 -0.002223 0.000000
# 2 -0.007552 0.051243 -0.007440 0.000000 -0.002244 0.000000
# 3 -0.008427 -0.007440 0.016875 0.000000 0.002417 0.000000
# 4 0.000000 0.000000 0.000000 0.158404 0.000000 0.124206
# 5 -0.002223 -0.002244 0.002417 0.000000 0.025331 0.000000
# 6 0.000000 0.000000 0.000000 0.124206 0.000000 0.190260
#
#
# Mechanical properties :
#
#
# Convention : Reuss Voigt Hill
#
# Bulk Modulus (GPa) = 27.40427 56.44856 41.92641
# Shear Modulus (GPa) = 9.68377 21.39705 15.54041
#
# Velocity S-wave (km/s) = 2.29205 3.40705 2.90357
# Velocity P-wave (km/s) = 4.67671 6.78977 5.82977
#
# Compressibility (1/GPa) = 0.03649067
#
# Stress axis : x y z
#
# Youngs Moduli (GPa) = 65.73969 19.51479 59.25760
#
# Poissons Ratio (x) = 0.14738 0.49938
# Poissons Ratio (y) = 0.49648 0.44090
# Poissons Ratio (z) = 0.55400 0.14520
#
# Static dielectric constant tensor:
#      x y z
#    x 3.669790 0.000000 -0.016520 
#    y 0.000000 2.795970 0.000000 
#    z -0.016520 0.000000 3.529570 
# 
# 
# High freq. dielectric constant tensor:
#      x y z
#    x 1.731020 0.000000 -0.001650 
#    y 0.000000 1.641950 0.000000 
#    z -0.001650 0.000000 1.727980 
# 
# From -- ./inp_files/58302.got.cif
#   From: 2010.06.25/outbox.cif.g09.slc.cpg/sg10_30_cif.got.tgz:58302.got - 2010.06.27 22:07:45.
