data_PCOD8059825
_publ_section_title
;
Structure prediction by ZEFSAII (Michael W. Deem and Ramdas Pophale) SiO2 
 PCOD8059825
Probable space group: P 2/M
;
_chemical_formula_sum "Si O2"
_cell_formula_units_Z 32
_cell_length_a 20.395395
_cell_length_b 8.874657
_cell_length_c 25.553918
_cell_angle_alpha 90.000000
_cell_angle_beta 157.137456
_cell_angle_gamma 90.000000
_cell_volume 1797.034563
_symmetry_space_group_name_H-M "P 2/M"
_symmetry_group_IT_number 10
_symmetry_cell_setting 'monoclinic'
loop_
_space_group_symop_operation_xyz
x,y,z
-x,y,-z
-x,-y,-z
x,-y,z
loop_
_atom_site_type_symbol
_atom_site_label
_atom_site_fract_x
_atom_site_fract_y
_atom_site_fract_z
Si Si1 0.173210 0.666865 0.659014
Si Si2 0.978419 0.679531 0.827024
Si Si3 0.944167 0.677327 0.578902
Si Si4 0.343980 0.679380 0.129520
Si Si5 0.477124 0.320746 0.338270
Si Si6 0.346775 0.320654 0.351955
Si Si7 0.855078 0.322252 0.626227
Si Si8 0.646751 0.177111 0.296138
O O1 0.254763 0.500000 0.720571
O O2 0.304119 0.779183 0.727540
O O3 0.000000 0.662353 0.500000
O O4 0.119447 0.720756 0.678147
O O5 0.977781 0.500000 0.826286
O O6 0.830574 0.740930 0.756243
O O7 0.946887 0.743465 0.745145
O O8 0.156857 0.739531 0.979158
O O9 0.905584 0.500000 0.542878
O O10 0.963088 0.719787 0.653928
O O11 0.785434 0.765363 0.438919
O O12 0.356026 0.500000 0.135047
O O13 0.391533 0.739680 0.222272
O O14 0.468202 0.748397 0.177826
O O15 0.482536 0.500000 0.340891
O O16 0.369287 0.264026 0.308853
O O17 0.666567 0.255241 0.482161
O O18 0.500000 0.257705 0.500000
O O19 0.349058 0.500000 0.355828
O O20 0.839183 0.500000 0.620941
O O21 0.631504 0.000000 0.289121
#
# Coordination Sequence:
#
# PCOD8059825 Si02
#       8
#     4   4   4   4   4   4   4   4
#     4   8  15  27  44  68  95 124 153 188 234 281
#     4   9  17  26  41  67  97 126 157 192 233 283
#     4   9  16  28  48  71  97 124 154 191 235 281
#     4  10  19  31  45  66  96 128 160 195 234 278
#     4   9  15  23  41  63  91 127 154 186 235 280
#     4   9  14  22  37  63  97 126 151 188 239 284
#     4   9  14  24  43  67  93 124 156 187 230 278
#     4  11  20  29  45  68  95 126 158 195 235 278
#
# _framework density 17.807115
#
# number of rings (size 3 to 8) (size 9 to 14) (size 15 to 20)
#    0.000    2.750    2.500    1.875    0.000    2.750 
#    0.000    2.500    0.000    1.500    0.000    7.000 
#    0.000    2.000    0.000    0.000    0.000    0.000 
#
# Total GULP energy -396610.038396 kJ/mol
# GULP energy per Si atom -12394.063700 kJ/mol
# Density = 1.776658 g / cm^3
# Si number density = 17.807115 Si / 1000 Ang^3
#
#
#
# Elastic Constant Matrix: (Units=GPa)
#
#
# Indices 1 2 3 4 5 6 
#
# 1 179.2961 19.7261 75.5429 0.0000 9.0958 0.0000
# 2 19.7261 28.9504 19.1630 0.0000 5.3208 0.0000
# 3 75.5429 19.1630 119.3896 0.0000 1.7171 0.0000
# 4 0.0000 0.0000 0.0000 3.2977 0.0000 -0.1333
# 5 9.0958 5.3208 1.7171 0.0000 26.9778 0.0000
# 6 0.0000 0.0000 0.0000 -0.1333 0.0000 1.9539
#
#
#
# Elastic Compliance Matrix: (Units=1/GPa)
#
#
# Indices 1 2 3 4 5 6 
#
# 1 0.007836 -0.001918 -0.004622 0.000000 -0.001969 0.000000
# 2 -0.001918 0.040581 -0.005199 0.000000 -0.007026 0.000000
# 3 -0.004622 -0.005199 0.012109 0.000000 0.001813 0.000000
# 4 0.000000 0.000000 0.000000 0.304084 0.000000 0.020751
# 5 -0.001969 -0.007026 0.001813 0.000000 0.039002 0.000000
# 6 0.000000 0.000000 0.000000 0.020751 0.000000 0.513208
#
#
# Mechanical properties :
#
#
# Convention : Reuss Voigt Hill
#
# Bulk Modulus (GPa) = 26.99171 61.83334 44.41253
# Shear Modulus (GPa) = 5.24854 20.65948 12.95401
#
# Velocity S-wave (km/s) = 1.71867 3.40984 2.70008
# Velocity P-wave (km/s) = 4.37369 7.09239 5.89199
#
# Compressibility (1/GPa) = 0.03704841
#
# Stress axis : x y z
#
# Youngs Moduli (GPa) = 127.62347 24.64184 82.58487
#
# Poissons Ratio (x) = 0.04726 0.38169
# Poissons Ratio (y) = 0.24475 0.42937
# Poissons Ratio (z) = 0.58984 0.12812
#
# Static dielectric constant tensor:
#      x y z
#    x 3.845470 0.000000 0.067730 
#    y 0.000000 2.686690 0.000000 
#    z 0.067730 0.000000 3.188190 
# 
# 
# High freq. dielectric constant tensor:
#      x y z
#    x 1.712590 0.000000 0.010180 
#    y 0.000000 1.624630 0.000000 
#    z 0.010180 0.000000 1.657700 
# 
# From -- ./inp_files/93749.got.cif
#   From: 2010.06.25/outbox.cif.g09.slc.cpg/sg10_47_cif.got.tgz:93749.got - 2010.06.27 22:07:45.
