data_PCOD8059642
_publ_section_title
;
Structure prediction by ZEFSAII (Michael W. Deem and Ramdas Pophale) SiO2 
 PCOD8059642
Probable space group: P 2/M
;
_chemical_formula_sum "Si O2"
_cell_formula_units_Z 28
_cell_length_a 12.329888
_cell_length_b 9.269992
_cell_length_c 20.801984
_cell_angle_alpha 90.000000
_cell_angle_beta 137.754422
_cell_angle_gamma 90.000000
_cell_volume 1598.499891
_symmetry_space_group_name_H-M "P 2/M"
_symmetry_group_IT_number 10
_symmetry_cell_setting 'monoclinic'
loop_
_space_group_symop_operation_xyz
x,y,z
-x,y,-z
-x,-y,-z
x,-y,z
loop_
_atom_site_type_symbol
_atom_site_label
_atom_site_fract_x
_atom_site_fract_y
_atom_site_fract_z
Si Si1 0.883602 0.833037 0.704267
Si Si2 0.600562 0.834604 0.668855
Si Si3 0.315496 0.665130 0.488732
Si Si4 0.473375 0.171197 0.088038
Si Si5 0.470693 0.169896 0.746743
Si Si6 0.244142 0.828669 0.878098
Si Si7 0.821044 0.335677 0.430921
O O1 0.786136 0.816566 0.728739
O O2 0.792808 0.743746 0.610690
O O3 0.062803 0.767231 0.792041
O O4 0.889814 0.000000 0.685585
O O5 0.489950 0.740005 0.572691
O O6 0.584084 0.784512 0.736211
O O7 0.542808 0.000000 0.636731
O O8 0.343867 0.500000 0.480726
O O9 0.220467 0.678343 0.513058
O O10 0.453282 0.226331 0.152644
O O11 0.644901 0.222604 0.133129
O O12 0.469892 0.000000 0.084018
O O13 0.325210 0.230445 0.979800
O O14 0.295592 0.239768 0.663526
O O15 0.445790 0.000000 0.738554
O O16 0.234678 0.000000 0.876870
O O17 0.807523 0.500000 0.400836
O O18 0.000000 0.274630 0.500000
#
# Coordination Sequence:
#
# PCOD8059642 Si02
#       7
#     4   4   4   4   4   4   4
#     4  10  19  30  47  68  93 123 154 188 229 269
#     4   9  18  32  45  65  96 124 151 188 228 268
#     4  10  20  32  47  67  91 123 158 188 223 269
#     4   8  14  27  46  68  93 117 147 189 230 270
#     4   9  17  29  48  69  89 118 154 188 223 263
#     4   8  15  27  44  68  94 118 147 186 232 274
#     4   9  19  33  45  63  94 124 148 181 228 277
#
# _framework density 17.516421999999999
#
# number of rings (size 3 to 8) (size 9 to 14) (size 15 to 20)
#    0.000    3.000    0.000    1.714    2.000    3.143 
#    0.000    0.714    0.000    5.143    0.000    2.000 
#    0.000    5.714    0.000    0.000    0.000    0.000 
#
# Total GULP energy -347069.544387 kJ/mol
# GULP energy per Si atom -12395.340871 kJ/mol
# Density = 1.747655 g / cm^3
# Si number density = 17.516422 Si / 1000 Ang^3
#
#
#
# Elastic Constant Matrix: (Units=GPa)
#
#
# Indices 1 2 3 4 5 6 
#
# 1 75.8913 23.9480 75.5494 0.0000 6.9746 0.0000
# 2 23.9480 37.2835 31.6264 0.0000 -2.4449 0.0000
# 3 75.5494 31.6264 128.0163 0.0000 -6.5274 0.0000
# 4 0.0000 0.0000 0.0000 0.4333 0.0000 0.3862
# 5 6.9746 -2.4449 -6.5274 0.0000 31.8194 0.0000
# 6 0.0000 0.0000 0.0000 0.3862 0.0000 16.1626
#
#
#
# Elastic Compliance Matrix: (Units=1/GPa)
#
#
# Indices 1 2 3 4 5 6 
#
# 1 0.037694 -0.007129 -0.021155 0.000000 -0.013150 0.000000
# 2 -0.007129 0.035306 -0.004342 0.000000 0.003385 0.000000
# 3 -0.021155 -0.004342 0.021816 0.000000 0.008779 0.000000
# 4 0.000000 0.000000 0.000000 2.358123 0.000000 -0.056351
# 5 -0.013150 0.003385 0.008779 0.000000 0.036371 0.000000
# 6 0.000000 0.000000 0.000000 -0.056351 0.000000 0.063218
#
#
# Mechanical properties :
#
#
# Convention : Reuss Voigt Hill
#
# Bulk Modulus (GPa) = 33.82468 55.93762 44.88115
# Shear Modulus (GPa) = 1.90285 17.02088 9.46187
#
# Velocity S-wave (km/s) = 1.04340 3.12061 2.32668
# Velocity P-wave (km/s) = 4.56111 6.70731 5.73549
#
# Compressibility (1/GPa) = 0.02956422
#
# Stress axis : x y z
#
# Youngs Moduli (GPa) = 26.52922 28.32353 45.83709
#
# Poissons Ratio (x) = 0.20193 0.96967
# Poissons Ratio (y) = 0.18914 0.19904
# Poissons Ratio (z) = 0.56122 0.12299
#
# Static dielectric constant tensor:
#      x y z
#    x 3.539830 0.000000 -0.036680 
#    y 0.000000 3.013140 0.000000 
#    z -0.036680 0.000000 3.405170 
# 
# 
# High freq. dielectric constant tensor:
#      x y z
#    x 1.686050 0.000000 -0.003810 
#    y 0.000000 1.642750 0.000000 
#    z -0.003810 0.000000 1.667160 
# 
# From -- ./inp_files/49119.got.cif
#   From: 2010.06.25/outbox.cif.g09.slc.cpg/sg10_25_cif.got.tgz:49119.got - 2010.06.27 22:07:45.
