data_PCOD8059285
_publ_section_title
;
Structure prediction by ZEFSAII (Michael W. Deem and Ramdas Pophale) SiO2 
 PCOD8059285
Probable space group: P 2/M
;
_chemical_formula_sum "Si O2"
_cell_formula_units_Z 32
_cell_length_a 16.310354
_cell_length_b 9.187984
_cell_length_c 18.023712
_cell_angle_alpha 90.000000
_cell_angle_beta 123.540323
_cell_angle_gamma 90.000000
_cell_volume 2251.292845
_symmetry_space_group_name_H-M "P 2/M"
_symmetry_group_IT_number 10
_symmetry_cell_setting 'monoclinic'
loop_
_space_group_symop_operation_xyz
x,y,z
-x,y,-z
-x,-y,-z
x,-y,z
loop_
_atom_site_type_symbol
_atom_site_label
_atom_site_fract_x
_atom_site_fract_y
_atom_site_fract_z
Si Si1 0.198793 0.172669 0.010667
Si Si2 0.094130 0.160757 0.099529
Si Si3 0.020880 0.667910 0.674219
Si Si4 0.094130 0.160757 0.494601
Si Si5 0.801207 0.172669 0.311874
Si Si6 0.392042 0.172827 0.029353
Si Si7 0.020880 0.667910 0.846661
Si Si8 0.392041 0.827173 0.862689
O O1 0.119398 0.247824 0.917917
O O2 0.186882 0.000000 0.993005
O O3 0.183095 0.212973 0.089910
O O4 0.306849 0.230416 0.041520
O O5 0.074746 0.271396 0.157163
O O6 0.115975 0.000000 0.143265
O O7 0.000000 0.153944 0.000000
O O8 0.034694 0.500000 0.660284
O O9 0.119398 0.752176 0.701481
O O10 0.999515 0.691030 0.749758
O O11 0.925254 0.728604 0.582417
O O12 0.183095 0.212972 0.593185
O O13 0.000000 0.153945 0.500000
O O14 0.115975 0.000000 0.472710
O O15 0.693151 0.230416 0.234671
O O16 0.813118 0.000000 0.306123
O O17 0.500000 0.228603 0.109981
O O18 0.391535 0.000000 0.028795
O O19 0.371068 0.229917 0.935534
O O20 0.034694 0.500000 0.874410
O O21 0.391535 0.000000 0.862740
#
# Coordination Sequence:
#
# PCOD8059285 Si02
#       8
#     4   4   4   4   4   4   4   4
#     4   9  16  26  40  56  74  98 127 154 180 213
#     4   8  15  26  38  53  72  95 123 152 182 217
#     4  10  19  27  36  53  75  98 125 154 184 219
#     4   8  15  26  38  53  72  95 123 152 182 217
#     4   9  16  26  40  56  74  98 127 154 180 213
#     4   8  13  21  35  56  78  98 122 151 179 207
#     4  10  19  27  36  53  75  98 125 154 184 219
#     4   8  13  21  35  56  78  98 122 151 179 207
#
# _framework density 14.214054000000001
#
# number of rings (size 3 to 8) (size 9 to 14) (size 15 to 20)
#    0.000    3.250    0.000    3.750    0.000    7.500 
#    0.000    0.000    0.000    0.750    0.000    3.500 
#    0.000    1.000    0.000   12.500    0.000    2.000 
#
# Total GULP energy -396502.750140 kJ/mol
# GULP energy per Si atom -12390.710942 kJ/mol
# Density = 1.418170 g / cm^3
# Si number density = 14.214054 Si / 1000 Ang^3
#
#
#
# Elastic Constant Matrix: (Units=GPa)
#
#
# Indices 1 2 3 4 5 6 
#
# 1 107.0965 28.5543 52.8887 0.0000 -1.0450 0.0000
# 2 28.5543 48.2216 36.4290 0.0000 -5.8200 0.0000
# 3 52.8887 36.4290 95.8155 0.0000 9.3825 0.0000
# 4 0.0000 0.0000 0.0000 16.2164 0.0000 -6.6906
# 5 -1.0450 -5.8200 9.3825 0.0000 20.1039 0.0000
# 6 0.0000 0.0000 0.0000 -6.6906 0.0000 7.1639
#
#
#
# Elastic Compliance Matrix: (Units=1/GPa)
#
#
# Indices 1 2 3 4 5 6 
#
# 1 0.013350 -0.002421 -0.006757 0.000000 0.003146 0.000000
# 2 -0.002421 0.034021 -0.013151 0.000000 0.015861 0.000000
# 3 -0.006757 -0.013151 0.020511 0.000000 -0.013731 0.000000
# 4 0.000000 0.000000 0.000000 0.100323 0.000000 0.093695
# 5 0.003146 0.015861 -0.013731 0.000000 0.060905 0.000000
# 6 0.000000 0.000000 0.000000 0.093695 0.000000 0.227094
#
#
# Mechanical properties :
#
#
# Convention : Reuss Voigt Hill
#
# Bulk Modulus (GPa) = 43.05970 54.09751 48.57861
# Shear Modulus (GPa) = 9.83083 17.58093 13.70588
#
# Velocity S-wave (km/s) = 2.63273 3.52073 3.10860
# Velocity P-wave (km/s) = 6.29295 7.39386 6.86551
#
# Compressibility (1/GPa) = 0.02322357
#
# Stress axis : x y z
#
# Youngs Moduli (GPa) = 74.90403 29.39381 48.75426
#
# Poissons Ratio (x) = 0.07117 0.32942
# Poissons Ratio (y) = 0.18136 0.64118
# Poissons Ratio (z) = 0.50611 0.38657
#
# Static dielectric constant tensor:
#      x y z
#    x 3.052420 0.000000 0.058720 
#    y 0.000000 2.647670 0.000000 
#    z 0.058720 0.000000 2.972980 
# 
# 
# High freq. dielectric constant tensor:
#      x y z
#    x 1.520310 0.000000 -0.004410 
#    y 0.000000 1.525120 0.000000 
#    z -0.004410 0.000000 1.526270 
# 
# From -- ./inp_files/77394.got.cif
#   From: 2010.06.25/outbox.cif.g09.slc.cpg/sg10_39_cif.got.tgz:77394.got - 2010.06.27 22:07:45.
