data_PCOD8059938
_publ_section_title
;
Structure prediction by ZEFSAII (Michael W. Deem and Ramdas Pophale) SiO2 
 PCOD8059938
Probable space group: P 2/M
;
_chemical_formula_sum "Si O2"
_cell_formula_units_Z 28
_cell_length_a 20.854296
_cell_length_b 9.062881
_cell_length_c 18.283063
_cell_angle_alpha 90.000000
_cell_angle_beta 28.033981
_cell_angle_gamma 90.000000
_cell_volume 1624.067715
_symmetry_space_group_name_H-M "P 2/M"
_symmetry_group_IT_number 10
_symmetry_cell_setting 'monoclinic'
loop_
_space_group_symop_operation_xyz
x,y,z
-x,y,-z
-x,-y,-z
x,-y,z
loop_
_atom_site_type_symbol
_atom_site_label
_atom_site_fract_x
_atom_site_fract_y
_atom_site_fract_z
Si Si1 0.140732 0.671608 0.427164
Si Si2 0.661613 0.662443 0.331349
Si Si3 0.646151 0.674816 0.506583
Si Si4 0.142259 0.328992 0.587066
Si Si5 0.850963 0.172156 0.716135
Si Si6 0.144856 0.171673 0.126763
Si Si7 0.358102 0.174024 0.790915
O O1 0.112441 0.500000 0.440517
O O2 0.207463 0.694555 0.440050
O O3 0.227855 0.740682 0.270962
O O4 0.002636 0.764360 0.567341
O O5 0.500000 0.652950 0.500000
O O6 0.720847 0.500000 0.252795
O O7 0.712300 0.715138 0.360639
O O8 0.703784 0.775259 0.225089
O O9 0.621080 0.500000 0.537549
O O10 0.749583 0.734810 0.463897
O O11 0.502297 0.753191 0.663630
O O12 0.116222 0.500000 0.628576
O O13 0.997363 0.252562 0.742990
O O14 0.789042 0.202246 0.859213
O O15 0.851723 0.000000 0.696384
O O16 0.113174 0.000000 0.149296
O O17 0.253721 0.227410 0.958167
O O18 0.376974 0.000000 0.770680
#
# Coordination Sequence:
#
# PCOD8059938 Si02
#       7
#     4   4   4   4   4   4   4
#     4   9  15  24  40  64  89 111 143 186 223 257
#     4   8  15  29  48  67  88 116 151 188 222 262
#     4   9  18  33  50  69  92 118 151 188 224 268
#     4   9  18  31  48  69  93 120 150 186 227 269
#     4   9  15  25  41  60  85 118 150 179 216 261
#     4   9  19  32  45  66  96 123 150 186 224 267
#     4  10  19  31  48  70  93 118 151 189 226 265
#
# _framework density 17.240662
#
# number of rings (size 3 to 8) (size 9 to 14) (size 15 to 20)
#    0.000    3.000    0.000    3.000    0.000    5.429 
#    0.000    0.714    0.000    5.143    0.000    6.000 
#    0.000    0.000    0.000    0.000    0.000    0.000 
#
# Total GULP energy -346878.033559 kJ/mol
# GULP energy per Si atom -12388.501199 kJ/mol
# Density = 1.720142 g / cm^3
# Si number density = 17.240662 Si / 1000 Ang^3
#
#
#
# Elastic Constant Matrix: (Units=GPa)
#
#
# Indices 1 2 3 4 5 6 
#
# 1 144.7327 50.0729 71.2080 0.0000 32.7007 0.0000
# 2 50.0729 55.2617 38.2677 0.0000 10.3451 0.0000
# 3 71.2080 38.2677 75.8182 0.0000 21.5592 0.0000
# 4 0.0000 0.0000 0.0000 3.3912 0.0000 -22.2595
# 5 32.7007 10.3451 21.5592 0.0000 24.8465 0.0000
# 6 0.0000 0.0000 0.0000 -22.2595 0.0000 -37.1791
#
#
#
# Elastic Compliance Matrix: (Units=1/GPa)
#
#
# Indices 1 2 3 4 5 6 
#
# 1 0.015692 -0.006328 -0.008524 0.000000 -0.010622 0.000000
# 2 -0.006328 0.030382 -0.010837 0.000000 0.005081 0.000000
# 3 -0.008524 -0.010837 0.029460 0.000000 -0.009833 0.000000
# 4 0.000000 0.000000 0.000000 0.059815 0.000000 -0.035812
# 5 -0.010622 0.005081 -0.009833 0.000000 0.060643 0.000000
# 6 0.000000 0.000000 0.000000 -0.035812 0.000000 -0.005456
#
#
# Mechanical properties :
#
#
# Convention : Reuss Voigt Hill
#
# Bulk Modulus (GPa) = 41.39330 66.10110 53.74720
# Shear Modulus (GPa) = 20.00274 5.96265 12.98269
#
# Velocity S-wave (km/s) = 3.40988 1.86172 2.74711
# Velocity P-wave (km/s) = 6.29001 6.56085 6.42686
#
# Compressibility (1/GPa) = 0.02415850
#
# Stress axis : x y z
#
# Youngs Moduli (GPa) = 63.72698 32.91388 33.94386
#
# Poissons Ratio (x) = 0.20827 0.28933
# Poissons Ratio (y) = 0.40324 0.36784
# Poissons Ratio (z) = 0.54319 0.35668
#
# Static dielectric constant tensor:
#      x y z
#    x 4.116670 0.000000 0.740070 
#    y 0.000000 3.230210 0.000000 
#    z 0.740070 0.000000 3.105550 
# 
# 
# High freq. dielectric constant tensor:
#      x y z
#    x 1.673130 0.000000 0.040780 
#    y 0.000000 1.669510 0.000000 
#    z 0.040780 0.000000 1.622520 
# 
# From -- ./inp_files/79256.got.cif
#   From: 2010.06.25/outbox.cif.g09.slc.cpg/sg10_40_cif.got.tgz:79256.got - 2010.06.27 22:07:45.
