data_PCOD8059695
_publ_section_title
;
Structure prediction by ZEFSAII (Michael W. Deem and Ramdas Pophale) SiO2 
 PCOD8059695
Probable space group: P 2/M
;
_chemical_formula_sum "Si O2"
_cell_formula_units_Z 32
_cell_length_a 12.475895
_cell_length_b 9.069133
_cell_length_c 33.816177
_cell_angle_alpha 90.000000
_cell_angle_beta 155.177939
_cell_angle_gamma 90.000000
_cell_volume 1606.223805
_symmetry_space_group_name_H-M "P 2/M"
_symmetry_group_IT_number 10
_symmetry_cell_setting 'monoclinic'
loop_
_space_group_symop_operation_xyz
x,y,z
-x,y,-z
-x,-y,-z
x,-y,z
loop_
_atom_site_type_symbol
_atom_site_label
_atom_site_fract_x
_atom_site_fract_y
_atom_site_fract_z
Si Si1 0.767417 0.827350 0.802483
Si Si2 0.059668 0.176457 0.975615
Si Si3 0.218859 0.166654 0.600769
Si Si4 0.378404 0.326126 0.378105
Si Si5 0.023183 0.828555 0.809947
Si Si6 0.069065 0.173631 0.337056
Si Si7 0.598002 0.172684 0.127107
Si Si8 0.131048 0.165853 0.446264
O O1 0.500912 0.756373 0.696580
O O2 0.001905 0.799471 0.849985
O O3 0.714690 0.000000 0.789353
O O4 0.848851 0.766683 0.873070
O O5 0.327982 0.243959 0.049243
O O6 0.065458 0.000000 0.978328
O O7 0.000000 0.236287 0.000000
O O8 0.000000 0.245190 0.500000
O O9 0.127486 0.169590 0.615335
O O10 0.249762 0.000000 0.594541
O O11 0.365370 0.500000 0.375558
O O12 0.195714 0.268484 0.282795
O O13 0.664025 0.272178 0.464285
O O14 0.304996 0.257519 0.395975
O O15 0.299330 0.785315 0.883048
O O16 0.968896 0.000000 0.781865
O O17 0.808444 0.226156 0.228976
O O18 0.055445 0.223194 0.377706
O O19 0.110664 0.000000 0.345727
O O20 0.556904 0.000000 0.116023
O O21 0.243283 0.000000 0.481938
#
# Coordination Sequence:
#
# PCOD8059695 Si02
#       8
#     4   4   4   4   4   4   4   4
#     4   9  17  28  46  73 101 136 174 210 255 300
#     4   9  17  26  41  70 111 141 159 202 264 311
#     4   9  17  28  44  68  96 129 173 215 248 288
#     4  11  21  32  48  72 101 130 165 212 263 304
#     4   9  17  32  52  71  99 134 172 208 244 302
#     4   9  18  31  48  70  98 134 172 205 245 303
#     4   8  15  27  43  66  98 136 166 197 248 303
#     4  10  19  30  48  69  96 134 172 209 248 302
#
# _framework density 19.922504
#
# number of rings (size 3 to 8) (size 9 to 14) (size 15 to 20)
#    0.000    2.750    0.000    3.000    1.750    4.500 
#    0.000    2.500    0.000    3.375    0.000    7.000 
#    0.000    8.500    0.000    0.000    0.000    0.000 
#
# Total GULP energy -396481.610523 kJ/mol
# GULP energy per Si atom -12390.050329 kJ/mol
# Density = 1.987716 g / cm^3
# Si number density = 19.922504 Si / 1000 Ang^3
#
#
#
# Elastic Constant Matrix: (Units=GPa)
#
#
# Indices 1 2 3 4 5 6 
#
# 1 130.3271 8.5750 60.9607 0.0000 -0.2791 0.0000
# 2 8.5750 36.7421 7.6674 0.0000 0.7807 0.0000
# 3 60.9607 7.6674 106.6065 0.0001 6.8334 0.0000
# 4 0.0000 0.0000 0.0001 2.9250 0.0000 -1.7346
# 5 -0.2791 0.7807 6.8334 0.0000 36.3429 0.0000
# 6 0.0000 0.0000 0.0000 -1.7346 0.0000 2.1455
#
#
#
# Elastic Compliance Matrix: (Units=1/GPa)
#
#
# Indices 1 2 3 4 5 6 
#
# 1 0.010583 -0.001235 -0.006043 0.000001 0.001244 0.000001
# 2 -0.001235 0.027777 -0.001268 0.000000 -0.000368 0.000000
# 3 -0.006043 -0.001268 0.013086 -0.000001 -0.002480 -0.000001
# 4 0.000001 0.000000 -0.000001 0.656762 -0.000001 0.530973
# 5 0.001244 -0.000368 -0.002480 -0.000001 0.027999 -0.000001
# 6 0.000001 0.000000 -0.000001 0.530973 -0.000001 0.895368
#
#
# Mechanical properties :
#
#
# Convention : Reuss Voigt Hill
#
# Bulk Modulus (GPa) = 29.10809 47.56466 38.33637
# Shear Modulus (GPa) = 3.01183 21.38084 12.19633
#
# Velocity S-wave (km/s) = 1.23088 3.27953 2.47693
# Velocity P-wave (km/s) = 4.08197 6.18604 5.24068
#
# Compressibility (1/GPa) = 0.03435471
#
# Stress axis : x y z
#
# Youngs Moduli (GPa) = 94.48671 36.00045 76.41818
#
# Poissons Ratio (x) = 0.04448 0.46178
# Poissons Ratio (y) = 0.11673 0.09688
# Poissons Ratio (z) = 0.57097 0.04564
#
# Static dielectric constant tensor:
#      x y z
#    x 3.943860 0.000000 0.057870 
#    y 0.000000 2.872230 0.000000 
#    z 0.057870 0.000000 3.746080 
# 
# 
# High freq. dielectric constant tensor:
#      x y z
#    x 1.795070 0.000000 -0.000760 
#    y 0.000000 1.688830 0.000000 
#    z -0.000760 0.000000 1.775410 
# 
# From -- ./inp_files/95073.got.cif
#   From: 2010.06.25/outbox.cif.g09.slc.cpg/sg10_48_cif.got.tgz:95073.got - 2010.06.27 22:07:45.
