data_PCOD8059842
_publ_section_title
;
Structure prediction by ZEFSAII (Michael W. Deem and Ramdas Pophale) SiO2 
 PCOD8059842
Probable space group: P 2/M
;
_chemical_formula_sum "Si O2"
_cell_formula_units_Z 32
_cell_length_a 15.862347
_cell_length_b 8.689939
_cell_length_c 26.193102
_cell_angle_alpha 90.000000
_cell_angle_beta 150.198696
_cell_angle_gamma 90.000000
_cell_volume 1794.411322
_symmetry_space_group_name_H-M "P 2/M"
_symmetry_group_IT_number 10
_symmetry_cell_setting 'monoclinic'
loop_
_space_group_symop_operation_xyz
x,y,z
-x,y,-z
-x,-y,-z
x,-y,z
loop_
_atom_site_type_symbol
_atom_site_label
_atom_site_fract_x
_atom_site_fract_y
_atom_site_fract_z
Si Si1 0.233957 0.820251 0.800384
Si Si2 0.255672 0.182628 0.350927
Si Si3 0.127516 0.817155 0.855042
Si Si4 0.624440 0.818119 0.277367
Si Si5 0.572270 0.820632 0.921885
Si Si6 0.930144 0.319665 0.381144
Si Si7 0.567433 0.682480 0.461008
Si Si8 0.682925 0.680791 0.410881
O O1 0.196210 0.756895 0.836899
O O2 0.430356 0.789989 0.890409
O O3 0.114658 0.724633 0.700057
O O4 0.188840 0.000000 0.770656
O O5 0.300149 0.234881 0.431655
O O6 0.376741 0.266588 0.374095
O O7 0.065212 0.236208 0.237244
O O8 0.278700 0.000000 0.358974
O O9 0.139520 0.000000 0.860985
O O10 0.249879 0.749271 0.964120
O O11 0.488520 0.750356 0.164547
O O12 0.812540 0.765795 0.360238
O O13 0.578563 0.757164 0.309530
O O14 0.619142 0.000000 0.273965
O O15 0.598648 0.000000 0.927382
O O16 0.906945 0.500000 0.377307
O O17 0.122492 0.267760 0.491704
O O18 0.587408 0.500000 0.477781
O O19 0.606382 0.738604 0.424231
O O20 0.662035 0.500000 0.395483
#
# Coordination Sequence:
#
# PCOD8059842 Si02
#       8
#     4   4   4   4   4   4   4   4
#     4   9  16  27  46  71  96 125 160 193 225 268
#     4  10  19  31  50  76 100 121 150 191 235 276
#     4   9  16  27  47  72  97 124 154 192 235 277
#     4  10  20  32  49  71  94 123 159 197 231 268
#     4   8  15  28  45  68  96 125 157 190 229 275
#     4  10  19  31  46  66  97 130 156 188 231 278
#     4  10  20  35  52  69  95 128 155 185 232 286
#     4  10  21  34  49  68  91 125 162 192 231 281
#
# _framework density 17.833145999999999
#
# number of rings (size 3 to 8) (size 9 to 14) (size 15 to 20)
#    0.000    2.500    0.000    4.500    0.000    5.000 
#    0.000    0.625    0.000   15.000    0.000    5.250 
#    0.000    0.000    0.000    0.000    0.000    0.000 
#
# Total GULP energy -396707.695611 kJ/mol
# GULP energy per Si atom -12397.115488 kJ/mol
# Density = 1.779256 g / cm^3
# Si number density = 17.833146 Si / 1000 Ang^3
#
#
#
# Elastic Constant Matrix: (Units=GPa)
#
#
# Indices 1 2 3 4 5 6 
#
# 1 119.8664 20.2169 64.7981 0.0000 -19.6752 0.0000
# 2 20.2169 26.7433 18.0216 0.0000 -1.0186 0.0000
# 3 64.7981 18.0216 120.3472 0.0000 -7.2937 0.0000
# 4 0.0000 0.0000 0.0000 6.3373 0.0000 -2.3963
# 5 -19.6752 -1.0186 -7.2937 0.0000 19.7412 0.0000
# 6 0.0000 0.0000 0.0000 -2.3963 0.0000 26.7701
#
#
#
# Elastic Compliance Matrix: (Units=1/GPa)
#
#
# Indices 1 2 3 4 5 6 
#
# 1 0.014820 -0.006517 -0.006269 0.000000 0.012118 0.000000
# 2 -0.006517 0.044456 -0.003481 0.000000 -0.005487 0.000000
# 3 -0.006269 -0.003481 0.012087 0.000000 -0.001962 0.000000
# 4 0.000000 0.000000 0.000000 0.163323 0.000000 0.014620
# 5 0.012118 -0.005487 -0.001962 0.000000 0.061725 0.000000
# 6 0.000000 0.000000 0.000000 0.014620 0.000000 0.038664
#
#
# Mechanical properties :
#
#
# Convention : Reuss Voigt Hill
#
# Bulk Modulus (GPa) = 25.75403 52.55892 39.15648
# Shear Modulus (GPa) = 13.13885 21.49776 17.31830
#
# Velocity S-wave (km/s) = 2.71729 3.47579 3.11968
# Velocity P-wave (km/s) = 4.93132 6.75609 5.91450
#
# Compressibility (1/GPa) = 0.03882887
#
# Stress axis : x y z
#
# Youngs Moduli (GPa) = 67.47720 22.49429 82.73320
#
# Poissons Ratio (x) = 0.14660 0.51866
# Poissons Ratio (y) = 0.43975 0.28797
# Poissons Ratio (z) = 0.42302 0.07830
#
# Static dielectric constant tensor:
#      x y z
#    x 3.386570 0.000000 -0.187560 
#    y 0.000000 3.075340 0.000000 
#    z -0.187560 0.000000 3.620090 
# 
# 
# High freq. dielectric constant tensor:
#      x y z
#    x 1.680020 0.000000 -0.012040 
#    y 0.000000 1.670520 0.000000 
#    z -0.012040 0.000000 1.686560 
# 
# From -- ./inp_files/93140.got.cif
#   From: 2010.06.25/outbox.cif.g09.slc.cpg/sg10_47_cif.got.tgz:93140.got - 2010.06.27 22:07:45.
