data_PCOD8059876
_publ_section_title
;
Structure prediction by ZEFSAII (Michael W. Deem and Ramdas Pophale) SiO2 
 PCOD8059876
Probable space group: P 2/M
;
_chemical_formula_sum "Si O2"
_cell_formula_units_Z 30
_cell_length_a 31.363599
_cell_length_b 9.218057
_cell_length_c 11.913335
_cell_angle_alpha 90.000000
_cell_angle_beta 29.047622
_cell_angle_gamma 90.000000
_cell_volume 1672.324036
_symmetry_space_group_name_H-M "P 2/M"
_symmetry_group_IT_number 10
_symmetry_cell_setting 'monoclinic'
loop_
_space_group_symop_operation_xyz
x,y,z
-x,y,-z
-x,-y,-z
x,-y,z
loop_
_atom_site_type_symbol
_atom_site_label
_atom_site_fract_x
_atom_site_fract_y
_atom_site_fract_z
Si Si1 0.292516 0.162448 0.233031
Si Si2 0.639341 0.671868 0.328702
Si Si3 0.244825 0.170027 0.100115
Si Si4 0.506609 0.842646 0.234016
Si Si5 0.500000 0.746547 0.000000
Si Si6 0.303429 0.337548 0.424747
Si Si7 0.096150 0.167785 0.277965
Si Si8 0.760790 0.168956 0.223308
O O1 0.233752 0.197525 0.258419
O O2 0.276174 0.282566 0.364476
O O3 0.270950 0.000000 0.327968
O O4 0.392733 0.169874 0.963236
O O5 0.648010 0.500000 0.304470
O O6 0.539853 0.715776 0.588102
O O7 0.694870 0.737917 0.301643
O O8 0.670956 0.740867 0.138801
O O9 0.158489 0.230275 0.233682
O O10 0.259711 0.000000 0.038827
O O11 0.494157 0.838588 0.127432
O O12 0.469597 0.000000 0.356348
O O13 0.408917 0.656488 0.201940
O O14 0.267769 0.500000 0.521603
O O15 0.248320 0.230812 0.631323
O O16 0.000000 0.244476 0.500000
O O17 0.082828 0.000000 0.335970
O O18 0.141215 0.190585 0.052259
O O19 0.734080 0.000000 0.282878
#
# Coordination Sequence:
#
# PCOD8059876 Si02
#       8
#     4   4   4   4   2   4   4   4
#     4   9  20  35  50  70  96 134 178 210 245 296
#     4  11  21  31  47  71 100 132 169 213 257 298
#     4   9  18  35  55  73  99 132 165 205 251 304
#     4  10  19  31  47  67  94 131 176 216 251 292
#     4  10  20  30  48  68  98 134 174 220 254 290
#     4  11  21  32  49  73 104 136 172 215 257 295
#     4   8  15  30  56  86 105 121 154 206 262 307
#     4  10  19  32  52  76 104 134 167 208 256 305
#
# _framework density 17.939105999999999
#
# number of rings (size 3 to 8) (size 9 to 14) (size 15 to 20)
#    0.000    2.267    1.333    3.200    0.000    4.267 
#    0.000    2.667    0.000   10.800    0.000    5.600 
#    0.000    0.000    0.000    0.000    0.000    0.000 
#
# Total GULP energy -371781.752951 kJ/mol
# GULP energy per Si atom -12392.725098 kJ/mol
# Density = 1.789828 g / cm^3
# Si number density = 17.939106 Si / 1000 Ang^3
#
#
#
# Elastic Constant Matrix: (Units=GPa)
#
#
# Indices 1 2 3 4 5 6 
#
# 1 90.5681 29.4268 35.6525 0.0000 7.1420 0.0000
# 2 29.4268 98.0660 25.6711 0.0000 7.0487 0.0000
# 3 35.6525 25.6711 70.3505 0.0000 2.6162 0.0000
# 4 0.0000 0.0000 0.0000 9.2494 0.0000 5.2410
# 5 7.1420 7.0487 2.6162 0.0000 16.5788 0.0000
# 6 0.0000 0.0000 0.0000 5.2410 0.0000 16.7209
#
#
#
# Elastic Compliance Matrix: (Units=1/GPa)
#
#
# Indices 1 2 3 4 5 6 
#
# 1 0.014686 -0.002424 -0.006399 0.000000 -0.004286 0.000000
# 2 -0.002424 0.011968 -0.003006 0.000000 -0.003570 0.000000
# 3 -0.006399 -0.003006 0.018513 0.000000 0.001113 0.000000
# 4 0.000000 0.000000 0.000000 0.131464 0.000000 -0.041206
# 5 -0.004286 -0.003570 0.001113 0.000000 0.063506 0.000000
# 6 0.000000 0.000000 0.000000 -0.041206 0.000000 0.072721
#
#
# Mechanical properties :
#
#
# Convention : Reuss Voigt Hill
#
# Bulk Modulus (GPa) = 46.49083 48.94283 47.71683
# Shear Modulus (GPa) = 14.54820 19.72544 17.13682
#
# Velocity S-wave (km/s) = 2.85086 3.31959 3.09411
# Velocity P-wave (km/s) = 6.06702 6.48343 6.27868
#
# Compressibility (1/GPa) = 0.02150962
#
# Stress axis : x y z
#
# Youngs Moduli (GPa) = 68.09306 83.55612 54.01654
#
# Poissons Ratio (x) = 0.20251 0.34564
# Poissons Ratio (y) = 0.16504 0.16238
# Poissons Ratio (z) = 0.43571 0.25118
#
# Static dielectric constant tensor:
#      x y z
#    x 3.291200 0.000000 0.042870 
#    y 0.000000 3.165560 0.000000 
#    z 0.042870 0.000000 3.380510 
# 
# 
# High freq. dielectric constant tensor:
#      x y z
#    x 1.682820 0.000000 0.016970 
#    y 0.000000 1.680730 0.000000 
#    z 0.016970 0.000000 1.671080 
# 
# From -- ./inp_files/57993.got.cif
#   From: 2010.06.25/outbox.cif.g09.slc.cpg/sg10_29_cif.got.tgz:57993.got - 2010.06.27 22:07:45.
