data_PCOD8059411
_publ_section_title
;
Structure prediction by ZEFSAII (Michael W. Deem and Ramdas Pophale) SiO2 
 PCOD8059411
Probable space group: P 2/M
;
_chemical_formula_sum "Si O2"
_cell_formula_units_Z 28
_cell_length_a 22.108333
_cell_length_b 9.063459
_cell_length_c 10.281584
_cell_angle_alpha 90.000000
_cell_angle_beta 51.681556
_cell_angle_gamma 90.000000
_cell_volume 1616.387457
_symmetry_space_group_name_H-M "P 2/M"
_symmetry_group_IT_number 10
_symmetry_cell_setting 'monoclinic'
loop_
_space_group_symop_operation_xyz
x,y,z
-x,y,-z
-x,-y,-z
x,-y,z
loop_
_atom_site_type_symbol
_atom_site_label
_atom_site_fract_x
_atom_site_fract_y
_atom_site_fract_z
Si Si1 0.041091 0.829870 0.310559
Si Si2 0.644160 0.166619 0.478978
Si Si3 0.056769 0.171888 0.809667
Si Si4 0.202549 0.326937 0.712130
Si Si5 0.191194 0.672768 0.028220
Si Si6 0.656099 0.166489 0.154120
Si Si7 0.493981 0.666805 0.662913
O O1 0.116274 0.729199 0.202749
O O2 0.000000 0.794327 0.500000
O O3 0.981958 0.789515 0.275386
O O4 0.066795 0.000000 0.265460
O O5 0.718007 0.250927 0.438229
O O6 0.647806 0.167526 0.319387
O O7 0.566937 0.249612 0.628457
O O8 0.642899 0.000000 0.534501
O O9 0.134930 0.264860 0.712106
O O10 0.077314 0.000000 0.796357
O O11 0.000000 0.223011 0.000000
O O12 0.211377 0.500000 0.678899
O O13 0.183039 0.287334 0.887219
O O14 0.201105 0.500000 0.036791
O O15 0.265513 0.751692 0.991358
O O16 0.583676 0.251110 0.187479
O O17 0.657894 0.000000 0.097784
O O18 0.500000 0.667834 0.500000
O O19 0.492344 0.500000 0.717925
#
# Coordination Sequence:
#
# PCOD8059411 Si02
#       7
#     4   4   4   4   4   4   4
#     4  10  21  36  52  70  94 124 158 198 243 288
#     4   9  16  25  38  57  85 120 156 192 233 281
#     4  10  19  32  51  71  92 121 159 198 237 285
#     4  10  19  29  44  67  93 121 156 197 239 281
#     4  10  19  30  45  66  92 121 156 197 240 284
#     4   9  16  25  39  58  83 118 158 194 231 280
#     4   9  15  23  35  54  84 119 154 191 234 281
#
# _framework density 17.322579999999999
#
# number of rings (size 3 to 8) (size 9 to 14) (size 15 to 20)
#    0.000    2.429    1.429    2.143    0.000    7.429 
#    0.000    0.000    0.000    0.000    0.000    0.000 
#    0.000    1.143    0.000   12.286    0.000    9.429 
#
# Total GULP energy -347254.698724 kJ/mol
# GULP energy per Si atom -12401.953526 kJ/mol
# Density = 1.728315 g / cm^3
# Si number density = 17.322580 Si / 1000 Ang^3
#
#
#
# Elastic Constant Matrix: (Units=GPa)
#
#
# Indices 1 2 3 4 5 6 
#
# 1 98.3400 60.5796 61.0909 0.0000 -34.9298 0.0000
# 2 60.5796 129.3137 53.0692 0.0000 -32.4676 0.0000
# 3 61.0909 53.0692 66.2457 0.0000 -24.1215 0.0000
# 4 0.0000 0.0000 0.0000 22.1314 0.0000 -15.0379
# 5 -34.9298 -32.4676 -24.1215 0.0000 37.4635 0.0000
# 6 0.0000 0.0000 0.0000 -15.0379 0.0000 25.6128
#
#
#
# Elastic Compliance Matrix: (Units=1/GPa)
#
#
# Indices 1 2 3 4 5 6 
#
# 1 0.027800 -0.002005 -0.019888 0.000000 0.011377 0.000000
# 2 -0.002005 0.012524 -0.006417 0.000000 0.004853 0.000000
# 3 -0.019888 -0.006417 0.038925 0.000000 0.000959 0.000000
# 4 0.000000 0.000000 0.000000 0.075175 0.000000 0.044137
# 5 0.011377 0.004853 0.000959 0.000000 0.042123 0.000000
# 6 0.000000 0.000000 0.000000 0.044137 0.000000 0.064957
#
#
# Mechanical properties :
#
#
# Convention : Reuss Voigt Hill
#
# Bulk Modulus (GPa) = 44.18990 71.48653 57.83822
# Shear Modulus (GPa) = 15.35310 24.98550 20.16930
#
# Velocity S-wave (km/s) = 2.98032 3.80197 3.41594
# Velocity P-wave (km/s) = 6.11624 7.78657 7.00140
#
# Compressibility (1/GPa) = 0.02262960
#
# Stress axis : x y z
#
# Youngs Moduli (GPa) = 35.97185 79.84351 25.69030
#
# Poissons Ratio (x) = 0.16010 0.51092
# Poissons Ratio (y) = 0.07213 0.16486
# Poissons Ratio (z) = 0.71539 0.51237
#
# Static dielectric constant tensor:
#      x y z
#    x 3.079390 0.000000 -0.374770 
#    y 0.000000 3.332340 0.000000 
#    z -0.374770 0.000000 2.892370 
# 
# 
# High freq. dielectric constant tensor:
#      x y z
#    x 1.649530 0.000000 -0.047520 
#    y 0.000000 1.682750 0.000000 
#    z -0.047520 0.000000 1.628030 
# 
# From -- ./inp_files/54685.got.cif
#   From: 2010.06.25/outbox.cif.g09.slc.cpg/sg10_28_cif.got.tgz:54685.got - 2010.06.27 22:07:45.
