data_PCOD8059139
_publ_section_title
;
Structure prediction by ZEFSAII (Michael W. Deem and Ramdas Pophale) SiO2 
 PCOD8059139
Probable space group: P 2/M
;
_chemical_formula_sum "Si O2"
_cell_formula_units_Z 32
_cell_length_a 19.908146
_cell_length_b 8.882239
_cell_length_c 13.100572
_cell_angle_alpha 90.000000
_cell_angle_beta 45.687622
_cell_angle_gamma 90.000000
_cell_volume 1657.595503
_symmetry_space_group_name_H-M "P 2/M"
_symmetry_group_IT_number 10
_symmetry_cell_setting 'monoclinic'
loop_
_space_group_symop_operation_xyz
x,y,z
-x,y,-z
-x,-y,-z
x,-y,z
loop_
_atom_site_type_symbol
_atom_site_label
_atom_site_fract_x
_atom_site_fract_y
_atom_site_fract_z
Si Si1 0.599680 0.320721 0.596085
Si Si2 0.387657 0.319893 0.820741
Si Si3 0.271754 0.322785 0.356893
Si Si4 0.904040 0.675119 0.155089
Si Si5 0.907516 0.822633 0.365129
Si Si6 0.705812 0.675939 0.285096
Si Si7 0.733624 0.677175 0.864482
Si Si8 0.055329 0.321861 0.340118
O O1 0.600321 0.500000 0.593588
O O2 0.493858 0.258410 0.709101
O O3 0.651567 0.263728 0.643569
O O4 0.653426 0.254819 0.439854
O O5 0.386664 0.500000 0.822467
O O6 0.335898 0.254929 0.774868
O O7 0.334790 0.254177 0.976627
O O8 0.253008 0.500000 0.389765
O O9 0.173227 0.240733 0.476245
O O10 0.306923 0.284266 0.204989
O O11 0.907207 0.500000 0.183410
O O12 0.886350 0.774099 0.272753
O O13 0.817292 0.707383 0.170917
O O14 0.000000 0.726200 0.000000
O O15 0.007216 0.755131 0.293652
O O16 0.910214 0.000000 0.370381
O O17 0.684627 0.500000 0.307400
O O18 0.738568 0.500000 0.874438
O O19 0.838789 0.740962 0.765966
O O20 0.052280 0.500000 0.327949
O O21 0.000000 0.272458 0.500000
#
# Coordination Sequence:
#
# PCOD8059139 Si02
#       8
#     4   4   4   4   4   4   4   4
#     4   9  16  27  48  74 107 143 173 220 271 323
#     4   9  17  27  43  78 114 137 169 219 284 323
#     4  10  18  34  55  77 107 143 184 221 263 320
#     4  10  21  36  57  82 106 139 182 224 268 325
#     4  12  24  36  53  79 111 144 178 226 273 322
#     4   9  16  28  47  74 108 139 171 214 265 321
#     4   9  18  30  48  75 108 141 175 223 270 318
#     4  10  19  34  56  77 104 143 181 220 265 320
#
# _framework density 19.305073
#
# number of rings (size 3 to 8) (size 9 to 14) (size 15 to 20)
#    0.000    2.250    2.500    1.500    1.750    2.500 
#    0.000    2.500    0.000    0.000    0.000    4.375 
#    0.000    0.000    0.000    0.000    0.000    0.000 
#
# Total GULP energy -396779.558359 kJ/mol
# GULP energy per Si atom -12399.361199 kJ/mol
# Density = 1.926113 g / cm^3
# Si number density = 19.305073 Si / 1000 Ang^3
#
#
#
# Elastic Constant Matrix: (Units=GPa)
#
#
# Indices 1 2 3 4 5 6 
#
# 1 157.0614 13.8294 77.9740 0.0000 2.3353 0.0000
# 2 13.8294 24.5272 10.9144 0.0000 0.9894 0.0000
# 3 77.9740 10.9144 150.5787 0.0000 -4.4929 0.0000
# 4 0.0000 0.0000 0.0000 3.9512 0.0000 0.8410
# 5 2.3353 0.9894 -4.4929 0.0000 38.3814 0.0000
# 6 0.0000 0.0000 0.0000 0.8410 0.0000 3.9072
#
#
#
# Elastic Compliance Matrix: (Units=1/GPa)
#
#
# Indices 1 2 3 4 5 6 
#
# 1 0.008818 -0.002984 -0.004379 0.000000 -0.000972 0.000000
# 2 -0.002984 0.043220 -0.001621 0.000000 -0.001122 0.000000
# 3 -0.004379 -0.001621 0.009067 0.000000 0.001370 0.000000
# 4 0.000000 0.000000 0.000000 0.265240 0.000000 -0.057091
# 5 -0.000972 -0.001122 0.001370 0.000000 0.026303 0.000000
# 6 0.000000 0.000000 0.000000 -0.057091 0.000000 0.268226
#
#
# Mechanical properties :
#
#
# Convention : Reuss Voigt Hill
#
# Bulk Modulus (GPa) = 23.18189 59.73365 41.45777
# Shear Modulus (GPa) = 7.65438 24.54459 16.09949
#
# Velocity S-wave (km/s) = 1.99338 3.56955 2.89095
# Velocity P-wave (km/s) = 4.16321 6.92806 5.71535
#
# Compressibility (1/GPa) = 0.04313712
#
# Stress axis : x y z
#
# Youngs Moduli (GPa) = 113.40284 23.13734 110.29054
#
# Poissons Ratio (x) = 0.06905 0.48296
# Poissons Ratio (y) = 0.33841 0.17877
# Poissons Ratio (z) = 0.49659 0.03750
#
# Static dielectric constant tensor:
#      x y z
#    x 3.762710 0.000000 0.006590 
#    y 0.000000 2.831260 0.000000 
#    z 0.006590 0.000000 3.743490 
# 
# 
# High freq. dielectric constant tensor:
#      x y z
#    x 1.768220 0.000000 0.003650 
#    y 0.000000 1.676730 0.000000 
#    z 0.003650 0.000000 1.755910 
# 
# From -- ./inp_files/55192.got.cif
#   From: 2010.06.25/outbox.cif.g09.slc.cpg/sg10_28_cif.got.tgz:55192.got - 2010.06.27 22:07:45.
