data_PCOD8059616
_publ_section_title
;
Structure prediction by ZEFSAII (Michael W. Deem and Ramdas Pophale) SiO2 
 PCOD8059616
Probable space group: P 2/M
;
_chemical_formula_sum "Si O2"
_cell_formula_units_Z 28
_cell_length_a 14.338505
_cell_length_b 8.832070
_cell_length_c 17.784981
_cell_angle_alpha 90.000000
_cell_angle_beta 136.498186
_cell_angle_gamma 90.000000
_cell_volume 1550.409685
_symmetry_space_group_name_H-M "P 2/M"
_symmetry_group_IT_number 10
_symmetry_cell_setting 'monoclinic'
loop_
_space_group_symop_operation_xyz
x,y,z
-x,y,-z
-x,-y,-z
x,-y,z
loop_
_atom_site_type_symbol
_atom_site_label
_atom_site_fract_x
_atom_site_fract_y
_atom_site_fract_z
Si Si1 0.826940 0.319285 0.667168
Si Si2 0.584756 0.321469 0.234476
Si Si3 0.643038 0.821285 0.117102
Si Si4 0.375969 0.320881 0.575720
Si Si5 0.323274 0.680595 0.274127
Si Si6 0.868341 0.679808 0.144805
Si Si7 0.716552 0.321073 0.912233
O O1 0.824757 0.500000 0.667926
O O2 0.742753 0.255161 0.546734
O O3 0.760060 0.253242 0.704328
O O4 0.980606 0.260754 0.750302
O O5 0.596169 0.500000 0.226061
O O6 0.661339 0.232648 0.213537
O O7 0.652285 0.276522 0.354032
O O8 0.429456 0.264647 0.144199
O O9 0.767119 0.752753 0.144289
O O10 0.651427 0.000000 0.117437
O O11 0.500000 0.761631 0.000000
O O12 0.379720 0.500000 0.570691
O O13 0.521803 0.259275 0.632912
O O14 0.322560 0.500000 0.276945
O O15 0.254381 0.738427 0.155565
O O16 0.857249 0.500000 0.145708
O O17 0.830440 0.732885 0.037685
O O18 0.709843 0.500000 0.903972
#
# Coordination Sequence:
#
# PCOD8059616 Si02
#       7
#     4   4   4   4   4   4   4
#     4   9  16  25  40  67 100 131 158 186 224 269
#     4   9  16  29  50  71  93 121 153 192 232 273
#     4  11  22  34  50  71  91 115 153 198 240 283
#     4   8  14  25  43  68  97 127 158 189 224 266
#     4   8  13  22  39  65  99 131 155 186 226 266
#     4  10  19  30  46  69  99 128 154 188 231 280
#     4   8  14  24  40  66  95 123 153 185 228 273
#
# _framework density 18.059742
#
# number of rings (size 3 to 8) (size 9 to 14) (size 15 to 20)
#    0.000    3.000    1.429    2.571    0.000    2.857 
#    0.000    3.571    0.000    5.143    0.000    6.000 
#    0.000    5.714    0.000    0.000    0.000    0.000 
#
# Total GULP energy -347013.556538 kJ/mol
# GULP energy per Si atom -12393.341305 kJ/mol
# Density = 1.801864 g / cm^3
# Si number density = 18.059742 Si / 1000 Ang^3
#
#
#
# Elastic Constant Matrix: (Units=GPa)
#
#
# Indices 1 2 3 4 5 6 
#
# 1 145.3581 21.5678 102.2076 0.0000 -9.1063 0.0000
# 2 21.5678 12.8057 24.1868 0.0000 -1.4003 0.0000
# 3 102.2076 24.1868 156.6436 0.0000 -4.4295 0.0000
# 4 0.0000 0.0000 0.0000 7.1643 0.0000 3.6881
# 5 -9.1063 -1.4003 -4.4295 0.0000 28.1455 0.0000
# 6 0.0000 0.0000 0.0000 3.6881 0.0000 -2.0717
#
#
#
# Elastic Compliance Matrix: (Units=1/GPa)
#
#
# Indices 1 2 3 4 5 6 
#
# 1 0.013552 -0.008424 -0.007463 0.000000 0.002791 0.000000
# 2 -0.008424 0.115700 -0.012337 0.000000 0.001089 0.000000
# 3 -0.007463 -0.012337 0.013131 0.000000 -0.000962 0.000000
# 4 0.000000 0.000000 0.000000 0.072833 0.000000 0.129660
# 5 0.002791 0.001089 -0.000962 0.000000 0.036335 0.000000
# 6 0.000000 0.000000 0.000000 0.129660 0.000000 -0.251873
#
#
# Mechanical properties :
#
#
# Convention : Reuss Voigt Hill
#
# Bulk Modulus (GPa) = 11.63678 67.85908 39.74793
# Shear Modulus (GPa) = 58.98202 17.77065 38.37634
#
# Velocity S-wave (km/s) = 5.72104 3.14027 4.61474
# Velocity P-wave (km/s) = 7.07798 7.12774 7.10291
#
# Compressibility (1/GPa) = 0.08593444
#
# Stress axis : x y z
#
# Youngs Moduli (GPa) = 73.79204 8.64304 76.15613
#
# Poissons Ratio (x) = 0.07281 0.56832
# Poissons Ratio (y) = 0.62162 0.93958
# Poissons Ratio (z) = 0.55068 0.10663
#
# Static dielectric constant tensor:
#      x y z
#    x 3.386200 0.000000 -0.187080 
#    y 0.000000 2.678630 0.000000 
#    z -0.187080 0.000000 3.847940 
# 
# 
# High freq. dielectric constant tensor:
#      x y z
#    x 1.699030 0.000000 -0.016790 
#    y 0.000000 1.631510 0.000000 
#    z -0.016790 0.000000 1.703960 
# 
# From -- ./inp_files/55569.got.cif
#   From: 2010.06.25/outbox.cif.g09.slc.cpg/sg10_28_cif.got.tgz:55569.got - 2010.06.27 22:07:45.
