data_PCOD8059115
_publ_section_title
;
Structure prediction by ZEFSAII (Michael W. Deem and Ramdas Pophale) SiO2 
 PCOD8059115
Probable space group: P 2/M
;
_chemical_formula_sum "Si O2"
_cell_formula_units_Z 28
_cell_length_a 9.598638
_cell_length_b 13.517211
_cell_length_c 12.300666
_cell_angle_alpha 90.000000
_cell_angle_beta 66.770913
_cell_angle_gamma 90.000000
_cell_volume 1466.595117
_symmetry_space_group_name_H-M "P 2/M"
_symmetry_group_IT_number 10
_symmetry_cell_setting 'monoclinic'
loop_
_space_group_symop_operation_xyz
x,y,z
-x,y,-z
-x,-y,-z
x,-y,z
loop_
_atom_site_type_symbol
_atom_site_label
_atom_site_fract_x
_atom_site_fract_y
_atom_site_fract_z
Si Si1 0.420784 0.275855 0.273736
Si Si2 0.151569 0.892572 0.001845
Si Si3 0.286659 0.616678 0.899507
Si Si4 0.351252 0.111945 0.736808
Si Si5 0.147057 0.715173 0.741868
Si Si6 0.665924 0.388058 0.496301
Si Si7 0.202378 0.272389 0.138814
O O1 0.548392 0.351994 0.193690
O O2 0.491622 0.172792 0.297659
O O3 0.320172 0.321552 0.400930
O O4 0.308105 0.263465 0.209399
O O5 0.219612 0.834312 0.080555
O O6 0.100403 0.000000 0.060568
O O7 0.286200 0.901008 0.876092
O O8 0.000000 0.839494 0.000000
O O9 0.267553 0.500000 0.892940
O O10 0.168164 0.673226 0.857912
O O11 0.257069 0.645288 0.034505
O O12 0.228706 0.176606 0.705036
O O13 0.376924 0.000000 0.679284
O O14 0.216473 0.642413 0.631993
O O15 0.969984 0.714624 0.770164
O O16 0.500000 0.374857 0.500000
O O17 0.700975 0.500000 0.519203
#
# Coordination Sequence:
#
# PCOD8059115 Si02
#       7
#     4   4   4   4   4   4   4
#     4  11  24  39  59  86 122 156 199 241 300 349
#     4  10  18  33  59  89 121 160 196 234 288 359
#     4  11  22  38  59  84 116 156 196 241 302 361
#     4  10  20  36  60  89 118 151 198 239 287 354
#     4  11  22  39  63  87 117 152 204 246 292 341
#     4  11  22  42  67  85 108 157 212 249 284 346
#     4  12  23  37  56  91 129 154 181 250 305 360
#
# _framework density 19.091840000000001
#
# number of rings (size 3 to 8) (size 9 to 14) (size 15 to 20)
#    0.000    1.143    7.143    1.714    0.000    4.571 
#    0.000    3.571    0.000    0.000    0.000    3.000 
#    0.000    0.000    0.000    0.000    0.000    0.000 
#
# Total GULP energy -347084.025002 kJ/mol
# GULP energy per Si atom -12395.858036 kJ/mol
# Density = 1.904839 g / cm^3
# Si number density = 19.091840 Si / 1000 Ang^3
#
#
#
# Elastic Constant Matrix: (Units=GPa)
#
#
# Indices 1 2 3 4 5 6 
#
# 1 62.7774 19.6714 9.6581 0.0000 -1.3910 0.0000
# 2 19.6714 118.8640 16.4091 0.0000 5.8789 0.0000
# 3 9.6581 16.4091 65.7939 0.0000 0.9607 0.0000
# 4 0.0000 0.0000 0.0000 22.5950 0.0000 -1.7753
# 5 -1.3910 5.8789 0.9607 0.0000 25.0163 0.0000
# 6 0.0000 0.0000 0.0000 -1.7753 0.0000 10.4050
#
#
#
# Elastic Compliance Matrix: (Units=1/GPa)
#
#
# Indices 1 2 3 4 5 6 
#
# 1 0.017084 -0.002650 -0.001871 0.000000 0.001645 0.000000
# 2 -0.002650 0.009222 -0.001878 0.000000 -0.002242 0.000000
# 3 -0.001871 -0.001878 0.015946 0.000000 -0.000275 0.000000
# 4 0.000000 0.000000 0.000000 0.044859 0.000000 0.007654
# 5 0.001645 -0.002242 -0.000275 0.000000 0.040603 0.000000
# 6 0.000000 0.000000 0.000000 0.007654 0.000000 0.097413
#
#
# Mechanical properties :
#
#
# Convention : Reuss Voigt Hill
#
# Bulk Modulus (GPa) = 33.95221 37.65695 35.80458
# Shear Modulus (GPa) = 20.18220 25.04972 22.61596
#
# Velocity S-wave (km/s) = 3.25485 3.62617 3.44552
# Velocity P-wave (km/s) = 5.65223 6.10730 5.88416
#
# Compressibility (1/GPa) = 0.02945316
#
# Stress axis : x y z
#
# Youngs Moduli (GPa) = 58.53404 108.43883 62.71158
#
# Poissons Ratio (x) = 0.28741 0.11732
# Poissons Ratio (y) = 0.15514 0.11778
# Poissons Ratio (z) = 0.10951 0.20366
#
# Static dielectric constant tensor:
#      x y z
#    x 11.659590 0.000000 -0.917730 
#    y 0.000000 3.972970 0.000000 
#    z -0.917730 0.000000 3.619590 
# 
# 
# High freq. dielectric constant tensor:
#      x y z
#    x 1.726940 0.000000 -0.010720 
#    y 0.000000 1.752030 0.000000 
#    z -0.010720 0.000000 1.732510 
# 
# From -- ./inp_files/42652.got.cif
#   From: 2010.06.25/outbox.cif.g09.slc.cpg/sg10_22_cif.got.tgz:42652.got - 2010.06.27 22:07:45.
