data_PCOD8059442
_publ_section_title
;
Structure prediction by ZEFSAII (Michael W. Deem and Ramdas Pophale) SiO2 
 PCOD8059442
Probable space group: P 2/M
;
_chemical_formula_sum "Si O2"
_cell_formula_units_Z 32
_cell_length_a 8.231066
_cell_length_b 17.383516
_cell_length_c 21.882555
_cell_angle_alpha 90.000000
_cell_angle_beta 34.318809
_cell_angle_gamma 90.000000
_cell_volume 1765.284290
_symmetry_space_group_name_H-M "P 2/M"
_symmetry_group_IT_number 10
_symmetry_cell_setting 'monoclinic'
loop_
_space_group_symop_operation_xyz
x,y,z
-x,y,-z
-x,-y,-z
x,-y,z
loop_
_atom_site_type_symbol
_atom_site_label
_atom_site_fract_x
_atom_site_fract_y
_atom_site_fract_z
Si Si1 0.122864 0.586592 0.548890
Si Si2 0.393207 0.911875 0.394627
Si Si3 0.311178 0.589213 0.878085
Si Si4 0.651234 0.309159 0.355407
Si Si5 0.379995 0.313126 0.315349
Si Si6 0.753049 0.851738 0.378120
Si Si7 0.876422 0.154317 0.630065
Si Si8 0.881935 0.584246 0.760249
O O1 0.179149 0.500000 0.508021
O O2 0.418925 0.633343 0.456529
O O3 0.864440 0.624768 0.589124
O O4 0.010891 0.587495 0.652484
O O5 0.710997 0.895076 0.325397
O O6 0.375945 0.893596 0.326740
O O7 0.168424 0.855091 0.499067
O O8 0.304794 0.000000 0.432441
O O9 0.326163 0.500000 0.851214
O O10 0.379967 0.646916 0.801389
O O11 0.541558 0.602867 0.861147
O O12 0.000000 0.611135 0.000000
O O13 0.536893 0.278698 0.326053
O O14 0.720155 0.239461 0.379285
O O15 0.950456 0.354568 0.250179
O O16 0.214367 0.242888 0.334517
O O17 0.500000 0.883206 0.500000
O O18 0.051639 0.871722 0.321882
O O19 0.927015 0.500000 0.775387
#
# Coordination Sequence:
#
# PCOD8059442 Si02
#       8
#     4   4   4   4   4   4   4   4
#     4  10  20  30  41  62  96 136 171 201 242 297
#     4  10  20  33  48  72 104 141 183 212 242 293
#     4   9  19  38  57  70  90 126 173 226 280 325
#     4  12  20  29  44  70 103 135 169 210 248 302
#     4  11  21  31  49  69  98 130 175 216 256 306
#     4  10  19  29  46  65  95 139 179 205 244 284
#     4  10  19  32  47  67  98 136 171 209 251 291
#     4   9  18  31  46  66  91 126 170 210 254 307
#
# _framework density 18.127390999999999
#
# number of rings (size 3 to 8) (size 9 to 14) (size 15 to 20)
#    0.000    1.875    1.250    6.750    1.750    6.250 
#    0.000    0.625    0.000    2.250    0.000    0.000 
#    0.000    2.000    0.000    3.750    0.000    0.250 
#
# Total GULP energy -396497.599442 kJ/mol
# GULP energy per Si atom -12390.549983 kJ/mol
# Density = 1.808613 g / cm^3
# Si number density = 18.127391 Si / 1000 Ang^3
#
#
#
# Elastic Constant Matrix: (Units=GPa)
#
#
# Indices 1 2 3 4 5 6 
#
# 1 151.9357 33.1006 15.2613 0.0000 -16.0175 0.0000
# 2 33.1006 75.3707 28.9314 0.0000 -5.2491 0.0000
# 3 15.2613 28.9314 61.2663 0.0000 -14.9225 0.0000
# 4 0.0000 0.0000 0.0000 10.7886 0.0000 0.6605
# 5 -16.0175 -5.2491 -14.9225 0.0000 17.5171 0.0000
# 6 0.0000 0.0000 0.0000 0.6605 0.0000 21.2366
#
#
#
# Elastic Compliance Matrix: (Units=1/GPa)
#
#
# Indices 1 2 3 4 5 6 
#
# 1 0.008003 -0.003578 0.001536 0.000000 0.007555 0.000000
# 2 -0.003578 0.017867 -0.008881 0.000000 -0.005484 0.000000
# 3 0.001536 -0.008881 0.025019 0.000000 0.020056 0.000000
# 4 0.000000 0.000000 0.000000 0.092867 0.000000 -0.002888
# 5 0.007555 -0.005484 0.020056 0.000000 0.079437 0.000000
# 6 0.000000 0.000000 0.000000 -0.002888 0.000000 0.047178
#
#
# Mechanical properties :
#
#
# Convention : Reuss Voigt Hill
#
# Bulk Modulus (GPa) = 34.43357 49.23991 41.83674
# Shear Modulus (GPa) = 16.56183 23.99376 20.27779
#
# Velocity S-wave (km/s) = 3.02592 3.64210 3.34822
# Velocity P-wave (km/s) = 5.58971 6.70140 6.17064
#
# Compressibility (1/GPa) = 0.02904143
#
# Stress axis : x y z
#
# Youngs Moduli (GPa) = 124.94588 55.97049 39.97024
#
# Poissons Ratio (x) = 0.20029 -0.06141
# Poissons Ratio (y) = 0.44711 0.35499
# Poissons Ratio (z) = -0.19195 0.49710
#
# Static dielectric constant tensor:
#      x y z
#    x 4.030460 0.000000 -0.304820 
#    y 0.000000 3.287420 0.000000 
#    z -0.304820 0.000000 2.811680 
# 
# 
# High freq. dielectric constant tensor:
#      x y z
#    x 1.729000 0.000000 -0.021170 
#    y 0.000000 1.697990 0.000000 
#    z -0.021170 0.000000 1.613980 
# 
# From -- ./inp_files/36456.got.cif
#   From: 2010.06.25/outbox.cif.g09.slc.cpg/sg10_19_cif.got.tgz:36456.got - 2010.06.27 22:07:45.
