data_PCOD8059974
_publ_section_title
;
Structure prediction by ZEFSAII (Michael W. Deem and Ramdas Pophale) SiO2 
 PCOD8059974
Probable space group: P 2/M
;
_chemical_formula_sum "Si O2"
_cell_formula_units_Z 24
_cell_length_a 23.182035
_cell_length_b 8.761019
_cell_length_c 11.772029
_cell_angle_alpha 90.000000
_cell_angle_beta 33.927855
_cell_angle_gamma 90.000000
_cell_volume 1334.465387
_symmetry_space_group_name_H-M "P 2/M"
_symmetry_group_IT_number 10
_symmetry_cell_setting 'monoclinic'
loop_
_space_group_symop_operation_xyz
x,y,z
-x,y,-z
-x,-y,-z
x,-y,z
loop_
_atom_site_type_symbol
_atom_site_label
_atom_site_fract_x
_atom_site_fract_y
_atom_site_fract_z
Si Si1 0.118045 0.319474 0.302164
Si Si2 0.259218 0.178560 0.887170
Si Si3 0.715416 0.824297 0.820518
Si Si4 0.650070 0.325816 0.465016
Si Si5 0.581063 0.675320 0.217863
Si Si6 0.607196 0.174860 0.771512
O O1 0.128783 0.500000 0.292502
O O2 0.176126 0.246244 0.315717
O O3 0.000000 0.265659 0.500000
O O4 0.166500 0.262536 0.104539
O O5 0.264924 0.232544 0.746546
O O6 0.367617 0.220920 0.769359
O O7 0.238725 0.000000 0.924890
O O8 0.700520 0.809710 0.709716
O O9 0.710540 0.000000 0.867961
O O10 0.620551 0.732742 0.031382
O O11 0.685708 0.500000 0.410326
O O12 0.541403 0.307526 0.577751
O O13 0.643142 0.268728 0.604462
O O14 0.614913 0.500000 0.181774
O O15 0.589554 0.000000 0.763250
O O16 0.500000 0.238365 0.000000
#
# Coordination Sequence:
#
# PCOD8059974 Si02
#       6
#     4   4   4   4   4   4
#     4  10  21  38  60  82 105 133 168 218 273 320
#     4  11  22  34  52  76 104 137 174 218 267 316
#     4  10  19  32  53  79 107 140 177 219 260 304
#     4  11  22  33  49  73 106 146 182 216 256 307
#     4  10  19  31  48  72 105 141 178 217 256 306
#     4  10  20  34  51  74 109 147 183 217 252 304
#
# _framework density 17.984731
#
# number of rings (size 3 to 8) (size 9 to 14) (size 15 to 20)
#    0.000    1.667    1.667    6.000    0.000    7.000 
#    0.000    0.000    0.000    1.000    0.000    7.000 
#    0.000    0.000    0.000    0.000    0.000    0.000 
#
# Total GULP energy -297599.610252 kJ/mol
# GULP energy per Si atom -12399.983761 kJ/mol
# Density = 1.794380 g / cm^3
# Si number density = 17.984731 Si / 1000 Ang^3
#
#
#
# Elastic Constant Matrix: (Units=GPa)
#
#
# Indices 1 2 3 4 5 6 
#
# 1 67.8344 31.8523 54.7021 0.0000 4.8838 0.0000
# 2 31.8523 77.6252 34.1299 0.0000 -3.7572 0.0000
# 3 54.7021 34.1299 97.6754 0.0000 6.0165 0.0000
# 4 0.0000 0.0000 0.0000 22.4238 0.0000 6.4236
# 5 4.8838 -3.7572 6.0165 0.0000 27.7431 0.0000
# 6 0.0000 0.0000 0.0000 6.4236 0.0000 21.5086
#
#
#
# Elastic Compliance Matrix: (Units=1/GPa)
#
#
# Indices 1 2 3 4 5 6 
#
# 1 0.029013 -0.005881 -0.014017 0.000000 -0.002864 0.000000
# 2 -0.005881 0.016709 -0.002785 0.000000 0.003902 0.000000
# 3 -0.014017 -0.002785 0.019189 0.000000 -0.002071 0.000000
# 4 0.000000 0.000000 0.000000 0.048768 0.000000 -0.014565
# 5 -0.002864 0.003902 -0.002071 0.000000 0.037527 0.000000
# 6 0.000000 0.000000 0.000000 -0.014565 0.000000 0.050843
#
#
# Mechanical properties :
#
#
# Convention : Reuss Voigt Hill
#
# Bulk Modulus (GPa) = 51.16546 53.83373 52.49960
# Shear Modulus (GPa) = 19.69053 22.49848 21.09450
#
# Velocity S-wave (km/s) = 3.31244 3.54075 3.42850
# Velocity P-wave (km/s) = 6.56817 6.83476 6.70279
#
# Compressibility (1/GPa) = 0.01954443
#
# Stress axis : x y z
#
# Youngs Moduli (GPa) = 34.46769 59.84801 52.11325
#
# Poissons Ratio (x) = 0.35194 0.73047
# Poissons Ratio (y) = 0.20269 0.14516
# Poissons Ratio (z) = 0.48314 0.16671
#
# Static dielectric constant tensor:
#      x y z
#    x 3.201370 0.000000 0.109430 
#    y 0.000000 3.440240 0.000000 
#    z 0.109430 0.000000 3.241560 
# 
# 
# High freq. dielectric constant tensor:
#      x y z
#    x 1.677300 0.000000 0.019890 
#    y 0.000000 1.710680 0.000000 
#    z 0.019890 0.000000 1.680590 
# 
# From -- ./inp_files/48658.got.cif
#   From: 2010.06.25/outbox.cif.g09.slc.cpg/sg10_25_cif.got.tgz:48658.got - 2010.06.27 22:07:45.
