data_PCOD8059846
_publ_section_title
;
Structure prediction by ZEFSAII (Michael W. Deem and Ramdas Pophale) SiO2 
 PCOD8059846
Probable space group: P 2/M
;
_chemical_formula_sum "Si O2"
_cell_formula_units_Z 28
_cell_length_a 31.479425
_cell_length_b 8.648050
_cell_length_c 31.472283
_cell_angle_alpha 90.000000
_cell_angle_beta 170.550839
_cell_angle_gamma 90.000000
_cell_volume 1406.608971
_symmetry_space_group_name_H-M "P 2/M"
_symmetry_group_IT_number 10
_symmetry_cell_setting 'monoclinic'
loop_
_space_group_symop_operation_xyz
x,y,z
-x,y,-z
-x,-y,-z
x,-y,z
loop_
_atom_site_type_symbol
_atom_site_label
_atom_site_fract_x
_atom_site_fract_y
_atom_site_fract_z
Si Si1 0.668646 0.316312 0.839034
Si Si2 0.372624 0.183691 0.108415
Si Si3 0.531854 0.318960 0.080572
Si Si4 0.896541 0.183448 0.583421
Si Si5 0.807111 0.316136 0.686557
Si Si6 0.991256 0.183292 0.400548
Si Si7 0.762089 0.315586 0.737521
O O1 0.667487 0.500000 0.841174
O O2 0.640840 0.247283 0.857837
O O3 0.433614 0.254853 0.578335
O O4 0.931417 0.254158 0.077037
O O5 0.630154 0.248539 0.339861
O O6 0.373258 0.000000 0.110457
O O7 0.130676 0.248554 0.842952
O O8 0.563659 0.500000 0.119824
O O9 0.792087 0.234865 0.352409
O O10 0.500000 0.277509 0.000000
O O11 0.284732 0.257873 0.862005
O O12 0.925126 0.242444 0.563491
O O13 0.897816 0.000000 0.585347
O O14 0.807712 0.500000 0.688697
O O15 0.785888 0.249635 0.713289
O O16 0.959078 0.000000 0.370655
O O17 0.500000 0.252078 0.500000
O O18 0.762342 0.500000 0.737104
O O19 0.000000 0.252070 0.000000
#
# Coordination Sequence:
#
# PCOD8059846 Si02
#       7
#     4   4   4   4   4   4   4
#     4  10  19  31  46  67  97 128 158 195 244 296
#     4  10  19  34  54  74  99 132 169 207 254 307
#     4  11  24  41  59  84 122 159 186 224 284 339
#     4   9  19  35  55  78 104 133 167 217 270 306
#     4   9  17  28  42  62  93 128 155 192 247 294
#     4  11  22  39  64  89 112 145 194 240 277 328
#     4   9  15  23  37  58  85 118 155 191 232 288
#
# _framework density 19.906030000000001
#
# number of rings (size 3 to 8) (size 9 to 14) (size 15 to 20)
#    0.000    2.143    0.000    3.857    0.000    8.571 
#    0.000    4.286    0.000    0.000    0.000    0.000 
#    0.000   11.429    0.000    0.000    0.000    0.000 
#
# Total GULP energy -347282.354409 kJ/mol
# GULP energy per Si atom -12402.941229 kJ/mol
# Density = 1.986072 g / cm^3
# Si number density = 19.906030 Si / 1000 Ang^3
#
#
#
# Elastic Constant Matrix: (Units=GPa)
#
#
# Indices 1 2 3 4 5 6 
#
# 1 155.4170 -6.4596 51.3284 0.0000 6.0722 0.0000
# 2 -6.4596 68.9111 2.9815 0.0000 -9.9141 0.0000
# 3 51.3284 2.9815 150.6984 0.0000 2.6587 0.0000
# 4 0.0000 0.0000 0.0000 13.7208 0.0000 -7.8480
# 5 6.0722 -9.9141 2.6587 0.0000 49.4567 0.0000
# 6 0.0000 0.0000 0.0000 -7.8480 0.0000 9.0942
#
#
#
# Elastic Compliance Matrix: (Units=1/GPa)
#
#
# Indices 1 2 3 4 5 6 
#
# 1 0.007311 0.000704 -0.002493 0.000000 -0.000623 0.000000
# 2 0.000704 0.015028 -0.000589 0.000000 0.002958 0.000000
# 3 -0.002493 -0.000589 0.007500 0.000000 -0.000215 0.000000
# 4 0.000000 0.000000 0.000000 0.143922 0.000000 0.124201
# 5 -0.000623 0.002958 -0.000215 0.000000 0.020901 0.000000
# 6 0.000000 0.000000 0.000000 0.124201 0.000000 0.217142
#
#
# Mechanical properties :
#
#
# Convention : Reuss Voigt Hill
#
# Bulk Modulus (GPa) = 39.86812 52.30301 46.08556
# Shear Modulus (GPa) = 11.76682 36.26608 24.01645
#
# Velocity S-wave (km/s) = 2.43393 4.27296 3.47723
# Velocity P-wave (km/s) = 5.28870 7.11873 6.27083
#
# Compressibility (1/GPa) = 0.02508270
#
# Stress axis : x y z
#
# Youngs Moduli (GPa) = 136.77506 66.54050 133.32608
#
# Poissons Ratio (x) = -0.04682 0.33241
# Poissons Ratio (y) = -0.09624 0.07855
# Poissons Ratio (z) = 0.34100 0.03920
#
# Static dielectric constant tensor:
#      x y z
#    x 3.833440 0.000000 0.039950 
#    y 0.000000 3.131530 0.000000 
#    z 0.039950 0.000000 3.887580 
# 
# 
# High freq. dielectric constant tensor:
#      x y z
#    x 1.796620 0.000000 0.000560 
#    y 0.000000 1.727650 0.000000 
#    z 0.000560 0.000000 1.798690 
# 
# From -- ./inp_files/95979.got.cif
#   From: 2010.06.25/outbox.cif.g09.slc.cpg/sg10_48_cif.got.tgz:95979.got - 2010.06.27 22:07:45.
