data_PCOD8059313
_publ_section_title
;
Structure prediction by ZEFSAII (Michael W. Deem and Ramdas Pophale) SiO2 
 PCOD8059313
Probable space group: P 2/M
;
_chemical_formula_sum "Si O2"
_cell_formula_units_Z 32
_cell_length_a 23.175294
_cell_length_b 9.057345
_cell_length_c 12.380379
_cell_angle_alpha 90.000000
_cell_angle_beta 136.904842
_cell_angle_gamma 90.000000
_cell_volume 1775.479371
_symmetry_space_group_name_H-M "P 2/M"
_symmetry_group_IT_number 10
_symmetry_cell_setting 'monoclinic'
loop_
_space_group_symop_operation_xyz
x,y,z
-x,y,-z
-x,-y,-z
x,-y,z
loop_
_atom_site_type_symbol
_atom_site_label
_atom_site_fract_x
_atom_site_fract_y
_atom_site_fract_z
Si Si1 0.277560 0.830921 0.501839
Si Si2 0.270909 0.172047 0.244030
Si Si3 0.429339 0.658138 0.486696
Si Si4 0.654558 0.171276 0.038002
Si Si5 0.907087 0.326745 0.377356
Si Si6 0.233593 0.676200 0.980738
Si Si7 0.772666 0.673663 0.363870
Si Si8 0.468257 0.834113 0.735503
O O1 0.252726 0.784999 0.344674
O O2 0.222832 0.728865 0.506616
O O3 0.377054 0.806980 0.667312
O O4 0.252000 0.000000 0.486058
O O5 0.367756 0.216200 0.356923
O O6 0.218945 0.263467 0.082883
O O7 0.256598 0.000000 0.203860
O O8 0.500000 0.623640 0.500000
O O9 0.382418 0.500000 0.445384
O O10 0.478047 0.712988 0.657775
O O11 0.696578 0.244836 0.199387
O O12 0.680706 0.000000 0.065797
O O13 0.685564 0.251355 0.969650
O O14 0.553347 0.185945 0.922225
O O15 0.918156 0.500000 0.383403
O O16 0.861137 0.285316 0.427016
O O17 0.000000 0.251080 0.500000
O O18 0.849946 0.274317 0.198791
O O19 0.246422 0.500000 0.000297
O O20 0.755429 0.500000 0.335458
O O21 0.466010 0.000000 0.683707
#
# Coordination Sequence:
#
# PCOD8059313 Si02
#       8
#     4   4   4   4   4   4   4   4
#     4   9  19  35  50  66  94 134 176 209 240 285
#     4  10  20  33  49  68  95 134 172 202 240 296
#     4  10  19  28  41  63  91 124 164 214 261 290
#     4  10  19  32  50  70  98 135 171 208 251 298
#     4   8  16  33  56  80 104 127 151 188 242 301
#     4  10  19  31  51  79 105 127 160 207 253 293
#     4  10  20  33  52  77 100 125 162 206 250 295
#     4   9  19  32  45  63  89 130 177 210 241 289
#
# _framework density 18.023299999999999
#
# number of rings (size 3 to 8) (size 9 to 14) (size 15 to 20)
#    0.000    2.500    0.000    4.125    0.000    7.000 
#    0.000    2.500    0.000   14.250    0.000    5.250 
#    0.000    0.000    0.000    0.000    0.000    0.000 
#
# Total GULP energy -396447.971031 kJ/mol
# GULP energy per Si atom -12388.999095 kJ/mol
# Density = 1.798228 g / cm^3
# Si number density = 18.023300 Si / 1000 Ang^3
#
#
#
# Elastic Constant Matrix: (Units=GPa)
#
#
# Indices 1 2 3 4 5 6 
#
# 1 94.4023 44.2762 58.4037 0.0000 -9.0222 0.0000
# 2 44.2762 84.7192 33.0124 0.0000 -11.2008 0.0000
# 3 58.4037 33.0124 83.1317 0.0000 -7.3860 0.0000
# 4 0.0000 0.0000 0.0000 24.8930 0.0000 -11.5114
# 5 -9.0222 -11.2008 -7.3860 0.0000 27.4373 0.0000
# 6 0.0000 0.0000 0.0000 -11.5114 0.0000 23.5315
#
#
#
# Elastic Compliance Matrix: (Units=1/GPa)
#
#
# Indices 1 2 3 4 5 6 
#
# 1 0.021237 -0.006120 -0.012387 0.000000 0.001150 0.000000
# 2 -0.006120 0.016244 -0.001784 0.000000 0.004139 0.000000
# 3 -0.012387 -0.001784 0.021528 0.000000 0.000994 0.000000
# 4 0.000000 0.000000 0.000000 0.051916 0.000000 0.025397
# 5 0.001150 0.004139 0.000994 0.000000 0.038782 0.000000
# 6 0.000000 0.000000 0.000000 0.025397 0.000000 0.054920
#
#
# Mechanical properties :
#
#
# Convention : Reuss Voigt Hill
#
# Bulk Modulus (GPa) = 54.26548 59.29311 56.77929
# Shear Modulus (GPa) = 19.89238 23.60977 21.75107
#
# Velocity S-wave (km/s) = 3.32581 3.62326 3.47772
# Velocity P-wave (km/s) = 6.70238 7.10447 6.90635
#
# Compressibility (1/GPa) = 0.01842792
#
# Stress axis : x y z
#
# Youngs Moduli (GPa) = 47.08786 61.56019 46.45029
#
# Poissons Ratio (x) = 0.37674 0.57540
# Poissons Ratio (y) = 0.28817 0.08285
# Poissons Ratio (z) = 0.58330 0.10980
#
# Static dielectric constant tensor:
#      x y z
#    x 3.462760 0.000000 -0.309200 
#    y 0.000000 3.409490 0.000000 
#    z -0.309200 0.000000 3.769860 
# 
# 
# High freq. dielectric constant tensor:
#      x y z
#    x 1.673660 0.000000 -0.015250 
#    y 0.000000 1.703140 0.000000 
#    z -0.015250 0.000000 1.681260 
# 
# From -- ./inp_files/55374.got.cif
#   From: 2010.06.25/outbox.cif.g09.slc.cpg/sg10_28_cif.got.tgz:55374.got - 2010.06.27 22:07:45.
