data_PCOD8059830
_publ_section_title
;
Structure prediction by ZEFSAII (Michael W. Deem and Ramdas Pophale) SiO2 
 PCOD8059830
Probable space group: P 2/M
;
_chemical_formula_sum "Si O2"
_cell_formula_units_Z 32
_cell_length_a 36.589478
_cell_length_b 8.383583
_cell_length_c 5.230987
_cell_angle_alpha 90.000000
_cell_angle_beta 98.219497
_cell_angle_gamma 90.000000
_cell_volume 1588.126970
_symmetry_space_group_name_H-M "P 2/M"
_symmetry_group_IT_number 10
_symmetry_cell_setting 'monoclinic'
loop_
_space_group_symop_operation_xyz
x,y,z
-x,y,-z
-x,-y,-z
x,-y,z
loop_
_atom_site_type_symbol
_atom_site_label
_atom_site_fract_x
_atom_site_fract_y
_atom_site_fract_z
Si Si1 0.979109 0.190215 0.229109
Si Si2 0.229516 0.190073 0.479532
Si Si3 0.853873 0.809760 0.603876
Si Si4 0.353930 0.310772 0.103933
Si Si5 0.604297 0.309906 0.354291
Si Si6 0.895668 0.809793 0.145672
Si Si7 0.271331 0.810747 0.021351
Si Si8 0.520902 0.690229 0.270902
O O1 0.937388 0.255934 0.187385
O O2 0.000000 0.255839 0.500000
O O3 0.979076 0.000000 0.229075
O O4 0.000000 0.255840 0.000000
O O5 0.187830 0.256336 0.437838
O O6 0.250428 0.255741 0.750574
O O7 0.229113 0.000000 0.479121
O O8 0.250431 0.255747 0.250330
O O9 0.874775 0.744197 0.374785
O O10 0.853805 0.000000 0.603804
O O11 0.874773 0.744198 0.874782
O O12 0.354188 0.500000 0.104184
O O13 0.374793 0.244106 0.374721
O O14 0.374792 0.244101 0.874872
O O15 0.312603 0.250349 0.062609
O O16 0.603928 0.500000 0.353913
O O17 0.562607 0.243709 0.312604
O O18 0.895708 0.000000 0.145713
O O19 0.271245 0.000000 0.021272
O O20 0.500000 0.755777 0.500000
O O21 0.520970 0.500000 0.270972
O O22 0.500000 0.755776 0.000000
#
# Coordination Sequence:
#
# PCOD8059830 Si02
#       8
#     4   4   4   4   4   4   4   4
#     4   9  15  21  27  36  53  78 109 146 189 232
#     4   9  17  28  42  59  79 102 128 167 216 257
#     4   9  15  23  34  48  65  85 113 150 198 247
#     4  10  19  31  46  64  89 118 144 172 209 250
#     4   9  17  28  42  62  89 118 144 172 209 250
#     4   9  15  21  30  43  59  82 113 150 193 242
#     4  10  19  31  46  64  85 109 140 175 213 254
#     4   9  15  23  37  58  85 114 140 168 205 246
#
# _framework density 20.149525000000001
#
# number of rings (size 3 to 8) (size 9 to 14) (size 15 to 20)
#    0.000    2.750    0.000    3.000    0.000    9.000 
#    0.000    0.000    0.000    0.000    0.000    0.000 
#    0.000   10.000    0.000    0.000    0.000    0.000 
#
# Total GULP energy -396788.496477 kJ/mol
# GULP energy per Si atom -12399.640515 kJ/mol
# Density = 2.010366 g / cm^3
# Si number density = 20.149525 Si / 1000 Ang^3
#
#
#
# Elastic Constant Matrix: (Units=GPa)
#
#
# Indices 1 2 3 4 5 6 
#
# 1 238.4255 2.7006 135.1183 0.0000 -0.1177 0.0000
# 2 2.7006 1.9725 5.3624 0.0000 -0.2243 0.0000
# 3 135.1183 5.3624 242.4374 0.0000 -0.2227 0.0000
# 4 0.0000 0.0000 0.0000 3.1504 0.0000 1.9723
# 5 -0.1177 -0.2243 -0.2227 0.0000 52.3580 0.0000
# 6 0.0000 0.0000 0.0000 1.9723 0.0000 26.5183
#
#
#
# Elastic Compliance Matrix: (Units=1/GPa)
#
#
# Indices 1 2 3 4 5 6 
#
# 1 0.006132 0.000953 -0.003439 0.000000 0.000003 0.000000
# 2 0.000953 0.539829 -0.012469 0.000000 0.002261 0.000000
# 3 -0.003439 -0.012469 0.006317 0.000000 -0.000034 0.000000
# 4 0.000000 0.000000 0.000000 0.332917 0.000000 -0.024761
# 5 0.000003 0.002261 -0.000034 0.000000 0.019109 0.000000
# 6 0.000000 0.000000 0.000000 -0.024761 0.000000 0.039551
#
#
# Mechanical properties :
#
#
# Convention : Reuss Voigt Hill
#
# Bulk Modulus (GPa) = 1.91436 85.46646 43.69041
# Shear Modulus (GPa) = 4.35582 39.04893 21.70238
#
# Velocity S-wave (km/s) = 1.47188 4.40700 3.28543
# Velocity P-wave (km/s) = 1.95978 8.27065 6.01018
#
# Compressibility (1/GPa) = 0.52236787
#
# Stress axis : x y z
#
# Youngs Moduli (GPa) = 163.07493 1.85244 158.30129
#
# Poissons Ratio (x) = -0.00177 0.54435
# Poissons Ratio (y) = -0.15542 1.97393
# Poissons Ratio (z) = 0.56077 0.02310
#
# Static dielectric constant tensor:
#      x y z
#    x 4.274120 0.000000 0.016060 
#    y 0.000000 2.770880 0.000000 
#    z 0.016060 0.000000 4.079740 
# 
# 
# High freq. dielectric constant tensor:
#      x y z
#    x 1.807110 0.000000 -0.000170 
#    y 0.000000 1.697100 0.000000 
#    z -0.000170 0.000000 1.809100 
# 
# From -- ./inp_files/13636.got.cif
#   From: 2010.06.25/outbox.cif.g09.slc.cpg/sg10_7_cif.got.tgz:13636.got - 2010.06.27 22:07:45.
