data_PCOD8059768
_publ_section_title
;
Structure prediction by ZEFSAII (Michael W. Deem and Ramdas Pophale) SiO2 
 PCOD8059768
Probable space group: P 2/M
;
_chemical_formula_sum "Si O2"
_cell_formula_units_Z 32
_cell_length_a 11.824873
_cell_length_b 8.939908
_cell_length_c 19.703254
_cell_angle_alpha 90.000000
_cell_angle_beta 57.835352
_cell_angle_gamma 90.000000
_cell_volume 1763.216472
_symmetry_space_group_name_H-M "P 2/M"
_symmetry_group_IT_number 10
_symmetry_cell_setting 'monoclinic'
loop_
_space_group_symop_operation_xyz
x,y,z
-x,y,-z
-x,-y,-z
x,-y,z
loop_
_atom_site_type_symbol
_atom_site_label
_atom_site_fract_x
_atom_site_fract_y
_atom_site_fract_z
Si Si1 0.072003 0.674569 0.067762
Si Si2 0.427493 0.827028 0.736372
Si Si3 0.913737 0.825854 0.652362
Si Si4 0.186455 0.823747 0.909485
Si Si5 0.964645 0.327533 0.769991
Si Si6 0.221570 0.170076 0.528600
Si Si7 0.759346 0.172013 0.325915
Si Si8 0.697186 0.324627 0.628517
O O1 0.061034 0.500000 0.053434
O O2 0.110142 0.698378 0.134389
O O3 0.930381 0.751478 0.097846
O O4 0.186037 0.751616 0.984931
O O5 0.327113 0.787577 0.829424
O O6 0.362004 0.786456 0.684748
O O7 0.558525 0.728500 0.705447
O O8 0.468845 0.000000 0.724949
O O9 0.887857 0.765039 0.736571
O O10 0.820332 0.746555 0.628439
O O11 0.065069 0.791194 0.582551
O O12 0.881634 0.000000 0.662381
O O13 0.160877 0.000000 0.922116
O O14 0.963151 0.500000 0.749011
O O15 0.117114 0.277541 0.730558
O O16 0.287900 0.194829 0.581306
O O17 0.295503 0.277938 0.452563
O O18 0.241870 0.000000 0.497350
O O19 0.805593 0.000000 0.299776
O O20 0.707576 0.500000 0.631948
#
# Coordination Sequence:
#
# PCOD8059768 Si02
#       8
#     4   4   4   4   4   4   4   4
#     4  10  19  30  49  79 115 145 169 207 265 320
#     4  10  21  37  55  75 106 145 184 221 259 312
#     4  10  21  38  60  80 102 136 179 225 266 310
#     4  10  19  31  52  78 106 141 182 222 252 299
#     4  10  19  31  52  82 113 141 170 214 268 318
#     4   9  19  36  58  80 103 134 174 222 270 314
#     4   9  18  34  55  78 105 141 180 218 263 311
#     4  12  25  37  53  77 106 141 178 220 270 321
#
# _framework density 18.14865
#
# number of rings (size 3 to 8) (size 9 to 14) (size 15 to 20)
#    0.000    2.000    1.250    4.500    0.000    7.500 
#    0.000    2.500    0.000    0.750    0.000    5.250 
#    0.000    0.000    0.000    0.000    0.000    0.000 
#
# Total GULP energy -396845.387236 kJ/mol
# GULP energy per Si atom -12401.418351 kJ/mol
# Density = 1.810734 g / cm^3
# Si number density = 18.148650 Si / 1000 Ang^3
#
#
#
# Elastic Constant Matrix: (Units=GPa)
#
#
# Indices 1 2 3 4 5 6 
#
# 1 25.9615 19.6889 22.2781 0.0000 -0.4868 0.0000
# 2 19.6889 105.9317 50.0433 0.0000 -0.8090 0.0000
# 3 22.2781 50.0433 104.5882 0.0000 7.0345 0.0000
# 4 0.0000 0.0000 0.0000 25.1903 0.0000 3.9879
# 5 -0.4868 -0.8090 7.0345 0.0000 21.6565 0.0000
# 6 0.0000 0.0000 0.0000 3.9879 0.0000 25.9437
#
#
#
# Elastic Compliance Matrix: (Units=1/GPa)
#
#
# Indices 1 2 3 4 5 6 
#
# 1 0.049725 -0.005292 -0.008303 0.000000 0.003617 0.000000
# 2 -0.005292 0.012884 -0.005175 0.000000 0.002043 0.000000
# 3 -0.008303 -0.005175 0.014140 0.000000 -0.004973 0.000000
# 4 0.000000 0.000000 0.000000 0.040688 0.000000 -0.006254
# 5 0.003617 0.002043 -0.004973 0.000000 0.047948 0.000000
# 6 0.000000 0.000000 0.000000 -0.006254 0.000000 0.039506
#
#
# Mechanical properties :
#
#
# Convention : Reuss Voigt Hill
#
# Bulk Modulus (GPa) = 25.50403 46.72242 36.11322
# Shear Modulus (GPa) = 19.56937 24.18951 21.87944
#
# Velocity S-wave (km/s) = 3.28728 3.65479 3.47590
# Velocity P-wave (km/s) = 5.33776 6.60380 6.00424
#
# Compressibility (1/GPa) = 0.03920949
#
# Stress axis : x y z
#
# Youngs Moduli (GPa) = 20.11071 77.61610 70.71919
#
# Poissons Ratio (x) = 0.41075 0.58717
# Poissons Ratio (y) = 0.10643 0.36596
# Poissons Ratio (z) = 0.16698 0.40165
#
# Static dielectric constant tensor:
#      x y z
#    x 3.180540 0.000000 0.240380 
#    y 0.000000 3.410330 0.000000 
#    z 0.240380 0.000000 3.476800 
# 
# 
# High freq. dielectric constant tensor:
#      x y z
#    x 1.678830 0.000000 0.019680 
#    y 0.000000 1.710610 0.000000 
#    z 0.019680 0.000000 1.704870 
# 
# From -- ./inp_files/83550.got.cif
#   From: 2010.06.25/outbox.cif.g09.slc.cpg/sg10_42_cif.got.tgz:83550.got - 2010.06.27 22:07:45.
