data_PCOD8059343
_publ_section_title
;
Structure prediction by ZEFSAII (Michael W. Deem and Ramdas Pophale) SiO2 
 PCOD8059343
Probable space group: P 2/M
;
_chemical_formula_sum "Si O2"
_cell_formula_units_Z 32
_cell_length_a 27.159393
_cell_length_b 18.659391
_cell_length_c 27.372427
_cell_angle_alpha 90.000000
_cell_angle_beta 169.181466
_cell_angle_gamma 90.000000
_cell_volume 2603.711826
_symmetry_space_group_name_H-M "P 2/M"
_symmetry_group_IT_number 10
_symmetry_cell_setting 'monoclinic'
loop_
_space_group_symop_operation_xyz
x,y,z
-x,y,-z
-x,-y,-z
x,-y,z
loop_
_atom_site_type_symbol
_atom_site_label
_atom_site_fract_x
_atom_site_fract_y
_atom_site_fract_z
Si Si1 0.387186 0.914441 0.189361
Si Si2 0.491165 0.282242 0.049539
Si Si3 0.488805 0.084213 0.180812
Si Si4 0.014351 0.797105 0.455758
Si Si5 0.845184 0.085420 0.705096
Si Si6 0.960848 0.084145 0.328982
Si Si7 0.229192 0.085486 0.258059
Si Si8 0.273848 0.422342 0.741218
O O1 0.431983 0.882454 0.178825
O O2 0.611836 0.885012 0.444104
O O3 0.392421 0.000000 0.193347
O O4 0.113886 0.885399 0.944060
O O5 0.689539 0.226467 0.268521
O O6 0.603933 0.361029 0.175595
O O7 0.500000 0.278472 0.000000
O O8 0.190655 0.260468 0.768512
O O9 0.780934 0.104296 0.449725
O O10 0.449124 0.000000 0.145814
O O11 0.282220 0.112999 0.939754
O O12 0.000000 0.804179 0.500000
O O13 0.959987 0.874901 0.379811
O O14 0.810882 0.115686 0.726441
O O15 0.844864 0.000000 0.706132
O O16 0.943933 0.000000 0.324728
O O17 0.500000 0.114821 0.500000
O O18 0.228414 0.000000 0.258147
O O19 0.000000 0.114901 0.000000
O O20 0.221740 0.500000 0.664023
O O21 0.000000 0.395795 0.500000
O O22 0.500000 0.436196 0.000000
#
# Coordination Sequence:
#
# PCOD8059343 Si02
#       8
#     4   4   4   4   4   4   4   4
#     4   9  15  23  34  46  57  68  85 112 147 183
#     4   9  16  27  39  53  71  89 107 124 145 173
#     4   9  17  28  40  51  62  74  90 121 163 199
#     4  10  19  29  41  53  67  87 107 128 153 184
#     4   9  15  21  30  43  56  71  91 111 133 167
#     4  10  19  30  41  52  64  79 102 130 162 198
#     4   9  15  21  27  36  53  75  94 110 127 150
#     4   9  15  23  37  56  75  92 108 125 143 165
#
# _framework density 12.290146999999999
#
# number of rings (size 3 to 8) (size 9 to 14) (size 15 to 20)
#    0.000    2.750    0.000    4.125    0.000    6.250 
#    0.000    0.000    0.000    4.500    0.000    0.000 
#    0.000    0.000    0.000    0.000    0.000    0.000 
#
# Total GULP energy -396445.525190 kJ/mol
# GULP energy per Si atom -12388.922662 kJ/mol
# Density = 1.226217 g / cm^3
# Si number density = 12.290147 Si / 1000 Ang^3
#
#
#
# Elastic Constant Matrix: (Units=GPa)
#
#
# Indices 1 2 3 4 5 6 
#
# 1 47.3731 19.3872 23.7368 0.0000 -5.7834 0.0000
# 2 19.3872 34.0083 15.7442 0.0000 -2.2781 0.0000
# 3 23.7368 15.7442 94.2488 0.0000 -2.8262 0.0000
# 4 0.0000 0.0000 0.0000 10.5460 0.0000 0.3134
# 5 -5.7834 -2.2781 -2.8262 0.0000 18.9486 0.0000
# 6 0.0000 0.0000 0.0000 0.3134 0.0000 0.7143
#
#
#
# Elastic Compliance Matrix: (Units=1/GPa)
#
#
# Indices 1 2 3 4 5 6 
#
# 1 0.030412 -0.014557 -0.005024 0.000000 0.006783 0.000000
# 2 -0.014557 0.039013 -0.002856 0.000000 -0.000178 0.000000
# 3 -0.005024 -0.002856 0.012352 0.000000 -0.000035 0.000000
# 4 0.000000 0.000000 0.000000 0.096076 0.000000 -0.042152
# 5 0.006783 -0.000178 -0.000035 0.000000 0.054818 0.000000
# 6 0.000000 0.000000 0.000000 -0.042152 0.000000 1.418386
#
#
# Mechanical properties :
#
#
# Convention : Reuss Voigt Hill
#
# Bulk Modulus (GPa) = 27.09856 32.59631 29.84743
# Shear Modulus (GPa) = 2.92700 13.82591 8.37646
#
# Velocity S-wave (km/s) = 1.54491 3.35768 2.61350
# Velocity P-wave (km/s) = 5.02784 6.45073 5.78321
#
# Compressibility (1/GPa) = 0.03690233
#
# Stress axis : x y z
#
# Youngs Moduli (GPa) = 32.88208 25.63228 80.96054
#
# Poissons Ratio (x) = 0.37312 0.40676
# Poissons Ratio (y) = 0.47865 0.23126
# Poissons Ratio (z) = 0.16521 0.07322
#
# Static dielectric constant tensor:
#      x y z
#    x 2.441540 0.000000 -0.003450 
#    y 0.000000 2.295000 0.000000 
#    z -0.003450 0.000000 2.868370 
# 
# 
# High freq. dielectric constant tensor:
#      x y z
#    x 1.441230 0.000000 0.000620 
#    y 0.000000 1.401890 0.000000 
#    z 0.000620 0.000000 1.495780 
# 
# From -- ./inp_files/87580.got.cif
#   From: 2010.06.25/outbox.cif.g09.slc.cpg/sg10_44_cif.got.tgz:87580.got - 2010.06.27 22:07:45.
