data_PCOD8059929
_publ_section_title
;
Structure prediction by ZEFSAII (Michael W. Deem and Ramdas Pophale) SiO2 
 PCOD8059929
Probable space group: P 2/M
;
_chemical_formula_sum "Si O2"
_cell_formula_units_Z 32
_cell_length_a 18.378668
_cell_length_b 14.448334
_cell_length_c 16.691866
_cell_angle_alpha 90.000000
_cell_angle_beta 153.838870
_cell_angle_gamma 90.000000
_cell_volume 1954.221921
_symmetry_space_group_name_H-M "P 2/M"
_symmetry_group_IT_number 10
_symmetry_cell_setting 'monoclinic'
loop_
_space_group_symop_operation_xyz
x,y,z
-x,y,-z
-x,-y,-z
x,-y,z
loop_
_atom_site_type_symbol
_atom_site_label
_atom_site_fract_x
_atom_site_fract_y
_atom_site_fract_z
Si Si1 0.504284 0.389833 0.094684
Si Si2 0.327832 0.708109 0.161876
Si Si3 0.338890 0.607419 0.493694
Si Si4 0.251907 0.100356 0.294432
Si Si5 0.182954 0.610053 0.875916
Si Si6 0.823161 0.703951 0.813683
Si Si7 0.572220 0.099888 0.701574
Si Si8 0.819026 0.392886 0.499280
O O1 0.509345 0.500000 0.101602
O O2 0.669305 0.346660 0.299955
O O3 0.500000 0.352046 0.000000
O O4 0.334980 0.357412 0.970524
O O5 0.492546 0.651010 0.308408
O O6 0.277016 0.698137 0.203612
O O7 0.358805 0.817437 0.174702
O O8 0.191235 0.666410 0.967625
O O9 0.370875 0.500000 0.511775
O O10 0.284456 0.650119 0.356532
O O11 0.203306 0.626140 0.428213
O O12 0.137057 0.191279 0.179402
O O13 0.377396 0.113459 0.492739
O O14 0.345457 0.099538 0.303403
O O15 0.158641 0.000000 0.212783
O O16 0.187038 0.500000 0.897263
O O17 0.006015 0.638728 0.661013
O O18 0.000000 0.655110 0.000000
O O19 0.604034 0.000000 0.775458
O O20 0.803082 0.500000 0.464129
#
# Coordination Sequence:
#
# PCOD8059929 Si02
#       8
#     4   4   4   4   4   4   4   4
#     4   9  17  30  48  70  95 123 154 186 222 267
#     4  11  19  31  48  64  84 119 159 191 231 274
#     4  11  21  33  46  60  85 122 160 197 231 264
#     4   8  14  27  44  60  79 105 140 188 242 284
#     4  10  19  31  48  69  94 126 157 185 223 269
#     4  11  22  31  41  63  88 115 158 200 234 270
#     4   8  14  26  45  64  80 103 143 190 232 278
#     4   9  18  32  47  65  92 124 157 190 226 266
#
# _framework density 16.374803
#
# number of rings (size 3 to 8) (size 9 to 14) (size 15 to 20)
#    0.000    2.375    2.500    2.250    0.000    2.500 
#    0.000    2.500    0.000    0.000    0.000    0.000 
#    0.000    0.500    0.000    1.250    0.000    0.250 
#
# Total GULP energy -396459.115338 kJ/mol
# GULP energy per Si atom -12389.347354 kJ/mol
# Density = 1.633753 g / cm^3
# Si number density = 16.374803 Si / 1000 Ang^3
#
#
#
# Elastic Constant Matrix: (Units=GPa)
#
#
# Indices 1 2 3 4 5 6 
#
# 1 52.9504 24.9084 44.7152 0.0000 3.8713 0.0000
# 2 24.9084 71.8904 25.4732 0.0000 -3.0516 0.0000
# 3 44.7152 25.4732 105.0049 0.0000 9.0020 0.0000
# 4 0.0000 0.0000 0.0000 7.0702 0.0000 -6.5926
# 5 3.8713 -3.0516 9.0020 0.0000 23.4250 0.0000
# 6 0.0000 0.0000 0.0000 -6.5926 0.0000 -8.5180
#
#
#
# Elastic Compliance Matrix: (Units=1/GPa)
#
#
# Indices 1 2 3 4 5 6 
#
# 1 0.032426 -0.007073 -0.011947 0.000000 -0.001689 0.000000
# 2 -0.007073 0.017046 -0.001462 0.000000 0.003951 0.000000
# 3 -0.011947 -0.001462 0.015317 0.000000 -0.004102 0.000000
# 4 0.000000 0.000000 0.000000 0.082151 0.000000 -0.063582
# 5 -0.001689 0.003951 -0.004102 0.000000 0.045060 0.000000
# 6 0.000000 0.000000 0.000000 -0.063582 0.000000 -0.068188
#
#
# Mechanical properties :
#
#
# Convention : Reuss Voigt Hill
#
# Bulk Modulus (GPa) = 41.97382 46.67104 44.32243
# Shear Modulus (GPa) = 28.94884 13.37871 21.16378
#
# Velocity S-wave (km/s) = 4.20919 2.86148 3.59898
# Velocity P-wave (km/s) = 7.02224 6.28339 6.66306
#
# Compressibility (1/GPa) = 0.02382437
#
# Stress axis : x y z
#
# Youngs Moduli (GPa) = 30.83983 58.66310 65.28501
#
# Poissons Ratio (x) = 0.41492 0.77999
# Poissons Ratio (y) = 0.21813 0.09545
# Poissons Ratio (z) = 0.36846 0.08577
#
# Static dielectric constant tensor:
#      x y z
#    x 2.875470 0.000000 0.137850 
#    y 0.000000 3.209060 0.000000 
#    z 0.137850 0.000000 3.268480 
# 
# 
# High freq. dielectric constant tensor:
#      x y z
#    x 1.597800 0.000000 0.017570 
#    y 0.000000 1.600800 0.000000 
#    z 0.017570 0.000000 1.632850 
# 
# From -- ./inp_files/69316.got.cif
#   From: 2010.06.25/outbox.cif.g09.slc.cpg/sg10_35_cif.got.tgz:69316.got - 2010.06.27 22:07:45.
