data_PCOD8059778
_publ_section_title
;
Structure prediction by ZEFSAII (Michael W. Deem and Ramdas Pophale) SiO2 
 PCOD8059778
Probable space group: P 2/M
;
_chemical_formula_sum "Si O2"
_cell_formula_units_Z 28
_cell_length_a 16.765684
_cell_length_b 8.813076
_cell_length_c 15.035081
_cell_angle_alpha 90.000000
_cell_angle_beta 133.952562
_cell_angle_gamma 90.000000
_cell_volume 1599.320863
_symmetry_space_group_name_H-M "P 2/M"
_symmetry_group_IT_number 10
_symmetry_cell_setting 'monoclinic'
loop_
_space_group_symop_operation_xyz
x,y,z
-x,y,-z
-x,-y,-z
x,-y,z
loop_
_atom_site_type_symbol
_atom_site_label
_atom_site_fract_x
_atom_site_fract_y
_atom_site_fract_z
Si Si1 0.579641 0.823451 0.173790
Si Si2 0.353466 0.677803 0.943972
Si Si3 0.022884 0.678743 0.115330
Si Si4 0.209215 0.676928 0.995976
Si Si5 0.392003 0.175701 0.604521
Si Si6 0.363291 0.178727 0.260934
Si Si7 0.262079 0.679285 0.352246
O O1 0.664371 0.766389 0.162988
O O2 0.633463 0.793945 0.311413
O O3 0.551523 0.000000 0.138762
O O4 0.466503 0.729586 0.078307
O O5 0.359369 0.500000 0.928748
O O6 0.252282 0.719055 0.931097
O O7 0.036236 0.500000 0.116271
O O8 0.137428 0.744740 0.243114
O O9 0.920685 0.720288 0.101083
O O10 0.000000 0.748949 0.000000
O O11 0.228272 0.500000 0.031889
O O12 0.272448 0.769470 0.120091
O O13 0.516167 0.230803 0.679021
O O14 0.303513 0.272358 0.481306
O O15 0.377761 0.000000 0.568761
O O16 0.343138 0.252456 0.340997
O O17 0.356197 0.000000 0.265705
O O18 0.264862 0.500000 0.345989
#
# Coordination Sequence:
#
# PCOD8059778 Si02
#       7
#     4   4   4   4   4   4   4
#     4  10  19  33  52  72 103 141 169 198 254 316
#     4  10  19  30  50  80 106 128 165 216 256 293
#     4   9  17  33  54  74 101 134 170 212 257 300
#     4  10  19  33  54  77 105 136 168 211 258 301
#     4  10  22  37  51  72 105 142 171 207 254 305
#     4  11  21  34  51  74 107 140 170 205 253 307
#     4  11  22  35  54  76 100 137 178 213 252 303
#
# _framework density 17.507432000000001
#
# number of rings (size 3 to 8) (size 9 to 14) (size 15 to 20)
#    0.000    1.857    2.857    3.000    0.000    4.571 
#    0.000    2.143    0.000    0.857    0.000    6.000 
#    0.000    0.000    0.000    0.000    0.000    0.000 
#
# Total GULP energy -347221.702356 kJ/mol
# GULP energy per Si atom -12400.775084 kJ/mol
# Density = 1.746758 g / cm^3
# Si number density = 17.507432 Si / 1000 Ang^3
#
#
#
# Elastic Constant Matrix: (Units=GPa)
#
#
# Indices 1 2 3 4 5 6 
#
# 1 118.6362 28.4142 49.9737 0.0000 -16.0649 0.0000
# 2 28.4142 44.3351 29.6160 0.0000 -6.8307 0.0000
# 3 49.9737 29.6160 103.7633 0.0000 -9.9659 0.0000
# 4 0.0000 0.0000 0.0000 25.4960 0.0000 -10.7769
# 5 -16.0649 -6.8307 -9.9659 0.0000 26.4335 0.0000
# 6 0.0000 0.0000 0.0000 -10.7769 0.0000 14.1024
#
#
#
# Elastic Compliance Matrix: (Units=1/GPa)
#
#
# Indices 1 2 3 4 5 6 
#
# 1 0.011732 -0.004122 -0.004038 0.000000 0.004543 0.000000
# 2 -0.004122 0.029810 -0.006250 0.000000 0.002842 0.000000
# 3 -0.004038 -0.006250 0.013462 0.000000 0.001007 0.000000
# 4 0.000000 0.000000 0.000000 0.057936 0.000000 0.044274
# 5 0.004543 0.002842 0.001007 0.000000 0.041706 0.000000
# 6 0.000000 0.000000 0.000000 0.044274 0.000000 0.104744
#
#
# Mechanical properties :
#
#
# Convention : Reuss Voigt Hill
#
# Bulk Modulus (GPa) = 38.18947 53.63803 45.91375
# Shear Modulus (GPa) = 16.83849 23.78842 20.31345
#
# Velocity S-wave (km/s) = 3.10464 3.69014 3.40998
# Velocity P-wave (km/s) = 5.89172 6.98999 6.46422
#
# Compressibility (1/GPa) = 0.02618523
#
# Stress axis : x y z
#
# Youngs Moduli (GPa) = 85.23442 33.54536 74.28053
#
# Poissons Ratio (x) = 0.13828 0.29991
# Poissons Ratio (y) = 0.35135 0.46427
# Poissons Ratio (z) = 0.34414 0.20967
#
# Static dielectric constant tensor:
#      x y z
#    x 3.494980 0.000000 -0.055930 
#    y 0.000000 3.180290 0.000000 
#    z -0.055930 0.000000 3.206620 
# 
# 
# High freq. dielectric constant tensor:
#      x y z
#    x 1.678990 0.000000 -0.011180 
#    y 0.000000 1.672260 0.000000 
#    z -0.011180 0.000000 1.658600 
# 
# From -- ./inp_files/68674.got.cif
#   From: 2010.06.25/outbox.cif.g09.slc.cpg/sg10_35_cif.got.tgz:68674.got - 2010.06.27 22:07:45.
