data_PCOD8059090
_publ_section_title
;
Structure prediction by ZEFSAII (Michael W. Deem and Ramdas Pophale) SiO2 
 PCOD8059090
Probable space group: P 2/M
;
_chemical_formula_sum "Si O2"
_cell_formula_units_Z 28
_cell_length_a 14.183725
_cell_length_b 8.841237
_cell_length_c 17.704243
_cell_angle_alpha 90.000000
_cell_angle_beta 136.795543
_cell_angle_gamma 90.000000
_cell_volume 1519.917476
_symmetry_space_group_name_H-M "P 2/M"
_symmetry_group_IT_number 10
_symmetry_cell_setting 'monoclinic'
loop_
_space_group_symop_operation_xyz
x,y,z
-x,y,-z
-x,-y,-z
x,-y,z
loop_
_atom_site_type_symbol
_atom_site_label
_atom_site_fract_x
_atom_site_fract_y
_atom_site_fract_z
Si Si1 0.336444 0.680347 0.670640
Si Si2 0.882392 0.680050 0.577788
Si Si3 0.376309 0.177592 0.144779
Si Si4 0.154372 0.673857 0.119056
Si Si5 0.812699 0.321441 0.268007
Si Si6 0.235587 0.321719 0.927542
Si Si7 0.927226 0.679206 0.768189
O O1 0.346229 0.500000 0.676022
O O2 0.237202 0.741806 0.546158
O O3 0.485303 0.748745 0.742358
O O4 0.276731 0.743509 0.715168
O O5 0.885409 0.500000 0.576493
O O6 0.031220 0.743107 0.637700
O O7 0.855042 0.735064 0.648350
O O8 0.253059 0.220732 0.128588
O O9 0.348409 0.237122 0.043874
O O10 0.394014 0.000000 0.152942
O O11 0.203618 0.500000 0.140559
O O12 0.158766 0.732054 0.208784
O O13 0.000000 0.690559 0.000000
O O14 0.822902 0.500000 0.281972
O O15 0.739924 0.279631 0.146073
O O16 0.252037 0.500000 0.951053
O O17 0.084622 0.262610 0.864053
O O18 0.937152 0.500000 0.773899
#
# Coordination Sequence:
#
# PCOD8059090 Si02
#       7
#     4   4   4   4   4   4   4
#     4  10  19  33  53  77 105 139 173 206 251 303
#     4   8  14  27  52  84 109 126 159 214 261 298
#     4  12  25  36  47  70 107 143 174 210 252 300
#     4  10  18  33  58  81  99 128 167 209 259 311
#     4   8  15  28  54  85 105 125 165 219 261 296
#     4   9  16  32  54  77 103 131 166 210 259 306
#     4   8  14  27  52  83 105 122 156 210 262 303
#
# _framework density 18.422052000000001
#
# number of rings (size 3 to 8) (size 9 to 14) (size 15 to 20)
#    0.000    2.714    1.429    3.429    0.000    2.571 
#    0.000    4.286    0.000   10.286    0.000    0.000 
#    0.000    0.000    0.000    0.000    0.000    0.000 
#
# Total GULP energy -347063.621565 kJ/mol
# GULP energy per Si atom -12395.129342 kJ/mol
# Density = 1.838012 g / cm^3
# Si number density = 18.422052 Si / 1000 Ang^3
#
#
#
# Elastic Constant Matrix: (Units=GPa)
#
#
# Indices 1 2 3 4 5 6 
#
# 1 84.4357 18.7723 52.3792 0.0000 -15.7627 0.0000
# 2 18.7723 36.5909 26.9464 0.0000 -1.1012 0.0000
# 3 52.3792 26.9464 109.6417 0.0000 -8.4454 0.0000
# 4 0.0000 0.0000 0.0000 -1.6115 0.0000 -0.8759
# 5 -15.7627 -1.1012 -8.4454 0.0000 28.1990 0.0000
# 6 0.0000 0.0000 0.0000 -0.8759 0.0000 6.1418
#
#
#
# Elastic Compliance Matrix: (Units=1/GPa)
#
#
# Indices 1 2 3 4 5 6 
#
# 1 0.018837 -0.003973 -0.007394 0.000000 0.008160 0.000000
# 2 -0.003973 0.034245 -0.006742 0.000000 -0.002903 0.000000
# 3 -0.007394 -0.006742 0.014301 0.000000 -0.000113 0.000000
# 4 0.000000 0.000000 0.000000 -0.575894 0.000000 -0.082133
# 5 0.008160 -0.002903 -0.000113 0.000000 0.039876 0.000000
# 6 0.000000 0.000000 0.000000 -0.082133 0.000000 0.151104
#
#
# Mechanical properties :
#
#
# Convention : Reuss Voigt Hill
#
# Bulk Modulus (GPa) = 32.08721 47.42936 39.75828
# Shear Modulus (GPa) = -18.45532 15.38390 -1.53571
#
# Velocity S-wave (km/s) = -3.16857 2.89291 -0.91402
# Velocity P-wave (km/s) = 2.01723 6.07951 4.52933
#
# Compressibility (1/GPa) = 0.03116506
#
# Stress axis : x y z
#
# Youngs Moduli (GPa) = 53.08771 29.20126 69.92480
#
# Poissons Ratio (x) = 0.11603 0.51701
# Poissons Ratio (y) = 0.21093 0.47142
# Poissons Ratio (z) = 0.39252 0.19687
#
# Static dielectric constant tensor:
#      x y z
#    x 3.667400 0.000000 -0.341270 
#    y 0.000000 2.818180 0.000000 
#    z -0.341270 0.000000 3.643360 
# 
# 
# High freq. dielectric constant tensor:
#      x y z
#    x 1.714870 0.000000 -0.016940 
#    y 0.000000 1.654580 0.000000 
#    z -0.016940 0.000000 1.717740 
# 
# From -- ./inp_files/68572.got.cif
#   From: 2010.06.25/outbox.cif.g09.slc.cpg/sg10_35_cif.got.tgz:68572.got - 2010.06.27 22:07:45.
