data_PCOD8059218
_publ_section_title
;
Structure prediction by ZEFSAII (Michael W. Deem and Ramdas Pophale) SiO2 
 PCOD8059218
Probable space group: P 2/M
;
_chemical_formula_sum "Si O2"
_cell_formula_units_Z 24
_cell_length_a 8.805820
_cell_length_b 15.997621
_cell_length_c 20.040578
_cell_angle_alpha 90.000000
_cell_angle_beta 150.732905
_cell_angle_gamma 90.000000
_cell_volume 1380.190680
_symmetry_space_group_name_H-M "P 2/M"
_symmetry_group_IT_number 10
_symmetry_cell_setting 'monoclinic'
loop_
_space_group_symop_operation_xyz
x,y,z
-x,y,-z
-x,-y,-z
x,-y,z
loop_
_atom_site_type_symbol
_atom_site_label
_atom_site_fract_x
_atom_site_fract_y
_atom_site_fract_z
Si Si1 0.819478 0.906658 0.087365
Si Si2 0.877621 0.256532 0.027496
Si Si3 0.233002 0.837969 0.352067
Si Si4 0.757021 0.324485 0.713900
Si Si5 0.170399 0.699928 0.755612
Si Si6 0.113864 0.595996 0.470928
O O1 0.084311 0.906420 0.246163
O O2 0.806003 0.000000 0.051273
O O3 0.500000 0.880945 0.000000
O O4 0.886383 0.839442 0.055737
O O5 0.538956 0.296612 0.901879
O O6 0.000000 0.258306 0.000000
O O7 0.100034 0.314478 0.157684
O O8 0.500000 0.880130 0.500000
O O9 0.387822 0.764167 0.366461
O O10 0.965629 0.794945 0.295821
O O11 0.485488 0.392537 0.608865
O O12 0.030553 0.349928 0.766383
O O13 0.073303 0.653185 0.651622
O O14 0.035610 0.500000 0.425607
O O15 0.000000 0.623056 0.500000
#
# Coordination Sequence:
#
# PCOD8059218 Si02
#       6
#     4   4   4   4   4   4
#     4  10  19  33  53  77 109 143 180 223 264 313
#     4  11  20  33  55  80 107 140 178 223 273 316
#     4   9  16  31  54  79  97 135 182 223 248 305
#     4   9  18  34  53  77 101 139 182 218 251 314
#     4  10  18  35  55  78 101 140 183 222 251 317
#     4  11  22  35  53  82 114 139 168 216 275 319
#
# _framework density 17.388901000000001
#
# number of rings (size 3 to 8) (size 9 to 14) (size 15 to 20)
#    1.000    1.000    3.333    2.000    0.000    2.000 
#    0.000    0.833    0.000    5.000    0.000    1.167 
#    0.000    0.000    0.000    0.000    0.000    0.000 
#
# Total GULP energy -297429.593012 kJ/mol
# GULP energy per Si atom -12392.899709 kJ/mol
# Density = 1.734932 g / cm^3
# Si number density = 17.388901 Si / 1000 Ang^3
#
#
#
# Elastic Constant Matrix: (Units=GPa)
#
#
# Indices 1 2 3 4 5 6 
#
# 1 91.3367 18.2764 38.6578 0.0000 -11.6260 0.0000
# 2 18.2764 46.8187 19.0263 0.0000 -9.3438 0.0000
# 3 38.6578 19.0263 120.0454 0.0000 -7.7074 0.0000
# 4 0.0000 0.0000 0.0000 19.1971 0.0000 1.2270
# 5 -11.6260 -9.3438 -7.7074 0.0000 31.6284 0.0000
# 6 0.0000 0.0000 0.0000 1.2270 0.0000 11.9014
#
#
#
# Elastic Compliance Matrix: (Units=1/GPa)
#
#
# Indices 1 2 3 4 5 6 
#
# 1 0.013529 -0.003169 -0.003652 0.000000 0.003147 0.000000
# 2 -0.003169 0.024732 -0.002545 0.000000 0.005521 0.000000
# 3 -0.003652 -0.002545 0.009931 0.000000 0.000326 0.000000
# 4 0.000000 0.000000 0.000000 0.052437 0.000000 -0.005406
# 5 0.003147 0.005521 0.000326 0.000000 0.034484 0.000000
# 6 0.000000 0.000000 0.000000 -0.005406 0.000000 0.084581
#
#
# Mechanical properties :
#
#
# Convention : Reuss Voigt Hill
#
# Bulk Modulus (GPa) = 33.94516 45.56908 39.75712
# Shear Modulus (GPa) = 20.14131 24.69474 22.41802
#
# Velocity S-wave (km/s) = 3.40705 3.77257 3.59446
# Velocity P-wave (km/s) = 5.91953 6.72600 6.33561
#
# Compressibility (1/GPa) = 0.02945928
#
# Stress axis : x y z
#
# Youngs Moduli (GPa) = 73.91523 40.43317 100.69886
#
# Poissons Ratio (x) = 0.12813 0.36779
# Poissons Ratio (y) = 0.23424 0.25627
# Poissons Ratio (z) = 0.26997 0.10290
#
# Static dielectric constant tensor:
#      x y z
#    x 3.120310 0.000000 -0.038230 
#    y 0.000000 2.880410 0.000000 
#    z -0.038230 0.000000 3.260630 
# 
# 
# High freq. dielectric constant tensor:
#      x y z
#    x 1.659080 0.000000 -0.002580 
#    y 0.000000 1.642500 0.000000 
#    z -0.002580 0.000000 1.684490 
# 
# From -- ./inp_files/75453.got.cif
#   From: 2010.06.25/outbox.cif.g09.slc.cpg/sg10_38_cif.got.tgz:75453.got - 2010.06.27 22:07:45.
