data_PCOD8059439
_publ_section_title
;
Structure prediction by ZEFSAII (Michael W. Deem and Ramdas Pophale) SiO2 
 PCOD8059439
Probable space group: P 2/M
;
_chemical_formula_sum "Si O2"
_cell_formula_units_Z 32
_cell_length_a 23.836022
_cell_length_b 13.206816
_cell_length_c 19.632252
_cell_angle_alpha 90.000000
_cell_angle_beta 17.483332
_cell_angle_gamma 90.000000
_cell_volume 1856.705066
_symmetry_space_group_name_H-M "P 2/M"
_symmetry_group_IT_number 10
_symmetry_cell_setting 'monoclinic'
loop_
_space_group_symop_operation_xyz
x,y,z
-x,y,-z
-x,-y,-z
x,-y,z
loop_
_atom_site_type_symbol
_atom_site_label
_atom_site_fract_x
_atom_site_fract_y
_atom_site_fract_z
Si Si1 0.670305 0.748560 0.463743
Si Si2 0.386158 0.380162 0.034019
Si Si3 0.226517 0.380162 0.353302
Si Si4 0.938434 0.748576 0.927514
Si Si5 0.957052 0.615501 0.779780
Si Si6 0.413082 0.880848 0.673823
Si Si7 0.202014 0.389230 0.797986
Si Si8 0.569261 0.384507 0.167574
O O1 0.543041 0.841428 0.585540
O O2 0.664927 0.669007 0.408185
O O3 0.590057 0.691976 0.623062
O O4 0.880969 0.786238 0.238047
O O5 0.376728 0.500000 0.046869
O O6 0.589961 0.341710 0.820080
O O7 0.351614 0.344166 0.996758
O O8 0.233619 0.338707 0.266381
O O9 0.223895 0.500000 0.352524
O O10 0.048355 0.344159 0.603274
O O11 0.016285 0.691961 0.770601
O O12 0.800223 0.841435 0.071197
O O13 0.811190 0.669009 0.115693
O O14 0.023877 0.500000 0.718844
O O15 0.735058 0.618562 0.029876
O O16 0.500000 0.850198 0.500000
O O17 0.403342 0.000000 0.693372
O O18 0.288813 0.500000 0.711203
O O19 0.000000 0.400348 0.000000
O O20 0.490652 0.500000 0.252064
#
# Coordination Sequence:
#
# PCOD8059439 Si02
#       8
#     4   4   4   4   4   4   4   4
#     4  11  21  36  55  76 103 134 171 209 252 305
#     4   8  14  25  40  60  92 137 182 215 245 285
#     4   8  14  25  40  60  92 137 182 215 245 285
#     4  11  21  36  55  76 103 134 171 209 252 305
#     4  10  19  29  45  72 106 142 177 212 250 295
#     4  11  24  42  60  78  99 124 165 219 270 315
#     4   9  18  31  49  74 103 137 170 200 236 286
#     4  10  19  29  45  72 106 142 177 212 250 295
#
# _framework density 17.234832000000001
#
# number of rings (size 3 to 8) (size 9 to 14) (size 15 to 20)
#    0.000    2.250    2.500    2.250    0.000    3.500 
#    0.000    4.375    0.000    0.000    0.000    0.000 
#    0.000    2.000    0.000    5.250    0.000    0.250 
#
# Total GULP energy -396556.497125 kJ/mol
# GULP energy per Si atom -12392.390535 kJ/mol
# Density = 1.719560 g / cm^3
# Si number density = 17.234832 Si / 1000 Ang^3
#
#
#
# Elastic Constant Matrix: (Units=GPa)
#
#
# Indices 1 2 3 4 5 6 
#
# 1 84.2321 33.2024 37.0406 0.0000 7.0520 0.0000
# 2 33.2024 63.9349 33.6193 0.0000 1.1731 0.0000
# 3 37.0406 33.6193 90.8358 0.0000 11.6342 0.0000
# 4 0.0000 0.0000 0.0000 9.2086 0.0000 -5.5239
# 5 7.0520 1.1731 11.6342 0.0000 37.7893 0.0000
# 6 0.0000 0.0000 0.0000 -5.5239 0.0000 11.1587
#
#
#
# Elastic Compliance Matrix: (Units=1/GPa)
#
#
# Indices 1 2 3 4 5 6 
#
# 1 0.016284 -0.006260 -0.004121 0.000000 -0.001576 0.000000
# 2 -0.006260 0.021930 -0.005857 0.000000 0.002291 0.000000
# 3 -0.004121 -0.005857 0.015340 0.000000 -0.003772 0.000000
# 4 0.000000 0.000000 0.000000 0.154461 0.000000 0.076464
# 5 -0.001576 0.002291 -0.003772 0.000000 0.027847 0.000000
# 6 0.000000 0.000000 0.000000 0.076464 0.000000 0.127469
#
#
# Mechanical properties :
#
#
# Convention : Reuss Voigt Hill
#
# Bulk Modulus (GPa) = 47.44617 49.63638 48.54127
# Shear Modulus (GPa) = 12.41206 20.64069 16.52638
#
# Velocity S-wave (km/s) = 2.68652 3.46441 3.09996
# Velocity P-wave (km/s) = 6.10018 6.69817 6.40615
#
# Compressibility (1/GPa) = 0.02107652
#
# Stress axis : x y z
#
# Youngs Moduli (GPa) = 61.41024 45.59998 65.18791
#
# Poissons Ratio (x) = 0.28548 0.26866
# Poissons Ratio (y) = 0.38446 0.38180
# Poissons Ratio (z) = 0.25309 0.26708
#
# Static dielectric constant tensor:
#      x y z
#    x 3.512260 0.000000 0.447900 
#    y 0.000000 2.752890 0.000000 
#    z 0.447900 0.000000 3.670840 
# 
# 
# High freq. dielectric constant tensor:
#      x y z
#    x 1.672010 0.000000 0.005330 
#    y 0.000000 1.594460 0.000000 
#    z 0.005330 0.000000 1.673860 
# 
# From -- ./inp_files/80268.got.cif
#   From: 2010.06.25/outbox.cif.g09.slc.cpg/sg10_41_cif.got.tgz:80268.got - 2010.06.27 22:07:45.
