data_PCOD8059699
_publ_section_title
;
Structure prediction by ZEFSAII (Michael W. Deem and Ramdas Pophale) SiO2 
 PCOD8059699
Probable space group: P 2/M
;
_chemical_formula_sum "Si O2"
_cell_formula_units_Z 32
_cell_length_a 16.990787
_cell_length_b 8.747548
_cell_length_c 23.329996
_cell_angle_alpha 90.000000
_cell_angle_beta 148.281249
_cell_angle_gamma 90.000000
_cell_volume 1823.030057
_symmetry_space_group_name_H-M "P 2/M"
_symmetry_group_IT_number 10
_symmetry_cell_setting 'monoclinic'
loop_
_space_group_symop_operation_xyz
x,y,z
-x,y,-z
-x,-y,-z
x,-y,z
loop_
_atom_site_type_symbol
_atom_site_label
_atom_site_fract_x
_atom_site_fract_y
_atom_site_fract_z
Si Si1 0.836878 0.681244 0.656294
Si Si2 0.402873 0.819694 0.564284
Si Si3 0.546151 0.679204 0.762244
Si Si4 0.643818 0.333704 0.128365
Si Si5 0.550356 0.316642 0.893494
Si Si6 0.323720 0.318459 0.327729
Si Si7 0.175629 0.682919 0.861877
Si Si8 0.156011 0.678773 0.114552
O O1 0.833496 0.500000 0.646738
O O2 0.762536 0.759726 0.554706
O O3 0.741939 0.734724 0.652552
O O4 0.007359 0.740431 0.769294
O O5 0.439331 0.764128 0.651117
O O6 0.515298 0.754266 0.585625
O O7 0.408151 0.000000 0.566336
O O8 0.511506 0.500000 0.735641
O O9 0.521118 0.742664 0.810967
O O10 0.719392 0.713757 0.855874
O O11 0.707262 0.500000 0.185529
O O12 0.585961 0.250363 0.150939
O O13 0.769378 0.250180 0.166533
O O14 0.500000 0.356775 0.000000
O O15 0.548906 0.500000 0.893913
O O16 0.712153 0.260053 0.018072
O O17 0.345424 0.500000 0.338011
O O18 0.208697 0.257098 0.208429
O O19 0.182004 0.500000 0.862991
O O20 0.128884 0.500000 0.104821
O O21 0.000000 0.759022 0.000000
#
# Coordination Sequence:
#
# PCOD8059699 Si02
#       8
#     4   4   4   4   4   4   4   4
#     4  10  19  30  48  71  94 117 150 194 230 264
#     4  11  22  35  48  61  85 122 162 195 231 273
#     4   9  17  29  47  69  91 117 154 193 224 261
#     4   7  10  19  35  62 102 131 141 164 217 277
#     4   8  13  22  42  71  99 124 148 177 219 276
#     4   9  18  31  47  68  90 116 151 192 230 263
#     4   8  14  23  40  71 103 124 142 175 228 278
#     4   8  14  23  38  62  91 116 138 175 222 261
#
# _framework density 17.553194999999999
#
# number of rings (size 3 to 8) (size 9 to 14) (size 15 to 20)
#    0.000    3.250    0.000    3.750    1.750    2.000 
#    0.000    0.000    0.000    7.500    0.000    6.125 
#    0.000    3.000    0.000    0.000    0.000    0.000 
#
# Total GULP energy -396423.481172 kJ/mol
# GULP energy per Si atom -12388.233787 kJ/mol
# Density = 1.751324 g / cm^3
# Si number density = 17.553195 Si / 1000 Ang^3
#
#
#
# Elastic Constant Matrix: (Units=GPa)
#
#
# Indices 1 2 3 4 5 6 
#
# 1 112.3689 26.8875 49.2456 0.0000 4.7054 0.0000
# 2 26.8875 26.9596 21.6120 0.0000 -7.1211 0.0000
# 3 49.2456 21.6120 85.0111 0.0000 10.2025 0.0000
# 4 0.0000 0.0000 0.0000 1.2506 0.0000 -2.6629
# 5 4.7054 -7.1211 10.2025 0.0000 -15.3692 0.0000
# 6 0.0000 0.0000 0.0000 -2.6629 0.0000 2.7984
#
#
#
# Elastic Compliance Matrix: (Units=1/GPa)
#
#
# Indices 1 2 3 4 5 6 
#
# 1 0.013234 -0.007347 -0.006200 0.000000 0.003340 0.000000
# 2 -0.007347 0.040907 -0.003334 0.000000 -0.023416 0.000000
# 3 -0.006200 -0.003334 0.015046 0.000000 0.009634 0.000000
# 4 0.000000 0.000000 0.000000 -0.779172 0.000000 -0.741455
# 5 0.003340 -0.023416 0.009634 0.000000 -0.046798 0.000000
# 6 0.000000 0.000000 0.000000 -0.741455 0.000000 -0.348214
#
#
# Mechanical properties :
#
#
# Convention : Reuss Voigt Hill
#
# Bulk Modulus (GPa) = 28.22685 46.64777 37.43731
# Shear Modulus (GPa) = -4.71953 6.17559 0.72803
#
# Velocity S-wave (km/s) = -1.64150 1.87772 0.64471
# Velocity P-wave (km/s) = 3.53878 5.59767 4.68278
#
# Compressibility (1/GPa) = 0.03542726
#
# Stress axis : x y z
#
# Youngs Moduli (GPa) = 75.56158 24.44570 66.46425
#
# Poissons Ratio (x) = 0.17960 0.41205
# Poissons Ratio (y) = 0.55513 0.22156
# Poissons Ratio (z) = 0.46845 0.08149
#
# Static dielectric constant tensor:
#      x y z
#    x 3.646950 0.000000 -0.012290 
#    y 0.000000 2.656430 0.000000 
#    z -0.012290 0.000000 3.375190 
# 
# 
# High freq. dielectric constant tensor:
#      x y z
#    x 1.680440 0.000000 -0.005970 
#    y 0.000000 1.615160 0.000000 
#    z -0.005970 0.000000 1.669000 
# 
# From -- ./inp_files/89973.got.cif
#   From: 2010.06.25/outbox.cif.g09.slc.cpg/sg10_45_cif.got.tgz:89973.got - 2010.06.27 22:07:45.
