data_PCOD8059804
_publ_section_title
;
Structure prediction by ZEFSAII (Michael W. Deem and Ramdas Pophale) SiO2 
 PCOD8059804
Probable space group: P 2/M
;
_chemical_formula_sum "Si O2"
_cell_formula_units_Z 30
_cell_length_a 22.232582
_cell_length_b 9.529025
_cell_length_c 14.333394
_cell_angle_alpha 90.000000
_cell_angle_beta 29.165839
_cell_angle_gamma 90.000000
_cell_volume 1479.853351
_symmetry_space_group_name_H-M "P 2/M"
_symmetry_group_IT_number 10
_symmetry_cell_setting 'monoclinic'
loop_
_space_group_symop_operation_xyz
x,y,z
-x,y,-z
-x,-y,-z
x,-y,z
loop_
_atom_site_type_symbol
_atom_site_label
_atom_site_fract_x
_atom_site_fract_y
_atom_site_fract_z
Si Si1 0.514849 0.156323 0.274651
Si Si2 0.937745 0.334463 0.758614
Si Si3 0.713955 0.833747 0.545312
Si Si4 0.141510 0.659388 0.783431
Si Si5 0.782360 0.665809 0.623082
Si Si6 0.500000 0.758530 0.500000
Si Si7 0.764550 0.659674 0.153160
Si Si8 0.268630 0.337378 0.097523
O O1 0.400465 0.205886 0.366003
O O2 0.480840 0.152839 0.431067
O O3 0.552396 0.000000 0.194152
O O4 0.628820 0.255816 0.099174
O O5 0.946985 0.500000 0.757474
O O6 0.867376 0.297349 0.757411
O O7 0.076834 0.275841 0.570550
O O8 0.855055 0.267971 0.954581
O O9 0.834621 0.762061 0.335863
O O10 0.698806 0.757844 0.665937
O O11 0.732084 0.000000 0.532869
O O12 0.183423 0.500000 0.701203
O O13 0.215954 0.724414 0.770671
O O14 0.000000 0.662044 0.000000
O O15 0.774466 0.500000 0.610300
O O16 0.726246 0.697593 0.800453
O O17 0.621666 0.666111 0.317688
O O18 0.807420 0.500000 0.102314
O O19 0.295029 0.500000 0.042398
#
# Coordination Sequence:
#
# PCOD8059804 Si02
#       8
#     4   4   4   4   4   2   4   4
#     4  11  25  42  61  85 118 160 199 244 297 353
#     4   9  17  34  60  92 124 151 186 237 299 357
#     4  11  24  41  58  82 117 161 206 244 293 349
#     4  10  20  36  59  87 118 154 195 241 294 351
#     4  10  21  39  64  90 119 154 196 247 300 352
#     4  12  20  38  60  82 115 158 193 236 287 354
#     4  10  19  30  55  92 120 147 186 237 292 344
#     4  10  21  38  64  94 118 150 196 248 299 352
#
# _framework density 20.272276999999999
#
# number of rings (size 3 to 8) (size 9 to 14) (size 15 to 20)
#    0.000    1.733    2.667    2.000    0.000    6.667 
#    0.000    3.333    0.000    1.600    0.000    0.000 
#    0.000    0.000    0.000    0.000    0.000    0.000 
#
# Total GULP energy -371876.944557 kJ/mol
# GULP energy per Si atom -12395.898152 kJ/mol
# Density = 2.022614 g / cm^3
# Si number density = 20.272277 Si / 1000 Ang^3
#
#
#
# Elastic Constant Matrix: (Units=GPa)
#
#
# Indices 1 2 3 4 5 6 
#
# 1 136.4102 42.8013 32.9822 0.0000 10.2330 0.0000
# 2 42.8013 64.4764 28.5573 0.0000 6.1267 0.0000
# 3 32.9822 28.5573 84.3817 0.0000 3.8950 0.0000
# 4 0.0000 0.0000 0.0000 13.4599 0.0000 0.9715
# 5 10.2330 6.1267 3.8950 0.0000 33.1786 0.0000
# 6 0.0000 0.0000 0.0000 0.9715 0.0000 17.1533
#
#
#
# Elastic Compliance Matrix: (Units=1/GPa)
#
#
# Indices 1 2 3 4 5 6 
#
# 1 0.009599 -0.005388 -0.001848 0.000000 -0.001749 0.000000
# 2 -0.005388 0.021504 -0.005093 0.000000 -0.001711 0.000000
# 3 -0.001848 -0.005093 0.014305 0.000000 -0.000169 0.000000
# 4 0.000000 0.000000 0.000000 0.074600 0.000000 -0.004225
# 5 -0.001749 -0.001711 -0.000169 0.000000 0.031015 0.000000
# 6 0.000000 0.000000 0.000000 -0.004225 0.000000 0.058537
#
#
# Mechanical properties :
#
#
# Convention : Reuss Voigt Hill
#
# Bulk Modulus (GPa) = 48.18985 54.88333 51.53659
# Shear Modulus (GPa) = 20.73534 24.82019 22.77777
#
# Velocity S-wave (km/s) = 3.20166 3.50286 3.35564
# Velocity P-wave (km/s) = 6.12294 6.59484 6.36326
#
# Compressibility (1/GPa) = 0.02075126
#
# Stress axis : x y z
#
# Youngs Moduli (GPa) = 104.17404 46.50230 69.90755
#
# Poissons Ratio (x) = 0.25054 0.12919
# Poissons Ratio (y) = 0.56125 0.35603
# Poissons Ratio (z) = 0.19252 0.23683
#
# Static dielectric constant tensor:
#      x y z
#    x 4.018660 0.000000 0.120270 
#    y 0.000000 3.286740 0.000000 
#    z 0.120270 0.000000 3.638750 
# 
# 
# High freq. dielectric constant tensor:
#      x y z
#    x 1.813330 0.000000 0.005460 
#    y 0.000000 1.748740 0.000000 
#    z 0.005460 0.000000 1.790060 
# 
# From -- ./inp_files/71309.got.cif
#   From: 2010.06.25/outbox.cif.g09.slc.cpg/sg10_36_cif.got.tgz:71309.got - 2010.06.27 22:07:45.
