data_PCOD8059545
_publ_section_title
;
Structure prediction by ZEFSAII (Michael W. Deem and Ramdas Pophale) SiO2 
 PCOD8059545
Probable space group: P 2/M
;
_chemical_formula_sum "Si O2"
_cell_formula_units_Z 32
_cell_length_a 22.952644
_cell_length_b 9.261612
_cell_length_c 16.500952
_cell_angle_alpha 90.000000
_cell_angle_beta 149.137605
_cell_angle_gamma 90.000000
_cell_volume 1799.397102
_symmetry_space_group_name_H-M "P 2/M"
_symmetry_group_IT_number 10
_symmetry_cell_setting 'monoclinic'
loop_
_space_group_symop_operation_xyz
x,y,z
-x,y,-z
-x,-y,-z
x,-y,z
loop_
_atom_site_type_symbol
_atom_site_label
_atom_site_fract_x
_atom_site_fract_y
_atom_site_fract_z
Si Si1 0.776744 0.657481 0.737630
Si Si2 0.267905 0.670324 0.970930
Si Si3 0.154597 0.330609 0.003259
Si Si4 0.743075 0.166995 0.546085
Si Si5 0.515221 0.341278 0.429276
Si Si6 0.486066 0.830470 0.244651
Si Si7 0.058191 0.832263 0.652605
Si Si8 0.950695 0.835050 0.690569
O O1 0.837395 0.500000 0.801391
O O2 0.800751 0.724518 0.855572
O O3 0.809198 0.761212 0.701608
O O4 0.645207 0.632616 0.567613
O O5 0.274764 0.500000 0.964726
O O6 0.168982 0.735175 0.797104
O O7 0.241801 0.709451 0.034515
O O8 0.385854 0.742538 0.079593
O O9 0.136217 0.500000 0.983401
O O10 0.032820 0.260464 0.843347
O O11 0.613802 0.219199 0.371171
O O12 0.819793 0.197179 0.558401
O O13 0.734506 0.000000 0.558884
O O14 0.500000 0.279286 0.500000
O O15 0.453182 0.500000 0.344260
O O16 0.465812 0.217530 0.313164
O O17 0.466277 0.000000 0.209372
O O18 0.000000 0.783941 0.500000
O O19 0.967044 0.801716 0.615095
O O20 0.094585 0.000000 0.694155
O O21 0.981715 0.000000 0.746951
#
# Coordination Sequence:
#
# PCOD8059545 Si02
#       8
#     4   4   4   4   4   4   4   4
#     4   9  17  28  42  61  88 124 165 204 238 272
#     4  10  19  32  51  74 100 127 156 192 238 287
#     4   9  18  31  46  67  94 124 160 202 243 280
#     4   9  19  33  46  64  93 129 166 199 232 273
#     4   9  16  27  42  59  84 121 163 205 247 284
#     4  10  19  30  45  66  93 125 162 200 234 274
#     4   9  18  34  57  82 102 119 145 186 236 288
#     4   9  18  33  51  70  94 124 155 190 236 286
#
# _framework density 17.783733999999999
#
# number of rings (size 3 to 8) (size 9 to 14) (size 15 to 20)
#    0.000    2.750    0.000    1.500    0.000    5.000 
#    0.000    5.000    0.000    0.750    0.000    5.250 
#    0.000    0.000    0.000    0.000    0.000    0.000 
#
# Total GULP energy -396479.494911 kJ/mol
# GULP energy per Si atom -12389.984216 kJ/mol
# Density = 1.774326 g / cm^3
# Si number density = 17.783734 Si / 1000 Ang^3
#
#
#
# Elastic Constant Matrix: (Units=GPa)
#
#
# Indices 1 2 3 4 5 6 
#
# 1 69.4023 34.8586 58.7439 0.0000 1.1742 0.0000
# 2 34.8586 56.4958 50.4345 0.0000 3.9331 0.0000
# 3 58.7439 50.4345 113.6465 0.0000 1.6119 0.0000
# 4 0.0000 0.0000 0.0000 31.2405 0.0000 -1.6112
# 5 1.1742 3.9331 1.6119 0.0000 27.6754 0.0000
# 6 0.0000 0.0000 0.0000 -1.6112 0.0000 17.8937
#
#
#
# Elastic Compliance Matrix: (Units=1/GPa)
#
#
# Indices 1 2 3 4 5 6 
#
# 1 0.027200 -0.007054 -0.010936 0.000000 0.000485 0.000000
# 2 -0.007054 0.031468 -0.010268 0.000000 -0.003575 0.000000
# 3 -0.010936 -0.010268 0.018998 0.000000 0.000817 0.000000
# 4 0.000000 0.000000 0.000000 0.032159 0.000000 0.002896
# 5 0.000485 -0.003575 0.000817 0.000000 0.036573 0.000000
# 6 0.000000 0.000000 0.000000 0.002896 0.000000 0.056146
#
#
# Mechanical properties :
#
#
# Convention : Reuss Voigt Hill
#
# Bulk Modulus (GPa) = 47.28302 58.62428 52.95365
# Shear Modulus (GPa) = 18.78918 21.72909 20.25914
#
# Velocity S-wave (km/s) = 3.25397 3.49929 3.37886
# Velocity P-wave (km/s) = 6.38461 7.02591 6.71292
#
# Compressibility (1/GPa) = 0.02114924
#
# Stress axis : x y z
#
# Youngs Moduli (GPa) = 36.76456 31.77824 52.63833
#
# Poissons Ratio (x) = 0.22415 0.57567
# Poissons Ratio (y) = 0.25932 0.54051
# Poissons Ratio (z) = 0.40207 0.32631
#
# Static dielectric constant tensor:
#      x y z
#    x 3.601370 0.000000 0.068160 
#    y 0.000000 3.458030 0.000000 
#    z 0.068160 0.000000 3.283590 
# 
# 
# High freq. dielectric constant tensor:
#      x y z
#    x 1.663820 0.000000 0.016150 
#    y 0.000000 1.685090 0.000000 
#    z 0.016150 0.000000 1.678210 
# 
# From -- ./inp_files/79964.got.cif
#   From: 2010.06.25/outbox.cif.g09.slc.cpg/sg10_40_cif.got.tgz:79964.got - 2010.06.27 22:07:45.
