data_PCOD8059271
_publ_section_title
;
Structure prediction by ZEFSAII (Michael W. Deem and Ramdas Pophale) SiO2 
 PCOD8059271
Probable space group: P 2/M
;
_chemical_formula_sum "Si O2"
_cell_formula_units_Z 32
_cell_length_a 23.452585
_cell_length_b 8.424803
_cell_length_c 13.612410
_cell_angle_alpha 90.000000
_cell_angle_beta 33.830659
_cell_angle_gamma 90.000000
_cell_volume 1497.400840
_symmetry_space_group_name_H-M "P 2/M"
_symmetry_group_IT_number 10
_symmetry_cell_setting 'monoclinic'
loop_
_space_group_symop_operation_xyz
x,y,z
-x,y,-z
-x,-y,-z
x,-y,z
loop_
_atom_site_type_symbol
_atom_site_label
_atom_site_fract_x
_atom_site_fract_y
_atom_site_fract_z
Si Si1 0.470118 0.184511 0.322814
Si Si2 0.591863 0.316938 0.793261
Si Si3 0.901498 0.179896 0.209021
Si Si4 0.747199 0.184297 0.717429
Si Si5 0.686966 0.317694 0.008512
Si Si6 0.943107 0.682268 0.356929
Si Si7 0.261657 0.811830 0.710339
Si Si8 0.835932 0.184634 0.949987
O O1 0.433016 0.213215 0.265664
O O2 0.379609 0.238838 0.526408
O O3 0.496227 0.000000 0.298642
O O4 0.570173 0.284734 0.207062
O O5 0.607170 0.500000 0.741653
O O6 0.695437 0.248172 0.691886
O O7 0.500000 0.295054 0.000000
O O8 0.921233 0.289107 0.273972
O O9 0.806640 0.251961 0.282736
O O10 0.879222 0.000000 0.277002
O O11 0.000000 0.182212 0.000000
O O12 0.699646 0.280824 0.875739
O O13 0.868361 0.214463 0.533219
O O14 0.724135 0.000000 0.766847
O O15 0.712835 0.500000 0.992383
O O16 0.763359 0.207843 0.960507
O O17 0.923142 0.500000 0.410476
O O18 0.058723 0.724893 0.219267
O O19 0.220280 0.744139 0.872940
O O20 0.250782 0.000000 0.726807
O O21 0.860703 0.000000 0.928719
#
# Coordination Sequence:
#
# PCOD8059271 Si02
#       8
#     4   4   4   4   4   4   4   4
#     4  11  22  39  65  96 127 169 216 256 306 378
#     4  11  22  38  63  96 134 168 200 257 324 374
#     4  10  18  36  65  95 128 170 212 257 308 369
#     4  12  25  43  68  95 123 167 217 258 306 381
#     4  12  26  45  64  91 127 163 207 268 325 371
#     4  12  25  41  63  97 134 167 203 259 323 378
#     4   9  20  38  64  95 126 162 211 264 306 357
#     4  11  23  45  69  91 121 166 217 263 309 373
#
# _framework density 21.370363000000001
#
# number of rings (size 3 to 8) (size 9 to 14) (size 15 to 20)
#    0.000    1.000    2.500    5.250    0.000    2.750 
#    0.000    8.125    0.000    0.000    0.000    0.000 
#    0.000    0.000    0.000    0.000    0.000    0.000 
#
# Total GULP energy -397011.083387 kJ/mol
# GULP energy per Si atom -12406.596356 kJ/mol
# Density = 2.132172 g / cm^3
# Si number density = 21.370363 Si / 1000 Ang^3
#
#
#
# Elastic Constant Matrix: (Units=GPa)
#
#
# Indices 1 2 3 4 5 6 
#
# 1 78.5950 2.5307 15.2499 0.0000 -22.1718 0.0000
# 2 2.5307 67.0508 19.4155 0.0000 -0.4162 0.0000
# 3 15.2499 19.4155 109.2417 0.0000 -23.0025 0.0000
# 4 0.0000 0.0000 0.0000 23.5476 0.0000 -8.3130
# 5 -22.1718 -0.4162 -23.0025 0.0000 24.9840 0.0000
# 6 0.0000 0.0000 0.0000 -8.3130 0.0000 21.7672
#
#
#
# Elastic Compliance Matrix: (Units=1/GPa)
#
#
# Indices 1 2 3 4 5 6 
#
# 1 0.017110 -0.000891 0.001196 0.000000 0.016270 0.000000
# 2 -0.000891 0.015937 -0.003497 0.000000 -0.003744 0.000000
# 3 0.001196 -0.003497 0.012181 0.000000 0.012218 0.000000
# 4 0.000000 0.000000 0.000000 0.049085 0.000000 0.018746
# 5 0.016270 -0.003744 0.012218 0.000000 0.065651 0.000000
# 6 0.000000 0.000000 0.000000 0.018746 0.000000 0.053100
#
#
# Mechanical properties :
#
#
# Convention : Reuss Voigt Hill
#
# Bulk Modulus (GPa) = 25.74367 36.58663 31.16515
# Shear Modulus (GPa) = 21.51506 28.57254 25.04380
#
# Velocity S-wave (km/s) = 3.17641 3.66049 3.42701
# Velocity P-wave (km/s) = 5.05226 5.91803 5.50220
#
# Compressibility (1/GPa) = 0.03884450
#
# Stress axis : x y z
#
# Youngs Moduli (GPa) = 58.44544 62.74741 82.09369
#
# Poissons Ratio (x) = 0.05591 -0.09817
# Poissons Ratio (y) = 0.05208 0.28704
# Poissons Ratio (z) = -0.06989 0.21940
#
# Static dielectric constant tensor:
#      x y z
#    x 3.755960 0.000000 -0.054240 
#    y 0.000000 3.705030 0.000000 
#    z -0.054240 0.000000 4.131370 
# 
# 
# High freq. dielectric constant tensor:
#      x y z
#    x 1.832090 0.000000 -0.007400 
#    y 0.000000 1.827260 0.000000 
#    z -0.007400 0.000000 1.855350 
# 
# From -- ./inp_files/71406.got.cif
#   From: 2010.06.25/outbox.cif.g09.slc.cpg/sg10_36_cif.got.tgz:71406.got - 2010.06.27 22:07:45.
