data_PCOD8059116
_publ_section_title
;
Structure prediction by ZEFSAII (Michael W. Deem and Ramdas Pophale) SiO2 
 PCOD8059116
Probable space group: P 2/M
;
_chemical_formula_sum "Si O2"
_cell_formula_units_Z 32
_cell_length_a 28.184401
_cell_length_b 8.968516
_cell_length_c 11.852729
_cell_angle_alpha 90.000000
_cell_angle_beta 146.914827
_cell_angle_gamma 90.000000
_cell_volume 1635.494311
_symmetry_space_group_name_H-M "P 2/M"
_symmetry_group_IT_number 10
_symmetry_cell_setting 'monoclinic'
loop_
_space_group_symop_operation_xyz
x,y,z
-x,y,-z
-x,-y,-z
x,-y,z
loop_
_atom_site_type_symbol
_atom_site_label
_atom_site_fract_x
_atom_site_fract_y
_atom_site_fract_z
Si Si1 0.752451 0.176440 0.402134
Si Si2 0.825998 0.325713 0.157967
Si Si3 0.895994 0.323250 0.541084
Si Si4 0.354711 0.175506 0.213686
Si Si5 0.579500 0.674476 0.441418
Si Si6 0.408580 0.824922 0.070709
Si Si7 0.911500 0.324890 0.100812
Si Si8 0.748921 0.324237 0.634476
O O1 0.839815 0.245603 0.525141
O O2 0.738802 0.234463 0.499955
O O3 0.762012 0.000000 0.419893
O O4 0.669578 0.229198 0.164703
O O5 0.801230 0.500000 0.106135
O O6 0.862555 0.275806 0.351209
O O7 0.896993 0.287258 0.203776
O O8 0.742139 0.231766 0.959109
O O9 0.890691 0.500000 0.546372
O O10 0.994688 0.262610 0.750406
O O11 0.418203 0.249340 0.431314
O O12 0.384971 0.223285 0.150187
O O13 0.358603 0.000000 0.238198
O O14 0.568279 0.500000 0.435404
O O15 0.496289 0.739620 0.208770
O O16 0.665849 0.714085 0.544717
O O17 0.424411 0.000000 0.090371
O O18 0.911979 0.500000 0.085895
O O19 0.834339 0.261470 0.868736
O O20 0.755119 0.500000 0.621841
#
# Coordination Sequence:
#
# PCOD8059116 Si02
#       8
#     4   4   4   4   4   4   4   4
#     4  11  24  42  60  81 116 156 198 243 287 342
#     4  10  18  33  59  90 120 150 192 239 286 342
#     4  10  20  35  62  91 116 153 194 238 291 345
#     4  11  21  36  59  86 121 159 190 226 287 354
#     4  11  23  39  62  91 118 147 190 245 291 338
#     4  10  23  41  59  83 118 158 191 231 290 351
#     4   9  18  36  60  88 121 152 188 238 294 346
#     4  10  22  41  61  83 115 151 194 244 292 342
#
# _framework density 19.565950999999998
#
# number of rings (size 3 to 8) (size 9 to 14) (size 15 to 20)
#    0.000    1.750    2.500    1.875    0.000    7.000 
#    0.000    6.250    0.000    1.500    0.000    0.000 
#    0.000    0.000    0.000    0.000    0.000    0.000 
#
# Total GULP energy -396894.575371 kJ/mol
# GULP energy per Si atom -12402.955480 kJ/mol
# Density = 1.952142 g / cm^3
# Si number density = 19.565951 Si / 1000 Ang^3
#
#
#
# Elastic Constant Matrix: (Units=GPa)
#
#
# Indices 1 2 3 4 5 6 
#
# 1 69.1939 28.9924 48.8063 0.0000 -6.5541 0.0000
# 2 28.9924 38.8007 24.2020 0.0000 -0.8173 0.0000
# 3 48.8063 24.2020 97.5134 0.0000 11.9892 0.0000
# 4 0.0000 0.0000 0.0000 28.5198 0.0000 -5.9248
# 5 -6.5541 -0.8173 11.9892 0.0000 35.6256 0.0000
# 6 0.0000 0.0000 0.0000 -5.9248 0.0000 11.3238
#
#
#
# Elastic Compliance Matrix: (Units=1/GPa)
#
#
# Indices 1 2 3 4 5 6 
#
# 1 0.030540 -0.014608 -0.012841 0.000000 0.009605 0.000000
# 2 -0.014608 0.037878 -0.001946 0.000000 -0.001164 0.000000
# 3 -0.012841 -0.001946 0.018215 0.000000 -0.008537 0.000000
# 4 0.000000 0.000000 0.000000 0.039339 0.000000 0.020583
# 5 0.009605 -0.001164 -0.008537 0.000000 0.032683 0.000000
# 6 0.000000 0.000000 0.000000 0.020583 0.000000 0.099078
#
#
# Mechanical properties :
#
#
# Convention : Reuss Voigt Hill
#
# Bulk Modulus (GPa) = 35.91738 45.50104 40.70921
# Shear Modulus (GPa) = 15.34661 21.99432 18.67046
#
# Velocity S-wave (km/s) = 2.80367 3.35642 3.09242
# Velocity P-wave (km/s) = 5.37379 6.19083 5.79673
#
# Compressibility (1/GPa) = 0.02784168
#
# Stress axis : x y z
#
# Youngs Moduli (GPa) = 32.74369 26.40074 54.90085
#
# Poissons Ratio (x) = 0.38567 0.70498
# Poissons Ratio (y) = 0.47833 0.10685
# Poissons Ratio (z) = 0.42046 0.05138
#
# Static dielectric constant tensor:
#      x y z
#    x 3.572700 0.000000 0.118320 
#    y 0.000000 3.339850 0.000000 
#    z 0.118320 0.000000 3.898750 
# 
# 
# High freq. dielectric constant tensor:
#      x y z
#    x 1.765870 0.000000 0.007050 
#    y 0.000000 1.742700 0.000000 
#    z 0.007050 0.000000 1.774950 
# 
# From -- ./inp_files/49862.got.cif
#   From: 2010.06.25/outbox.cif.g09.slc.cpg/sg10_25_cif.got.tgz:49862.got - 2010.06.27 22:07:45.
