data_PCOD8059953
_publ_section_title
;
Structure prediction by ZEFSAII (Michael W. Deem and Ramdas Pophale) SiO2 
 PCOD8059953
Probable space group: P 2/M
;
_chemical_formula_sum "Si O2"
_cell_formula_units_Z 32
_cell_length_a 12.145647
_cell_length_b 8.970231
_cell_length_c 24.585888
_cell_angle_alpha 90.000000
_cell_angle_beta 135.047412
_cell_angle_gamma 90.000000
_cell_volume 1892.498346
_symmetry_space_group_name_H-M "P 2/M"
_symmetry_group_IT_number 10
_symmetry_cell_setting 'monoclinic'
loop_
_space_group_symop_operation_xyz
x,y,z
-x,y,-z
-x,-y,-z
x,-y,z
loop_
_atom_site_type_symbol
_atom_site_label
_atom_site_fract_x
_atom_site_fract_y
_atom_site_fract_z
Si Si1 0.556023 0.176418 0.320284
Si Si2 0.994498 0.169510 0.752233
Si Si3 0.157689 0.823612 0.084061
Si Si4 0.785080 0.824810 0.774604
Si Si5 0.225595 0.671739 0.768240
Si Si6 0.969838 0.169447 0.624166
Si Si7 0.466880 0.327181 0.178778
Si Si8 0.154148 0.675322 0.520277
O O1 0.396266 0.216853 0.296637
O O2 0.542623 0.242299 0.255690
O O3 0.698220 0.249251 0.400970
O O4 0.579904 0.000000 0.324436
O O5 0.889633 0.245824 0.762759
O O6 0.899660 0.174767 0.661408
O O7 0.158070 0.259425 0.801263
O O8 0.038476 0.000000 0.782594
O O9 0.153516 0.768972 0.145234
O O10 0.302223 0.744831 0.104100
O O11 0.182386 0.000000 0.088566
O O12 0.000000 0.771239 0.000000
O O13 0.805842 0.000000 0.778343
O O14 0.178082 0.500000 0.748388
O O15 0.412012 0.692541 0.829023
O O16 0.141764 0.754565 0.687539
O O17 0.859363 0.261098 0.545338
O O18 0.986287 0.000000 0.608882
O O19 0.443730 0.500000 0.185553
O O20 0.181020 0.500000 0.527367
O O21 0.000000 0.718024 0.500000
#
# Coordination Sequence:
#
# PCOD8059953 Si02
#       8
#     4   4   4   4   4   4   4   4
#     4  10  20  32  50  72  95 126 164 205 244 287
#     4   8  16  30  50  71  92 124 164 199 236 285
#     4   9  18  32  53  79 103 128 159 196 238 285
#     4   8  15  32  53  73  98 124 155 197 241 283
#     4   9  17  29  46  69  96 124 159 200 241 280
#     4   9  18  30  47  69  90 122 164 202 241 285
#     4  10  19  31  48  71 101 131 158 195 243 292
#     4  11  22  33  45  64  97 133 161 200 252 294
#
# _framework density 16.908864000000001
#
# number of rings (size 3 to 8) (size 9 to 14) (size 15 to 20)
#    0.750    2.000    0.000    3.000    0.000    6.250 
#    0.000    3.750    0.000    4.500    0.000    5.250 
#    0.000    0.000    0.000    0.000    0.000    0.000 
#
# Total GULP energy -396512.383860 kJ/mol
# GULP energy per Si atom -12391.011996 kJ/mol
# Density = 1.687038 g / cm^3
# Si number density = 16.908864 Si / 1000 Ang^3
#
#
#
# Elastic Constant Matrix: (Units=GPa)
#
#
# Indices 1 2 3 4 5 6 
#
# 1 129.6566 50.0718 55.0866 0.0000 15.5618 0.0000
# 2 50.0718 76.9797 41.0436 0.0000 11.5384 0.0000
# 3 55.0866 41.0436 98.4707 0.0000 22.9441 0.0000
# 4 0.0000 0.0000 0.0000 18.1122 0.0000 7.6810
# 5 15.5618 11.5384 22.9441 0.0000 21.6446 0.0000
# 6 0.0000 0.0000 0.0000 7.6810 0.0000 17.2818
#
#
#
# Elastic Compliance Matrix: (Units=1/GPa)
#
#
# Indices 1 2 3 4 5 6 
#
# 1 0.011580 -0.005200 -0.004006 0.000000 -0.001307 0.000000
# 2 -0.005200 0.019105 -0.004717 0.000000 -0.001445 0.000000
# 3 -0.004006 -0.004717 0.017404 0.000000 -0.013054 0.000000
# 4 0.000000 0.000000 0.000000 0.068035 0.000000 -0.030239
# 5 -0.001307 -0.001445 -0.013054 0.000000 0.061749 0.000000
# 6 0.000000 0.000000 0.000000 -0.030239 0.000000 0.071304
#
#
# Mechanical properties :
#
#
# Convention : Reuss Voigt Hill
#
# Bulk Modulus (GPa) = 49.40259 66.39011 57.89635
# Shear Modulus (GPa) = 17.61984 22.00139 19.81062
#
# Velocity S-wave (km/s) = 3.23158 3.61109 3.42659
# Velocity P-wave (km/s) = 6.57302 7.53229 7.06894
#
# Compressibility (1/GPa) = 0.02024185
#
# Stress axis : x y z
#
# Youngs Moduli (GPa) = 86.35695 52.34310 57.45766
#
# Poissons Ratio (x) = 0.27221 0.23017
# Poissons Ratio (y) = 0.44909 0.27103
# Poissons Ratio (z) = 0.34594 0.24691
#
# Static dielectric constant tensor:
#      x y z
#    x 3.310990 0.000000 0.025680 
#    y 0.000000 3.143810 0.000000 
#    z 0.025680 0.000000 3.009450 
# 
# 
# High freq. dielectric constant tensor:
#      x y z
#    x 1.647590 0.000000 0.006670 
#    y 0.000000 1.653450 0.000000 
#    z 0.006670 0.000000 1.621910 
# 
# From -- ./inp_files/88547.got.cif
#   From: 2010.06.25/outbox.cif.g09.slc.cpg/sg10_45_cif.got.tgz:88547.got - 2010.06.27 22:07:45.
