data_PCOD8059604
_publ_section_title
;
Structure prediction by ZEFSAII (Michael W. Deem and Ramdas Pophale) SiO2 
 PCOD8059604
Probable space group: P 2/M
;
_chemical_formula_sum "Si O2"
_cell_formula_units_Z 32
_cell_length_a 14.182054
_cell_length_b 14.516748
_cell_length_c 17.066611
_cell_angle_alpha 90.000000
_cell_angle_beta 31.989844
_cell_angle_gamma 90.000000
_cell_volume 1861.410889
_symmetry_space_group_name_H-M "P 2/M"
_symmetry_group_IT_number 10
_symmetry_cell_setting 'monoclinic'
loop_
_space_group_symop_operation_xyz
x,y,z
-x,y,-z
-x,-y,-z
x,-y,z
loop_
_atom_site_type_symbol
_atom_site_label
_atom_site_fract_x
_atom_site_fract_y
_atom_site_fract_z
Si Si1 0.139007 0.896033 0.274320
Si Si2 0.632556 0.248793 0.975138
Si Si3 0.183552 0.607251 0.044439
Si Si4 0.797536 0.685159 0.140448
Si Si5 0.221701 0.396415 0.679896
Si Si6 0.745075 0.898892 0.514845
Si Si7 0.589911 0.899353 0.786495
Si Si8 0.455348 0.763920 0.448858
O O1 0.215468 0.817181 0.164863
O O2 0.220507 0.886491 0.303674
O O3 0.931257 0.875130 0.424039
O O4 0.175780 0.000000 0.215827
O O5 0.500000 0.282902 0.000000
O O6 0.705704 0.337559 0.968486
O O7 0.534898 0.185031 0.106192
O O8 0.230967 0.500000 0.019972
O O9 0.235165 0.637170 0.919903
O O10 0.977227 0.626468 0.208972
O O11 0.778211 0.613516 0.225728
O O12 0.636077 0.757758 0.269055
O O13 0.000000 0.728570 0.000000
O O14 0.275311 0.500000 0.620936
O O15 0.365233 0.334378 0.533234
O O16 0.603838 0.897198 0.683791
O O17 0.694329 0.824456 0.486416
O O18 0.748327 0.000000 0.472665
O O19 0.511289 0.000000 0.867245
O O20 0.500000 0.812921 0.500000
#
# Coordination Sequence:
#
# PCOD8059604 Si02
#       8
#     4   4   4   4   4   4   4   4
#     4   9  17  30  49  71  92 116 150 193 236 270
#     4  10  19  30  46  68  95 125 154 186 224 270
#     4  10  19  31  47  67  94 125 154 186 224 270
#     4   9  18  32  50  70  91 116 149 191 235 270
#     4   9  18  32  50  71  92 116 150 193 236 270
#     4  10  19  31  48  69  94 123 153 186 224 270
#     4   9  17  30  48  70  93 117 150 193 236 270
#     4  10  20  32  48  69  94 123 152 185 224 271
#
# _framework density 17.19126
#
# number of rings (size 3 to 8) (size 9 to 14) (size 15 to 20)
#    0.000    2.500    0.000    2.625    0.000    7.750 
#    0.000    0.000    0.000    0.375    0.000    0.000 
#    0.000   14.000    0.000    0.000    0.000    0.000 
#
# Total GULP energy -396491.315568 kJ/mol
# GULP energy per Si atom -12390.353611 kJ/mol
# Density = 1.715213 g / cm^3
# Si number density = 17.191260 Si / 1000 Ang^3
#
#
#
# Elastic Constant Matrix: (Units=GPa)
#
#
# Indices 1 2 3 4 5 6 
#
# 1 80.8649 51.5835 23.0300 0.0000 2.7536 0.0000
# 2 51.5835 77.2991 27.9329 0.0000 0.9056 0.0000
# 3 23.0300 27.9329 74.4557 0.0000 -0.9616 0.0000
# 4 0.0000 0.0000 0.0000 16.4962 0.0000 -4.8041
# 5 2.7536 0.9056 -0.9616 0.0000 18.0417 0.0000
# 6 0.0000 0.0000 0.0000 -4.8041 0.0000 29.4986
#
#
#
# Elastic Compliance Matrix: (Units=1/GPa)
#
#
# Indices 1 2 3 4 5 6 
#
# 1 0.021803 -0.013961 -0.001541 0.000000 -0.002709 0.000000
# 2 -0.013961 0.023925 -0.004649 0.000000 0.000682 0.000000
# 3 -0.001541 -0.004649 0.015668 0.000000 0.001304 0.000000
# 4 0.000000 0.000000 0.000000 0.063638 0.000000 0.010364
# 5 -0.002709 0.000682 0.001304 0.000000 0.055876 0.000000
# 6 0.000000 0.000000 0.000000 0.010364 0.000000 0.035588
#
#
# Mechanical properties :
#
#
# Convention : Reuss Voigt Hill
#
# Bulk Modulus (GPa) = 47.40539 48.63473 48.02006
# Shear Modulus (GPa) = 18.95140 21.47885 20.21512
#
# Velocity S-wave (km/s) = 3.32382 3.53853 3.43285
# Velocity P-wave (km/s) = 6.50888 6.71168 6.61106
#
# Compressibility (1/GPa) = 0.02109465
#
# Stress axis : x y z
#
# Youngs Moduli (GPa) = 45.86461 41.79687 63.82277
#
# Poissons Ratio (x) = 0.58353 0.09837
# Poissons Ratio (y) = 0.64032 0.29669
# Poissons Ratio (z) = 0.07069 0.19430
#
# Static dielectric constant tensor:
#      x y z
#    x 3.169940 0.000000 -0.074180 
#    y 0.000000 2.978500 0.000000 
#    z -0.074180 0.000000 3.307020 
# 
# 
# High freq. dielectric constant tensor:
#      x y z
#    x 1.660640 0.000000 -0.005780 
#    y 0.000000 1.644490 0.000000 
#    z -0.005780 0.000000 1.666540 
# 
# From -- ./inp_files/29483.got.cif
#   From: 2010.06.25/outbox.cif.g09.slc.cpg/sg10_15_cif.got.tgz:29483.got - 2010.06.27 22:07:45.
