data_PCOD8059895
_publ_section_title
;
Structure prediction by ZEFSAII (Michael W. Deem and Ramdas Pophale) SiO2 
 PCOD8059895
Probable space group: P 2/M
;
_chemical_formula_sum "Si O2"
_cell_formula_units_Z 28
_cell_length_a 12.292811
_cell_length_b 13.279731
_cell_length_c 13.902428
_cell_angle_alpha 90.000000
_cell_angle_beta 42.897404
_cell_angle_gamma 90.000000
_cell_volume 1544.824063
_symmetry_space_group_name_H-M "P 2/M"
_symmetry_group_IT_number 10
_symmetry_cell_setting 'monoclinic'
loop_
_space_group_symop_operation_xyz
x,y,z
-x,y,-z
-x,-y,-z
x,-y,z
loop_
_atom_site_type_symbol
_atom_site_label
_atom_site_fract_x
_atom_site_fract_y
_atom_site_fract_z
Si Si1 0.356462 0.618769 0.802221
Si Si2 0.822187 0.242204 0.952742
Si Si3 0.175276 0.113927 0.417517
Si Si4 0.810936 0.265309 0.262863
Si Si5 0.308818 0.116962 0.790794
Si Si6 0.681997 0.114080 0.879779
Si Si7 0.623209 0.756076 0.576316
O O1 0.352526 0.500000 0.805434
O O2 0.283854 0.660386 0.949810
O O3 0.249513 0.659747 0.782303
O O4 0.540331 0.656546 0.675131
O O5 0.780480 0.155344 0.056134
O O6 0.783770 0.195896 0.873211
O O7 0.004015 0.281664 0.833314
O O8 0.283828 0.119392 0.254337
O O9 0.232899 0.197184 0.455687
O O10 0.000000 0.146038 0.500000
O O11 0.176838 0.000000 0.460476
O O12 0.795129 0.150706 0.234083
O O13 0.695784 0.279234 0.428171
O O14 0.486577 0.159385 0.659378
O O15 0.323399 0.000000 0.788253
O O16 0.711558 0.000000 0.899813
O O17 0.500000 0.146499 0.000000
#
# Coordination Sequence:
#
# PCOD8059895 Si02
#       7
#     4   4   4   4   4   4   4
#     4  10  21  38  58  78 101 132 172 216 265 325
#     4  10  20  34  52  76 105 133 170 218 266 307
#     4  10  20  33  52  79 109 142 177 211 249 295
#     4  10  21  33  50  78 105 134 169 213 264 313
#     4  10  19  31  47  70 105 144 173 202 250 314
#     4  10  19  32  52  76 103 140 180 211 245 297
#     4  10  20  35  53  75 105 137 175 217 258 303
#
# _framework density 18.125041
#
# number of rings (size 3 to 8) (size 9 to 14) (size 15 to 20)
#    0.000    2.286    0.000    6.857    0.000    6.857 
#    0.000    0.000    0.000    4.286    0.000    0.000 
#    0.000    0.000    0.000    0.000    0.000    0.000 
#
# Total GULP energy -347024.226533 kJ/mol
# GULP energy per Si atom -12393.722376 kJ/mol
# Density = 1.808379 g / cm^3
# Si number density = 18.125041 Si / 1000 Ang^3
#
#
#
# Elastic Constant Matrix: (Units=GPa)
#
#
# Indices 1 2 3 4 5 6 
#
# 1 54.2489 19.6819 -11.9150 0.0000 -2.5520 0.0000
# 2 19.6819 120.5582 10.4645 0.0000 -0.6567 0.0000
# 3 -11.9150 10.4645 58.3221 0.0000 -6.6303 0.0000
# 4 0.0000 0.0000 0.0000 13.4152 0.0000 -0.2984
# 5 -2.5520 -0.6567 -6.6303 0.0000 24.0687 0.0000
# 6 0.0000 0.0000 0.0000 -0.2984 0.0000 20.1059
#
#
#
# Elastic Compliance Matrix: (Units=1/GPa)
#
#
# Indices 1 2 3 4 5 6 
#
# 1 0.021225 -0.003919 0.005454 0.000000 0.003646 0.000000
# 2 -0.003919 0.009150 -0.002541 0.000000 -0.000866 0.000000
# 3 0.005454 -0.002541 0.019381 0.000000 0.005848 0.000000
# 4 0.000000 0.000000 0.000000 0.074567 0.000000 0.001107
# 5 0.003646 -0.000866 0.005848 0.000000 0.043522 0.000000
# 6 0.000000 0.000000 0.000000 0.001107 0.000000 0.049753
#
#
# Mechanical properties :
#
#
# Convention : Reuss Voigt Hill
#
# Bulk Modulus (GPa) = 20.94481 29.95467 25.44974
# Shear Modulus (GPa) = 21.22927 25.84447 23.53687
#
# Velocity S-wave (km/s) = 3.42609 3.78020 3.60750
# Velocity P-wave (km/s) = 5.21839 5.96790 5.60569
#
# Compressibility (1/GPa) = 0.04774452
#
# Stress axis : x y z
#
# Youngs Moduli (GPa) = 47.11525 109.28596 51.59686
#
# Poissons Ratio (x) = 0.42824 -0.28139
# Poissons Ratio (y) = 0.18462 0.13110
# Poissons Ratio (z) = -0.25695 0.27767
#
# Static dielectric constant tensor:
#      x y z
#    x 3.243150 0.000000 -0.072890 
#    y 0.000000 3.175440 0.000000 
#    z -0.072890 0.000000 3.425210 
# 
# 
# High freq. dielectric constant tensor:
#      x y z
#    x 1.689330 0.000000 -0.005990 
#    y 0.000000 1.673260 0.000000 
#    z -0.005990 0.000000 1.721490 
# 
# From -- ./inp_files/64899.got.cif
#   From: 2010.06.25/outbox.cif.g09.slc.cpg/sg10_33_cif.got.tgz:64899.got - 2010.06.27 22:07:45.
