data_PCOD8059173
_publ_section_title
;
Structure prediction by ZEFSAII (Michael W. Deem and Ramdas Pophale) SiO2 
 PCOD8059173
Probable space group: P 2/M
;
_chemical_formula_sum "Si O2"
_cell_formula_units_Z 28
_cell_length_a 11.672366
_cell_length_b 8.817176
_cell_length_c 13.531111
_cell_angle_alpha 90.000000
_cell_angle_beta 103.297980
_cell_angle_gamma 90.000000
_cell_volume 1355.246064
_symmetry_space_group_name_H-M "P 2/M"
_symmetry_group_IT_number 10
_symmetry_cell_setting 'monoclinic'
loop_
_space_group_symop_operation_xyz
x,y,z
-x,y,-z
-x,-y,-z
x,-y,z
loop_
_atom_site_type_symbol
_atom_site_label
_atom_site_fract_x
_atom_site_fract_y
_atom_site_fract_z
Si Si1 0.933639 0.322479 0.756717
Si Si2 0.193877 0.678863 0.833995
Si Si3 0.122493 0.327367 0.468668
Si Si4 0.280280 0.827246 0.654486
Si Si5 0.470057 0.173769 0.384757
Si Si6 0.624125 0.178825 0.982888
Si Si7 0.307732 0.323565 0.203809
O O1 0.949965 0.500000 0.741662
O O2 0.896321 0.254168 0.643325
O O3 0.832281 0.288540 0.817028
O O4 0.059755 0.258548 0.817732
O O5 0.200342 0.500000 0.849569
O O6 0.244279 0.719329 0.736926
O O7 0.268296 0.753498 0.935113
O O8 0.170393 0.500000 0.473790
O O9 0.216976 0.222866 0.541684
O O10 0.000000 0.321594 0.500000
O O11 0.419107 0.812391 0.665976
O O12 0.245807 0.000000 0.673209
O O13 0.500000 0.235575 0.500000
O O14 0.366743 0.276872 0.319275
O O15 0.426643 0.000000 0.383321
O O16 0.635365 0.225620 0.871521
O O17 0.629146 0.000000 0.993347
O O18 0.500000 0.240711 0.000000
O O19 0.330078 0.500000 0.187532
#
# Coordination Sequence:
#
# PCOD8059173 Si02
#       7
#     4   4   4   4   4   4   4
#     4   9  20  38  59  88 123 156 193 244 299 346
#     4  11  22  40  64  88 117 154 198 244 294 353
#     4  10  18  34  58  83 118 163 202 238 289 347
#     4  11  22  35  55  87 122 156 199 249 298 348
#     4  10  22  40  59  83 122 164 198 240 298 352
#     4  11  25  45  65  87 119 154 192 244 302 355
#     4  11  23  40  64  91 119 154 199 246 294 351
#
# _framework density 20.660456
#
# number of rings (size 3 to 8) (size 9 to 14) (size 15 to 20)
#    0.000    1.571    1.429    3.429    0.000    6.857 
#    0.000    6.429    0.000    0.000    0.000    0.000 
#    0.000    0.000    0.000    0.000    0.000    0.000 
#
# Total GULP energy -347304.254091 kJ/mol
# GULP energy per Si atom -12403.723360 kJ/mol
# Density = 2.061343 g / cm^3
# Si number density = 20.660456 Si / 1000 Ang^3
#
#
#
# Elastic Constant Matrix: (Units=GPa)
#
#
# Indices 1 2 3 4 5 6 
#
# 1 103.1201 32.3349 40.7858 0.0000 2.2209 0.0000
# 2 32.3349 58.5566 25.3821 0.0000 7.4056 0.0000
# 3 40.7858 25.3821 117.8224 0.0000 8.8526 0.0000
# 4 0.0000 0.0000 0.0000 62.8749 0.0000 34.6228
# 5 2.2209 7.4056 8.8526 0.0000 35.9609 0.0000
# 6 0.0000 0.0000 0.0000 34.6228 0.0000 66.8675
#
#
#
# Elastic Compliance Matrix: (Units=1/GPa)
#
#
# Indices 1 2 3 4 5 6 
#
# 1 0.012780 -0.005794 -0.003267 0.000000 0.001208 0.000000
# 2 -0.005794 0.021772 -0.002419 0.000000 -0.003530 0.000000
# 3 -0.003267 -0.002419 0.010277 0.000000 -0.001830 0.000000
# 4 0.000000 0.000000 0.000000 0.022248 0.000000 -0.011520
# 5 0.001208 -0.003530 -0.001830 0.000000 0.028911 0.000000
# 6 0.000000 0.000000 0.000000 -0.011520 0.000000 0.020920
#
#
# Mechanical properties :
#
#
# Convention : Reuss Voigt Hill
#
# Bulk Modulus (GPa) = 45.72661 52.94497 49.33579
# Shear Modulus (GPa) = 33.97722 45.20709 39.59216
#
# Velocity S-wave (km/s) = 4.05971 4.68279 4.38233
# Velocity P-wave (km/s) = 6.64496 7.41079 7.03830
#
# Compressibility (1/GPa) = 0.02186910
#
# Stress axis : x y z
#
# Youngs Moduli (GPa) = 78.24588 45.93027 97.30631
#
# Poissons Ratio (x) = 0.26612 0.31786
# Poissons Ratio (y) = 0.45336 0.23542
# Poissons Ratio (z) = 0.25560 0.11112
#
# Static dielectric constant tensor:
#      x y z
#    x 3.887900 0.000000 0.106310 
#    y 0.000000 3.580670 0.000000 
#    z 0.106310 0.000000 3.787700 
# 
# 
# High freq. dielectric constant tensor:
#      x y z
#    x 1.819640 0.000000 0.003540 
#    y 0.000000 1.792810 0.000000 
#    z 0.003540 0.000000 1.813040 
# 
# From -- ./inp_files/63616.got.cif
#   From: 2010.06.25/outbox.cif.g09.slc.cpg/sg10_32_cif.got.tgz:63616.got - 2010.06.27 22:07:45.
