data_PCOD8059445
_publ_section_title
;
Structure prediction by ZEFSAII (Michael W. Deem and Ramdas Pophale) SiO2 
 PCOD8059445
Probable space group: P 2/M
;
_chemical_formula_sum "Si O2"
_cell_formula_units_Z 32
_cell_length_a 13.933197
_cell_length_b 9.007887
_cell_length_c 26.107053
_cell_angle_alpha 90.000000
_cell_angle_beta 145.572914
_cell_angle_gamma 90.000000
_cell_volume 1852.483443
_symmetry_space_group_name_H-M "P 2/M"
_symmetry_group_IT_number 10
_symmetry_cell_setting 'monoclinic'
loop_
_space_group_symop_operation_xyz
x,y,z
-x,y,-z
-x,-y,-z
x,-y,z
loop_
_atom_site_type_symbol
_atom_site_label
_atom_site_fract_x
_atom_site_fract_y
_atom_site_fract_z
Si Si1 0.338231 0.167252 0.465084
Si Si2 0.765088 0.675164 0.114500
Si Si3 0.458340 0.325542 0.363520
Si Si4 0.014722 0.664987 0.946310
Si Si5 0.674246 0.825175 0.789087
Si Si6 0.510231 0.675475 0.086758
Si Si7 0.856975 0.674371 0.704158
Si Si8 0.646110 0.825664 0.894101
O O1 0.500000 0.168335 0.500000
O O2 0.381851 0.260194 0.535187
O O3 0.183360 0.244221 0.367090
O O4 0.287041 0.000000 0.457843
O O5 0.759394 0.500000 0.109000
O O6 0.681137 0.722252 0.131847
O O7 0.958865 0.732420 0.195778
O O8 0.651598 0.733895 0.017518
O O9 0.483454 0.500000 0.368436
O O10 0.460088 0.249132 0.308517
O O11 0.281519 0.285511 0.313843
O O12 0.014839 0.500000 0.920895
O O13 0.857772 0.758476 0.855825
O O14 0.000000 0.649064 0.000000
O O15 0.187002 0.749088 0.008650
O O16 0.618869 0.784561 0.822553
O O17 0.680971 0.000000 0.783321
O O18 0.502599 0.500000 0.093543
O O19 0.509706 0.761229 0.141074
O O20 0.857867 0.500000 0.693055
O O21 0.665099 0.000000 0.909180
#
# Coordination Sequence:
#
# PCOD8059445 Si02
#       8
#     4   4   4   4   4   4   4   4
#     4   9  17  30  46  66  94 125 155 187 231 281
#     4   8  16  31  49  71  94 120 156 199 241 277
#     4  10  19  29  46  71  97 125 159 193 227 272
#     4   9  17  29  44  61  83 115 157 196 225 265
#     4  10  20  32  44  63  95 127 156 191 233 280
#     4   9  17  31  51  69  91 124 161 198 236 277
#     4   9  17  30  48  69  95 123 155 193 233 277
#     4  10  20  32  45  64  92 126 157 193 240 278
#
# _framework density 17.274108999999999
#
# number of rings (size 3 to 8) (size 9 to 14) (size 15 to 20)
#    0.000    2.750    0.000    2.625    1.750    5.000 
#    0.000    2.500    0.000    0.000    0.000    0.875 
#    0.000    7.000    0.000    0.000    0.000    0.000 
#
# Total GULP energy -396703.993149 kJ/mol
# GULP energy per Si atom -12396.999786 kJ/mol
# Density = 1.723479 g / cm^3
# Si number density = 17.274109 Si / 1000 Ang^3
#
#
#
# Elastic Constant Matrix: (Units=GPa)
#
#
# Indices 1 2 3 4 5 6 
#
# 1 68.6756 29.6543 15.0345 0.0000 -11.3072 0.0000
# 2 29.6543 79.7722 25.5201 0.0000 -14.4698 0.0000
# 3 15.0345 25.5201 62.5771 0.0000 -11.7903 0.0000
# 4 0.0000 0.0000 0.0000 25.5951 0.0000 -6.4806
# 5 -11.3072 -14.4698 -11.7903 0.0000 23.5563 0.0000
# 6 0.0000 0.0000 0.0000 -6.4806 0.0000 21.3140
#
#
#
# Elastic Compliance Matrix: (Units=1/GPa)
#
#
# Indices 1 2 3 4 5 6 
#
# 1 0.017942 -0.005435 -0.001215 0.000000 0.004666 0.000000
# 2 -0.005435 0.017033 -0.004594 0.000000 0.005555 0.000000
# 3 -0.001215 -0.004594 0.019327 0.000000 0.006268 0.000000
# 4 0.000000 0.000000 0.000000 0.042329 0.000000 0.012870
# 5 0.004666 0.005555 0.006268 0.000000 0.051240 0.000000
# 6 0.000000 0.000000 0.000000 0.012870 0.000000 0.050831
#
#
# Mechanical properties :
#
#
# Convention : Reuss Voigt Hill
#
# Bulk Modulus (GPa) = 31.43271 39.04921 35.24096
# Shear Modulus (GPa) = 21.57082 23.48084 22.52583
#
# Velocity S-wave (km/s) = 3.53758 3.69088 3.61504
# Velocity P-wave (km/s) = 5.90948 6.38891 6.15386
#
# Compressibility (1/GPa) = 0.03181399
#
# Stress axis : x y z
#
# Youngs Moduli (GPa) = 55.73468 58.70856 51.74157
#
# Poissons Ratio (x) = 0.31906 0.06288
# Poissons Ratio (y) = 0.30290 0.23771
# Poissons Ratio (z) = 0.06773 0.26972
#
# Static dielectric constant tensor:
#      x y z
#    x 3.119000 0.000000 -0.061480 
#    y 0.000000 3.175240 0.000000 
#    z -0.061480 0.000000 3.275630 
# 
# 
# High freq. dielectric constant tensor:
#      x y z
#    x 1.643960 0.000000 -0.020140 
#    y 0.000000 1.664510 0.000000 
#    z -0.020140 0.000000 1.646150 
# 
# From -- ./inp_files/93141.got.cif
#   From: 2010.06.25/outbox.cif.g09.slc.cpg/sg10_47_cif.got.tgz:93141.got - 2010.06.27 22:07:45.
