data_PCOD8059042
_publ_section_title
;
Structure prediction by ZEFSAII (Michael W. Deem and Ramdas Pophale) SiO2 
 PCOD8059042
Probable space group: P 2/M
;
_chemical_formula_sum "Si O2"
_cell_formula_units_Z 20
_cell_length_a 11.683055
_cell_length_b 7.753196
_cell_length_c 16.529844
_cell_angle_alpha 90.000000
_cell_angle_beta 135.824648
_cell_angle_gamma 90.000000
_cell_volume 1043.396502
_symmetry_space_group_name_H-M "P 2/M"
_symmetry_group_IT_number 10
_symmetry_cell_setting 'monoclinic'
loop_
_space_group_symop_operation_xyz
x,y,z
-x,y,-z
-x,-y,-z
x,-y,z
loop_
_atom_site_type_symbol
_atom_site_label
_atom_site_fract_x
_atom_site_fract_y
_atom_site_fract_z
Si Si1 0.520561 0.198513 0.755995
Si Si2 0.940437 0.311104 0.757023
Si Si3 0.274131 0.500000 0.647485
Si Si4 0.399404 0.806969 0.378409
Si Si5 0.979956 0.500000 0.622525
Si Si6 0.140807 0.701281 0.008615
O O1 0.379808 0.326808 0.716720
O O2 0.567863 0.276621 0.691937
O O3 0.456059 0.000000 0.723359
O O4 0.687317 0.201552 0.892429
O O5 0.881236 0.500000 0.759198
O O6 0.790956 0.182271 0.694271
O O7 0.986814 0.329912 0.684976
O O8 0.090332 0.252151 0.890421
O O9 0.137488 0.500000 0.646872
O O10 0.187218 0.500000 0.515167
O O11 0.500000 0.706914 0.500000
O O12 0.468284 0.000000 0.406749
O O13 0.172659 0.500000 0.037705
O O14 0.000000 0.766667 0.000000
#
# Coordination Sequence:
#
# PCOD8059042 Si02
#       6
#     4   4   2   4   2   4
#     4  11  23  36  58  90 118 153 193 233 290 348
#     4   9  19  34  55  81 109 142 193 228 278 343
#     4  11  22  42  63  80 116 152 198 247 284 337
#     4  10  20  32  49  82 120 147 179 233 292 347
#     4   9  22  40  61  86 104 156 202 235 296 337
#     4  10  18  33  55  84 117 153 183 225 284 347
#
# _framework density 19.168168999999999
#
# number of rings (size 3 to 8) (size 9 to 14) (size 15 to 20)
#    0.600    1.400    3.000    1.200    1.400    1.600 
#    0.000    5.000    0.000    1.200    0.000    0.000 
#    0.000    0.000    0.000    0.000    0.000    0.000 
#
# Total GULP energy -247810.390535 kJ/mol
# GULP energy per Si atom -12390.519527 kJ/mol
# Density = 1.912454 g / cm^3
# Si number density = 19.168169 Si / 1000 Ang^3
#
#
#
# Elastic Constant Matrix: (Units=GPa)
#
#
# Indices 1 2 3 4 5 6 
#
# 1 76.0007 22.4294 33.0385 0.0000 5.2513 0.0000
# 2 22.4294 65.5725 24.8509 0.0000 9.5940 0.0000
# 3 33.0385 24.8509 136.5237 0.0000 1.2914 0.0000
# 4 0.0000 0.0000 0.0000 18.6783 0.0000 2.4525
# 5 5.2513 9.5940 1.2914 0.0000 30.3224 0.0000
# 6 0.0000 0.0000 0.0000 2.4525 0.0000 16.5986
#
#
#
# Elastic Compliance Matrix: (Units=1/GPa)
#
#
# Indices 1 2 3 4 5 6 
#
# 1 0.015776 -0.004039 -0.003070 0.000000 -0.001323 0.000000
# 2 -0.004039 0.018228 -0.002294 0.000000 -0.004970 0.000000
# 3 -0.003070 -0.002294 0.008477 0.000000 0.000896 0.000000
# 4 0.000000 0.000000 0.000000 0.054597 0.000000 -0.008067
# 5 -0.001323 -0.004970 0.000896 0.000000 0.034742 0.000000
# 6 0.000000 0.000000 0.000000 -0.008067 0.000000 0.061438
#
#
# Mechanical properties :
#
#
# Convention : Reuss Voigt Hill
#
# Bulk Modulus (GPa) = 42.23774 48.74829 45.49302
# Shear Modulus (GPa) = 22.73183 26.30505 24.51844
#
# Velocity S-wave (km/s) = 3.44745 3.70852 3.58036
# Velocity P-wave (km/s) = 6.15871 6.62001 6.39352
#
# Compressibility (1/GPa) = 0.02367551
#
# Stress axis : x y z
#
# Youngs Moduli (GPa) = 63.38821 54.85970 117.97074
#
# Poissons Ratio (x) = 0.22158 0.36217
# Poissons Ratio (y) = 0.25603 0.27057
# Poissons Ratio (z) = 0.19460 0.12582
#
# Static dielectric constant tensor:
#      x y z
#    x 3.179520 0.000000 -0.229300 
#    y 0.000000 3.200190 0.000000 
#    z -0.229300 0.000000 3.748540 
# 
# 
# High freq. dielectric constant tensor:
#      x y z
#    x 1.707820 0.000000 -0.009860 
#    y 0.000000 1.724610 0.000000 
#    z -0.009860 0.000000 1.766440 
# 
# From -- ./inp_files/76079.got.cif
#   From: 2010.06.25/outbox.cif.g09.slc.cpg/sg10_39_cif.got.tgz:76079.got - 2010.06.27 22:07:45.
