data_PCOD8059312
_publ_section_title
;
Structure prediction by ZEFSAII (Michael W. Deem and Ramdas Pophale) SiO2 
 PCOD8059312
Probable space group: P 2/M
;
_chemical_formula_sum "Si O2"
_cell_formula_units_Z 32
_cell_length_a 16.441366
_cell_length_b 9.206936
_cell_length_c 23.195316
_cell_angle_alpha 90.000000
_cell_angle_beta 149.406987
_cell_angle_gamma 90.000000
_cell_volume 1786.968386
_symmetry_space_group_name_H-M "P 2/M"
_symmetry_group_IT_number 10
_symmetry_cell_setting 'monoclinic'
loop_
_space_group_symop_operation_xyz
x,y,z
-x,y,-z
-x,-y,-z
x,-y,z
loop_
_atom_site_type_symbol
_atom_site_label
_atom_site_fract_x
_atom_site_fract_y
_atom_site_fract_z
Si Si1 0.364879 0.829637 0.463084
Si Si2 0.496480 0.333447 0.777112
Si Si3 0.955660 0.668750 0.724909
Si Si4 0.265066 0.335663 0.980564
Si Si5 0.759867 0.671119 0.284386
Si Si6 0.610469 0.164732 0.393102
Si Si7 0.485773 0.844064 0.926262
Si Si8 0.981498 0.830178 0.622229
O O1 0.500000 0.788359 0.500000
O O2 0.207688 0.738698 0.351811
O O3 0.427871 0.785764 0.564982
O O4 0.319952 0.000000 0.434345
O O5 0.473706 0.500000 0.748566
O O6 0.667025 0.304568 0.913252
O O7 0.343020 0.282298 0.721955
O O8 0.498882 0.252675 0.717847
O O9 0.930200 0.500000 0.693273
O O10 0.018992 0.750568 0.705988
O O11 0.076362 0.683534 0.853401
O O12 0.318442 0.500000 0.997034
O O13 0.344938 0.219484 0.988283
O O14 0.792587 0.500000 0.302417
O O15 0.651425 0.723787 0.165159
O O16 0.926655 0.756154 0.376235
O O17 0.796775 0.189231 0.493902
O O18 0.560214 0.000000 0.353597
O O19 0.450939 0.000000 0.873049
O O20 0.500000 0.883311 0.000000
O O21 0.028774 0.000000 0.656818
#
# Coordination Sequence:
#
# PCOD8059312 Si02
#       8
#     4   4   4   4   4   4   4   4
#     4   9  19  37  59  82 108 132 154 191 246 301
#     4   9  19  34  49  67  96 135 174 209 247 291
#     4  10  19  32  53  79 105 131 164 206 249 297
#     4   9  19  33  47  67  97 132 166 203 247 291
#     4  10  20  32  45  64  93 131 174 215 254 293
#     4   9  19  34  52  74  98 127 163 203 247 296
#     4  10  19  28  41  63  90 124 168 214 255 295
#     4  10  20  33  48  70 101 133 169 214 261 301
#
# _framework density 17.907425
#
# number of rings (size 3 to 8) (size 9 to 14) (size 15 to 20)
#    0.000    2.500    0.000    3.750    0.000    9.750 
#    0.000    2.500    0.000    0.750    0.000    5.250 
#    0.000    0.000    0.000    0.000    0.000    0.000 
#
# Total GULP energy -396494.544924 kJ/mol
# GULP energy per Si atom -12390.454529 kJ/mol
# Density = 1.786667 g / cm^3
# Si number density = 17.907425 Si / 1000 Ang^3
#
#
#
# Elastic Constant Matrix: (Units=GPa)
#
#
# Indices 1 2 3 4 5 6 
#
# 1 81.6868 42.9257 45.4352 0.0000 -6.5186 0.0000
# 2 42.9257 89.2704 47.4184 0.0000 -5.0360 0.0000
# 3 45.4352 47.4184 94.6676 0.0000 -15.5357 0.0000
# 4 0.0000 0.0000 0.0000 26.2081 0.0000 -5.2505
# 5 -6.5186 -5.0360 -15.5357 0.0000 19.4222 0.0000
# 6 0.0000 0.0000 0.0000 -5.2505 0.0000 19.4935
#
#
#
# Elastic Compliance Matrix: (Units=1/GPa)
#
#
# Indices 1 2 3 4 5 6 
#
# 1 0.018632 -0.005731 -0.006089 0.000000 -0.000103 0.000000
# 2 -0.005731 0.017130 -0.006235 0.000000 -0.002469 0.000000
# 3 -0.006089 -0.006235 0.018427 0.000000 0.011079 0.000000
# 4 0.000000 0.000000 0.000000 0.040332 0.000000 0.010863
# 5 -0.000103 -0.002469 0.011079 0.000000 0.059675 0.000000
# 6 0.000000 0.000000 0.000000 0.010863 0.000000 0.054225
#
#
# Mechanical properties :
#
#
# Convention : Reuss Voigt Hill
#
# Bulk Modulus (GPa) = 55.31052 59.68705 57.49878
# Shear Modulus (GPa) = 19.95555 21.68114 20.81834
#
# Velocity S-wave (km/s) = 3.34184 3.48334 3.41332
# Velocity P-wave (km/s) = 6.77086 7.04141 6.90746
#
# Compressibility (1/GPa) = 0.01807974
#
# Stress axis : x y z
#
# Youngs Moduli (GPa) = 53.67213 58.37623 54.26879
#
# Poissons Ratio (x) = 0.33454 0.33042
# Poissons Ratio (y) = 0.30758 0.33838
# Poissons Ratio (z) = 0.32678 0.36399
#
# Static dielectric constant tensor:
#      x y z
#    x 3.087010 0.000000 -0.018460 
#    y 0.000000 3.453090 0.000000 
#    z -0.018460 0.000000 3.267310 
# 
# 
# High freq. dielectric constant tensor:
#      x y z
#    x 1.655150 0.000000 -0.005430 
#    y 0.000000 1.707040 0.000000 
#    z -0.005430 0.000000 1.686630 
# 
# From -- ./inp_files/56417.got.cif
#   From: 2010.06.25/outbox.cif.g09.slc.cpg/sg10_29_cif.got.tgz:56417.got - 2010.06.27 22:07:45.
