data_PCOD8059575
_publ_section_title
;
Structure prediction by ZEFSAII (Michael W. Deem and Ramdas Pophale) SiO2 
 PCOD8059575
Probable space group: P 2/M
;
_chemical_formula_sum "Si O2"
_cell_formula_units_Z 32
_cell_length_a 20.977467
_cell_length_b 8.941363
_cell_length_c 12.594733
_cell_angle_alpha 90.000000
_cell_angle_beta 53.318774
_cell_angle_gamma 90.000000
_cell_volume 1894.543721
_symmetry_space_group_name_H-M "P 2/M"
_symmetry_group_IT_number 10
_symmetry_cell_setting 'monoclinic'
loop_
_space_group_symop_operation_xyz
x,y,z
-x,y,-z
-x,-y,-z
x,-y,z
loop_
_atom_site_type_symbol
_atom_site_label
_atom_site_fract_x
_atom_site_fract_y
_atom_site_fract_z
Si Si1 0.833714 0.177106 0.289181
Si Si2 0.839879 0.671094 0.059586
Si Si3 0.413747 0.171892 0.215207
Si Si4 0.407072 0.825906 0.598309
Si Si5 0.007765 0.834554 0.118284
Si Si6 0.319023 0.676164 0.491089
Si Si7 0.402493 0.828361 0.983511
Si Si8 0.326362 0.328479 0.872076
O O1 0.820722 0.232002 0.182031
O O2 0.921561 0.220800 0.246478
O O3 0.768900 0.253257 0.429408
O O4 0.822458 0.000000 0.300421
O O5 0.850326 0.500000 0.084664
O O6 0.767819 0.692097 0.049622
O O7 0.920715 0.724463 0.920038
O O8 0.366179 0.281539 0.338702
O O9 0.385233 0.203001 0.124014
O O10 0.397492 0.000000 0.263425
O O11 0.506488 0.208380 0.134737
O O12 0.500000 0.792452 0.500000
O O13 0.363389 0.734309 0.550818
O O14 0.376385 0.774507 0.743043
O O15 0.388303 0.000000 0.600637
O O16 0.027342 0.000000 0.143009
O O17 0.000000 0.840451 0.000000
O O18 0.311159 0.500000 0.507962
O O19 0.383824 0.000000 0.974460
O O20 0.345585 0.721498 0.972505
O O21 0.351560 0.500000 0.829269
#
# Coordination Sequence:
#
# PCOD8059575 Si02
#       8
#     4   4   4   4   4   4   4   4
#     4  10  19  32  49  69  97 133 169 205 242 291
#     4  10  19  30  45  70 102 134 164 200 246 296
#     4   9  19  37  56  74  96 126 169 215 253 295
#     4  11  23  36  50  68  95 135 174 204 243 296
#     4   8  16  29  46  68  93 127 168 203 240 287
#     4  12  23  33  49  75 103 132 165 204 254 302
#     4   9  19  36  57  75  94 127 171 213 252 295
#     4  11  22  33  48  74 105 133 164 204 249 297
#
# _framework density 16.890611
#
# number of rings (size 3 to 8) (size 9 to 14) (size 15 to 20)
#    0.000    2.000    1.250    4.875    0.000    9.250 
#    0.000    1.250    0.000    0.000    0.000    0.875 
#    0.000    7.000    0.000    0.000    0.000    0.000 
#
# Total GULP energy -396824.608188 kJ/mol
# GULP energy per Si atom -12400.769006 kJ/mol
# Density = 1.685217 g / cm^3
# Si number density = 16.890611 Si / 1000 Ang^3
#
#
#
# Elastic Constant Matrix: (Units=GPa)
#
#
# Indices 1 2 3 4 5 6 
#
# 1 83.1843 46.9213 33.6882 0.0000 -8.0269 0.0000
# 2 46.9213 96.4173 31.7753 0.0000 -10.5007 0.0000
# 3 33.6882 31.7753 48.4601 0.0000 -3.0927 0.0000
# 4 0.0000 0.0000 0.0000 20.8315 0.0000 -1.3099
# 5 -8.0269 -10.5007 -3.0927 0.0000 21.8880 0.0000
# 6 0.0000 0.0000 0.0000 -1.3099 0.0000 24.1034
#
#
#
# Elastic Compliance Matrix: (Units=1/GPa)
#
#
# Indices 1 2 3 4 5 6 
#
# 1 0.019552 -0.006097 -0.009408 0.000000 0.002916 0.000000
# 2 -0.006097 0.015738 -0.005794 0.000000 0.004496 0.000000
# 3 -0.009408 -0.005794 0.030856 0.000000 -0.001870 0.000000
# 4 0.000000 0.000000 0.000000 0.048169 0.000000 0.002618
# 5 0.002916 0.004496 -0.001870 0.000000 0.048649 0.000000
# 6 0.000000 0.000000 0.000000 0.002618 0.000000 0.041630
#
#
# Mechanical properties :
#
#
# Convention : Reuss Voigt Hill
#
# Bulk Modulus (GPa) = 42.46773 50.31460 46.39117
# Shear Modulus (GPa) = 19.60471 21.07636 20.34053
#
# Velocity S-wave (km/s) = 3.41058 3.53627 3.47400
# Velocity P-wave (km/s) = 6.38019 6.82106 6.60430
#
# Compressibility (1/GPa) = 0.02354729
#
# Stress axis : x y z
#
# Youngs Moduli (GPa) = 51.14546 63.54199 32.40890
#
# Poissons Ratio (x) = 0.38740 0.30491
# Poissons Ratio (y) = 0.31182 0.18778
# Poissons Ratio (z) = 0.48119 0.36816
#
# Static dielectric constant tensor:
#      x y z
#    x 3.226400 0.000000 -0.329410 
#    y 0.000000 3.231160 0.000000 
#    z -0.329410 0.000000 3.158660 
# 
# 
# High freq. dielectric constant tensor:
#      x y z
#    x 1.640440 0.000000 -0.023250 
#    y 0.000000 1.661310 0.000000 
#    z -0.023250 0.000000 1.630090 
# 
# From -- ./inp_files/55295.got.cif
#   From: 2010.06.25/outbox.cif.g09.slc.cpg/sg10_28_cif.got.tgz:55295.got - 2010.06.27 22:07:45.
