data_PCOD8059817
_publ_section_title
;
Structure prediction by ZEFSAII (Michael W. Deem and Ramdas Pophale) SiO2 
 PCOD8059817
Probable space group: P 2/M
;
_chemical_formula_sum "Si O2"
_cell_formula_units_Z 32
_cell_length_a 12.354340
_cell_length_b 9.020902
_cell_length_c 20.333518
_cell_angle_alpha 90.000000
_cell_angle_beta 59.780033
_cell_angle_gamma 90.000000
_cell_volume 1958.149150
_symmetry_space_group_name_H-M "P 2/M"
_symmetry_group_IT_number 10
_symmetry_cell_setting 'monoclinic'
loop_
_space_group_symop_operation_xyz
x,y,z
-x,y,-z
-x,-y,-z
x,-y,z
loop_
_atom_site_type_symbol
_atom_site_label
_atom_site_fract_x
_atom_site_fract_y
_atom_site_fract_z
Si Si1 0.207234 0.325424 0.095892
Si Si2 0.449268 0.336935 0.088928
Si Si3 0.282378 0.326288 0.813340
Si Si4 0.387951 0.667322 0.482303
Si Si5 0.678639 0.175277 0.064978
Si Si6 0.550746 0.832569 0.336267
Si Si7 0.226286 0.166516 0.628068
Si Si8 0.933234 0.672189 0.223297
O O1 0.212249 0.500000 0.076805
O O2 0.303545 0.288774 0.126467
O O3 0.070818 0.274458 0.160779
O O4 0.242144 0.233381 0.020709
O O5 0.460747 0.500000 0.118483
O O6 0.531686 0.221422 0.105395
O O7 0.500000 0.345330 0.000000
O O8 0.303393 0.500000 0.817357
O O9 0.260364 0.246518 0.889214
O O10 0.405335 0.259488 0.740643
O O11 0.159138 0.292161 0.808567
O O12 0.500000 0.668872 0.500000
O O13 0.353625 0.500000 0.472864
O O14 0.427810 0.755925 0.404607
O O15 0.265125 0.743578 0.550970
O O16 0.688019 0.000000 0.065966
O O17 0.659280 0.831989 0.356709
O O18 0.517465 0.000000 0.325139
O O19 0.106238 0.240778 0.698996
O O20 0.191421 0.000000 0.617919
O O21 0.929903 0.500000 0.242258
#
# Coordination Sequence:
#
# PCOD8059817 Si02
#       8
#     4   4   4   4   4   4   4   4
#     4   9  18  33  50  66  85 111 144 181 221 262
#     4   8  15  30  50  67  83 105 136 177 223 265
#     4  10  19  31  45  61  86 119 151 179 212 257
#     4   9  15  23  37  56  78 108 146 180 210 250
#     4  11  21  31  45  65  88 113 144 182 221 259
#     4   9  16  26  39  57  82 110 142 179 218 255
#     4   9  16  25  38  57  83 113 142 176 216 254
#     4   9  18  31  46  63  85 116 150 181 213 256
#
# _framework density 16.341961999999999
#
# number of rings (size 3 to 8) (size 9 to 14) (size 15 to 20)
#    0.000    2.750    0.000    3.375    0.000    8.250 
#    0.000    2.500    0.000    0.000    0.000    0.000 
#    0.000    1.000    0.000   10.750    0.000    7.875 
#
# Total GULP energy -396724.841090 kJ/mol
# GULP energy per Si atom -12397.651284 kJ/mol
# Density = 1.630477 g / cm^3
# Si number density = 16.341962 Si / 1000 Ang^3
#
#
#
# Elastic Constant Matrix: (Units=GPa)
#
#
# Indices 1 2 3 4 5 6 
#
# 1 52.0513 33.6390 42.0278 0.0000 -19.0115 0.0000
# 2 33.6390 116.6580 54.8672 0.0000 -18.8921 0.0000
# 3 42.0278 54.8672 95.7542 0.0000 -29.8512 0.0000
# 4 0.0000 0.0000 0.0000 25.9892 0.0000 0.5639
# 5 -19.0115 -18.8921 -29.8512 0.0000 11.9045 0.0000
# 6 0.0000 0.0000 0.0000 0.5639 0.0000 13.8049
#
#
#
# Elastic Compliance Matrix: (Units=1/GPa)
#
#
# Indices 1 2 3 4 5 6 
#
# 1 0.050490 -0.003302 0.014820 0.000000 0.112555 0.000000
# 2 -0.003302 0.012122 -0.005238 0.000000 0.000830 0.000000
# 3 0.014820 -0.005238 0.053726 0.000000 0.150077 0.000000
# 4 0.000000 0.000000 0.000000 0.038512 0.000000 -0.001573
# 5 0.112555 0.000830 0.150077 0.000000 0.641399 0.000000
# 6 0.000000 0.000000 0.000000 -0.001573 0.000000 0.072502
#
#
# Mechanical properties :
#
#
# Convention : Reuss Voigt Hill
#
# Bulk Modulus (GPa) = 7.75802 58.39236 33.07519
# Shear Modulus (GPa) = 5.56076 19.26835 12.41456
#
# Velocity S-wave (km/s) = 1.84666 3.43749 2.75921
# Velocity P-wave (km/s) = 3.05032 7.18082 5.51673
#
# Compressibility (1/GPa) = 0.12889892
#
# Stress axis : x y z
#
# Youngs Moduli (GPa) = 19.80604 82.49380 18.61280
#
# Poissons Ratio (x) = 0.27236 -0.27584
# Poissons Ratio (y) = 0.06539 0.09750
# Poissons Ratio (z) = -0.29353 0.43212
#
# Static dielectric constant tensor:
#      x y z
#    x 2.932810 0.000000 -0.183860 
#    y 0.000000 3.187610 0.000000 
#    z -0.183860 0.000000 3.081820 
# 
# 
# High freq. dielectric constant tensor:
#      x y z
#    x 1.578230 0.000000 -0.014050 
#    y 0.000000 1.639170 0.000000 
#    z -0.014050 0.000000 1.621380 
# 
# From -- ./inp_files/52799.got.cif
#   From: 2010.06.25/outbox.cif.g09.slc.cpg/sg10_27_cif.got.tgz:52799.got - 2010.06.27 22:07:45.
