data_PCOD8059708
_publ_section_title
;
Structure prediction by ZEFSAII (Michael W. Deem and Ramdas Pophale) SiO2 
 PCOD8059708
Probable space group: P 2/M
;
_chemical_formula_sum "Si O2"
_cell_formula_units_Z 32
_cell_length_a 14.206018
_cell_length_b 8.745561
_cell_length_c 15.547322
_cell_angle_alpha 90.000000
_cell_angle_beta 90.278693
_cell_angle_gamma 90.000000
_cell_volume 1931.570169
_symmetry_space_group_name_H-M "P 2/M"
_symmetry_group_IT_number 10
_symmetry_cell_setting 'monoclinic'
loop_
_space_group_symop_operation_xyz
x,y,z
-x,y,-z
-x,-y,-z
x,-y,z
loop_
_atom_site_type_symbol
_atom_site_label
_atom_site_fract_x
_atom_site_fract_y
_atom_site_fract_z
Si Si1 0.598361 0.679903 0.410300
Si Si2 0.104497 0.178090 0.825808
Si Si3 0.219561 0.679975 0.344427
Si Si4 0.109078 0.823217 0.497669
Si Si5 0.227017 0.822806 0.665995
Si Si6 0.596375 0.180861 0.595114
Si Si7 0.111813 0.330962 0.998028
Si Si8 0.097232 0.318805 0.183902
O O1 0.594341 0.500000 0.428114
O O2 0.679798 0.720451 0.343319
O O3 0.498608 0.737156 0.372660
O O4 0.621383 0.767756 0.498638
O O5 0.181337 0.226606 0.755846
O O6 0.006902 0.256719 0.801162
O O7 0.085192 0.000000 0.823652
O O8 0.144929 0.224090 0.919831
O O9 0.238667 0.500000 0.341696
O O10 0.159628 0.717744 0.428416
O O11 0.318590 0.768399 0.343312
O O12 0.164231 0.738993 0.260253
O O13 0.152328 0.787809 0.590799
O O14 0.000000 0.778512 0.500000
O O15 0.123293 0.000000 0.471524
O O16 0.256418 0.000000 0.665705
O O17 0.582657 0.000000 0.597678
O O18 0.154599 0.500000 0.983172
O O19 0.141605 0.264525 0.092074
O O20 0.000000 0.340542 0.000000
O O21 0.088360 0.500000 0.182950
#
# Coordination Sequence:
#
# PCOD8059708 Si02
#       8
#     4   4   4   4   4   4   4   4
#     4  11  21  34  53  74  94 121 163 207 241 283
#     4  10  19  30  48  73  99 129 166 205 240 284
#     4  11  21  33  49  72  97 126 167 207 238 282
#     4  10  20  33  47  64  94 136 169 194 234 287
#     4  10  20  33  47  68 100 133 162 196 244 292
#     4  11  21  35  53  71  96 127 157 198 252 296
#     4   8  15  30  48  66  93 129 163 199 247 291
#     4   9  19  33  48  68  99 134 164 201 247 288
#
# _framework density 16.566832000000002
#
# number of rings (size 3 to 8) (size 9 to 14) (size 15 to 20)
#    0.000    2.000    1.250    5.250    0.000    5.500 
#    0.000    0.000    0.000    0.000    0.000    0.875 
#    0.000    7.000    0.000    0.000    0.000    0.000 
#
# Total GULP energy -396808.683148 kJ/mol
# GULP energy per Si atom -12400.271348 kJ/mol
# Density = 1.652912 g / cm^3
# Si number density = 16.566832 Si / 1000 Ang^3
#
#
#
# Elastic Constant Matrix: (Units=GPa)
#
#
# Indices 1 2 3 4 5 6 
#
# 1 93.6585 27.1875 40.3978 0.0000 -8.2447 0.0000
# 2 27.1875 55.6537 25.2479 0.0000 -4.2439 0.0000
# 3 40.3978 25.2479 97.2747 0.0000 -10.3918 0.0000
# 4 0.0000 0.0000 0.0000 23.4842 0.0000 -1.2115
# 5 -8.2447 -4.2439 -10.3918 0.0000 14.5634 0.0000
# 6 0.0000 0.0000 0.0000 -1.2115 0.0000 21.8738
#
#
#
# Elastic Compliance Matrix: (Units=1/GPa)
#
#
# Indices 1 2 3 4 5 6 
#
# 1 0.014217 -0.004723 -0.004293 0.000000 0.003609 0.000000
# 2 -0.004723 0.022009 -0.003628 0.000000 0.001151 0.000000
# 3 -0.004293 -0.003628 0.013675 0.000000 0.006270 0.000000
# 4 0.000000 0.000000 0.000000 0.042704 0.000000 0.002365
# 5 0.003609 0.001151 0.006270 0.000000 0.075518 0.000000
# 6 0.000000 0.000000 0.000000 0.002365 0.000000 0.045848
#
#
# Mechanical properties :
#
#
# Convention : Reuss Voigt Hill
#
# Bulk Modulus (GPa) = 40.62855 48.02817 44.32836
# Shear Modulus (GPa) = 20.20502 22.23451 21.21977
#
# Velocity S-wave (km/s) = 3.49608 3.66746 3.58279
# Velocity P-wave (km/s) = 6.39328 6.85472 6.62801
#
# Compressibility (1/GPa) = 0.02461323
#
# Stress axis : x y z
#
# Youngs Moduli (GPa) = 70.33609 45.43583 73.12822
#
# Poissons Ratio (x) = 0.21457 0.31395
# Poissons Ratio (y) = 0.33217 0.26533
# Poissons Ratio (z) = 0.30196 0.16485
#
# Static dielectric constant tensor:
#      x y z
#    x 3.086850 0.000000 0.105910 
#    y 0.000000 3.123140 0.000000 
#    z 0.105910 0.000000 3.402020 
# 
# 
# High freq. dielectric constant tensor:
#      x y z
#    x 1.620230 0.000000 0.000640 
#    y 0.000000 1.644020 0.000000 
#    z 0.000640 0.000000 1.627160 
# 
# From -- ./inp_files/66115.got.cif
#   From: 2010.06.25/outbox.cif.g09.slc.cpg/sg10_34_cif.got.tgz:66115.got - 2010.06.27 22:07:45.
