data_PCOD8059060
_publ_section_title
;
Structure prediction by ZEFSAII (Michael W. Deem and Ramdas Pophale) SiO2 
 PCOD8059060
Probable space group: P 2/M
;
_chemical_formula_sum "Si O2"
_cell_formula_units_Z 32
_cell_length_a 21.793553
_cell_length_b 9.144546
_cell_length_c 27.931025
_cell_angle_alpha 90.000000
_cell_angle_beta 161.858350
_cell_angle_gamma 90.000000
_cell_volume 1733.205545
_symmetry_space_group_name_H-M "P 2/M"
_symmetry_group_IT_number 10
_symmetry_cell_setting 'monoclinic'
loop_
_space_group_symop_operation_xyz
x,y,z
-x,y,-z
-x,-y,-z
x,-y,z
loop_
_atom_site_type_symbol
_atom_site_label
_atom_site_fract_x
_atom_site_fract_y
_atom_site_fract_z
Si Si1 0.400277 0.828933 0.602211
Si Si2 0.559809 0.673467 0.270880
Si Si3 0.192289 0.173392 0.276740
Si Si4 0.195508 0.831609 0.963591
Si Si5 0.947472 0.834427 0.249233
Si Si6 0.277993 0.326607 0.838191
Si Si7 0.027463 0.673875 0.466786
Si Si8 0.526346 0.826570 0.594324
O O1 0.477646 0.738189 0.704466
O O2 0.522228 0.772086 0.646160
O O3 0.173036 0.792947 0.424793
O O4 0.435948 0.000000 0.638427
O O5 0.553898 0.500000 0.268828
O O6 0.766948 0.730153 0.402937
O O7 0.387739 0.731192 0.108957
O O8 0.269943 0.220034 0.281345
O O9 0.341261 0.238200 0.427247
O O10 0.968605 0.226474 0.119988
O O11 0.194792 0.000000 0.283920
O O12 0.100554 0.812018 0.841515
O O13 0.253677 0.000000 0.016627
O O14 0.812761 0.726973 0.179691
O O15 0.905468 0.000000 0.234466
O O16 0.275855 0.500000 0.837170
O O17 0.151152 0.268051 0.698902
O O18 0.500000 0.265594 0.000000
O O19 0.026784 0.500000 0.468018
O O20 0.000000 0.737790 0.500000
O O21 0.504476 0.000000 0.578689
#
# Coordination Sequence:
#
# PCOD8059060 Si02
#       8
#     4   4   4   4   4   4   4   4
#     4  10  18  33  56  81 107 139 175 216 267 319
#     4  11  23  37  55  77 105 143 181 217 260 311
#     4   8  13  25  48  79 109 133 170 222 264 305
#     4  10  20  35  54  80 111 142 174 217 268 314
#     4  10  20  34  55  81 112 140 169 215 274 321
#     4  10  21  36  57  81 104 135 178 222 262 306
#     4   9  19  36  54  74 101 133 172 218 260 302
#     4   8  13  24  49  81 106 133 172 218 266 310
#
# _framework density 18.462900000000001
#
# number of rings (size 3 to 8) (size 9 to 14) (size 15 to 20)
#    0.000    2.500    2.500    1.125    1.750    0.750 
#    0.000    0.625    0.000    6.375    0.000    1.750 
#    0.000    0.000    0.000    0.000    0.000    0.000 
#
# Total GULP energy -396692.570205 kJ/mol
# GULP energy per Si atom -12396.642819 kJ/mol
# Density = 1.842088 g / cm^3
# Si number density = 18.462900 Si / 1000 Ang^3
#
#
#
# Elastic Constant Matrix: (Units=GPa)
#
#
# Indices 1 2 3 4 5 6 
#
# 1 111.2130 18.6089 25.4033 0.0000 17.4506 0.0000
# 2 18.6089 26.7748 18.8023 0.0000 1.7693 0.0000
# 3 25.4033 18.8023 86.8146 0.0000 12.6937 0.0000
# 4 0.0000 0.0000 0.0000 20.2902 0.0000 -4.0134
# 5 17.4506 1.7693 12.6937 0.0000 22.5866 0.0000
# 6 0.0000 0.0000 0.0000 -4.0134 0.0000 13.3494
#
#
#
# Elastic Compliance Matrix: (Units=1/GPa)
#
#
# Indices 1 2 3 4 5 6 
#
# 1 0.011584 -0.007034 -0.000695 0.000000 -0.008008 0.000000
# 2 -0.007034 0.048409 -0.009442 0.000000 0.006949 0.000000
# 3 -0.000695 -0.009442 0.014796 0.000000 -0.007039 0.000000
# 4 0.000000 0.000000 0.000000 0.052401 0.000000 0.015754
# 5 -0.008008 0.006949 -0.007039 0.000000 0.053873 0.000000
# 6 0.000000 0.000000 0.000000 0.015754 0.000000 0.079646
#
#
# Mechanical properties :
#
#
# Convention : Reuss Voigt Hill
#
# Bulk Modulus (GPa) = 24.72393 38.93683 31.83038
# Shear Modulus (GPa) = 16.20570 22.04443 19.12507
#
# Velocity S-wave (km/s) = 2.96589 3.45916 3.22198
# Velocity P-wave (km/s) = 5.01487 6.09010 5.57845
#
# Compressibility (1/GPa) = 0.04044664
#
# Stress axis : x y z
#
# Youngs Moduli (GPa) = 86.32532 20.65751 67.58373
#
# Poissons Ratio (x) = 0.14530 0.04700
# Poissons Ratio (y) = 0.60718 0.63814
# Poissons Ratio (z) = 0.06003 0.19505
#
# Static dielectric constant tensor:
#      x y z
#    x 3.693770 0.000000 0.130700 
#    y 0.000000 2.960390 0.000000 
#    z 0.130700 0.000000 3.460330 
# 
# 
# High freq. dielectric constant tensor:
#      x y z
#    x 1.730240 0.000000 0.005800 
#    y 0.000000 1.666260 0.000000 
#    z 0.005800 0.000000 1.712830 
# 
# From -- ./inp_files/87073.got.cif
#   From: 2010.06.25/outbox.cif.g09.slc.cpg/sg10_44_cif.got.tgz:87073.got - 2010.06.27 22:07:45.
