data_PCOD8059647
_publ_section_title
;
Structure prediction by ZEFSAII (Michael W. Deem and Ramdas Pophale) SiO2 
 PCOD8059647
Probable space group: P 2/M
;
_chemical_formula_sum "Si O2"
_cell_formula_units_Z 32
_cell_length_a 19.403547
_cell_length_b 9.316570
_cell_length_c 18.894553
_cell_angle_alpha 90.000000
_cell_angle_beta 31.526595
_cell_angle_gamma 90.000000
_cell_volume 1786.025644
_symmetry_space_group_name_H-M "P 2/M"
_symmetry_group_IT_number 10
_symmetry_cell_setting 'monoclinic'
loop_
_space_group_symop_operation_xyz
x,y,z
-x,y,-z
-x,-y,-z
x,-y,z
loop_
_atom_site_type_symbol
_atom_site_label
_atom_site_fract_x
_atom_site_fract_y
_atom_site_fract_z
Si Si1 0.004853 0.329162 0.416730
Si Si2 0.214355 0.331315 0.125552
Si Si3 0.214742 0.165715 0.624987
Si Si4 0.915671 0.158857 0.877730
Si Si5 0.460979 0.332477 0.825372
Si Si6 0.651917 0.841167 0.354344
Si Si7 0.245643 0.667711 0.454046
Si Si8 0.327592 0.165385 0.817787
O O1 0.997000 0.500000 0.426450
O O2 0.145463 0.277982 0.259120
O O3 0.000000 0.264227 0.500000
O O4 0.876677 0.272332 0.485505
O O5 0.211132 0.500000 0.128874
O O6 0.115320 0.279072 0.152263
O O7 0.364857 0.279767 0.975162
O O8 0.284441 0.236686 0.632950
O O9 0.254287 0.251517 0.520639
O O10 0.062021 0.180721 0.776338
O O11 0.258002 0.000000 0.575944
O O12 0.895658 0.000000 0.861342
O O13 0.822575 0.177700 0.026486
O O14 0.434903 0.500000 0.834135
O O15 0.614884 0.304944 0.709265
O O16 0.424701 0.249176 0.785506
O O17 0.500000 0.853353 0.500000
O O18 0.672096 0.763216 0.260833
O O19 0.716612 0.000000 0.292681
O O20 0.226448 0.500000 0.486313
O O21 0.377096 0.000000 0.771737
#
# Coordination Sequence:
#
# PCOD8059647 Si02
#       8
#     4   4   4   4   4   4   4   4
#     4   9  17  30  50  73  95 122 154 186 225 276
#     4   9  16  30  50  69  93 125 154 182 227 279
#     4  10  19  30  47  69  93 121 157 198 234 272
#     4   9  17  28  45  70  93 117 154 197 232 268
#     4   9  18  30  47  71  96 122 155 194 231 269
#     4   9  17  28  42  62  89 122 158 194 232 274
#     4  10  19  32  49  71  96 121 154 194 231 273
#     4   9  17  30  47  66  92 125 159 192 233 277
#
# _framework density 17.916876999999999
#
# number of rings (size 3 to 8) (size 9 to 14) (size 15 to 20)
#    0.000    2.750    1.250    0.750    0.000    2.000 
#    0.000    3.750    0.000    7.500    0.000    4.375 
#    0.000    5.000    0.000    0.000    0.000    0.000 
#
# Total GULP energy -396445.029881 kJ/mol
# GULP energy per Si atom -12388.907184 kJ/mol
# Density = 1.787610 g / cm^3
# Si number density = 17.916877 Si / 1000 Ang^3
#
#
#
# Elastic Constant Matrix: (Units=GPa)
#
#
# Indices 1 2 3 4 5 6 
#
# 1 82.1474 12.6472 61.5248 0.0000 14.9068 0.0000
# 2 12.6472 9.7842 23.6989 0.0000 1.3928 0.0000
# 3 61.5248 23.6989 127.2667 0.0000 10.6396 0.0000
# 4 0.0000 0.0000 0.0000 17.9385 0.0000 -1.6834
# 5 14.9068 1.3928 10.6396 0.0000 32.3477 0.0000
# 6 0.0000 0.0000 0.0000 -1.6834 0.0000 -4.1399
#
#
#
# Elastic Compliance Matrix: (Units=1/GPa)
#
#
# Indices 1 2 3 4 5 6 
#
# 1 0.020399 -0.005225 -0.008351 0.000000 -0.006429 0.000000
# 2 -0.005225 0.187900 -0.032893 0.000000 0.005136 0.000000
# 3 -0.008351 -0.032893 0.018077 0.000000 -0.000681 0.000000
# 4 0.000000 0.000000 0.000000 0.053697 0.000000 -0.021834
# 5 -0.006429 0.005136 -0.000681 0.000000 0.033879 0.000000
# 6 0.000000 0.000000 0.000000 -0.021834 0.000000 -0.232675
#
#
# Mechanical properties :
#
#
# Convention : Reuss Voigt Hill
#
# Bulk Modulus (GPa) = 7.49416 46.10442 26.79929
# Shear Modulus (GPa) = 22.86298 17.31777 20.09038
#
# Velocity S-wave (km/s) = 3.57607 3.11233 3.35223
# Velocity P-wave (km/s) = 4.60900 6.22123 5.47479
#
# Compressibility (1/GPa) = 0.13343724
#
# Stress axis : x y z
#
# Youngs Moduli (GPa) = 49.02254 5.32198 55.31969
#
# Poissons Ratio (x) = 0.02781 0.46197
# Poissons Ratio (y) = 0.25615 1.81964
# Poissons Ratio (z) = 0.40939 0.17506
#
# Static dielectric constant tensor:
#      x y z
#    x 3.271240 0.000000 0.071950 
#    y 0.000000 3.114720 0.000000 
#    z 0.071950 0.000000 3.791890 
# 
# 
# High freq. dielectric constant tensor:
#      x y z
#    x 1.671520 0.000000 -0.000580 
#    y 0.000000 1.654850 0.000000 
#    z -0.000580 0.000000 1.716840 
# 
# From -- ./inp_files/78939.got.cif
#   From: 2010.06.25/outbox.cif.g09.slc.cpg/sg10_40_cif.got.tgz:78939.got - 2010.06.27 22:07:45.
