data_PCOD8059548
_publ_section_title
;
Structure prediction by ZEFSAII (Michael W. Deem and Ramdas Pophale) SiO2 
 PCOD8059548
Probable space group: P 2/M
;
_chemical_formula_sum "Si O2"
_cell_formula_units_Z 32
_cell_length_a 19.578999
_cell_length_b 9.046747
_cell_length_c 14.708519
_cell_angle_alpha 90.000000
_cell_angle_beta 135.839968
_cell_angle_gamma 90.000000
_cell_volume 1814.996388
_symmetry_space_group_name_H-M "P 2/M"
_symmetry_group_IT_number 10
_symmetry_cell_setting 'monoclinic'
loop_
_space_group_symop_operation_xyz
x,y,z
-x,y,-z
-x,-y,-z
x,-y,z
loop_
_atom_site_type_symbol
_atom_site_label
_atom_site_fract_x
_atom_site_fract_y
_atom_site_fract_z
Si Si1 0.319349 0.666448 0.113984
Si Si2 0.999675 0.330172 0.396567
Si Si3 0.467932 0.668072 0.088638
Si Si4 0.470862 0.173803 0.371863
Si Si5 0.682254 0.167027 0.164841
Si Si6 0.615456 0.825798 0.351485
Si Si7 0.827254 0.834989 0.135797
Si Si8 0.778315 0.670430 0.421751
O O1 0.295035 0.500000 0.119887
O O2 0.391421 0.671445 0.097534
O O3 0.370222 0.747279 0.247790
O O4 0.217139 0.746532 0.992431
O O5 0.964622 0.500000 0.365294
O O6 0.106033 0.312463 0.452737
O O7 0.000000 0.267914 0.500000
O O8 0.926291 0.239989 0.264091
O O9 0.500620 0.500000 0.099017
O O10 0.561312 0.767003 0.207976
O O11 0.416926 0.738480 0.950046
O O12 0.500000 0.226317 0.500000
O O13 0.558574 0.221284 0.388033
O O14 0.452123 0.000000 0.348771
O O15 0.745631 0.160986 0.134814
O O16 0.749241 0.247137 0.302034
O O17 0.655089 0.000000 0.169768
O O18 0.721933 0.747260 0.452882
O O19 0.627471 0.000000 0.355998
O O20 0.853239 0.000000 0.128382
O O21 0.747652 0.500000 0.385181
#
# Coordination Sequence:
#
# PCOD8059548 Si02
#       8
#     4   4   4   4   4   4   4   4
#     4   9  17  29  48  74 103 131 161 199 242 291
#     4  10  20  34  50  68  93 129 173 216 254 290
#     4   9  17  30  47  66  92 127 165 200 238 285
#     4   9  18  34  56  80 105 131 158 192 239 296
#     4  10  19  30  45  67  93 125 166 208 247 284
#     4  10  20  34  50  70  98 127 158 198 241 289
#     4  10  19  30  48  71  98 130 167 212 253 290
#     4  11  22  34  48  66  93 129 168 207 247 290
#
# _framework density 17.630889
#
# number of rings (size 3 to 8) (size 9 to 14) (size 15 to 20)
#    0.000    2.250    1.250    2.250    0.000    6.500 
#    0.000    2.500    0.000    0.000    0.000    0.875 
#    0.000    7.000    0.000    0.000    0.000    0.000 
#
# Total GULP energy -396851.883199 kJ/mol
# GULP energy per Si atom -12401.621350 kJ/mol
# Density = 1.759076 g / cm^3
# Si number density = 17.630889 Si / 1000 Ang^3
#
#
#
# Elastic Constant Matrix: (Units=GPa)
#
#
# Indices 1 2 3 4 5 6 
#
# 1 44.1923 27.4375 34.9921 0.0000 4.0463 0.0000
# 2 27.4375 124.6458 65.0199 0.0000 11.0599 0.0000
# 3 34.9921 65.0199 123.8672 0.0000 3.0787 0.0000
# 4 0.0000 0.0000 0.0000 32.3918 0.0000 6.0690
# 5 4.0463 11.0599 3.0787 0.0000 27.3763 0.0000
# 6 0.0000 0.0000 0.0000 6.0690 0.0000 18.4336
#
#
#
# Elastic Compliance Matrix: (Units=1/GPa)
#
#
# Indices 1 2 3 4 5 6 
#
# 1 0.030112 -0.002751 -0.006999 0.000000 -0.002552 0.000000
# 2 -0.002751 0.011713 -0.005278 0.000000 -0.003732 0.000000
# 3 -0.006999 -0.005278 0.012778 0.000000 0.001730 0.000000
# 4 0.000000 0.000000 0.000000 0.032902 0.000000 -0.010832
# 5 -0.002552 -0.003732 0.001730 0.000000 0.038218 0.000000
# 6 0.000000 0.000000 0.000000 -0.010832 0.000000 0.057815
#
#
# Mechanical properties :
#
#
# Convention : Reuss Voigt Hill
#
# Bulk Modulus (GPa) = 40.73964 60.84492 50.79228
# Shear Modulus (GPa) = 22.54519 26.65740 24.60129
#
# Velocity S-wave (km/s) = 3.57982 3.89263 3.73949
# Velocity P-wave (km/s) = 6.34381 7.40194 6.89321
#
# Compressibility (1/GPa) = 0.02454612
#
# Stress axis : x y z
#
# Youngs Moduli (GPa) = 33.20933 85.37690 78.25904
#
# Poissons Ratio (x) = 0.23487 0.54774
# Poissons Ratio (y) = 0.09136 0.41308
# Poissons Ratio (z) = 0.23244 0.45065
#
# Static dielectric constant tensor:
#      x y z
#    x 3.091220 0.000000 0.126730 
#    y 0.000000 3.467750 0.000000 
#    z 0.126730 0.000000 3.195520 
# 
# 
# High freq. dielectric constant tensor:
#      x y z
#    x 1.649360 0.000000 0.017170 
#    y 0.000000 1.696980 0.000000 
#    z 0.017170 0.000000 1.667720 
# 
# From -- ./inp_files/66071.got.cif
#   From: 2010.06.25/outbox.cif.g09.slc.cpg/sg10_34_cif.got.tgz:66071.got - 2010.06.27 22:07:45.
