data_PCOD8059717
_publ_section_title
;
Structure prediction by ZEFSAII (Michael W. Deem and Ramdas Pophale) SiO2 
 PCOD8059717
Probable space group: P 2/M
;
_chemical_formula_sum "Si O2"
_cell_formula_units_Z 28
_cell_length_a 18.962325
_cell_length_b 9.360607
_cell_length_c 15.215472
_cell_angle_alpha 90.000000
_cell_angle_beta 142.456684
_cell_angle_gamma 90.000000
_cell_volume 1645.719093
_symmetry_space_group_name_H-M "P 2/M"
_symmetry_group_IT_number 10
_symmetry_cell_setting 'monoclinic'
loop_
_space_group_symop_operation_xyz
x,y,z
-x,y,-z
-x,-y,-z
x,-y,z
loop_
_atom_site_type_symbol
_atom_site_label
_atom_site_fract_x
_atom_site_fract_y
_atom_site_fract_z
Si Si1 0.371183 0.832198 0.891281
Si Si2 0.241614 0.662731 0.906216
Si Si3 0.007389 0.667320 0.406073
Si Si4 0.393428 0.831926 0.584412
Si Si5 0.771376 0.832208 0.420348
Si Si6 0.637565 0.842954 0.637248
Si Si7 0.626972 0.664599 0.790016
O O1 0.328764 0.758973 0.937615
O O2 0.290470 0.787243 0.730799
O O3 0.369948 0.000000 0.906515
O O4 0.500000 0.777316 0.000000
O O5 0.258032 0.500000 0.890954
O O6 0.110013 0.710633 0.759823
O O7 0.271777 0.680864 0.038353
O O8 0.034104 0.500000 0.426840
O O9 0.000000 0.717698 0.500000
O O10 0.107818 0.750357 0.454295
O O11 0.309435 0.782684 0.579291
O O12 0.326535 0.797745 0.426440
O O13 0.512858 0.745936 0.710381
O O14 0.423880 0.000000 0.620843
O O15 0.795683 0.000000 0.448724
O O16 0.500000 0.849608 0.500000
O O17 0.679025 0.729963 0.751133
O O18 0.687982 0.000000 0.710488
O O19 0.594506 0.500000 0.741391
#
# Coordination Sequence:
#
# PCOD8059717 Si02
#       7
#     4   4   4   4   4   4   4
#     4  10  20  32  48  72 100 128 156 193 242 291
#     4  10  21  35  49  69  97 130 165 201 241 287
#     4  10  20  36  54  68  91 130 171 206 244 288
#     4   9  18  33  51  73 103 133 159 193 243 298
#     4  10  20  33  51  74  98 124 162 207 242 282
#     4   8  15  29  49  71  98 132 162 191 237 295
#     4  10  19  30  48  75 103 128 161 203 241 285
#
# _framework density 17.013839000000001
#
# number of rings (size 3 to 8) (size 9 to 14) (size 15 to 20)
#    0.000    2.429    1.429    2.143    0.000    6.571 
#    0.000    0.000    0.000    0.857    0.000    6.000 
#    0.000    0.000    0.000    0.000    0.000    0.000 
#
# Total GULP energy -347202.992466 kJ/mol
# GULP energy per Si atom -12400.106874 kJ/mol
# Density = 1.697512 g / cm^3
# Si number density = 17.013839 Si / 1000 Ang^3
#
#
#
# Elastic Constant Matrix: (Units=GPa)
#
#
# Indices 1 2 3 4 5 6 
#
# 1 45.3155 28.2286 34.0974 0.0000 -8.2997 0.0000
# 2 28.2286 56.2343 42.4080 0.0000 -1.8754 0.0000
# 3 34.0974 42.4080 99.2733 0.0000 -1.3955 0.0000
# 4 0.0000 0.0000 0.0000 21.6437 0.0000 -5.5827
# 5 -8.2997 -1.8754 -1.3955 0.0000 27.8992 0.0000
# 6 0.0000 0.0000 0.0000 -5.5827 0.0000 6.8697
#
#
#
# Elastic Compliance Matrix: (Units=1/GPa)
#
#
# Indices 1 2 3 4 5 6 
#
# 1 0.037369 -0.013063 -0.007116 0.000000 0.009883 0.000000
# 2 -0.013063 0.030841 -0.008720 0.000000 -0.002249 0.000000
# 3 -0.007116 -0.008720 0.016216 0.000000 -0.001892 0.000000
# 4 0.000000 0.000000 0.000000 0.058456 0.000000 0.047505
# 5 0.009883 -0.002249 -0.001892 0.000000 0.038537 0.000000
# 6 0.000000 0.000000 0.000000 0.047505 0.000000 0.184172
#
#
# Mechanical properties :
#
#
# Convention : Reuss Voigt Hill
#
# Bulk Modulus (GPa) = 37.55328 45.58789 41.57058
# Shear Modulus (GPa) = 11.56698 17.68846 14.62772
#
# Velocity S-wave (km/s) = 2.61024 3.22786 2.93534
# Velocity P-wave (km/s) = 5.58610 6.38317 5.99789
#
# Compressibility (1/GPa) = 0.02662884
#
# Stress axis : x y z
#
# Youngs Moduli (GPa) = 26.75995 32.42476 61.66861
#
# Poissons Ratio (x) = 0.42355 0.43885
# Poissons Ratio (y) = 0.34955 0.53773
# Poissons Ratio (z) = 0.19043 0.28273
#
# Static dielectric constant tensor:
#      x y z
#    x 3.261750 0.000000 -0.247930 
#    y 0.000000 3.158000 0.000000 
#    z -0.247930 0.000000 3.193000 
# 
# 
# High freq. dielectric constant tensor:
#      x y z
#    x 1.647080 0.000000 -0.017210 
#    y 0.000000 1.655310 0.000000 
#    z -0.017210 0.000000 1.646140 
# 
# From -- ./inp_files/54642.got.cif
#   From: 2010.06.25/outbox.cif.g09.slc.cpg/sg10_28_cif.got.tgz:54642.got - 2010.06.27 22:07:45.
