data_PCOD8059227
_publ_section_title
;
Structure prediction by ZEFSAII (Michael W. Deem and Ramdas Pophale) SiO2 
 PCOD8059227
Probable space group: P 2/M
;
_chemical_formula_sum "Si O2"
_cell_formula_units_Z 32
_cell_length_a 13.746048
_cell_length_b 15.487294
_cell_length_c 11.865709
_cell_angle_alpha 90.000000
_cell_angle_beta 139.553045
_cell_angle_gamma 90.000000
_cell_volume 1638.778654
_symmetry_space_group_name_H-M "P 2/M"
_symmetry_group_IT_number 10
_symmetry_cell_setting 'monoclinic'
loop_
_space_group_symop_operation_xyz
x,y,z
-x,y,-z
-x,-y,-z
x,-y,z
loop_
_atom_site_type_symbol
_atom_site_label
_atom_site_fract_x
_atom_site_fract_y
_atom_site_fract_z
Si Si1 0.741815 0.697894 0.561427
Si Si2 0.333669 0.403645 0.304920
Si Si3 0.657188 0.193754 0.090922
Si Si4 0.632216 0.093842 0.699475
Si Si5 0.949820 0.098114 0.281328
Si Si6 0.903138 0.146170 0.813969
Si Si7 0.873123 0.256181 0.460801
Si Si8 0.404173 0.263346 0.197974
O O1 0.765665 0.621552 0.673027
O O2 0.794042 0.784776 0.664381
O O3 0.842682 0.681433 0.539927
O O4 0.574450 0.713181 0.371863
O O5 0.500000 0.398199 0.500000
O O6 0.291775 0.500000 0.227116
O O7 0.307178 0.336926 0.178171
O O8 0.775915 0.121964 0.152982
O O9 0.724017 0.245320 0.256012
O O10 0.500000 0.153536 0.000000
O O11 0.628773 0.262700 0.964739
O O12 0.500000 0.122682 0.500000
O O13 0.787502 0.079068 0.768335
O O14 0.643197 0.168091 0.802700
O O15 0.595028 0.000000 0.722380
O O16 0.985291 0.103500 0.178990
O O17 0.063012 0.161592 0.446853
O O18 0.977508 0.000000 0.346323
O O19 0.000000 0.188159 0.000000
O O20 0.000000 0.304530 0.500000
#
# Coordination Sequence:
#
# PCOD8059227 Si02
#       8
#     4   4   4   4   4   4   4   4
#     4  10  18  35  59  82 115 148 183 233 292 336
#     4   9  18  33  60  93 117 144 181 229 295 356
#     4  11  22  36  58  82 105 148 200 239 288 338
#     4  11  21  34  53  80 114 152 191 232 286 344
#     4  10  23  39  54  77 112 153 198 251 290 332
#     4  11  21  35  54  81 113 154 192 231 288 349
#     4   9  20  38  57  80 106 154 200 231 281 341
#     4  11  19  35  58  84 121 145 185 242 290 338
#
# _framework density 19.526737000000001
#
# number of rings (size 3 to 8) (size 9 to 14) (size 15 to 20)
#    0.000    1.750    3.750    1.500    0.000    5.000 
#    0.000    0.000    0.000    1.875    0.000    0.000 
#    0.000    0.000    0.000    0.000    0.000    0.000 
#
# Total GULP energy -396472.393495 kJ/mol
# GULP energy per Si atom -12389.762297 kJ/mol
# Density = 1.948229 g / cm^3
# Si number density = 19.526737 Si / 1000 Ang^3
#
#
#
# Elastic Constant Matrix: (Units=GPa)
#
#
# Indices 1 2 3 4 5 6 
#
# 1 135.7410 33.3255 38.0914 0.0000 -7.6326 0.0000
# 2 33.3255 90.2230 17.5222 0.0000 -15.5189 0.0000
# 3 38.0914 17.5222 88.7216 0.0000 -9.6562 0.0000
# 4 0.0000 0.0000 0.0000 11.4355 0.0000 0.7238
# 5 -7.6326 -15.5189 -9.6562 0.0000 33.2982 0.0000
# 6 0.0000 0.0000 0.0000 0.7238 0.0000 13.8543
#
#
#
# Elastic Compliance Matrix: (Units=1/GPa)
#
#
# Indices 1 2 3 4 5 6 
#
# 1 0.008952 -0.002689 -0.003331 0.000000 -0.000167 0.000000
# 2 -0.002689 0.013151 -0.000870 0.000000 0.005260 0.000000
# 3 -0.003331 -0.000870 0.013161 0.000000 0.002648 0.000000
# 4 0.000000 0.000000 0.000000 0.087737 0.000000 -0.004584
# 5 -0.000167 0.005260 0.002648 0.000000 0.033213 0.000000
# 6 0.000000 0.000000 0.000000 -0.004584 0.000000 0.072419
#
#
# Mechanical properties :
#
#
# Convention : Reuss Voigt Hill
#
# Bulk Modulus (GPa) = 46.54455 54.72932 50.63693
# Shear Modulus (GPa) = 20.03416 26.76737 23.40077
#
# Velocity S-wave (km/s) = 3.20658 3.70646 3.46554
# Velocity P-wave (km/s) = 6.13169 6.81218 6.48087
#
# Compressibility (1/GPa) = 0.02148479
#
# Stress axis : x y z
#
# Youngs Moduli (GPa) = 111.70294 76.04250 75.98054
#
# Poissons Ratio (x) = 0.20444 0.25307
# Poissons Ratio (y) = 0.30032 0.06613
# Poissons Ratio (z) = 0.37205 0.06619
#
# Static dielectric constant tensor:
#      x y z
#    x 4.166720 0.000000 -0.113920 
#    y 0.000000 3.221570 0.000000 
#    z -0.113920 0.000000 3.546390 
# 
# 
# High freq. dielectric constant tensor:
#      x y z
#    x 1.777940 0.000000 -0.005260 
#    y 0.000000 1.708650 0.000000 
#    z -0.005260 0.000000 1.759720 
# 
# From -- ./inp_files/51650.got.cif
#   From: 2010.06.25/outbox.cif.g09.slc.cpg/sg10_26_cif.got.tgz:51650.got - 2010.06.27 22:07:45.
