data_PCOD8059763
_publ_section_title
;
Structure prediction by ZEFSAII (Michael W. Deem and Ramdas Pophale) SiO2 
 PCOD8059763
Probable space group: P 2/M
;
_chemical_formula_sum "Si O2"
_cell_formula_units_Z 30
_cell_length_a 11.528640
_cell_length_b 9.220375
_cell_length_c 22.493037
_cell_angle_alpha 90.000000
_cell_angle_beta 43.092407
_cell_angle_gamma 90.000000
_cell_volume 1633.458103
_symmetry_space_group_name_H-M "P 2/M"
_symmetry_group_IT_number 10
_symmetry_cell_setting 'monoclinic'
loop_
_space_group_symop_operation_xyz
x,y,z
-x,y,-z
-x,-y,-z
x,-y,z
loop_
_atom_site_type_symbol
_atom_site_label
_atom_site_fract_x
_atom_site_fract_y
_atom_site_fract_z
Si Si1 0.918317 0.672961 0.725770
Si Si2 0.060198 0.833786 0.571163
Si Si3 0.126565 0.662503 0.128086
Si Si4 0.500000 0.752746 0.000000
Si Si5 0.944555 0.668295 0.083294
Si Si6 0.576685 0.163203 0.843160
Si Si7 0.272508 0.833075 0.381409
Si Si8 0.438098 0.668411 0.792001
O O1 0.903220 0.500000 0.727947
O O2 0.947434 0.728749 0.782668
O O3 0.744412 0.743945 0.768233
O O4 0.067505 0.731511 0.626987
O O5 0.219319 0.796068 0.469174
O O6 0.887238 0.803365 0.600743
O O7 0.069591 0.000000 0.588411
O O8 0.058726 0.500000 0.150445
O O9 0.048239 0.743438 0.099496
O O10 0.331548 0.657805 0.053117
O O11 0.522223 0.848392 0.932444
O O12 0.997289 0.500000 0.060310
O O13 0.745309 0.689425 0.169210
O O14 0.000000 0.741816 0.000000
O O15 0.436594 0.243249 0.854910
O O16 0.606121 0.000000 0.808681
O O17 0.425907 0.729437 0.305543
O O18 0.330337 0.000000 0.355030
O O19 0.475136 0.500000 0.791505
#
# Coordination Sequence:
#
# PCOD8059763 Si02
#       8
#     4   4   4   2   4   4   4   4
#     4  10  19  30  49  77 105 132 167 210 254 304
#     4   9  17  31  51  75 105 141 171 200 255 317
#     4   9  18  32  50  76 106 133 164 212 268 309
#     4  10  20  32  52  74  95 130 177 214 247 308
#     4   9  18  33  52  73 102 139 174 211 256 305
#     4  11  21  33  48  69 102 138 168 205 259 308
#     4   9  18  32  51  75 105 140 171 205 256 310
#     4  11  21  32  52  79 102 132 177 216 251 301
#
# _framework density 18.365945
#
# number of rings (size 3 to 8) (size 9 to 14) (size 15 to 20)
#    0.000    2.267    1.333    3.200    0.000    3.200 
#    0.000    1.333    0.000   16.000    0.000    5.600 
#    0.000    0.000    0.000    0.000    0.000    0.000 
#
# Total GULP energy -371796.357499 kJ/mol
# GULP energy per Si atom -12393.211917 kJ/mol
# Density = 1.832414 g / cm^3
# Si number density = 18.365945 Si / 1000 Ang^3
#
#
#
# Elastic Constant Matrix: (Units=GPa)
#
#
# Indices 1 2 3 4 5 6 
#
# 1 111.7298 34.6393 51.0072 0.0000 16.0610 0.0000
# 2 34.6393 80.5550 42.8431 0.0000 7.3112 0.0000
# 3 51.0072 42.8431 125.6306 0.0000 21.8032 0.0000
# 4 0.0000 0.0000 0.0000 21.1959 0.0000 5.9568
# 5 16.0610 7.3112 21.8032 0.0000 28.5498 0.0000
# 6 0.0000 0.0000 0.0000 5.9568 0.0000 10.1317
#
#
#
# Elastic Compliance Matrix: (Units=1/GPa)
#
#
# Indices 1 2 3 4 5 6 
#
# 1 0.011849 -0.003105 -0.003151 0.000000 -0.003465 0.000000
# 2 -0.003105 0.015978 -0.004359 0.000000 0.000984 0.000000
# 3 -0.003151 -0.004359 0.011786 0.000000 -0.006112 0.000000
# 4 0.000000 0.000000 0.000000 0.056518 0.000000 -0.033229
# 5 -0.003465 0.000984 -0.006112 0.000000 0.041392 0.000000
# 6 0.000000 0.000000 0.000000 -0.033229 0.000000 0.118236
#
#
# Mechanical properties :
#
#
# Convention : Reuss Voigt Hill
#
# Bulk Modulus (GPa) = 54.39476 63.87718 59.13597
# Shear Modulus (GPa) = 17.66056 24.60386 21.13221
#
# Velocity S-wave (km/s) = 3.10432 3.66409 3.39576
# Velocity P-wave (km/s) = 6.52155 7.26336 6.90243
#
# Compressibility (1/GPa) = 0.01838412
#
# Stress axis : x y z
#
# Youngs Moduli (GPa) = 84.39368 62.58558 84.84365
#
# Poissons Ratio (x) = 0.19434 0.26732
# Poissons Ratio (y) = 0.26205 0.36983
# Poissons Ratio (z) = 0.26590 0.27281
#
# Static dielectric constant tensor:
#      x y z
#    x 3.415760 0.000000 0.336650 
#    y 0.000000 3.127530 0.000000 
#    z 0.336650 0.000000 3.584060 
# 
# 
# High freq. dielectric constant tensor:
#      x y z
#    x 1.689450 0.000000 0.024810 
#    y 0.000000 1.687880 0.000000 
#    z 0.024810 0.000000 1.718010 
# 
# From -- ./inp_files/56636.got.cif
#   From: 2010.06.25/outbox.cif.g09.slc.cpg/sg10_29_cif.got.tgz:56636.got - 2010.06.27 22:07:45.
