data_PCOD8059736
_publ_section_title
;
Structure prediction by ZEFSAII (Michael W. Deem and Ramdas Pophale) SiO2 
 PCOD8059736
Probable space group: P 2/M
;
_chemical_formula_sum "Si O2"
_cell_formula_units_Z 32
_cell_length_a 22.374530
_cell_length_b 9.547448
_cell_length_c 12.937590
_cell_angle_alpha 90.000000
_cell_angle_beta 139.640655
_cell_angle_gamma 90.000000
_cell_volume 1789.730409
_symmetry_space_group_name_H-M "P 2/M"
_symmetry_group_IT_number 10
_symmetry_cell_setting 'monoclinic'
loop_
_space_group_symop_operation_xyz
x,y,z
-x,y,-z
-x,-y,-z
x,-y,z
loop_
_atom_site_type_symbol
_atom_site_label
_atom_site_fract_x
_atom_site_fract_y
_atom_site_fract_z
Si Si1 0.003018 0.841082 0.383124
Si Si2 0.288115 0.157923 0.537964
Si Si3 0.733141 0.346769 0.187392
Si Si4 0.599019 0.843843 0.103905
Si Si5 0.423505 0.833524 0.539478
Si Si6 0.202128 0.158926 0.894798
Si Si7 0.850421 0.656210 0.541506
Si Si8 0.377042 0.834009 0.252362
O O1 0.901268 0.835790 0.196108
O O2 0.000000 0.795315 0.500000
O O3 0.063160 0.737894 0.392701
O O4 0.042788 0.000000 0.429203
O O5 0.337474 0.151219 0.712557
O O6 0.359482 0.223983 0.548212
O O7 0.196645 0.255731 0.426641
O O8 0.257610 0.000000 0.465579
O O9 0.713721 0.500000 0.113490
O O10 0.639049 0.257345 0.068429
O O11 0.804313 0.258724 0.212981
O O12 0.773472 0.363981 0.353733
O O13 0.588719 0.000000 0.042803
O O14 0.500000 0.780748 0.000000
O O15 0.381445 0.777917 0.375778
O O16 0.531041 0.783012 0.689054
O O17 0.422474 0.000000 0.542804
O O18 0.226626 0.000000 0.893495
O O19 0.281365 0.219923 0.075384
O O20 0.880798 0.500000 0.619808
O O21 0.375999 0.000000 0.254767
#
# Coordination Sequence:
#
# PCOD8059736 Si02
#       8
#     4   4   4   4   4   4   4   4
#     4  10  19  31  48  71  97 126 159 197 240 282
#     4   9  17  29  48  71  95 124 159 197 237 281
#     4  10  20  31  43  63  95 129 160 193 232 278
#     4   9  18  29  43  65  92 124 160 195 229 278
#     4   8  14  27  48  75 100 123 153 195 242 281
#     4  10  19  30  49  72  96 126 157 195 238 283
#     4  10  20  33  48  67  94 129 165 197 233 282
#     4   8  15  27  47  75 102 122 152 197 240 284
#
# _framework density 17.879788000000001
#
# number of rings (size 3 to 8) (size 9 to 14) (size 15 to 20)
#    0.000    2.750    1.250    1.500    1.750    2.000 
#    0.000    0.000    0.000    1.500    0.000    7.000 
#    0.000    0.000    0.000    0.000    0.000    0.000 
#
# Total GULP energy -396499.750750 kJ/mol
# GULP energy per Si atom -12390.617211 kJ/mol
# Density = 1.783909 g / cm^3
# Si number density = 17.879788 Si / 1000 Ang^3
#
#
#
# Elastic Constant Matrix: (Units=GPa)
#
#
# Indices 1 2 3 4 5 6 
#
# 1 116.0542 55.0718 23.7000 0.0000 19.2635 0.0000
# 2 55.0718 88.9218 14.0203 0.0000 11.7576 0.0000
# 3 23.7000 14.0203 51.4580 0.0000 15.2873 0.0000
# 4 0.0000 0.0000 0.0000 8.1711 0.0000 0.1977
# 5 19.2635 11.7576 15.2873 0.0000 23.5001 0.0000
# 6 0.0000 0.0000 0.0000 0.1977 0.0000 -0.2846
#
#
#
# Elastic Compliance Matrix: (Units=1/GPa)
#
#
# Indices 1 2 3 4 5 6 
#
# 1 0.013520 -0.007203 -0.002532 0.000000 -0.005832 0.000000
# 2 -0.007203 0.016023 -0.000522 0.000000 -0.001773 0.000000
# 3 -0.002532 -0.000522 0.024850 0.000000 -0.013829 0.000000
# 4 0.000000 0.000000 0.000000 0.120358 0.000000 0.083625
# 5 -0.005832 -0.001773 -0.013829 0.000000 0.057216 0.000000
# 6 0.000000 0.000000 0.000000 0.083625 0.000000 -3.455689
#
#
# Mechanical properties :
#
#
# Convention : Reuss Voigt Hill
#
# Bulk Modulus (GPa) = 29.51540 49.11312 39.31426
# Shear Modulus (GPa) = -1.56646 17.18681 7.81018
#
# Velocity S-wave (km/s) = -0.93702 3.10375 2.09228
# Velocity P-wave (km/s) = 3.92082 6.35394 5.27946
#
# Compressibility (1/GPa) = 0.03388062
#
# Stress axis : x y z
#
# Youngs Moduli (GPa) = 73.96634 62.40851 40.24174
#
# Poissons Ratio (x) = 0.44952 0.10188
# Poissons Ratio (y) = 0.53277 0.02099
# Poissons Ratio (z) = 0.18727 0.03255
#
# Static dielectric constant tensor:
#      x y z
#    x 3.406800 0.000000 0.126230 
#    y 0.000000 3.339430 0.000000 
#    z 0.126230 0.000000 3.185800 
# 
# 
# High freq. dielectric constant tensor:
#      x y z
#    x 1.692350 0.000000 0.018020 
#    y 0.000000 1.664130 0.000000 
#    z 0.018020 0.000000 1.656330 
# 
# From -- ./inp_files/55390.got.cif
#   From: 2010.06.25/outbox.cif.g09.slc.cpg/sg10_28_cif.got.tgz:55390.got - 2010.06.27 22:07:45.
