data_PCOD8059852
_publ_section_title
;
Structure prediction by ZEFSAII (Michael W. Deem and Ramdas Pophale) SiO2 
 PCOD8059852
Probable space group: P 2/M
;
_chemical_formula_sum "Si O2"
_cell_formula_units_Z 28
_cell_length_a 16.132961
_cell_length_b 8.920187
_cell_length_c 16.335054
_cell_angle_alpha 90.000000
_cell_angle_beta 44.769297
_cell_angle_gamma 90.000000
_cell_volume 1655.533072
_symmetry_space_group_name_H-M "P 2/M"
_symmetry_group_IT_number 10
_symmetry_cell_setting 'monoclinic'
loop_
_space_group_symop_operation_xyz
x,y,z
-x,y,-z
-x,-y,-z
x,-y,z
loop_
_atom_site_type_symbol
_atom_site_label
_atom_site_fract_x
_atom_site_fract_y
_atom_site_fract_z
Si Si1 0.229494 0.325527 0.022086
Si Si2 0.788828 0.167806 0.450842
Si Si3 0.226045 0.831374 0.718620
Si Si4 0.643836 0.324691 0.229749
Si Si5 0.467502 0.321987 0.931714
Si Si6 0.571670 0.821960 0.706069
Si Si7 0.970550 0.677564 0.228392
O O1 0.222187 0.500000 0.044547
O O2 0.103418 0.255959 0.135242
O O3 0.256052 0.292331 0.908348
O O4 0.336011 0.261653 0.003294
O O5 0.719824 0.166080 0.411479
O O6 0.700223 0.227025 0.582500
O O7 0.904997 0.273222 0.359257
O O8 0.832085 0.000000 0.441989
O O9 0.313025 0.737807 0.714306
O O10 0.097857 0.750502 0.801505
O O11 0.210689 0.000000 0.763881
O O12 0.617345 0.500000 0.256128
O O13 0.524419 0.243606 0.288132
O O14 0.476271 0.500000 0.913343
O O15 0.559480 0.245632 0.805337
O O16 0.500000 0.271508 0.000000
O O17 0.558716 0.000000 0.717357
O O18 0.968568 0.500000 0.220087
#
# Coordination Sequence:
#
# PCOD8059852 Si02
#       7
#     4   4   4   4   4   4   4
#     4   8  16  30  48  70  96 123 151 193 241 280
#     4   8  18  33  46  64  94 129 160 197 238 274
#     4   9  18  32  44  64  96 129 164 199 238 274
#     4  10  19  31  46  69  97 126 164 201 239 279
#     4   9  18  34  55  78 101 122 148 187 236 286
#     4  10  19  33  51  70  96 127 156 193 241 284
#     4   9  16  29  48  67  89 124 165 197 229 276
#
# _framework density 16.912983000000001
#
# number of rings (size 3 to 8) (size 9 to 14) (size 15 to 20)
#    0.857    2.143    0.000    2.143    0.000    2.571 
#    0.000   12.857    0.000    0.857    0.000    6.000 
#    0.000    0.000    0.000    0.000    0.000    0.000 
#
# Total GULP energy -346920.836851 kJ/mol
# GULP energy per Si atom -12390.029888 kJ/mol
# Density = 1.687449 g / cm^3
# Si number density = 16.912983 Si / 1000 Ang^3
#
#
#
# Elastic Constant Matrix: (Units=GPa)
#
#
# Indices 1 2 3 4 5 6 
#
# 1 35.4166 16.5911 20.7999 0.0000 11.3131 0.0000
# 2 16.5911 58.3262 31.6010 0.0000 -1.5958 0.0000
# 3 20.7999 31.6010 92.3919 0.0000 -7.1075 0.0000
# 4 0.0000 0.0000 0.0000 24.6446 0.0000 4.1934
# 5 11.3131 -1.5958 -7.1075 0.0000 20.6450 0.0000
# 6 0.0000 0.0000 0.0000 4.1934 0.0000 9.3423
#
#
#
# Elastic Compliance Matrix: (Units=1/GPa)
#
#
# Indices 1 2 3 4 5 6 
#
# 1 0.048184 -0.009072 -0.010097 0.000000 -0.030581 0.000000
# 2 -0.009072 0.022768 -0.005370 0.000000 0.004883 0.000000
# 3 -0.010097 -0.005370 0.015744 0.000000 0.010538 0.000000
# 4 0.000000 0.000000 0.000000 0.043932 0.000000 -0.019720
# 5 -0.030581 0.004883 0.010538 0.000000 0.069201 0.000000
# 6 0.000000 0.000000 0.000000 -0.019720 0.000000 0.115892
#
#
# Mechanical properties :
#
#
# Convention : Reuss Voigt Hill
#
# Bulk Modulus (GPa) = 26.58271 36.01318 31.29794
# Shear Modulus (GPa) = 13.25075 18.73590 15.99333
#
# Velocity S-wave (km/s) = 2.80208 3.33195 3.07844
# Velocity P-wave (km/s) = 5.12058 6.01182 5.58401
#
# Compressibility (1/GPa) = 0.03761844
#
# Stress axis : x y z
#
# Youngs Moduli (GPa) = 20.75397 43.92066 63.51722
#
# Poissons Ratio (x) = 0.39845 0.64133
# Poissons Ratio (y) = 0.18828 0.34106
# Poissons Ratio (z) = 0.20955 0.23583
#
# Static dielectric constant tensor:
#      x y z
#    x 3.047160 0.000000 -0.129650 
#    y 0.000000 3.075300 0.000000 
#    z -0.129650 0.000000 3.177030 
# 
# 
# High freq. dielectric constant tensor:
#      x y z
#    x 1.624510 0.000000 -0.007880 
#    y 0.000000 1.649880 0.000000 
#    z -0.007880 0.000000 1.644400 
# 
# From -- ./inp_files/68581.got.cif
#   From: 2010.06.25/outbox.cif.g09.slc.cpg/sg10_35_cif.got.tgz:68581.got - 2010.06.27 22:07:45.
