data_PCOD8059187
_publ_section_title
;
Structure prediction by ZEFSAII (Michael W. Deem and Ramdas Pophale) SiO2 
 PCOD8059187
Probable space group: P 2/M
;
_chemical_formula_sum "Si O2"
_cell_formula_units_Z 32
_cell_length_a 20.038030
_cell_length_b 8.595988
_cell_length_c 12.167664
_cell_angle_alpha 90.000000
_cell_angle_beta 53.903155
_cell_angle_gamma 90.000000
_cell_volume 1693.485150
_symmetry_space_group_name_H-M "P 2/M"
_symmetry_group_IT_number 10
_symmetry_cell_setting 'monoclinic'
loop_
_space_group_symop_operation_xyz
x,y,z
-x,y,-z
-x,-y,-z
x,-y,z
loop_
_atom_site_type_symbol
_atom_site_label
_atom_site_fract_x
_atom_site_fract_y
_atom_site_fract_z
Si Si1 0.125888 0.816995 0.105615
Si Si2 0.727898 0.816873 0.187972
Si Si3 0.374285 0.318573 0.893000
Si Si4 0.241504 0.817964 0.182677
Si Si5 0.298214 0.680680 0.343672
Si Si6 0.524633 0.818574 0.853989
Si Si7 0.786823 0.680171 0.347691
Si Si8 0.963590 0.179387 0.156067
O O1 0.158172 0.773238 0.196081
O O2 0.033164 0.755621 0.173825
O O3 0.123848 0.000000 0.090127
O O4 0.189628 0.752190 0.952507
O O5 0.649713 0.731901 0.207585
O O6 0.734011 0.775951 0.309988
O O7 0.716724 0.000000 0.183224
O O8 0.358205 0.500000 0.926183
O O9 0.470006 0.277531 0.819739
O O10 0.321168 0.221426 0.032379
O O11 0.240573 0.720635 0.295491
O O12 0.244362 0.000000 0.207629
O O13 0.321981 0.500000 0.318704
O O14 0.380265 0.782753 0.260142
O O15 0.247161 0.727413 0.500591
O O16 0.507998 0.000000 0.853231
O O17 0.500000 0.764343 0.000000
O O18 0.773626 0.500000 0.335578
O O19 0.883353 0.717404 0.249826
O O20 0.940071 0.000000 0.201369
O O21 0.000000 0.199390 0.000000
#
# Coordination Sequence:
#
# PCOD8059187 Si02
#       8
#     4   4   4   4   4   4   4   4
#     4   8  16  31  54  84 112 139 183 238 282 327
#     4  10  19  36  59  83 114 151 192 234 280 335
#     4  11  21  34  57  88 120 149 182 231 290 340
#     4  10  19  34  56  83 114 149 192 238 282 335
#     4  11  24  40  57  80 116 156 191 234 290 349
#     4  11  22  37  60  88 114 145 193 243 280 331
#     4  11  24  39  55  83 119 153 190 235 292 348
#     4  10  18  34  59  85 111 148 193 236 285 340
#
# _framework density 18.895944
#
# number of rings (size 3 to 8) (size 9 to 14) (size 15 to 20)
#    0.000    1.750    2.500    3.750    0.000    2.750 
#    0.000    2.500    0.000    7.500    0.000    0.000 
#    0.000    0.000    0.000    0.000    0.000    0.000 
#
# Total GULP energy -396858.001997 kJ/mol
# GULP energy per Si atom -12401.812562 kJ/mol
# Density = 1.885294 g / cm^3
# Si number density = 18.895944 Si / 1000 Ang^3
#
#
#
# Elastic Constant Matrix: (Units=GPa)
#
#
# Indices 1 2 3 4 5 6 
#
# 1 143.8655 27.4762 39.9732 0.0000 13.4961 0.0000
# 2 27.4762 56.3332 21.4066 0.0000 2.6210 0.0000
# 3 39.9732 21.4066 76.0353 0.0000 10.1919 0.0000
# 4 0.0000 0.0000 0.0000 23.3936 0.0000 2.1073
# 5 13.4961 2.6210 10.1919 0.0000 26.3140 0.0000
# 6 0.0000 0.0000 0.0000 2.1073 0.0000 27.9189
#
#
#
# Elastic Compliance Matrix: (Units=1/GPa)
#
#
# Indices 1 2 3 4 5 6 
#
# 1 0.008702 -0.002820 -0.003397 0.000000 -0.002867 0.000000
# 2 -0.002820 0.020793 -0.004522 0.000000 0.001127 0.000000
# 3 -0.003397 -0.004522 0.016788 0.000000 -0.004310 0.000000
# 4 0.000000 0.000000 0.000000 0.043039 0.000000 -0.003249
# 5 -0.002867 0.001127 -0.004310 0.000000 0.041030 0.000000
# 6 0.000000 0.000000 0.000000 -0.003249 0.000000 0.036063
#
#
# Mechanical properties :
#
#
# Convention : Reuss Voigt Hill
#
# Bulk Modulus (GPa) = 40.31431 50.43846 45.37638
# Shear Modulus (GPa) = 25.48893 28.01717 26.75305
#
# Velocity S-wave (km/s) = 3.67674 3.85477 3.76681
# Velocity P-wave (km/s) = 6.27740 6.82371 6.55625
#
# Compressibility (1/GPa) = 0.02480509
#
# Stress axis : x y z
#
# Youngs Moduli (GPa) = 114.91237 48.09263 59.56501
#
# Poissons Ratio (x) = 0.13564 0.20232
# Poissons Ratio (y) = 0.32410 0.26937
# Poissons Ratio (z) = 0.39032 0.21749
#
# Static dielectric constant tensor:
#      x y z
#    x 3.867120 0.000000 0.100630 
#    y 0.000000 3.334940 0.000000 
#    z 0.100630 0.000000 3.236410 
# 
# 
# High freq. dielectric constant tensor:
#      x y z
#    x 1.753970 0.000000 0.009460 
#    y 0.000000 1.730790 0.000000 
#    z 0.009460 0.000000 1.698400 
# 
# From -- ./inp_files/55196.got.cif
#   From: 2010.06.25/outbox.cif.g09.slc.cpg/sg10_28_cif.got.tgz:55196.got - 2010.06.27 22:07:45.
