data_PCOD8059069
_publ_section_title
;
Structure prediction by ZEFSAII (Michael W. Deem and Ramdas Pophale) SiO2 
 PCOD8059069
Probable space group: P 2/M
;
_chemical_formula_sum "Si O2"
_cell_formula_units_Z 32
_cell_length_a 10.798213
_cell_length_b 8.804580
_cell_length_c 17.778812
_cell_angle_alpha 90.000000
_cell_angle_beta 67.590485
_cell_angle_gamma 90.000000
_cell_volume 1562.651299
_symmetry_space_group_name_H-M "P 2/M"
_symmetry_group_IT_number 10
_symmetry_cell_setting 'monoclinic'
loop_
_space_group_symop_operation_xyz
x,y,z
-x,y,-z
-x,-y,-z
x,-y,z
loop_
_atom_site_type_symbol
_atom_site_label
_atom_site_fract_x
_atom_site_fract_y
_atom_site_fract_z
Si Si1 0.792808 0.327368 0.242527
Si Si2 0.294448 0.325331 0.470306
Si Si3 0.421949 0.321348 0.946028
Si Si4 0.145430 0.318987 0.939503
Si Si5 0.593476 0.322558 0.762837
Si Si6 0.827794 0.176669 0.645433
Si Si7 0.531908 0.176750 0.351912
Si Si8 0.920411 0.330781 0.362311
O O1 0.740196 0.500000 0.244515
O O2 0.831657 0.261455 0.151589
O O3 0.683833 0.228407 0.311023
O O4 0.916679 0.320107 0.272047
O O5 0.299911 0.500000 0.443917
O O6 0.206731 0.234378 0.429680
O O7 0.446430 0.260504 0.437258
O O8 0.227269 0.303980 0.567557
O O9 0.409393 0.500000 0.960955
O O10 0.269644 0.260304 0.963785
O O11 0.517971 0.277857 0.855679
O O12 0.500000 0.249249 0.000000
O O13 0.142267 0.500000 0.941386
O O14 0.000000 0.255308 0.000000
O O15 0.575910 0.500000 0.749138
O O16 0.748983 0.272726 0.728706
O O17 0.534497 0.218069 0.711698
O O18 0.983466 0.204161 0.625649
O O19 0.794296 0.000000 0.659587
O O20 0.525413 0.000000 0.369732
O O21 0.970055 0.500000 0.373787
#
# Coordination Sequence:
#
# PCOD8059069 Si02
#       8
#     4   4   4   4   4   4   4   4
#     4  10  20  37  58  80 108 146 189 230 279 333
#     4  10  20  36  57  80 108 143 187 236 284 331
#     4   9  17  29  51  86 117 140 178 236 292 336
#     4   9  17  31  54  84 115 145 180 230 286 336
#     4  10  18  33  57  81 108 144 186 231 277 329
#     4  11  22  35  54  80 112 148 185 228 280 337
#     4  11  21  34  55  81 109 145 189 230 278 334
#     4  10  22  37  55  80 109 146 190 234 280 336
#
# _framework density 20.478019
#
# number of rings (size 3 to 8) (size 9 to 14) (size 15 to 20)
#    0.000    2.000    1.250    4.875    0.000    4.500 
#    0.000    6.250    0.000    1.875    0.000    0.000 
#    0.000    0.000    0.000    0.000    0.000    0.000 
#
# Total GULP energy -396565.401176 kJ/mol
# GULP energy per Si atom -12392.668787 kJ/mol
# Density = 2.043141 g / cm^3
# Si number density = 20.478019 Si / 1000 Ang^3
#
#
#
# Elastic Constant Matrix: (Units=GPa)
#
#
# Indices 1 2 3 4 5 6 
#
# 1 84.8465 22.5110 58.5218 0.0000 -5.0398 0.0000
# 2 22.5110 67.6699 20.1937 0.0000 -3.7406 0.0000
# 3 58.5218 20.1937 102.6362 0.0000 -5.2732 0.0000
# 4 0.0000 0.0000 0.0000 3.8265 0.0000 -7.1132
# 5 -5.0398 -3.7406 -5.2732 0.0000 28.8999 0.0000
# 6 0.0000 0.0000 0.0000 -7.1132 0.0000 15.6512
#
#
#
# Elastic Compliance Matrix: (Units=1/GPa)
#
#
# Indices 1 2 3 4 5 6 
#
# 1 0.020205 -0.003441 -0.010786 0.000000 0.001110 0.000000
# 2 -0.003441 0.016349 -0.001188 0.000000 0.001299 0.000000
# 3 -0.010786 -0.001188 0.016174 0.000000 0.000916 0.000000
# 4 0.000000 0.000000 0.000000 1.684563 0.000000 0.765606
# 5 0.001110 0.001299 0.000916 0.000000 0.035131 0.000000
# 6 0.000000 0.000000 0.000000 0.765606 0.000000 0.411849
#
#
# Mechanical properties :
#
#
# Convention : Reuss Voigt Hill
#
# Bulk Modulus (GPa) = 45.66843 50.84506 48.25675
# Shear Modulus (GPa) = 2.24982 19.93725 11.09353
#
# Velocity S-wave (km/s) = 1.04930 3.12363 2.33003
# Velocity P-wave (km/s) = 4.88033 6.15568 5.55473
#
# Compressibility (1/GPa) = 0.02189696
#
# Stress axis : x y z
#
# Youngs Moduli (GPa) = 49.49356 61.16733 61.82691
#
# Poissons Ratio (x) = 0.21048 0.66689
# Poissons Ratio (y) = 0.17031 0.07344
# Poissons Ratio (z) = 0.53386 0.07265
#
# Static dielectric constant tensor:
#      x y z
#    x 3.910030 0.000000 -0.280310 
#    y 0.000000 3.356590 0.000000 
#    z -0.280310 0.000000 4.022270 
# 
# 
# High freq. dielectric constant tensor:
#      x y z
#    x 1.800240 0.000000 -0.006640 
#    y 0.000000 1.765240 0.000000 
#    z -0.006640 0.000000 1.801650 
# 
# From -- ./inp_files/83344.got.cif
#   From: 2010.06.25/outbox.cif.g09.slc.cpg/sg10_42_cif.got.tgz:83344.got - 2010.06.27 22:07:45.
