data_PCOD8059462
_publ_section_title
;
Structure prediction by ZEFSAII (Michael W. Deem and Ramdas Pophale) SiO2 
 PCOD8059462
Probable space group: P 2/M
;
_chemical_formula_sum "Si O2"
_cell_formula_units_Z 28
_cell_length_a 17.470667
_cell_length_b 17.860721
_cell_length_c 9.104334
_cell_angle_alpha 90.000000
_cell_angle_beta 31.792190
_cell_angle_gamma 90.000000
_cell_volume 1496.702028
_symmetry_space_group_name_H-M "P 2/M"
_symmetry_group_IT_number 10
_symmetry_cell_setting 'monoclinic'
loop_
_space_group_symop_operation_xyz
x,y,z
-x,y,-z
-x,-y,-z
x,-y,z
loop_
_atom_site_type_symbol
_atom_site_label
_atom_site_fract_x
_atom_site_fract_y
_atom_site_fract_z
Si Si1 0.830566 0.854085 0.117052
Si Si2 0.663677 0.415203 0.727259
Si Si3 0.177231 0.853666 0.538624
Si Si4 0.140059 0.415132 0.861384
Si Si5 0.171298 0.000000 0.050311
Si Si6 0.174892 0.000000 0.376443
Si Si7 0.842332 0.291070 0.933929
Si Si8 0.182921 0.711151 0.351274
O O1 0.766056 0.854697 0.386735
O O2 0.770740 0.926566 0.128565
O O3 0.773385 0.778303 0.134790
O O4 0.003971 0.853553 0.829051
O O5 0.670087 0.500000 0.777857
O O6 0.718223 0.412102 0.471323
O O7 0.768735 0.366149 0.655722
O O8 0.500000 0.383895 0.000000
O O9 0.243736 0.782230 0.343484
O O10 0.235397 0.926953 0.360223
O O11 0.104312 0.500000 0.969838
O O12 0.179506 0.367601 0.940551
O O13 0.000000 0.382614 0.000000
O O14 0.233231 0.000000 0.114546
O O15 0.998267 0.000000 0.337578
O O16 0.762006 0.291886 0.907158
O O17 0.011556 0.280083 0.632542
#
# Coordination Sequence:
#
# PCOD8059462 Si02
#       8
#     4   4   4   4   2   2   4   4
#     4   9  16  24  38  60  90 130 166 203 245 300
#     4  10  21  37  55  74 100 134 169 206 251 304
#     4   9  16  25  40  60  90 127 169 204 245 298
#     4  10  19  33  53  75  98 128 167 204 247 303
#     4   9  15  23  33  53  91 130 167 198 246 302
#     4   9  15  23  35  55  88 128 163 206 249 292
#     4  10  19  29  48  74 102 128 164 211 259 296
#     4  10  19  31  47  73 101 130 165 210 256 300
#
# _framework density 18.707798
#
# number of rings (size 3 to 8) (size 9 to 14) (size 15 to 20)
#    0.000    2.429    1.429    2.143    2.000    5.714 
#    0.000    2.143    0.000    2.571    0.000    0.500 
#    0.000    0.000    0.000    9.429    0.000    6.429 
#
# Total GULP energy -347136.371778 kJ/mol
# GULP energy per Si atom -12397.727563 kJ/mol
# Density = 1.866522 g / cm^3
# Si number density = 18.707798 Si / 1000 Ang^3
#
#
#
# Elastic Constant Matrix: (Units=GPa)
#
#
# Indices 1 2 3 4 5 6 
#
# 1 70.0849 55.8573 40.4717 0.0000 48.9659 0.0000
# 2 55.8573 139.1736 35.7683 0.0000 40.5304 0.0000
# 3 40.4717 35.7683 61.1301 0.0000 29.5196 0.0000
# 4 0.0000 0.0000 0.0000 22.3506 0.0000 15.8781
# 5 48.9659 40.5304 29.5196 0.0000 43.9045 0.0000
# 6 0.0000 0.0000 0.0000 15.8781 0.0000 14.3433
#
#
#
# Elastic Compliance Matrix: (Units=1/GPa)
#
#
# Indices 1 2 3 4 5 6 
#
# 1 0.075380 -0.006857 -0.012369 0.000000 -0.069423 0.000000
# 2 -0.006857 0.010624 -0.000938 0.000000 -0.001529 0.000000
# 3 -0.012369 -0.000938 0.026679 0.000000 -0.003277 0.000000
# 4 0.000000 0.000000 0.000000 0.209493 0.000000 -0.231910
# 5 -0.069423 -0.001529 -0.003277 0.000000 0.103817 0.000000
# 6 0.000000 0.000000 0.000000 -0.231910 0.000000 0.326446
#
#
# Mechanical properties :
#
#
# Convention : Reuss Voigt Hill
#
# Bulk Modulus (GPa) = 13.82107 59.39816 36.60961
# Shear Modulus (GPa) = 6.12082 25.33910 15.72996
#
# Velocity S-wave (km/s) = 1.81077 3.68430 2.90284
# Velocity P-wave (km/s) = 3.43158 7.06528 5.55401
#
# Compressibility (1/GPa) = 0.07235332
#
# Stress axis : x y z
#
# Youngs Moduli (GPa) = 13.26617 94.12898 37.48288
#
# Poissons Ratio (x) = 0.64547 0.46364
# Poissons Ratio (y) = 0.09097 0.03516
# Poissons Ratio (z) = 0.16409 0.08829
#
# Static dielectric constant tensor:
#      x y z
#    x 3.206940 0.000000 0.464910 
#    y 0.000000 3.595580 0.000000 
#    z 0.464910 0.000000 3.239080 
# 
# 
# High freq. dielectric constant tensor:
#      x y z
#    x 1.689870 0.000000 0.046520 
#    y 0.000000 1.741840 0.000000 
#    z 0.046520 0.000000 1.692900 
# 
# From -- ./inp_files/35374.got.cif
#   From: 2010.06.25/outbox.cif.g09.slc.cpg/sg10_18_cif.got.tgz:35374.got - 2010.06.27 22:07:45.
