data_PCOD8059872
_publ_section_title
;
Structure prediction by ZEFSAII (Michael W. Deem and Ramdas Pophale) SiO2 
 PCOD8059872
Probable space group: P 2/M
;
_chemical_formula_sum "Si O2"
_cell_formula_units_Z 28
_cell_length_a 14.339145
_cell_length_b 9.173313
_cell_length_c 18.640274
_cell_angle_alpha 90.000000
_cell_angle_beta 140.936569
_cell_angle_gamma 90.000000
_cell_volume 1545.135711
_symmetry_space_group_name_H-M "P 2/M"
_symmetry_group_IT_number 10
_symmetry_cell_setting 'monoclinic'
loop_
_space_group_symop_operation_xyz
x,y,z
-x,y,-z
-x,-y,-z
x,-y,z
loop_
_atom_site_type_symbol
_atom_site_label
_atom_site_fract_x
_atom_site_fract_y
_atom_site_fract_z
Si Si1 0.635949 0.170322 0.416985
Si Si2 0.043577 0.829558 0.448554
Si Si3 0.056440 0.339201 0.739852
Si Si4 0.858378 0.672700 0.057154
Si Si5 0.663678 0.166493 0.836421
Si Si6 0.843676 0.831224 0.800648
Si Si7 0.272572 0.336379 0.396373
O O1 0.786518 0.211695 0.465464
O O2 0.500169 0.214882 0.285171
O O3 0.621196 0.259188 0.482302
O O4 0.630456 0.000000 0.433313
O O5 0.000000 0.764405 0.500000
O O6 0.932553 0.765731 0.322056
O O7 0.016602 0.000000 0.430978
O O8 0.103328 0.500000 0.742102
O O9 0.157829 0.288334 0.867630
O O10 0.891384 0.340014 0.671032
O O11 0.879482 0.500000 0.059573
O O12 0.998176 0.753243 0.105595
O O13 0.710863 0.728972 0.929882
O O14 0.778910 0.185230 0.840922
O O15 0.662688 0.000000 0.862915
O O16 0.727693 0.756190 0.676946
O O17 0.863353 0.000000 0.790539
O O18 0.330682 0.500000 0.415960
#
# Coordination Sequence:
#
# PCOD8059872 Si02
#       7
#     4   4   4   4   4   4   4
#     4   9  18  33  49  67  96 128 155 189 237 288
#     4   9  17  30  52  79  98 114 144 188 234 280
#     4   8  16  30  47  69  94 120 150 185 228 277
#     4  10  20  33  49  69  94 124 162 203 235 268
#     4  10  21  33  46  66  93 129 166 196 232 280
#     4  10  19  31  47  67  92 124 165 204 235 273
#     4   9  17  30  47  68  94 123 159 199 237 278
#
# _framework density 18.121385
#
# number of rings (size 3 to 8) (size 9 to 14) (size 15 to 20)
#    0.000    2.714    0.000    2.571    0.000    8.286 
#    0.000    2.857    0.000    0.857    0.000    6.000 
#    0.000    0.000    0.000    0.000    0.000    0.000 
#
# Total GULP energy -347149.300420 kJ/mol
# GULP energy per Si atom -12398.189301 kJ/mol
# Density = 1.808014 g / cm^3
# Si number density = 18.121385 Si / 1000 Ang^3
#
#
#
# Elastic Constant Matrix: (Units=GPa)
#
#
# Indices 1 2 3 4 5 6 
#
# 1 20.0351 23.7046 38.4365 0.0000 -14.0687 0.0000
# 2 23.7046 90.3859 67.5366 0.0000 -13.5538 0.0000
# 3 38.4365 67.5366 154.3198 0.0000 -20.9896 0.0000
# 4 0.0000 0.0000 0.0000 33.1294 0.0000 -7.9353
# 5 -14.0687 -13.5538 -20.9896 0.0000 24.2633 0.0000
# 6 0.0000 0.0000 0.0000 -7.9353 0.0000 13.1591
#
#
#
# Elastic Compliance Matrix: (Units=1/GPa)
#
#
# Indices 1 2 3 4 5 6 
#
# 1 0.156733 -0.013282 -0.024790 0.000000 0.062014 0.000000
# 2 -0.013282 0.017810 -0.004738 0.000000 -0.001851 0.000000
# 3 -0.024790 -0.004738 0.014068 0.000000 -0.004851 0.000000
# 4 0.000000 0.000000 0.000000 0.035281 0.000000 0.021275
# 5 0.062014 -0.001851 -0.004851 0.000000 0.071942 0.000000
# 6 0.000000 0.000000 0.000000 0.021275 0.000000 0.088822
#
#
# Mechanical properties :
#
#
# Convention : Reuss Voigt Hill
#
# Bulk Modulus (GPa) = 9.70963 58.23294 33.97129
# Shear Modulus (GPa) = 9.90874 23.11458 16.51166
#
# Velocity S-wave (km/s) = 2.34091 3.57535 3.02183
# Velocity P-wave (km/s) = 3.56037 7.01775 5.56440
#
# Compressibility (1/GPa) = 0.10299049
#
# Stress axis : x y z
#
# Youngs Moduli (GPa) = 6.38029 56.14972 71.08259
#
# Poissons Ratio (x) = 0.74580 1.76212
# Poissons Ratio (y) = 0.08475 0.33677
# Poissons Ratio (z) = 0.15817 0.26602
#
# Static dielectric constant tensor:
#      x y z
#    x 3.071460 0.000000 -0.225360 
#    y 0.000000 3.453410 0.000000 
#    z -0.225360 0.000000 3.582140 
# 
# 
# High freq. dielectric constant tensor:
#      x y z
#    x 1.660200 0.000000 -0.017220 
#    y 0.000000 1.705420 0.000000 
#    z -0.017220 0.000000 1.708460 
# 
# From -- ./inp_files/54702.got.cif
#   From: 2010.06.25/outbox.cif.g09.slc.cpg/sg10_28_cif.got.tgz:54702.got - 2010.06.27 22:07:45.
