data_PCOD8059752
_publ_section_title
;
Structure prediction by ZEFSAII (Michael W. Deem and Ramdas Pophale) SiO2 
 PCOD8059752
Probable space group: P 2/M
;
_chemical_formula_sum "Si O2"
_cell_formula_units_Z 32
_cell_length_a 17.982079
_cell_length_b 9.260819
_cell_length_c 11.899685
_cell_angle_alpha 90.000000
_cell_angle_beta 50.699329
_cell_angle_gamma 90.000000
_cell_volume 1533.458023
_symmetry_space_group_name_H-M "P 2/M"
_symmetry_group_IT_number 10
_symmetry_cell_setting 'monoclinic'
loop_
_space_group_symop_operation_xyz
x,y,z
-x,y,-z
-x,-y,-z
x,-y,z
loop_
_atom_site_type_symbol
_atom_site_label
_atom_site_fract_x
_atom_site_fract_y
_atom_site_fract_z
Si Si1 0.756808 0.664912 0.820755
Si Si2 0.651741 0.664538 0.700371
Si Si3 0.896985 0.154401 0.561418
Si Si4 0.855141 0.667030 0.399137
Si Si5 0.455769 0.167778 0.369598
Si Si6 0.997173 0.836871 0.870755
Si Si7 0.350176 0.830804 0.694425
Si Si8 0.197040 0.667633 0.976229
O O1 0.787430 0.500000 0.762728
O O2 0.671242 0.705661 0.813426
O O3 0.841780 0.776383 0.718660
O O4 0.737475 0.681036 0.972515
O O5 0.619567 0.500000 0.723631
O O6 0.743309 0.696242 0.532459
O O7 0.565344 0.755660 0.729228
O O8 0.910403 0.275997 0.454941
O O9 0.000000 0.108489 0.500000
O O10 0.847851 0.000000 0.570408
O O11 0.876809 0.500000 0.356602
O O12 0.900744 0.759992 0.254830
O O13 0.563876 0.205351 0.301936
O O14 0.382389 0.216464 0.538627
O O15 0.443661 0.000000 0.360878
O O16 0.993080 0.000000 0.823793
O O17 0.905826 0.746226 0.912708
O O18 0.000000 0.845657 0.000000
O O19 0.256952 0.739088 0.817713
O O20 0.324473 0.000000 0.723442
O O21 0.178128 0.500000 0.965766
#
# Coordination Sequence:
#
# PCOD8059752 Si02
#       8
#     4   4   4   4   4   4   4   4
#     4   9  20  37  53  77 112 150 188 230 285 339
#     4   9  19  35  57  84 115 148 186 237 286 331
#     4  10  19  30  49  76 103 137 185 234 277 325
#     4  10  21  36  53  77 110 147 186 231 280 330
#     4   9  19  37  61  86 114 147 187 233 284 341
#     4  11  25  41  56  79 113 153 194 236 284 339
#     4   9  20  39  60  85 116 150 186 231 287 342
#     4  11  23  39  61  85 114 152 193 235 284 344
#
# _framework density 20.867868000000001
#
# number of rings (size 3 to 8) (size 9 to 14) (size 15 to 20)
#    0.000    2.250    0.000    3.750    1.750    8.500 
#    0.000    1.875    0.000    3.750    0.000    0.000 
#    0.000    0.000    0.000    0.000    0.000    0.000 
#
# Total GULP energy -396479.028127 kJ/mol
# GULP energy per Si atom -12389.969629 kJ/mol
# Density = 2.082037 g / cm^3
# Si number density = 20.867868 Si / 1000 Ang^3
#
#
#
# Elastic Constant Matrix: (Units=GPa)
#
#
# Indices 1 2 3 4 5 6 
#
# 1 70.7738 24.3512 -10.0338 0.0000 15.8417 0.0000
# 2 24.3512 89.1112 12.7968 0.0000 1.6987 0.0000
# 3 -10.0338 12.7968 37.5156 0.0000 3.8256 0.0000
# 4 0.0000 0.0000 0.0000 18.1733 0.0000 1.2045
# 5 15.8417 1.6987 3.8256 0.0000 20.0770 0.0000
# 6 0.0000 0.0000 0.0000 1.2045 0.0000 33.5854
#
#
#
# Elastic Compliance Matrix: (Units=1/GPa)
#
#
# Indices 1 2 3 4 5 6 
#
# 1 0.022342 -0.007234 0.010380 0.000000 -0.018994 0.000000
# 2 -0.007234 0.014143 -0.007362 0.000000 0.005914 0.000000
# 3 0.010380 -0.007362 0.033363 0.000000 -0.013924 0.000000
# 4 0.000000 0.000000 0.000000 0.055157 0.000000 -0.001978
# 5 -0.018994 0.005914 -0.013924 0.000000 0.066949 0.000000
# 6 0.000000 0.000000 0.000000 -0.001978 0.000000 0.029846
#
#
# Mechanical properties :
#
#
# Convention : Reuss Voigt Hill
#
# Bulk Modulus (GPa) = 16.28251 27.95880 22.12066
# Shear Modulus (GPa) = 19.94392 25.71957 22.83175
#
# Velocity S-wave (km/s) = 3.09483 3.51450 3.31132
# Velocity P-wave (km/s) = 4.53765 5.46773 5.02426
#
# Compressibility (1/GPa) = 0.06141557
#
# Stress axis : x y z
#
# Youngs Moduli (GPa) = 44.75948 70.70544 29.97341
#
# Poissons Ratio (x) = 0.51147 -0.31112
# Poissons Ratio (y) = 0.32378 0.22067
# Poissons Ratio (z) = -0.46459 0.52054
#
# Static dielectric constant tensor:
#      x y z
#    x 3.747270 0.000000 0.070250 
#    y 0.000000 3.914240 0.000000 
#    z 0.070250 0.000000 3.704620 
# 
# 
# High freq. dielectric constant tensor:
#      x y z
#    x 1.807380 0.000000 0.013940 
#    y 0.000000 1.825680 0.000000 
#    z 0.013940 0.000000 1.800220 
# 
# From -- ./inp_files/55289.got.cif
#   From: 2010.06.25/outbox.cif.g09.slc.cpg/sg10_28_cif.got.tgz:55289.got - 2010.06.27 22:07:45.
