data_PCOD8059887
_publ_section_title
;
Structure prediction by ZEFSAII (Michael W. Deem and Ramdas Pophale) SiO2 
 PCOD8059887
Probable space group: P 2/M
;
_chemical_formula_sum "Si O2"
_cell_formula_units_Z 32
_cell_length_a 15.108761
_cell_length_b 18.517596
_cell_length_c 20.302166
_cell_angle_alpha 90.000000
_cell_angle_beta 19.230247
_cell_angle_gamma 90.000000
_cell_volume 1870.826317
_symmetry_space_group_name_H-M "P 2/M"
_symmetry_group_IT_number 10
_symmetry_cell_setting 'monoclinic'
loop_
_space_group_symop_operation_xyz
x,y,z
-x,y,-z
-x,-y,-z
x,-y,z
loop_
_atom_site_type_symbol
_atom_site_label
_atom_site_fract_x
_atom_site_fract_y
_atom_site_fract_z
Si Si1 0.569538 0.821604 0.810733
Si Si2 0.067023 0.419352 0.817874
Si Si3 0.525754 0.580670 0.588729
Si Si4 0.950650 0.178450 0.429449
Si Si5 0.253468 0.080671 0.123429
Si Si6 0.305308 0.327240 0.998907
Si Si7 0.090541 0.672718 0.605766
Si Si8 0.801004 0.584608 0.699215
O O1 0.731553 0.854155 0.634376
O O2 0.770256 0.804421 0.729821
O O3 0.344723 0.878560 0.992545
O O4 0.438855 0.746494 0.880670
O O5 0.954055 0.500000 0.910402
O O6 0.254179 0.421640 0.622790
O O7 0.239738 0.393089 0.759862
O O8 0.821057 0.365106 0.977143
O O9 0.494218 0.500000 0.640552
O O10 0.625732 0.635021 0.575147
O O11 0.837813 0.253577 0.481507
O O12 0.003473 0.121526 0.333680
O O13 0.158950 0.000000 0.170760
O O14 0.500000 0.076519 0.000000
O O15 0.078949 0.306908 0.210787
O O16 0.513469 0.381560 0.886054
O O17 0.918790 0.618045 0.682687
O O18 0.762205 0.500000 0.737742
O O19 0.000000 0.602781 0.500000
#
# Coordination Sequence:
#
# PCOD8059887 Si02
#       8
#     4   4   4   4   4   4   4   4
#     4  10  19  31  47  69 100 133 162 196 242 288
#     4   8  15  28  45  66  92 123 163 212 259 296
#     4   8  15  28  45  66  92 123 163 212 259 296
#     4  10  19  31  47  69 100 133 162 196 242 288
#     4   9  18  32  50  72  97 128 165 197 230 284
#     4  11  19  29  48  69  93 126 167 205 244 296
#     4  11  19  29  48  69  93 126 167 205 244 296
#     4  11  23  33  41  61  93 128 167 209 249 291
#
# _framework density 17.104741000000001
#
# number of rings (size 3 to 8) (size 9 to 14) (size 15 to 20)
#    0.000    2.250    2.500    2.625    0.000    2.500 
#    0.000    2.500    0.000    3.000    0.000    8.750 
#    0.000    2.000    0.000    2.250    0.000    0.250 
#
# Total GULP energy -396753.717622 kJ/mol
# GULP energy per Si atom -12398.553676 kJ/mol
# Density = 1.706581 g / cm^3
# Si number density = 17.104741 Si / 1000 Ang^3
#
#
#
# Elastic Constant Matrix: (Units=GPa)
#
#
# Indices 1 2 3 4 5 6 
#
# 1 62.1363 46.2955 46.5490 0.0000 -14.1744 0.0000
# 2 46.2955 119.9203 43.3882 0.0000 -3.0703 0.0000
# 3 46.5490 43.3882 56.3639 0.0000 8.6821 0.0000
# 4 0.0000 0.0000 0.0000 15.6524 0.0000 0.3842
# 5 -14.1744 -3.0703 8.6821 0.0000 30.3266 0.0000
# 6 0.0000 0.0000 0.0000 0.3842 0.0000 15.3238
#
#
#
# Elastic Compliance Matrix: (Units=1/GPa)
#
#
# Indices 1 2 3 4 5 6 
#
# 1 0.127424 -0.005023 -0.115560 0.000000 0.092132 0.000000
# 2 -0.005023 0.012212 -0.005315 0.000000 0.000410 0.000000
# 3 -0.115560 -0.005315 0.131471 0.000000 -0.092189 0.000000
# 4 0.000000 0.000000 0.000000 0.063927 0.000000 -0.001603
# 5 0.092132 0.000410 -0.092189 0.000000 0.102470 0.000000
# 6 0.000000 0.000000 0.000000 -0.001603 0.000000 0.065298
#
#
# Mechanical properties :
#
#
# Convention : Reuss Voigt Hill
#
# Bulk Modulus (GPa) = 51.78690 56.76508 54.27599
# Shear Modulus (GPa) = 6.56999 19.07309 12.82154
#
# Velocity S-wave (km/s) = 1.96198 3.34290 2.74083
# Velocity P-wave (km/s) = 5.95605 6.93965 6.46658
#
# Compressibility (1/GPa) = 0.01930990
#
# Stress axis : x y z
#
# Youngs Moduli (GPa) = 7.84780 81.88939 7.60624
#
# Poissons Ratio (x) = 0.41132 0.87898
# Poissons Ratio (y) = 0.03942 0.04043
# Poissons Ratio (z) = 0.90689 0.43527
#
# Static dielectric constant tensor:
#      x y z
#    x 3.154140 0.000000 0.000710 
#    y 0.000000 3.193540 0.000000 
#    z 0.000710 0.000000 3.153460 
# 
# 
# High freq. dielectric constant tensor:
#      x y z
#    x 1.636220 0.000000 0.017410 
#    y 0.000000 1.644510 0.000000 
#    z 0.017410 0.000000 1.649740 
# 
# From -- ./inp_files/70850.got.cif
#   From: 2010.06.25/outbox.cif.g09.slc.cpg/sg10_36_cif.got.tgz:70850.got - 2010.06.27 22:07:45.
