data_PCOD8059869
_publ_section_title
;
Structure prediction by ZEFSAII (Michael W. Deem and Ramdas Pophale) SiO2 
 PCOD8059869
Probable space group: P 2/M
;
_chemical_formula_sum "Si O2"
_cell_formula_units_Z 32
_cell_length_a 20.721303
_cell_length_b 9.968495
_cell_length_c 19.850003
_cell_angle_alpha 90.000000
_cell_angle_beta 29.291254
_cell_angle_gamma 90.000000
_cell_volume 2006.030219
_symmetry_space_group_name_H-M "P 2/M"
_symmetry_group_IT_number 10
_symmetry_cell_setting 'monoclinic'
loop_
_space_group_symop_operation_xyz
x,y,z
-x,y,-z
-x,-y,-z
x,-y,z
loop_
_atom_site_type_symbol
_atom_site_label
_atom_site_fract_x
_atom_site_fract_y
_atom_site_fract_z
Si Si1 0.173190 0.849971 0.907196
Si Si2 0.866645 0.154795 0.582713
Si Si3 0.138489 0.849982 0.790055
Si Si4 0.230379 0.655832 0.115498
Si Si5 0.925719 0.344190 0.411444
Si Si6 0.801265 0.648451 0.006425
Si Si7 0.112992 0.648401 0.703667
Si Si8 0.646284 0.846289 0.891723
O O1 0.200526 0.804253 0.805221
O O2 0.227890 0.000000 0.869029
O O3 0.247256 0.751130 0.891706
O O4 0.018290 0.847681 0.061752
O O5 0.851445 0.249621 0.531859
O O6 0.744021 0.187484 0.741888
O O7 0.000000 0.192083 0.500000
O O8 0.867832 0.000000 0.558129
O O9 0.186627 0.751237 0.686819
O O10 0.186340 0.000000 0.728633
O O11 0.259688 0.500000 0.104146
O O12 0.258685 0.688763 0.011342
O O13 0.327096 0.749359 0.069869
O O14 0.080284 0.691013 0.270871
O O15 0.904246 0.500000 0.449769
O O16 0.861989 0.311677 0.396691
O O17 0.752433 0.500000 0.071479
O O18 0.957978 0.648213 0.857895
O O19 0.169900 0.500000 0.666137
O O20 0.665101 0.000000 0.898328
O O21 0.500000 0.818087 0.000000
#
# Coordination Sequence:
#
# PCOD8059869 Si02
#       8
#     4   4   4   4   4   4   4   4
#     4   8  13  20  29  44  67  97 134 171 203 241
#     4  10  19  31  47  67  86 108 143 180 212 256
#     4   8  13  20  29  43  67  99 134 169 204 241
#     4   9  17  29  44  62  84 109 140 178 216 257
#     4   9  17  28  43  63  85 109 139 178 219 254
#     4   8  14  23  34  50  72  98 131 170 207 243
#     4   8  14  23  33  49  73 100 132 167 205 248
#     4  10  21  35  48  64  88 114 140 176 221 262
#
# _framework density 15.951903
#
# number of rings (size 3 to 8) (size 9 to 14) (size 15 to 20)
#    0.000    3.250    1.250    2.250    0.000    2.500 
#    0.000    5.000    0.000    0.000    0.000    0.000 
#    0.000    0.000    0.000    1.125    0.000   22.500 
#
# Total GULP energy -396631.830216 kJ/mol
# GULP energy per Si atom -12394.744694 kJ/mol
# Density = 1.591560 g / cm^3
# Si number density = 15.951903 Si / 1000 Ang^3
#
#
#
# Elastic Constant Matrix: (Units=GPa)
#
#
# Indices 1 2 3 4 5 6 
#
# 1 121.7950 92.5867 38.9757 0.0000 29.2445 0.0000
# 2 92.5867 109.2745 31.6547 0.0000 23.4810 0.0000
# 3 38.9757 31.6547 42.9534 0.0000 5.0845 0.0000
# 4 0.0000 0.0000 0.0000 11.7423 0.0000 12.0249
# 5 29.2445 23.4810 5.0845 0.0000 17.9028 0.0000
# 6 0.0000 0.0000 0.0000 12.0249 0.0000 34.5858
#
#
#
# Elastic Compliance Matrix: (Units=1/GPa)
#
#
# Indices 1 2 3 4 5 6 
#
# 1 0.032057 -0.018075 -0.012806 0.000000 -0.025022 0.000000
# 2 -0.018075 0.025955 -0.002268 0.000000 -0.003872 0.000000
# 3 -0.012806 -0.002268 0.034918 0.000000 0.013977 0.000000
# 4 0.000000 0.000000 0.000000 0.132250 0.000000 -0.045981
# 5 -0.025022 -0.003872 0.013977 0.000000 0.097840 0.000000
# 6 0.000000 0.000000 0.000000 -0.045981 0.000000 0.044901
#
#
# Mechanical properties :
#
#
# Convention : Reuss Voigt Hill
#
# Bulk Modulus (GPa) = 37.54890 66.71746 52.13318
# Shear Modulus (GPa) = 11.28422 20.23323 15.75873
#
# Velocity S-wave (km/s) = 2.66257 3.56531 3.14648
# Velocity P-wave (km/s) = 5.74824 7.67226 6.77886
#
# Compressibility (1/GPa) = 0.02663194
#
# Stress axis : x y z
#
# Youngs Moduli (GPa) = 31.19441 38.52815 28.63838
#
# Poissons Ratio (x) = 0.69640 0.36674
# Poissons Ratio (y) = 0.56384 0.06495
# Poissons Ratio (z) = 0.39947 0.08738
#
# Static dielectric constant tensor:
#      x y z
#    x 3.100220 0.000000 0.284340 
#    y 0.000000 3.260550 0.000000 
#    z 0.284340 0.000000 2.541770 
# 
# 
# High freq. dielectric constant tensor:
#      x y z
#    x 1.609720 0.000000 0.029810 
#    y 0.000000 1.620450 0.000000 
#    z 0.029810 0.000000 1.549630 
# 
# From -- ./inp_files/57186.got.cif
#   From: 2010.06.25/outbox.cif.g09.slc.cpg/sg10_29_cif.got.tgz:57186.got - 2010.06.27 22:07:45.
