data_PCOD8059326
_publ_section_title
;
Structure prediction by ZEFSAII (Michael W. Deem and Ramdas Pophale) SiO2 
 PCOD8059326
Probable space group: P 2/M
;
_chemical_formula_sum "Si O2"
_cell_formula_units_Z 32
_cell_length_a 20.160481
_cell_length_b 9.066310
_cell_length_c 12.306489
_cell_angle_alpha 90.000000
_cell_angle_beta 130.496406
_cell_angle_gamma 90.000000
_cell_volume 1710.544602
_symmetry_space_group_name_H-M "P 2/M"
_symmetry_group_IT_number 10
_symmetry_cell_setting 'monoclinic'
loop_
_space_group_symop_operation_xyz
x,y,z
-x,y,-z
-x,-y,-z
x,-y,z
loop_
_atom_site_type_symbol
_atom_site_label
_atom_site_fract_x
_atom_site_fract_y
_atom_site_fract_z
Si Si1 0.245521 0.824854 0.659713
Si Si2 0.191996 0.174942 0.155908
Si Si3 0.143802 0.174998 0.340983
Si Si4 0.950251 0.825077 0.162098
Si Si5 0.469720 0.674419 0.640159
Si Si6 0.426480 0.674830 0.835013
Si Si7 0.910070 0.174753 0.355635
Si Si8 0.632898 0.674646 0.677657
O O1 0.210009 0.773172 0.504561
O O2 0.336958 0.747019 0.780178
O O3 0.175402 0.766208 0.673200
O O4 0.258341 0.000000 0.679489
O O5 0.180554 0.233110 0.266105
O O6 0.277766 0.246360 0.196016
O O7 0.200923 0.000000 0.158919
O O8 0.108515 0.231607 0.999717
O O9 0.047377 0.242711 0.257523
O O10 0.136068 0.000000 0.332504
O O11 0.904043 0.774862 0.224366
O O12 0.957830 0.000000 0.166787
O O13 0.469014 0.500000 0.645039
O O14 0.451276 0.738088 0.741237
O O15 0.563866 0.726338 0.695850
O O16 0.397664 0.726913 0.475486
O O17 0.414552 0.500000 0.818989
O O18 0.500000 0.721169 0.000000
O O19 0.000000 0.240410 0.500000
O O20 0.912499 0.000000 0.372352
O O21 0.645030 0.500000 0.692840
#
# Coordination Sequence:
#
# PCOD8059326 Si02
#       8
#     4   4   4   4   4   4   4   4
#     4  10  19  31  52  77  96 122 164 207 240 274
#     4  10  19  28  43  72 103 123 149 193 243 286
#     4   9  16  28  46  69  97 127 159 193 233 281
#     4   9  16  27  44  67  96 130 161 191 229 278
#     4   8  16  33  54  70  86 120 168 199 224 280
#     4  10  21  36  52  71  98 130 160 194 243 299
#     4   9  15  27  47  71  97 125 162 201 232 274
#     4   9  17  32  53  70  88 121 162 199 231 277
#
# _framework density 18.707491999999998
#
# number of rings (size 3 to 8) (size 9 to 14) (size 15 to 20)
#    0.000    2.750    1.250    1.875    0.000    2.750 
#    0.000    1.875    0.000    2.625    0.000    0.000 
#    0.000    0.000    0.000    0.000    0.000    0.000 
#
# Total GULP energy -396690.473517 kJ/mol
# GULP energy per Si atom -12396.577297 kJ/mol
# Density = 1.866491 g / cm^3
# Si number density = 18.707492 Si / 1000 Ang^3
#
#
#
# Elastic Constant Matrix: (Units=GPa)
#
#
# Indices 1 2 3 4 5 6 
#
# 1 134.6003 20.6576 60.3408 0.0000 12.7106 0.0000
# 2 20.6576 15.3081 22.6713 0.0000 5.8030 0.0000
# 3 60.3408 22.6713 109.5320 0.0000 18.0769 0.0000
# 4 0.0000 0.0000 0.0000 3.9311 0.0000 -6.7924
# 5 12.7106 5.8030 18.0769 0.0000 35.6048 0.0000
# 6 0.0000 0.0000 0.0000 -6.7924 0.0000 1.5791
#
#
#
# Elastic Compliance Matrix: (Units=1/GPa)
#
#
# Indices 1 2 3 4 5 6 
#
# 1 0.010523 -0.008023 -0.004074 0.000000 -0.000381 0.000000
# 2 -0.008023 0.101489 -0.015640 0.000000 -0.005736 0.000000
# 3 -0.004074 -0.015640 0.015226 0.000000 -0.003727 0.000000
# 4 0.000000 0.000000 0.000000 -0.039549 0.000000 -0.170112
# 5 -0.000381 -0.005736 -0.003727 0.000000 0.031049 0.000000
# 6 0.000000 0.000000 0.000000 -0.170112 0.000000 -0.098453
#
#
# Mechanical properties :
#
#
# Convention : Reuss Voigt Hill
#
# Bulk Modulus (GPa) = 13.93433 51.86442 32.89938
# Shear Modulus (GPa) = 50.16056 18.60773 34.38415
#
# Velocity S-wave (km/s) = 5.18375 3.15726 4.29183
# Velocity P-wave (km/s) = 6.57975 6.40898 6.49493
#
# Compressibility (1/GPa) = 0.07176519
#
# Stress axis : x y z
#
# Youngs Moduli (GPa) = 95.03173 9.85327 65.67609
#
# Poissons Ratio (x) = 0.07905 0.26753
# Poissons Ratio (y) = 0.76242 1.02719
# Poissons Ratio (z) = 0.38712 0.15411
#
# Static dielectric constant tensor:
#      x y z
#    x 3.700400 0.000000 -0.130900 
#    y 0.000000 2.777470 0.000000 
#    z -0.130900 0.000000 3.568270 
# 
# 
# High freq. dielectric constant tensor:
#      x y z
#    x 1.742160 0.000000 0.000000 
#    y 0.000000 1.660420 0.000000 
#    z 0.000000 0.000000 1.731860 
# 
# From -- ./inp_files/53533.got.cif
#   From: 2010.06.25/outbox.cif.g09.slc.cpg/sg10_27_cif.got.tgz:53533.got - 2010.06.27 22:07:45.
