data_PCOD8059509
_publ_section_title
;
Structure prediction by ZEFSAII (Michael W. Deem and Ramdas Pophale) SiO2 
 PCOD8059509
Probable space group: P 2/M
;
_chemical_formula_sum "Si O2"
_cell_formula_units_Z 32
_cell_length_a 12.139138
_cell_length_b 8.832001
_cell_length_c 24.537159
_cell_angle_alpha 90.000000
_cell_angle_beta 48.824559
_cell_angle_gamma 90.000000
_cell_volume 1980.120056
_symmetry_space_group_name_H-M "P 2/M"
_symmetry_group_IT_number 10
_symmetry_cell_setting 'monoclinic'
loop_
_space_group_symop_operation_xyz
x,y,z
-x,y,-z
-x,-y,-z
x,-y,z
loop_
_atom_site_type_symbol
_atom_site_label
_atom_site_fract_x
_atom_site_fract_y
_atom_site_fract_z
Si Si1 0.845756 0.177001 0.996923
Si Si2 0.400974 0.678478 0.194219
Si Si3 0.336520 0.331081 0.379801
Si Si4 0.463320 0.175197 0.951169
Si Si5 0.104248 0.831038 0.518215
Si Si6 0.858063 0.319733 0.109834
Si Si7 0.425948 0.821079 0.764196
Si Si8 0.126126 0.667254 0.344940
O O1 0.988681 0.245921 0.920785
O O2 0.868878 0.000000 0.002224
O O3 0.708168 0.204641 0.002673
O O4 0.819484 0.266177 0.061462
O O5 0.426793 0.500000 0.196057
O O6 0.437547 0.723891 0.120882
O O7 0.504207 0.771083 0.201288
O O8 0.230029 0.720625 0.261180
O O9 0.390928 0.500000 0.375834
O O10 0.250899 0.265901 0.460175
O O11 0.475593 0.227779 0.319410
O O12 0.227148 0.332894 0.365047
O O13 0.503774 0.000000 0.928571
O O14 0.500000 0.228114 0.000000
O O15 0.000000 0.822834 0.500000
O O16 0.014663 0.773429 0.600295
O O17 0.155709 0.000000 0.513731
O O18 0.868585 0.500000 0.108569
O O19 0.731314 0.259524 0.191140
O O20 0.406115 0.000000 0.770859
O O21 0.064065 0.500000 0.354190
#
# Coordination Sequence:
#
# PCOD8059509 Si02
#       8
#     4   4   4   4   4   4   4   4
#     4  10  19  32  48  66  87 113 145 180 223 268
#     4  10  19  30  44  62  83 109 145 184 222 263
#     4   9  16  25  36  52  77 108 140 174 211 253
#     4  10  21  35  50  67  89 117 147 183 226 270
#     4   9  15  22  33  51  73 102 139 174 208 249
#     4  11  20  30  46  66  89 113 144 184 223 264
#     4  11  19  28  42  61  85 113 144 181 220 261
#     4   8  15  25  36  51  73 103 137 175 214 251
#
# _framework density 16.160634999999999
#
# number of rings (size 3 to 8) (size 9 to 14) (size 15 to 20)
#    0.000    2.250    1.250    5.250    0.000    5.750 
#    0.000    0.000    0.000    0.000    0.000    0.000 
#    0.000    0.000    0.000    1.125    0.000   21.875 
#
# Total GULP energy -396714.929767 kJ/mol
# GULP energy per Si atom -12397.341555 kJ/mol
# Density = 1.612385 g / cm^3
# Si number density = 16.160635 Si / 1000 Ang^3
#
#
#
# Elastic Constant Matrix: (Units=GPa)
#
#
# Indices 1 2 3 4 5 6 
#
# 1 47.5318 21.9095 36.1342 0.0000 -6.7506 0.0000
# 2 21.9095 110.3610 54.5390 0.0000 -11.1316 0.0000
# 3 36.1342 54.5390 125.8535 0.0000 -26.4538 0.0000
# 4 0.0000 0.0000 0.0000 31.5909 0.0000 -7.3479
# 5 -6.7506 -11.1316 -26.4538 0.0000 15.4919 0.0000
# 6 0.0000 0.0000 0.0000 -7.3479 0.0000 8.9601
#
#
#
# Elastic Compliance Matrix: (Units=1/GPa)
#
#
# Indices 1 2 3 4 5 6 
#
# 1 0.027293 -0.001958 -0.007462 0.000000 -0.002256 0.000000
# 2 -0.001958 0.011673 -0.004543 0.000000 -0.000224 0.000000
# 3 -0.007462 -0.004543 0.016671 0.000000 0.021951 0.000000
# 4 0.000000 0.000000 0.000000 0.039116 0.000000 0.032078
# 5 -0.002256 -0.000224 0.021951 0.000000 0.100890 0.000000
# 6 0.000000 0.000000 0.000000 0.032078 0.000000 0.137913
#
#
# Mechanical properties :
#
#
# Convention : Reuss Voigt Hill
#
# Bulk Modulus (GPa) = 36.08768 56.54576 46.31672
# Shear Modulus (GPa) = 13.48731 22.61947 18.05339
#
# Velocity S-wave (km/s) = 2.89204 3.74527 3.34596
# Velocity P-wave (km/s) = 5.79059 7.33270 6.60679
#
# Compressibility (1/GPa) = 0.02771029
#
# Stress axis : x y z
#
# Youngs Moduli (GPa) = 36.63884 85.67128 59.98468
#
# Poissons Ratio (x) = 0.16779 0.44759
# Poissons Ratio (y) = 0.07176 0.27252
# Poissons Ratio (z) = 0.27339 0.38921
#
# Static dielectric constant tensor:
#      x y z
#    x 2.571410 0.000000 -0.342460 
#    y 0.000000 3.191680 0.000000 
#    z -0.342460 0.000000 3.322700 
# 
# 
# High freq. dielectric constant tensor:
#      x y z
#    x 1.544740 0.000000 -0.037660 
#    y 0.000000 1.637910 0.000000 
#    z -0.037660 0.000000 1.628840 
# 
# From -- ./inp_files/88528.got.cif
#   From: 2010.06.25/outbox.cif.g09.slc.cpg/sg10_45_cif.got.tgz:88528.got - 2010.06.27 22:07:45.
