data_PCOD8059557
_publ_section_title
;
Structure prediction by ZEFSAII (Michael W. Deem and Ramdas Pophale) SiO2 
 PCOD8059557
Probable space group: P 2/M
;
_chemical_formula_sum "Si O2"
_cell_formula_units_Z 26
_cell_length_a 11.644993
_cell_length_b 9.246882
_cell_length_c 14.230715
_cell_angle_alpha 90.000000
_cell_angle_beta 89.503810
_cell_angle_gamma 90.000000
_cell_volume 1532.304167
_symmetry_space_group_name_H-M "P 2/M"
_symmetry_group_IT_number 10
_symmetry_cell_setting 'monoclinic'
loop_
_space_group_symop_operation_xyz
x,y,z
-x,y,-z
-x,-y,-z
x,-y,z
loop_
_atom_site_type_symbol
_atom_site_label
_atom_site_fract_x
_atom_site_fract_y
_atom_site_fract_z
Si Si1 0.131231 0.335556 0.989392
Si Si2 0.302950 0.162599 0.866985
Si Si3 0.616764 0.168518 0.691363
Si Si4 0.363252 0.159792 0.511868
Si Si5 0.500000 0.753041 0.000000
Si Si6 0.378558 0.328316 0.688343
Si Si7 0.310690 0.342454 0.142049
O O1 0.141732 0.500000 0.950202
O O2 0.190094 0.324914 0.090591
O O3 0.192612 0.222155 0.921449
O O4 0.000000 0.287653 0.000000
O O5 0.311611 0.266380 0.777452
O O6 0.278357 0.000000 0.833325
O O7 0.417213 0.155788 0.931556
O O8 0.685856 0.194091 0.592644
O O9 0.506719 0.270247 0.694170
O O10 0.691583 0.216279 0.780072
O O11 0.581209 0.000000 0.701529
O O12 0.500000 0.163674 0.500000
O O13 0.321280 0.274067 0.590467
O O14 0.323849 0.000000 0.544815
O O15 0.583113 0.660190 0.932356
O O16 0.376204 0.500000 0.690798
O O17 0.317186 0.500000 0.191013
#
# Coordination Sequence:
#
# PCOD8059557 Si02
#       7
#     4   4   4   4   2   4   4
#     4   9  20  38  54  70  96 128 164 205 246 286
#     4  11  21  32  49  72  99 129 163 200 241 288
#     4  10  19  30  45  67  98 131 162 196 239 286
#     4   8  16  30  44  61  92 131 162 193 234 282
#     4  10  20  30  46  68 100 130 158 196 242 284
#     4  11  20  29  45  69  97 129 164 198 236 286
#     4  10  19  30  49  72  97 128 163 199 240 287
#
# _framework density 16.96791
#
# number of rings (size 3 to 8) (size 9 to 14) (size 15 to 20)
#    0.000    2.154    1.538    3.692    0.000    7.385 
#    0.000    0.000    0.000    0.000    0.000    1.077 
#    0.000    8.615    0.000    0.000    0.000    0.000 
#
# Total GULP energy -322207.131683 kJ/mol
# GULP energy per Si atom -12392.581988 kJ/mol
# Density = 1.692929 g / cm^3
# Si number density = 16.967910 Si / 1000 Ang^3
#
#
#
# Elastic Constant Matrix: (Units=GPa)
#
#
# Indices 1 2 3 4 5 6 
#
# 1 77.5248 30.9021 32.1001 0.0000 -0.7082 0.0000
# 2 30.9021 142.8030 68.2555 0.0000 -0.9551 0.0000
# 3 32.1001 68.2555 118.2523 0.0000 6.9074 0.0000
# 4 0.0000 0.0000 0.0000 27.8208 0.0000 -1.9629
# 5 -0.7082 -0.9551 6.9074 0.0000 10.8172 0.0000
# 6 0.0000 0.0000 0.0000 -1.9629 0.0000 12.7211
#
#
#
# Elastic Compliance Matrix: (Units=1/GPa)
#
#
# Indices 1 2 3 4 5 6 
#
# 1 0.014939 -0.001648 -0.003275 0.000000 0.002924 0.000000
# 2 -0.001648 0.010077 -0.005625 0.000000 0.004373 0.000000
# 3 -0.003275 -0.005625 0.013123 0.000000 -0.009091 0.000000
# 4 0.000000 0.000000 0.000000 0.036340 0.000000 0.005607
# 5 0.002924 0.004373 -0.009091 0.000000 0.098828 0.000000
# 6 0.000000 0.000000 0.000000 0.005607 0.000000 0.079475
#
#
# Mechanical properties :
#
#
# Convention : Reuss Voigt Hill
#
# Bulk Modulus (GPa) = 58.67138 66.78839 62.72988
# Shear Modulus (GPa) = 17.88543 24.09330 20.98937
#
# Velocity S-wave (km/s) = 3.25017 3.77229 3.52092
# Velocity P-wave (km/s) = 6.98124 7.64334 7.31978
#
# Compressibility (1/GPa) = 0.01704409
#
# Stress axis : x y z
#
# Youngs Moduli (GPa) = 66.94056 99.23730 76.20227
#
# Poissons Ratio (x) = 0.16353 0.24955
# Poissons Ratio (y) = 0.11031 0.42860
# Poissons Ratio (z) = 0.21922 0.55816
#
# Static dielectric constant tensor:
#      x y z
#    x 2.755000 0.000000 0.190160 
#    y 0.000000 3.209150 0.000000 
#    z 0.190160 0.000000 3.635390 
# 
# 
# High freq. dielectric constant tensor:
#      x y z
#    x 1.593200 0.000000 0.009390 
#    y 0.000000 1.663140 0.000000 
#    z 0.009390 0.000000 1.664560 
# 
# From -- ./inp_files/57878.got.cif
#   From: 2010.06.25/outbox.cif.g09.slc.cpg/sg10_29_cif.got.tgz:57878.got - 2010.06.27 22:07:45.
