data_PCOD8059620
_publ_section_title
;
Structure prediction by ZEFSAII (Michael W. Deem and Ramdas Pophale) SiO2 
 PCOD8059620
Probable space group: P 2/M
;
_chemical_formula_sum "Si O2"
_cell_formula_units_Z 32
_cell_length_a 11.425218
_cell_length_b 9.376086
_cell_length_c 20.411946
_cell_angle_alpha 90.000000
_cell_angle_beta 120.318753
_cell_angle_gamma 90.000000
_cell_volume 1887.544505
_symmetry_space_group_name_H-M "P 2/M"
_symmetry_group_IT_number 10
_symmetry_cell_setting 'monoclinic'
loop_
_space_group_symop_operation_xyz
x,y,z
-x,y,-z
-x,-y,-z
x,-y,z
loop_
_atom_site_type_symbol
_atom_site_label
_atom_site_fract_x
_atom_site_fract_y
_atom_site_fract_z
Si Si1 0.619414 0.167925 0.289536
Si Si2 0.864065 0.165860 0.264452
Si Si3 0.870983 0.831098 0.115863
Si Si4 0.615846 0.662415 0.837850
Si Si5 0.030322 0.659780 0.403823
Si Si6 0.780612 0.339202 0.431512
Si Si7 0.069878 0.665758 0.087963
Si Si8 0.375046 0.336418 0.009762
O O1 0.726505 0.210601 0.263070
O O2 0.474069 0.232640 0.231009
O O3 0.665678 0.232201 0.372652
O O4 0.604857 0.000000 0.293267
O O5 0.849620 0.212190 0.185275
O O6 0.997179 0.240568 0.332666
O O7 0.891105 0.000000 0.279620
O O8 0.748360 0.767978 0.039363
O O9 0.009700 0.761574 0.129225
O O10 0.876179 0.000000 0.107584
O O11 0.585350 0.500000 0.808258
O O12 0.771977 0.700889 0.870769
O O13 0.577738 0.685459 0.902704
O O14 0.051895 0.500000 0.383398
O O15 0.906049 0.664792 0.418170
O O16 0.165871 0.709799 0.481356
O O17 0.721915 0.500000 0.418488
O O18 0.042195 0.500000 0.095228
O O19 0.000000 0.709264 0.000000
O O20 0.328909 0.500000 0.984499
O O21 0.500000 0.292029 0.000000
#
# Coordination Sequence:
#
# PCOD8059620 Si02
#       8
#     4   4   4   4   4   4   4   4
#     4  10  19  30  46  70 101 133 163 193 233 289
#     4   9  19  32  44  67 104 136 158 192 239 286
#     4  11  22  34  50  72  99 128 161 201 247 291
#     4  10  20  34  51  70  93 123 158 203 250 283
#     4   8  14  25  44  68  93 127 166 199 229 274
#     4   8  14  26  43  66  97 128 161 198 235 274
#     4  10  20  38  57  70  90 120 162 212 251 289
#     4  10  20  34  52  72  95 127 164 197 238 293
#
# _framework density 16.953243000000001
#
# number of rings (size 3 to 8) (size 9 to 14) (size 15 to 20)
#    0.000    2.500    1.250    2.250    0.000    3.500 
#    0.000    2.500    0.000    0.000    0.000    0.875 
#    0.000    7.000    0.000    0.000    0.000    0.000 
#
# Total GULP energy -396767.819493 kJ/mol
# GULP energy per Si atom -12398.994359 kJ/mol
# Density = 1.691466 g / cm^3
# Si number density = 16.953243 Si / 1000 Ang^3
#
#
#
# Elastic Constant Matrix: (Units=GPa)
#
#
# Indices 1 2 3 4 5 6 
#
# 1 60.9959 32.4279 25.5183 0.0000 15.6508 0.0000
# 2 32.4279 73.8364 51.8260 0.0000 15.6040 0.0000
# 3 25.5183 51.8260 95.1667 0.0000 28.2248 0.0000
# 4 0.0000 0.0000 0.0000 29.7924 0.0000 0.8633
# 5 15.6508 15.6040 28.2248 0.0000 17.8981 0.0000
# 6 0.0000 0.0000 0.0000 0.8633 0.0000 22.4592
#
#
#
# Elastic Compliance Matrix: (Units=1/GPa)
#
#
# Indices 1 2 3 4 5 6 
#
# 1 0.025046 -0.010068 0.004996 0.000000 -0.021001 0.000000
# 2 -0.010068 0.025973 -0.013790 0.000000 0.007905 0.000000
# 3 0.004996 -0.013790 0.027067 0.000000 -0.035031 0.000000
# 4 0.000000 0.000000 0.000000 0.033603 0.000000 -0.001292
# 5 -0.021001 0.007905 -0.035031 0.000000 0.122586 0.000000
# 6 0.000000 0.000000 0.000000 -0.001292 0.000000 0.044575
#
#
# Mechanical properties :
#
#
# Convention : Reuss Voigt Hill
#
# Bulk Modulus (GPa) = 24.77530 49.94929 37.36229
# Shear Modulus (GPa) = 15.15020 22.04506 18.59763
#
# Velocity S-wave (km/s) = 2.99263 3.60994 3.31568
# Velocity P-wave (km/s) = 5.15624 6.84854 6.06174
#
# Compressibility (1/GPa) = 0.04036279
#
# Stress axis : x y z
#
# Youngs Moduli (GPa) = 39.92689 38.50083 36.94496
#
# Poissons Ratio (x) = 0.38762 -0.18456
# Poissons Ratio (y) = 0.40198 0.50945
# Poissons Ratio (z) = -0.19946 0.53091
#
# Static dielectric constant tensor:
#      x y z
#    x 2.947790 0.000000 0.029570 
#    y 0.000000 3.172300 0.000000 
#    z 0.029570 0.000000 3.378240 
# 
# 
# High freq. dielectric constant tensor:
#      x y z
#    x 1.617530 0.000000 0.009570 
#    y 0.000000 1.654230 0.000000 
#    z 0.009570 0.000000 1.656780 
# 
# From -- ./inp_files/52784.got.cif
#   From: 2010.06.25/outbox.cif.g09.slc.cpg/sg10_27_cif.got.tgz:52784.got - 2010.06.27 22:07:45.
