data_PCOD8059742
_publ_section_title
;
Structure prediction by ZEFSAII (Michael W. Deem and Ramdas Pophale) SiO2 
 PCOD8059742
Probable space group: P 2/M
;
_chemical_formula_sum "Si O2"
_cell_formula_units_Z 28
_cell_length_a 26.370049
_cell_length_b 9.151289
_cell_length_c 22.719683
_cell_angle_alpha 90.000000
_cell_angle_beta 15.997727
_cell_angle_gamma 90.000000
_cell_volume 1511.031301
_symmetry_space_group_name_H-M "P 2/M"
_symmetry_group_IT_number 10
_symmetry_cell_setting 'monoclinic'
loop_
_space_group_symop_operation_xyz
x,y,z
-x,y,-z
-x,-y,-z
x,-y,z
loop_
_atom_site_type_symbol
_atom_site_label
_atom_site_fract_x
_atom_site_fract_y
_atom_site_fract_z
Si Si1 0.262143 0.673597 0.167910
Si Si2 0.198668 0.327590 0.801324
Si Si3 0.212675 0.828850 0.574648
Si Si4 0.815964 0.833109 0.062155
Si Si5 0.344236 0.674232 0.311531
Si Si6 0.122285 0.673599 0.447651
Si Si7 0.427860 0.833103 0.450239
O O1 0.269051 0.500000 0.161829
O O2 0.235619 0.731312 0.264375
O O3 0.090008 0.726445 0.319970
O O4 0.450631 0.734521 0.930233
O O5 0.219242 0.500000 0.780759
O O6 0.230820 0.265957 0.830103
O O7 0.352655 0.265969 0.586396
O O8 0.000000 0.277494 0.000000
O O9 0.275531 0.738151 0.448896
O O10 0.344691 0.781567 0.481015
O O11 0.228184 0.000000 0.543594
O O12 0.003940 0.781510 0.821806
O O13 0.649335 0.816880 0.201360
O O14 0.836240 0.000000 0.061300
O O15 0.340066 0.500000 0.319857
O O16 0.212417 0.734519 0.406700
O O17 0.130832 0.500000 0.438280
O O18 0.368750 0.000000 0.528776
#
# Coordination Sequence:
#
# PCOD8059742 Si02
#       7
#     4   4   4   4   4   4   4
#     4   8  14  26  46  73 102 129 161 205 253 298
#     4  11  22  35  56  85 113 134 159 206 267 315
#     4  10  22  38  52  71 103 139 172 211 252 297
#     4  10  21  38  59  78  98 134 180 215 250 303
#     4  10  19  30  49  75 100 129 169 209 248 298
#     4   8  14  26  46  73 102 129 161 205 253 298
#     4  10  21  38  59  78  98 134 180 215 250 303
#
# _framework density 18.530390000000001
#
# number of rings (size 3 to 8) (size 9 to 14) (size 15 to 20)
#    0.000    2.429    1.429    2.143    0.000    6.857 
#    0.000    0.000    0.000    1.714    0.000    2.000 
#    0.000    0.000    0.000    0.000    0.000    0.000 
#
# Total GULP energy -347183.464289 kJ/mol
# GULP energy per Si atom -12399.409439 kJ/mol
# Density = 1.848821 g / cm^3
# Si number density = 18.530390 Si / 1000 Ang^3
#
#
#
# Elastic Constant Matrix: (Units=GPa)
#
#
# Indices 1 2 3 4 5 6 
#
# 1 133.3456 34.6437 112.3632 0.0000 2.1001 0.0000
# 2 34.6437 33.2680 33.5063 0.0000 1.8231 0.0000
# 3 112.3632 33.5063 138.0856 0.0000 -10.6137 0.0000
# 4 0.0000 0.0000 0.0000 48.2901 0.0000 42.5876
# 5 2.1001 1.8231 -10.6137 0.0000 30.5991 0.0000
# 6 0.0000 0.0000 0.0000 42.5876 0.0000 74.1865
#
#
#
# Elastic Compliance Matrix: (Units=1/GPa)
#
#
# Indices 1 2 3 4 5 6 
#
# 1 0.027269 -0.006451 -0.021306 0.000000 -0.008877 0.000000
# 2 -0.006451 0.042362 -0.005332 0.000000 -0.003931 0.000000
# 3 -0.021306 -0.005332 0.026722 0.000000 0.011049 0.000000
# 4 0.000000 0.000000 0.000000 0.041942 0.000000 -0.024078
# 5 -0.008877 -0.003931 0.011049 0.000000 0.037357 0.000000
# 6 0.000000 0.000000 0.000000 -0.024078 0.000000 0.027302
#
#
# Mechanical properties :
#
#
# Convention : Reuss Voigt Hill
#
# Bulk Modulus (GPa) = 33.14006 73.96951 53.55479
# Shear Modulus (GPa) = 17.90896 38.89421 28.40158
#
# Velocity S-wave (km/s) = 3.11217 4.58639 3.91922
# Velocity P-wave (km/s) = 5.55312 8.24932 7.03166
#
# Compressibility (1/GPa) = 0.03017496
#
# Stress axis : x y z
#
# Youngs Moduli (GPa) = 36.67223 23.60588 37.42228
#
# Poissons Ratio (x) = 0.15228 0.79732
# Poissons Ratio (y) = 0.23658 0.19953
# Poissons Ratio (z) = 0.78134 0.12586
#
# Static dielectric constant tensor:
#      x y z
#    x 3.517010 0.000000 -0.257720 
#    y 0.000000 3.019680 0.000000 
#    z -0.257720 0.000000 3.674010 
# 
# 
# High freq. dielectric constant tensor:
#      x y z
#    x 1.721970 0.000000 -0.014070 
#    y 0.000000 1.679530 0.000000 
#    z -0.014070 0.000000 1.730520 
# 
# From -- ./inp_files/86472.got.cif
#   From: 2010.06.25/outbox.cif.g09.slc.cpg/sg10_44_cif.got.tgz:86472.got - 2010.06.27 22:07:45.
