data_PCOD8059904
_publ_section_title
;
Structure prediction by ZEFSAII (Michael W. Deem and Ramdas Pophale) SiO2 
 PCOD8059904
Probable space group: P 2/M
;
_chemical_formula_sum "Si O2"
_cell_formula_units_Z 16
_cell_length_a 12.287702
_cell_length_b 13.684436
_cell_length_c 5.268209
_cell_angle_alpha 90.000000
_cell_angle_beta 51.008530
_cell_angle_gamma 90.000000
_cell_volume 688.518340
_symmetry_space_group_name_H-M "P 2/M"
_symmetry_group_IT_number 10
_symmetry_cell_setting 'monoclinic'
loop_
_space_group_symop_operation_xyz
x,y,z
-x,y,-z
-x,-y,-z
x,-y,z
loop_
_atom_site_type_symbol
_atom_site_label
_atom_site_fract_x
_atom_site_fract_y
_atom_site_fract_z
Si Si1 0.333644 0.111005 0.267812
Si Si2 0.656664 0.793179 0.246315
Si Si3 0.933014 0.612572 0.348010
Si Si4 0.368333 0.611300 0.028007
O O1 0.271767 0.177301 0.590947
O O2 0.284816 0.000000 0.381283
O O3 0.500000 0.119893 0.000000
O O4 0.267812 0.153790 0.103699
O O5 0.500000 0.835422 0.500000
O O6 0.651698 0.676263 0.196743
O O7 0.981724 0.500000 0.276905
O O8 0.765550 0.621705 0.592987
O O9 0.000000 0.663244 0.500000
O O10 0.000000 0.663598 0.000000
O O11 0.390963 0.500000 0.903373
O O12 0.500000 0.650183 0.000000
#
# Coordination Sequence:
#
# PCOD8059904 Si02
#       4
#     4   4   4   4
#     4   9  17  30  48  69  99 140 178 217 272 327
#     4  10  19  31  47  73 107 140 177 220 266 321
#     4   9  19  36  55  74 101 141 187 230 267 307
#     4  10  21  36  55  81 115 152 185 220 268 326
#
# _framework density 23.238306000000001
#
# number of rings (size 3 to 8) (size 9 to 14) (size 15 to 20)
#    0.000    2.500    0.000    3.000    0.000    7.500 
#    0.000    8.750    0.000    0.750    0.000    0.000 
#    0.000   20.000    0.000    0.000    0.000    0.500 
#
# Total GULP energy -198307.641433 kJ/mol
# GULP energy per Si atom -12394.227590 kJ/mol
# Density = 2.318541 g / cm^3
# Si number density = 23.238306 Si / 1000 Ang^3
#
#
#
# Elastic Constant Matrix: (Units=GPa)
#
#
# Indices 1 2 3 4 5 6 
#
# 1 81.7465 24.6008 72.8191 0.0000 23.2597 0.0000
# 2 24.6008 141.5436 39.1008 0.0000 32.6925 0.0000
# 3 72.8191 39.1008 135.3240 0.0000 45.1302 0.0000
# 4 0.0000 0.0000 0.0000 24.5705 0.0000 14.9640
# 5 23.2597 32.6925 45.1302 0.0000 54.7658 0.0000
# 6 0.0000 0.0000 0.0000 14.9640 0.0000 7.6432
#
#
#
# Elastic Compliance Matrix: (Units=1/GPa)
#
#
# Indices 1 2 3 4 5 6 
#
# 1 0.023586 -0.000796 -0.012796 0.000000 0.001003 0.000000
# 2 -0.000796 0.008324 -0.000596 0.000000 -0.004140 0.000000
# 3 -0.012796 -0.000596 0.017260 0.000000 -0.008433 0.000000
# 4 0.000000 0.000000 0.000000 -0.211579 0.000000 0.414233
# 5 0.001003 -0.004140 -0.008433 0.000000 0.027254 0.000000
# 6 0.000000 0.000000 0.000000 0.414233 0.000000 -0.680157
#
#
# Mechanical properties :
#
#
# Convention : Reuss Voigt Hill
#
# Bulk Modulus (GPa) = 48.09315 70.18394 59.13854
# Shear Modulus (GPa) = -6.41022 32.20213 12.89596
#
# Velocity S-wave (km/s) = -1.66267 3.72658 2.35828
# Velocity P-wave (km/s) = 4.12972 6.98455 5.73753
#
# Compressibility (1/GPa) = 0.02079298
#
# Stress axis : x y z
#
# Youngs Moduli (GPa) = 42.39817 120.13199 57.93763
#
# Poissons Ratio (x) = 0.09563 0.74138
# Poissons Ratio (y) = 0.03375 0.03455
# Poissons Ratio (z) = 0.54254 0.07163
#
# Static dielectric constant tensor:
#      x y z
#    x 3.906990 0.000000 0.542780 
#    y 0.000000 4.012410 0.000000 
#    z 0.542780 0.000000 4.375790 
# 
# 
# High freq. dielectric constant tensor:
#      x y z
#    x 1.875060 0.000000 0.042690 
#    y 0.000000 1.896510 0.000000 
#    z 0.042690 0.000000 1.911000 
# 
# From -- ./inp_files/9139.got.cif
#   From: 2010.06.25/outbox.cif.g09.slc.cpg/sg10_5_cif.got.tgz:9139.got - 2010.06.27 22:07:45.
