data_PCOD8059843
_publ_section_title
;
Structure prediction by ZEFSAII (Michael W. Deem and Ramdas Pophale) SiO2 
 PCOD8059843
Probable space group: P 2/M
;
_chemical_formula_sum "Si O2"
_cell_formula_units_Z 32
_cell_length_a 15.131814
_cell_length_b 8.615713
_cell_length_c 14.926603
_cell_angle_alpha 90.000000
_cell_angle_beta 78.915720
_cell_angle_gamma 90.000000
_cell_volume 1909.699844
_symmetry_space_group_name_H-M "P 2/M"
_symmetry_group_IT_number 10
_symmetry_cell_setting 'monoclinic'
loop_
_space_group_symop_operation_xyz
x,y,z
-x,y,-z
-x,-y,-z
x,-y,z
loop_
_atom_site_type_symbol
_atom_site_label
_atom_site_fract_x
_atom_site_fract_y
_atom_site_fract_z
Si Si1 0.586904 0.683641 0.374626
Si Si2 0.758350 0.317817 0.239244
Si Si3 0.126387 0.181383 0.928286
Si Si4 0.076188 0.180043 0.294466
Si Si5 0.948686 0.319005 0.887006
Si Si6 0.871056 0.819809 0.373981
Si Si7 0.388788 0.683626 0.429717
Si Si8 0.206426 0.816973 0.423099
O O1 0.590361 0.500000 0.380872
O O2 0.659035 0.743084 0.287640
O O3 0.485268 0.734688 0.368405
O O4 0.614122 0.746752 0.467537
O O5 0.758836 0.500000 0.220158
O O6 0.784077 0.229502 0.142967
O O7 0.829489 0.282039 0.303135
O O8 0.040074 0.222468 0.884251
O O9 0.127195 0.000000 0.948388
O O10 0.123500 0.273285 0.022651
O O11 0.091744 0.277637 0.201329
O O12 0.146949 0.247358 0.352732
O O13 0.977692 0.205171 0.354760
O O14 0.093570 0.000000 0.269226
O O15 0.971376 0.500000 0.889306
O O16 0.832468 0.754643 0.475142
O O17 0.846107 0.000000 0.363114
O O18 0.376141 0.500000 0.427875
O O19 0.309199 0.763077 0.389228
O O20 0.199501 0.000000 0.424278
#
# Coordination Sequence:
#
# PCOD8059843 Si02
#       8
#     4   4   4   4   4   4   4   4
#     4   8  16  29  48  69  95 127 161 200 248 293
#     4  11  19  30  49  74  99 127 162 204 242 284
#     4  11  21  34  51  71  98 130 158 192 246 301
#     4  10  20  34  49  66  97 137 169 200 243 290
#     4  11  21  34  51  73  96 123 164 208 239 277
#     4  10  19  31  46  66  97 135 170 199 235 285
#     4   9  16  31  49  67  92 129 167 201 243 290
#     4  10  20  32  47  70  98 132 171 206 240 282
#
# _framework density 16.75656
#
# number of rings (size 3 to 8) (size 9 to 14) (size 15 to 20)
#    0.000    2.000    2.500    4.500    0.000    2.000 
#    0.000    2.500    0.000    2.250    0.000    0.875 
#    0.000    7.000    0.000    0.000    0.000    0.000 
#
# Total GULP energy -396798.799401 kJ/mol
# GULP energy per Si atom -12399.962481 kJ/mol
# Density = 1.671842 g / cm^3
# Si number density = 16.756560 Si / 1000 Ang^3
#
#
#
# Elastic Constant Matrix: (Units=GPa)
#
#
# Indices 1 2 3 4 5 6 
#
# 1 101.9861 11.3342 43.4625 0.0000 -10.7841 0.0000
# 2 11.3342 39.3911 15.1342 0.0000 -2.7147 0.0000
# 3 43.4625 15.1342 89.9499 0.0000 -12.4734 0.0000
# 4 0.0000 0.0000 0.0000 18.2997 0.0000 -0.9816
# 5 -10.7841 -2.7147 -12.4734 0.0000 26.3758 0.0000
# 6 0.0000 0.0000 0.0000 -0.9816 0.0000 22.5765
#
#
#
# Elastic Compliance Matrix: (Units=1/GPa)
#
#
# Indices 1 2 3 4 5 6 
#
# 1 0.012554 -0.001330 -0.005511 0.000000 0.002390 0.000000
# 2 -0.001330 0.027293 -0.003890 0.000000 0.000425 0.000000
# 3 -0.005511 -0.003890 0.015054 0.000000 0.004466 0.000000
# 4 0.000000 0.000000 0.000000 0.054774 0.000000 0.002381
# 5 0.002390 0.000425 0.004466 0.000000 0.041046 0.000000
# 6 0.000000 0.000000 0.000000 0.002381 0.000000 0.044397
#
#
# Mechanical properties :
#
#
# Convention : Reuss Voigt Hill
#
# Bulk Modulus (GPa) = 29.90571 41.24320 35.57446
# Shear Modulus (GPa) = 21.95603 24.21012 23.08307
#
# Velocity S-wave (km/s) = 3.62373 3.80520 3.71557
# Velocity P-wave (km/s) = 5.94932 6.63119 6.29949
#
# Compressibility (1/GPa) = 0.03343843
#
# Stress axis : x y z
#
# Youngs Moduli (GPa) = 79.65382 36.63910 66.42825
#
# Poissons Ratio (x) = 0.04874 0.36607
# Poissons Ratio (y) = 0.10597 0.25843
# Poissons Ratio (z) = 0.43896 0.14254
#
# Static dielectric constant tensor:
#      x y z
#    x 3.215110 0.000000 -0.221590 
#    y 0.000000 3.001480 0.000000 
#    z -0.221590 0.000000 3.260760 
# 
# 
# High freq. dielectric constant tensor:
#      x y z
#    x 1.627310 0.000000 -0.016380 
#    y 0.000000 1.637800 0.000000 
#    z -0.016380 0.000000 1.634020 
# 
# From -- ./inp_files/66091.got.cif
#   From: 2010.06.25/outbox.cif.g09.slc.cpg/sg10_34_cif.got.tgz:66091.got - 2010.06.27 22:07:45.
