data_PCOD8059261
_publ_section_title
;
Structure prediction by ZEFSAII (Michael W. Deem and Ramdas Pophale) SiO2 
 PCOD8059261
Probable space group: P 2/M
;
_chemical_formula_sum "Si O2"
_cell_formula_units_Z 20
_cell_length_a 20.219728
_cell_length_b 9.489305
_cell_length_c 13.404619
_cell_angle_alpha 90.000000
_cell_angle_beta 157.641845
_cell_angle_gamma 90.000000
_cell_volume 978.360802
_symmetry_space_group_name_H-M "P 2/M"
_symmetry_group_IT_number 10
_symmetry_cell_setting 'monoclinic'
loop_
_space_group_symop_operation_xyz
x,y,z
-x,y,-z
-x,-y,-z
x,-y,z
loop_
_atom_site_type_symbol
_atom_site_label
_atom_site_fract_x
_atom_site_fract_y
_atom_site_fract_z
Si Si1 0.166331 0.500000 0.913976
Si Si2 0.178971 0.500000 0.443047
Si Si3 0.378148 0.500000 0.034190
Si Si4 0.726583 0.000000 0.533061
Si Si5 0.442672 0.743957 0.815120
Si Si6 0.126603 0.000000 0.043021
Si Si7 0.729800 0.500000 0.645169
Si Si8 0.302367 0.728908 0.234809
O O1 0.977012 0.500000 0.696880
O O2 0.189066 0.500000 0.825195
O O3 0.269197 0.637655 0.091236
O O4 0.281745 0.641241 0.611063
O O5 0.134243 0.500000 0.260281
O O6 0.396860 0.645463 0.998082
O O7 0.535947 0.500000 0.332804
O O8 0.615590 0.136760 0.344954
O O9 0.757471 0.000000 0.694384
O O10 0.919224 0.000000 0.757150
O O11 0.500000 0.815038 0.000000
O O12 0.177949 0.137546 0.053672
O O13 0.751519 0.640101 0.741789
O O14 0.500000 0.778453 0.500000
#
# Coordination Sequence:
#
# PCOD8059261 Si02
#       8
#     2   2   2   2   4   2   2   4
#     4  11  21  34  56  88 120 157 184 240 295 333
#     4  10  20  34  59  88 115 142 189 247 290 336
#     4  10  18  36  59  86 113 146 196 239 284 344
#     4  11  23  38  60  85 118 150 194 245 288 341
#     4  10  21  40  63  85 111 153 198 242 285 344
#     4  11  23  36  54  89 121 153 189 237 295 334
#     4   9  17  34  54  78 118 155 195 228 276 340
#     4  11  20  33  52  81 122 161 197 225 278 354
#
# _framework density 20.442356
#
# number of rings (size 3 to 8) (size 9 to 14) (size 15 to 20)
#    0.000    1.800    2.000    6.000    0.000    3.200 
#    0.000    2.000    0.000    1.200    0.000    4.200 
#    0.000    0.000    0.000    0.000    0.000    0.000 
#
# Total GULP energy -247829.668777 kJ/mol
# GULP energy per Si atom -12391.483439 kJ/mol
# Density = 2.039583 g / cm^3
# Si number density = 20.442356 Si / 1000 Ang^3
#
#
#
# Elastic Constant Matrix: (Units=GPa)
#
#
# Indices 1 2 3 4 5 6 
#
# 1 127.6314 22.4273 23.2478 0.0000 22.1996 0.0000
# 2 22.4273 113.3741 13.1565 0.0000 -0.3945 0.0000
# 3 23.2478 13.1565 27.8012 0.0000 -3.7488 0.0000
# 4 0.0000 0.0000 0.0000 24.1101 0.0000 -19.4382
# 5 22.1996 -0.3945 -3.7488 0.0000 40.1750 0.0000
# 6 0.0000 0.0000 0.0000 -19.4382 0.0000 60.8852
#
#
#
# Elastic Compliance Matrix: (Units=1/GPa)
#
#
# Indices 1 2 3 4 5 6 
#
# 1 0.010992 -0.001082 -0.009621 0.000000 -0.006982 0.000000
# 2 -0.001082 0.009444 -0.003515 0.000000 0.000363 0.000000
# 3 -0.009621 -0.003515 0.046982 0.000000 0.009666 0.000000
# 4 0.000000 0.000000 0.000000 0.055853 0.000000 0.017832
# 5 -0.006982 0.000363 0.009666 0.000000 0.029655 0.000000
# 6 0.000000 0.000000 0.000000 0.017832 0.000000 0.022117
#
#
# Mechanical properties :
#
#
# Convention : Reuss Voigt Hill
#
# Bulk Modulus (GPa) = 25.65382 42.94109 34.29746
# Shear Modulus (GPa) = 23.09753 39.03239 31.06496
#
# Velocity S-wave (km/s) = 3.36502 4.37439 3.90248
# Velocity P-wave (km/s) = 5.26065 6.82388 6.09261
#
# Compressibility (1/GPa) = 0.03898055
#
# Stress axis : x y z
#
# Youngs Moduli (GPa) = 90.97351 105.89161 21.28477
#
# Poissons Ratio (x) = 0.11460 0.20479
# Poissons Ratio (y) = 0.09846 0.07482
# Poissons Ratio (z) = 0.87528 0.37222
#
# Static dielectric constant tensor:
#      x y z
#    x 3.810530 0.000000 -0.047810 
#    y 0.000000 3.809130 0.000000 
#    z -0.047810 0.000000 3.516410 
# 
# 
# High freq. dielectric constant tensor:
#      x y z
#    x 1.798670 0.000000 0.003790 
#    y 0.000000 1.799070 0.000000 
#    z 0.003790 0.000000 1.776190 
# 
# From -- ./inp_files/71391.got.cif
#   From: 2010.06.25/outbox.cif.g09.slc.cpg/sg10_36_cif.got.tgz:71391.got - 2010.06.27 22:07:45.
