data_PCOD8059772
_publ_section_title
;
Structure prediction by ZEFSAII (Michael W. Deem and Ramdas Pophale) SiO2 
 PCOD8059772
Probable space group: P 2/M
;
_chemical_formula_sum "Si O2"
_cell_formula_units_Z 28
_cell_length_a 19.077209
_cell_length_b 9.133346
_cell_length_c 15.568944
_cell_angle_alpha 90.000000
_cell_angle_beta 142.869737
_cell_angle_gamma 90.000000
_cell_volume 1637.472931
_symmetry_space_group_name_H-M "P 2/M"
_symmetry_group_IT_number 10
_symmetry_cell_setting 'monoclinic'
loop_
_space_group_symop_operation_xyz
x,y,z
-x,y,-z
-x,-y,-z
x,-y,z
loop_
_atom_site_type_symbol
_atom_site_label
_atom_site_fract_x
_atom_site_fract_y
_atom_site_fract_z
Si Si1 0.366482 0.830810 0.888380
Si Si2 0.239331 0.671885 0.911455
Si Si3 0.007176 0.671384 0.408948
Si Si4 0.388052 0.825670 0.581847
Si Si5 0.765359 0.826595 0.411557
Si Si6 0.632302 0.827865 0.621923
Si Si7 0.655023 0.825815 0.829500
O O1 0.333301 0.734331 0.937299
O O2 0.292418 0.779157 0.734328
O O3 0.342928 0.000000 0.887542
O O4 0.500000 0.802470 0.000000
O O5 0.257973 0.500000 0.937117
O O6 0.111160 0.712304 0.754404
O O7 0.257186 0.745104 0.021288
O O8 0.034477 0.500000 0.433100
O O9 0.000000 0.727198 0.500000
O O10 0.108446 0.755295 0.457761
O O11 0.314485 0.763075 0.589547
O O12 0.327299 0.768345 0.432666
O O13 0.522438 0.775830 0.719811
O O14 0.386212 0.000000 0.581548
O O15 0.777335 0.000000 0.430316
O O16 0.500000 0.780728 0.500000
O O17 0.693544 0.773597 0.770079
O O18 0.644862 0.000000 0.633135
O O19 0.667284 0.000000 0.852363
#
# Coordination Sequence:
#
# PCOD8059772 Si02
#       7
#     4   4   4   4   4   4   4
#     4  10  20  33  49  72 101 127 150 186 239 291
#     4  11  22  34  49  68  93 128 165 202 240 280
#     4  10  21  38  52  62  87 128 170 207 242 280
#     4   8  14  27  48  77 106 126 151 190 239 289
#     4  10  19  30  50  75  96 121 157 202 239 277
#     4   7  11  22  45  74 100 128 156 183 226 287
#     4   9  16  29  51  76 102 129 157 192 235 285
#
# _framework density 17.099519999999998
#
# number of rings (size 3 to 8) (size 9 to 14) (size 15 to 20)
#    0.000    2.714    1.429    3.000    0.000    4.000 
#    0.000    2.143    0.000    5.571    0.000    6.000 
#    0.000    0.000    0.000    0.000    0.000    0.000 
#
# Total GULP energy -346974.374886 kJ/mol
# GULP energy per Si atom -12391.941960 kJ/mol
# Density = 1.706060 g / cm^3
# Si number density = 17.099520 Si / 1000 Ang^3
#
#
#
# Elastic Constant Matrix: (Units=GPa)
#
#
# Indices 1 2 3 4 5 6 
#
# 1 53.0842 16.0059 45.9084 0.0000 -12.5612 0.0000
# 2 16.0059 31.7629 36.7195 0.0000 -3.6203 0.0000
# 3 45.9084 36.7195 118.9193 0.0000 -21.5938 0.0000
# 4 0.0000 0.0000 0.0000 20.1632 0.0000 1.4365
# 5 -12.5612 -3.6203 -21.5938 0.0000 30.0235 0.0000
# 6 0.0000 0.0000 0.0000 1.4365 0.0000 4.7913
#
#
#
# Elastic Compliance Matrix: (Units=1/GPa)
#
#
# Indices 1 2 3 4 5 6 
#
# 1 0.029063 -0.003365 -0.009255 0.000000 0.005097 0.000000
# 2 -0.003365 0.050218 -0.015370 0.000000 -0.006407 0.000000
# 3 -0.009255 -0.015370 0.018045 0.000000 0.007253 0.000000
# 4 0.000000 0.000000 0.000000 0.050678 0.000000 -0.015194
# 5 0.005097 -0.006407 0.007253 0.000000 0.039884 0.000000
# 6 0.000000 0.000000 0.000000 -0.015194 0.000000 0.213266
#
#
# Mechanical properties :
#
#
# Convention : Reuss Voigt Hill
#
# Bulk Modulus (GPa) = 24.18711 44.55933 34.37322
# Shear Modulus (GPa) = 10.61764 18.00446 14.31105
#
# Velocity S-wave (km/s) = 2.49455 3.24840 2.89611
# Velocity P-wave (km/s) = 4.74054 6.33915 5.59721
#
# Compressibility (1/GPa) = 0.04134433
#
# Stress axis : x y z
#
# Youngs Moduli (GPa) = 34.40856 19.91332 55.41718
#
# Poissons Ratio (x) = 0.06701 0.51288
# Poissons Ratio (y) = 0.11579 0.85179
# Poissons Ratio (z) = 0.31845 0.30608
#
# Static dielectric constant tensor:
#      x y z
#    x 3.437540 0.000000 -0.334470 
#    y 0.000000 2.851990 0.000000 
#    z -0.334470 0.000000 3.296020 
# 
# 
# High freq. dielectric constant tensor:
#      x y z
#    x 1.655730 0.000000 -0.022160 
#    y 0.000000 1.625470 0.000000 
#    z -0.022160 0.000000 1.657300 
# 
# From -- ./inp_files/54697.got.cif
#   From: 2010.06.25/outbox.cif.g09.slc.cpg/sg10_28_cif.got.tgz:54697.got - 2010.06.27 22:07:45.
