data_PCOD8059072
_publ_section_title
;
Structure prediction by ZEFSAII (Michael W. Deem and Ramdas Pophale) SiO2 
 PCOD8059072
Probable space group: P 2/M
;
_chemical_formula_sum "Si O2"
_cell_formula_units_Z 32
_cell_length_a 19.763704
_cell_length_b 8.940846
_cell_length_c 20.082569
_cell_angle_alpha 90.000000
_cell_angle_beta 149.976912
_cell_angle_gamma 90.000000
_cell_volume 1775.575739
_symmetry_space_group_name_H-M "P 2/M"
_symmetry_group_IT_number 10
_symmetry_cell_setting 'monoclinic'
loop_
_space_group_symop_operation_xyz
x,y,z
-x,y,-z
-x,-y,-z
x,-y,z
loop_
_atom_site_type_symbol
_atom_site_label
_atom_site_fract_x
_atom_site_fract_y
_atom_site_fract_z
Si Si1 0.874515 0.326175 0.656022
Si Si2 0.688273 0.677155 0.105267
Si Si3 0.610377 0.323235 0.180791
Si Si4 0.607000 0.826120 0.671251
Si Si5 0.619702 0.827045 0.831255
Si Si6 0.844610 0.823483 0.126138
Si Si7 0.656265 0.677082 0.365056
Si Si8 0.329238 0.325498 0.402152
O O1 0.908772 0.500000 0.674830
O O2 0.780256 0.265674 0.515517
O O3 0.801527 0.297604 0.664088
O O4 0.009911 0.231808 0.772541
O O5 0.705995 0.500000 0.113093
O O6 0.696693 0.729417 0.190060
O O7 0.807780 0.756658 0.166876
O O8 0.544237 0.734644 0.953995
O O9 0.601569 0.500000 0.170155
O O10 0.679086 0.268249 0.308045
O O11 0.669223 0.802018 0.797583
O O12 0.699692 0.738048 0.696655
O O13 0.455267 0.762120 0.540868
O O14 0.602802 0.000000 0.648447
O O15 0.483703 0.736796 0.726521
O O16 0.588365 0.000000 0.818546
O O17 0.736725 0.766743 0.979517
O O18 0.846586 0.000000 0.132849
O O19 0.647019 0.500000 0.361621
O O20 0.365902 0.500000 0.430120
#
# Coordination Sequence:
#
# PCOD8059072 Si02
#       8
#     4   4   4   4   4   4   4   4
#     4  10  22  37  54  78 107 141 178 217 264 317
#     4   9  16  31  54  79 107 137 173 217 266 316
#     4   8  15  28  53  84 106 131 171 220 267 313
#     4  10  19  32  53  79 107 138 172 212 262 316
#     4  10  21  35  52  79 109 137 178 220 259 312
#     4  11  23  37  53  76 108 146 181 216 262 316
#     4  10  18  33  57  82 105 134 177 223 266 309
#     4  10  19  33  53  80 109 134 171 219 263 309
#
# _framework density 18.022323
#
# number of rings (size 3 to 8) (size 9 to 14) (size 15 to 20)
#    0.000    2.250    2.500    2.625    0.000    2.500 
#    0.000    3.125    0.000    7.500    0.000    0.000 
#    0.000    0.000    0.000    0.000    0.000    0.000 
#
# Total GULP energy -396728.002373 kJ/mol
# GULP energy per Si atom -12397.750074 kJ/mol
# Density = 1.798130 g / cm^3
# Si number density = 18.022323 Si / 1000 Ang^3
#
#
#
# Elastic Constant Matrix: (Units=GPa)
#
#
# Indices 1 2 3 4 5 6 
#
# 1 131.1681 37.2245 47.5410 0.0000 -8.0631 0.0000
# 2 37.2245 50.2800 23.3652 0.0000 0.0933 0.0000
# 3 47.5410 23.3652 78.6999 0.0000 -5.2959 0.0000
# 4 0.0000 0.0000 0.0000 19.2062 0.0000 -8.4854
# 5 -8.0631 0.0933 -5.2959 0.0000 29.3243 0.0000
# 6 0.0000 0.0000 0.0000 -8.4854 0.0000 -7.5065
#
#
#
# Elastic Compliance Matrix: (Units=1/GPa)
#
#
# Indices 1 2 3 4 5 6 
#
# 1 0.011238 -0.006078 -0.004834 0.000000 0.002236 0.000000
# 2 -0.006078 0.026410 -0.004340 0.000000 -0.002539 0.000000
# 3 -0.004834 -0.004340 0.017033 0.000000 0.001761 0.000000
# 4 0.000000 0.000000 0.000000 0.034724 0.000000 -0.039253
# 5 0.002236 -0.002539 0.001761 0.000000 0.035042 0.000000
# 6 0.000000 0.000000 0.000000 -0.039253 0.000000 -0.088846
#
#
# Mechanical properties :
#
#
# Convention : Reuss Voigt Hill
#
# Bulk Modulus (GPa) = 41.36008 52.93438 47.14723
# Shear Modulus (GPa) = 67.41710 18.33930 42.87820
#
# Velocity S-wave (km/s) = 6.12281 3.19343 4.88297
# Velocity P-wave (km/s) = 8.54308 6.55993 7.61633
#
# Compressibility (1/GPa) = 0.02417790
#
# Stress axis : x y z
#
# Youngs Moduli (GPa) = 88.98283 37.86448 58.70785
#
# Poissons Ratio (x) = 0.23014 0.28378
# Poissons Ratio (y) = 0.54084 0.25480
# Poissons Ratio (z) = 0.43012 0.16434
#
# Static dielectric constant tensor:
#      x y z
#    x 3.635660 0.000000 -0.383570 
#    y 0.000000 3.195480 0.000000 
#    z -0.383570 0.000000 3.306300 
# 
# 
# High freq. dielectric constant tensor:
#      x y z
#    x 1.710830 0.000000 -0.019860 
#    y 0.000000 1.686570 0.000000 
#    z -0.019860 0.000000 1.673220 
# 
# From -- ./inp_files/86135.got.cif
#   From: 2010.06.25/outbox.cif.g09.slc.cpg/sg10_44_cif.got.tgz:86135.got - 2010.06.27 22:07:45.
