data_PCOD8059992
_publ_section_title
;
Structure prediction by ZEFSAII (Michael W. Deem and Ramdas Pophale) SiO2 
 PCOD8059992
Probable space group: P 2/M
;
_chemical_formula_sum "Si O2"
_cell_formula_units_Z 32
_cell_length_a 26.017936
_cell_length_b 9.341296
_cell_length_c 20.585787
_cell_angle_alpha 90.000000
_cell_angle_beta 21.273273
_cell_angle_gamma 90.000000
_cell_volume 1815.242188
_symmetry_space_group_name_H-M "P 2/M"
_symmetry_group_IT_number 10
_symmetry_cell_setting 'monoclinic'
loop_
_space_group_symop_operation_xyz
x,y,z
-x,y,-z
-x,-y,-z
x,-y,z
loop_
_atom_site_type_symbol
_atom_site_label
_atom_site_fract_x
_atom_site_fract_y
_atom_site_fract_z
Si Si1 0.187187 0.166817 0.887758
Si Si2 0.807761 0.830651 0.514458
Si Si3 0.432726 0.339601 0.649952
Si Si4 0.037448 0.666874 0.558726
Si Si5 0.227498 0.666630 0.212330
Si Si6 0.121865 0.830379 0.712181
Si Si7 0.681163 0.166990 0.405718
Si Si8 0.500761 0.831619 0.073878
O O1 0.286006 0.254681 0.820349
O O2 0.223738 0.196354 0.769735
O O3 0.204386 0.000000 0.884271
O O4 0.030917 0.225866 0.085659
O O5 0.924291 0.758527 0.423330
O O6 0.838272 0.774517 0.406056
O O7 0.648403 0.783816 0.719798
O O8 0.826435 0.000000 0.499137
O O9 0.500000 0.342168 0.500000
O O10 0.407086 0.500000 0.706323
O O11 0.536447 0.255883 0.576030
O O12 0.049261 0.500000 0.561678
O O13 0.147934 0.708007 0.372336
O O14 0.877428 0.704070 0.724038
O O15 0.266168 0.500000 0.165971
O O16 0.372633 0.755403 0.035937
O O17 0.235566 0.773885 0.630019
O O18 0.121736 0.000000 0.714311
O O19 0.642785 0.000000 0.456046
O O20 0.525805 0.000000 0.050726
O O21 0.500000 0.782183 0.000000
#
# Coordination Sequence:
#
# PCOD8059992 Si02
#       8
#     4   4   4   4   4   4   4   4
#     4   9  16  29  51  75  95 122 165 207 241 283
#     4  10  20  34  50  70 100 132 160 195 244 294
#     4   9  17  29  46  71 101 128 156 195 242 288
#     4   9  18  33  51  73  98 123 157 200 240 283
#     4   9  18  32  52  75  96 122 159 200 240 281
#     4   9  18  32  50  72  97 127 162 202 246 289
#     4   9  16  29  51  75  97 124 162 206 243 280
#     4  10  19  31  48  74 101 125 157 196 235 285
#
# _framework density 17.628502000000001
#
# number of rings (size 3 to 8) (size 9 to 14) (size 15 to 20)
#    0.000    2.750    1.250    1.500    0.000    4.250 
#    0.000    4.375    0.000    9.000    0.000    0.000 
#    0.000    0.000    0.000    0.000    0.000    0.000 
#
# Total GULP energy -396786.724362 kJ/mol
# GULP energy per Si atom -12399.585136 kJ/mol
# Density = 1.758838 g / cm^3
# Si number density = 17.628502 Si / 1000 Ang^3
#
#
#
# Elastic Constant Matrix: (Units=GPa)
#
#
# Indices 1 2 3 4 5 6 
#
# 1 144.4432 55.2288 78.8766 0.0000 -23.5432 0.0000
# 2 55.2288 58.1942 35.5605 0.0000 -14.0167 0.0000
# 3 78.8766 35.5605 59.8960 0.0000 -17.6761 0.0000
# 4 0.0000 0.0000 0.0000 15.3330 0.0000 -5.3831
# 5 -23.5432 -14.0167 -17.6761 0.0000 31.1559 0.0000
# 6 0.0000 0.0000 0.0000 -5.3831 0.0000 20.8810
#
#
#
# Elastic Compliance Matrix: (Units=1/GPa)
#
#
# Indices 1 2 3 4 5 6 
#
# 1 0.025868 -0.005911 -0.030715 0.000000 -0.000538 0.000000
# 2 -0.005911 0.028670 -0.008107 0.000000 0.003833 0.000000
# 3 -0.030715 -0.008107 0.064897 0.000000 0.009961 0.000000
# 4 0.000000 0.000000 0.000000 0.071709 0.000000 0.018486
# 5 -0.000538 0.003833 0.009961 0.000000 0.039066 0.000000
# 6 0.000000 0.000000 0.000000 0.018486 0.000000 0.052656
#
#
# Mechanical properties :
#
#
# Convention : Reuss Voigt Hill
#
# Bulk Modulus (GPa) = 33.36660 66.87393 50.12026
# Shear Modulus (GPa) = 13.07794 19.66513 16.37154
#
# Velocity S-wave (km/s) = 2.72667 3.34358 3.05076
# Velocity P-wave (km/s) = 5.37417 7.27485 6.39551
#
# Compressibility (1/GPa) = 0.02997009
#
# Stress axis : x y z
#
# Youngs Moduli (GPa) = 38.65745 34.87929 15.40895
#
# Poissons Ratio (x) = 0.20615 0.47329
# Poissons Ratio (y) = 0.22849 0.12492
# Poissons Ratio (z) = 1.18737 0.28277
#
# Static dielectric constant tensor:
#      x y z
#    x 3.289300 0.000000 -0.155710 
#    y 0.000000 3.105910 0.000000 
#    z -0.155710 0.000000 3.243810 
# 
# 
# High freq. dielectric constant tensor:
#      x y z
#    x 1.676750 0.000000 -0.021240 
#    y 0.000000 1.663710 0.000000 
#    z -0.021240 0.000000 1.672330 
# 
# From -- ./inp_files/86724.got.cif
#   From: 2010.06.25/outbox.cif.g09.slc.cpg/sg10_44_cif.got.tgz:86724.got - 2010.06.27 22:07:45.
