data_PCOD8059780
_publ_section_title
;
Structure prediction by ZEFSAII (Michael W. Deem and Ramdas Pophale) SiO2 
 PCOD8059780
Probable space group: P 2/M
;
_chemical_formula_sum "Si O2"
_cell_formula_units_Z 24
_cell_length_a 12.067597
_cell_length_b 8.609812
_cell_length_c 18.548116
_cell_angle_alpha 90.000000
_cell_angle_beta 136.992179
_cell_angle_gamma 90.000000
_cell_volume 1314.501737
_symmetry_space_group_name_H-M "P 2/M"
_symmetry_group_IT_number 10
_symmetry_cell_setting 'monoclinic'
loop_
_space_group_symop_operation_xyz
x,y,z
-x,y,-z
-x,-y,-z
x,-y,z
loop_
_atom_site_type_symbol
_atom_site_label
_atom_site_fract_x
_atom_site_fract_y
_atom_site_fract_z
Si Si1 0.520873 0.183870 0.618762
Si Si2 0.083687 0.817612 0.782381
Si Si3 0.268917 0.680337 0.993208
Si Si4 0.585109 0.176121 0.808576
Si Si5 0.595389 0.176266 0.141524
Si Si6 0.741073 0.318079 0.605070
O O1 0.553385 0.247624 0.714857
O O2 0.675455 0.225467 0.643354
O O3 0.360414 0.269091 0.513544
O O4 0.490976 0.000000 0.603767
O O5 0.231410 0.757831 0.801672
O O6 0.927088 0.725745 0.680493
O O7 0.051765 0.000000 0.760145
O O8 0.124751 0.773008 0.884551
O O9 0.234188 0.500000 0.968686
O O10 0.275375 0.728837 0.081105
O O11 0.440689 0.727512 0.036395
O O12 0.418654 0.183286 0.777295
O O13 0.647258 0.000000 0.830105
O O14 0.576762 0.000000 0.104833
O O15 0.720652 0.500000 0.609075
#
# Coordination Sequence:
#
# PCOD8059780 Si02
#       6
#     4   4   4   4   4   4
#     4  10  19  38  62  78  98 133 180 216 253 312
#     4  11  20  34  54  76 107 141 180 215 248 304
#     4  10  19  30  50  80 112 141 169 207 260 312
#     4   8  17  34  55  78 102 136 177 212 249 305
#     4   8  17  33  52  77 105 140 176 209 251 302
#     4  11  23  36  54  79 108 134 168 219 268 308
#
# _framework density 18.257868999999999
#
# number of rings (size 3 to 8) (size 9 to 14) (size 15 to 20)
#    1.000    1.333    0.000    5.000    0.000    4.667 
#    0.000    1.667    0.000   10.000    0.000    0.000 
#    0.000    0.000    0.000    0.000    0.000    0.000 
#
# Total GULP energy -297432.589100 kJ/mol
# GULP energy per Si atom -12393.024546 kJ/mol
# Density = 1.821631 g / cm^3
# Si number density = 18.257869 Si / 1000 Ang^3
#
#
#
# Elastic Constant Matrix: (Units=GPa)
#
#
# Indices 1 2 3 4 5 6 
#
# 1 29.6802 4.7630 11.6279 0.0000 -7.0723 0.0000
# 2 4.7630 60.7006 13.4251 0.0000 -0.0155 0.0000
# 3 11.6279 13.4251 38.5715 0.0000 0.2084 0.0000
# 4 0.0000 0.0000 0.0000 20.9506 0.0000 1.6266
# 5 -7.0723 -0.0155 0.2084 0.0000 32.6809 0.0000
# 6 0.0000 0.0000 0.0000 1.6266 0.0000 16.5896
#
#
#
# Elastic Compliance Matrix: (Units=1/GPa)
#
#
# Indices 1 2 3 4 5 6 
#
# 1 0.040637 -0.000505 -0.012123 0.000000 0.008871 0.000000
# 2 -0.000505 0.017855 -0.006062 0.000000 -0.000062 0.000000
# 3 -0.012123 -0.006062 0.031705 0.000000 -0.002828 0.000000
# 4 0.000000 0.000000 0.000000 0.048097 0.000000 -0.004716
# 5 0.008871 -0.000062 -0.002828 0.000000 0.032537 0.000000
# 6 0.000000 0.000000 0.000000 -0.004716 0.000000 0.060741
#
#
# Mechanical properties :
#
#
# Convention : Reuss Voigt Hill
#
# Bulk Modulus (GPa) = 18.93307 20.95382 19.94344
# Shear Modulus (GPa) = 17.44854 20.65332 19.05093
#
# Velocity S-wave (km/s) = 3.09475 3.36698 3.23373
# Velocity P-wave (km/s) = 4.81272 5.15916 4.98895
#
# Compressibility (1/GPa) = 0.05281765
#
# Stress axis : x y z
#
# Youngs Moduli (GPa) = 24.60830 56.00795 31.54028
#
# Poissons Ratio (x) = 0.02830 0.38235
# Poissons Ratio (y) = 0.01243 0.19119
# Poissons Ratio (z) = 0.29832 0.33951
#
# Static dielectric constant tensor:
#      x y z
#    x 3.324500 0.000000 -0.126260 
#    y 0.000000 3.236480 0.000000 
#    z -0.126260 0.000000 3.278610 
# 
# 
# High freq. dielectric constant tensor:
#      x y z
#    x 1.688850 0.000000 -0.009780 
#    y 0.000000 1.707660 0.000000 
#    z -0.009780 0.000000 1.695660 
# 
# From -- ./inp_files/83441.got.cif
#   From: 2010.06.25/outbox.cif.g09.slc.cpg/sg10_42_cif.got.tgz:83441.got - 2010.06.27 22:07:45.
