data_PCOD8059217
_publ_section_title
;
Structure prediction by ZEFSAII (Michael W. Deem and Ramdas Pophale) SiO2 
 PCOD8059217
Probable space group: P 2/M
;
_chemical_formula_sum "Si O2"
_cell_formula_units_Z 32
_cell_length_a 13.881644
_cell_length_b 15.407181
_cell_length_c 19.434849
_cell_angle_alpha 90.000000
_cell_angle_beta 23.137973
_cell_angle_gamma 90.000000
_cell_volume 1633.348446
_symmetry_space_group_name_H-M "P 2/M"
_symmetry_group_IT_number 10
_symmetry_cell_setting 'monoclinic'
loop_
_space_group_symop_operation_xyz
x,y,z
-x,y,-z
-x,-y,-z
x,-y,z
loop_
_atom_site_type_symbol
_atom_site_label
_atom_site_fract_x
_atom_site_fract_y
_atom_site_fract_z
Si Si1 0.204993 0.899865 0.421158
Si Si2 0.891230 0.271363 0.173945
Si Si3 0.214353 0.907170 0.696050
Si Si4 0.543774 0.259169 0.178987
Si Si5 0.070138 0.169793 0.653742
Si Si6 0.324959 0.691142 0.054515
Si Si7 0.866657 0.403108 0.311165
Si Si8 0.447813 0.684627 0.381761
O O1 0.444185 0.839394 0.251948
O O2 0.077808 0.883777 0.578213
O O3 0.000000 0.875979 0.500000
O O4 0.289495 0.000000 0.359735
O O5 0.839158 0.170104 0.217144
O O6 0.803708 0.330805 0.295439
O O7 0.737876 0.304930 0.208880
O O8 0.180787 0.273710 0.975626
O O9 0.500000 0.913365 0.500000
O O10 0.079739 0.894971 0.711368
O O11 0.118769 0.000000 0.788529
O O12 0.402071 0.319052 0.328861
O O13 0.513792 0.290046 0.120213
O O14 0.302603 0.233102 0.507774
O O15 0.816653 0.222989 0.827053
O O16 0.138074 0.613097 0.162383
O O17 0.500000 0.658665 0.000000
O O18 0.854940 0.500000 0.287347
O O19 0.668590 0.398560 0.503610
#
# Coordination Sequence:
#
# PCOD8059217 Si02
#       8
#     4   4   4   4   4   4   4   4
#     4  10  21  36  53  76 108 147 194 241 285 331
#     4  11  19  37  54  83 115 149 187 227 275 330
#     4  11  19  30  53  81 109 147 191 229 265 318
#     4  10  21  35  55  81 111 148 179 231 290 332
#     4  10  18  35  55  75 105 147 190 230 269 328
#     4  10  20  37  61  84 109 144 188 234 285 334
#     4  10  21  37  61  87 112 147 189 226 270 336
#     4  10  19  34  57  78 113 146 183 223 273 331
#
# _framework density 19.591654999999999
#
# number of rings (size 3 to 8) (size 9 to 14) (size 15 to 20)
#    0.000    1.750    5.000    1.875    0.000    1.750 
#    0.000    2.500    0.000    9.375    0.000    0.000 
#    0.000    0.000    0.000    0.000    0.000    0.000 
#
# Total GULP energy -396531.816624 kJ/mol
# GULP energy per Si atom -12391.619270 kJ/mol
# Density = 1.954706 g / cm^3
# Si number density = 19.591655 Si / 1000 Ang^3
#
#
#
# Elastic Constant Matrix: (Units=GPa)
#
#
# Indices 1 2 3 4 5 6 
#
# 1 101.1261 14.1294 21.4776 0.0000 4.3322 0.0000
# 2 14.1294 90.2481 15.4551 0.0000 8.8094 0.0000
# 3 21.4776 15.4551 52.7855 0.0000 11.9077 0.0000
# 4 0.0000 0.0000 0.0000 17.6642 0.0000 0.9519
# 5 4.3322 8.8094 11.9077 0.0000 29.0709 0.0000
# 6 0.0000 0.0000 0.0000 0.9519 0.0000 6.7705
#
#
#
# Elastic Compliance Matrix: (Units=1/GPa)
#
#
# Indices 1 2 3 4 5 6 
#
# 1 0.010913 -0.001024 -0.004235 0.000000 0.000419 0.000000
# 2 -0.001024 0.011910 -0.002524 0.000000 -0.002423 0.000000
# 3 -0.004235 -0.002524 0.023239 0.000000 -0.008123 0.000000
# 4 0.000000 0.000000 0.000000 0.057044 0.000000 -0.008020
# 5 0.000419 -0.002423 -0.008123 0.000000 0.038398 0.000000
# 6 0.000000 0.000000 0.000000 -0.008020 0.000000 0.148828
#
#
# Mechanical properties :
#
#
# Convention : Reuss Voigt Hill
#
# Bulk Modulus (GPa) = 32.79118 38.47599 35.63358
# Shear Modulus (GPa) = 15.81966 23.57428 19.69697
#
# Velocity S-wave (km/s) = 2.84468 3.47260 3.17421
# Velocity P-wave (km/s) = 5.25007 5.97998 5.62688
#
# Compressibility (1/GPa) = 0.03049600
#
# Stress axis : x y z
#
# Youngs Moduli (GPa) = 91.63167 83.96586 43.03081
#
# Poissons Ratio (x) = 0.08600 0.18224
# Poissons Ratio (y) = 0.09385 0.10860
# Poissons Ratio (z) = 0.38806 0.21191
#
# Static dielectric constant tensor:
#      x y z
#    x 3.569980 0.000000 0.027200 
#    y 0.000000 3.680420 0.000000 
#    z 0.027200 0.000000 3.542730 
# 
# 
# High freq. dielectric constant tensor:
#      x y z
#    x 1.767730 0.000000 0.002370 
#    y 0.000000 1.740080 0.000000 
#    z 0.002370 0.000000 1.755870 
# 
# From -- ./inp_files/85389.got.cif
#   From: 2010.06.25/outbox.cif.g09.slc.cpg/sg10_43_cif.got.tgz:85389.got - 2010.06.27 22:07:45.
