data_PCOD8059452
_publ_section_title
;
Structure prediction by ZEFSAII (Michael W. Deem and Ramdas Pophale) SiO2 
 PCOD8059452
Probable space group: P 2/M
;
_chemical_formula_sum "Si O2"
_cell_formula_units_Z 28
_cell_length_a 14.175474
_cell_length_b 9.506990
_cell_length_c 12.337766
_cell_angle_alpha 90.000000
_cell_angle_beta 124.037046
_cell_angle_gamma 90.000000
_cell_volume 1377.849658
_symmetry_space_group_name_H-M "P 2/M"
_symmetry_group_IT_number 10
_symmetry_cell_setting 'monoclinic'
loop_
_space_group_symop_operation_xyz
x,y,z
-x,y,-z
-x,-y,-z
x,-y,z
loop_
_atom_site_type_symbol
_atom_site_label
_atom_site_fract_x
_atom_site_fract_y
_atom_site_fract_z
Si Si1 0.969938 0.341176 0.758343
Si Si2 0.266342 0.341652 0.787704
Si Si3 0.712626 0.659529 0.612895
Si Si4 0.582653 0.340211 0.314139
Si Si5 0.064159 0.850702 0.647448
Si Si6 0.784411 0.340478 0.000620
Si Si7 0.629532 0.168774 0.749888
O O1 0.977322 0.500000 0.718626
O O2 0.845594 0.315228 0.729589
O O3 0.977742 0.236014 0.664587
O O4 0.078820 0.314342 0.906479
O O5 0.221539 0.500000 0.741208
O O6 0.377201 0.316646 0.784606
O O7 0.174328 0.235016 0.684114
O O8 0.280402 0.315900 0.925889
O O9 0.678859 0.500000 0.623829
O O10 0.684511 0.683441 0.467251
O O11 0.638134 0.770116 0.633603
O O12 0.535250 0.500000 0.295113
O O13 0.485187 0.226145 0.270076
O O14 0.000000 0.891205 0.500000
O O15 0.097938 0.000000 0.725945
O O16 0.760918 0.500000 0.945168
O O17 0.736732 0.227251 0.886159
O O18 0.629661 0.000000 0.748164
#
# Coordination Sequence:
#
# PCOD8059452 Si02
#       7
#     4   4   4   4   4   4   4
#     4   9  19  36  60  86 110 143 188 237 284 334
#     4   9  19  36  60  86 110 143 188 237 284 334
#     4  10  21  39  63  88 113 145 189 240 290 337
#     4  10  21  39  63  88 113 145 189 240 290 337
#     4  10  19  29  46  78 119 156 184 219 275 339
#     4   9  19  38  61  86 116 148 186 231 282 338
#     4  12  26  40  56  80 115 157 196 236 281 336
#
# _framework density 20.32152
#
# number of rings (size 3 to 8) (size 9 to 14) (size 15 to 20)
#    0.000    2.143    0.000    3.857    0.000    9.143 
#    0.000    5.714    0.000    0.000    0.000    0.000 
#    0.000    0.000    0.000    0.000    0.000    0.000 
#
# Total GULP energy -346975.984063 kJ/mol
# GULP energy per Si atom -12391.999431 kJ/mol
# Density = 2.027527 g / cm^3
# Si number density = 20.321520 Si / 1000 Ang^3
#
#
#
# Elastic Constant Matrix: (Units=GPa)
#
#
# Indices 1 2 3 4 5 6 
#
# 1 72.4594 35.3438 -0.5354 0.0000 4.6388 0.0000
# 2 35.3438 132.1499 19.6740 0.0000 3.0294 0.0000
# 3 -0.5354 19.6740 46.4132 0.0000 5.4345 0.0000
# 4 0.0000 0.0000 0.0000 20.2484 0.0000 -7.7930
# 5 4.6388 3.0294 5.4345 0.0000 27.4760 0.0000
# 6 0.0000 0.0000 0.0000 -7.7930 0.0000 60.7498
#
#
#
# Elastic Compliance Matrix: (Units=1/GPa)
#
#
# Indices 1 2 3 4 5 6 
#
# 1 0.016265 -0.004657 0.002481 0.000000 -0.002723 0.000000
# 2 -0.004657 0.009412 -0.004109 0.000000 0.000561 0.000000
# 3 0.002481 -0.004109 0.023865 0.000000 -0.004686 0.000000
# 4 0.000000 0.000000 0.000000 0.051951 0.000000 0.006664
# 5 -0.002723 0.000561 -0.004686 0.000000 0.037720 0.000000
# 6 0.000000 0.000000 0.000000 0.006664 0.000000 0.017316
#
#
# Mechanical properties :
#
#
# Convention : Reuss Voigt Hill
#
# Bulk Modulus (GPa) = 27.04861 39.99862 33.52362
# Shear Modulus (GPa) = 27.55993 34.79752 31.17872
#
# Velocity S-wave (km/s) = 3.68665 4.14254 3.92123
# Velocity P-wave (km/s) = 5.60902 6.52736 6.08554
#
# Compressibility (1/GPa) = 0.03697047
#
# Stress axis : x y z
#
# Youngs Moduli (GPa) = 61.48152 106.25256 41.90307
#
# Poissons Ratio (x) = 0.49482 -0.10394
# Poissons Ratio (y) = 0.28632 0.17217
# Poissons Ratio (z) = -0.15251 0.43658
#
# Static dielectric constant tensor:
#      x y z
#    x 3.794270 0.000000 -0.004910 
#    y 0.000000 3.684930 0.000000 
#    z -0.004910 0.000000 3.565060 
# 
# 
# High freq. dielectric constant tensor:
#      x y z
#    x 1.790260 0.000000 -0.000630 
#    y 0.000000 1.789910 0.000000 
#    z -0.000630 0.000000 1.783650 
# 
# From -- ./inp_files/50060.got.cif
#   From: 2010.06.25/outbox.cif.g09.slc.cpg/sg10_26_cif.got.tgz:50060.got - 2010.06.27 22:07:45.
