data_PCOD8059315
_publ_section_title
;
Structure prediction by ZEFSAII (Michael W. Deem and Ramdas Pophale) SiO2 
 PCOD8059315
Probable space group: P 2/M
;
_chemical_formula_sum "Si O2"
_cell_formula_units_Z 32
_cell_length_a 12.591027
_cell_length_b 14.787545
_cell_length_c 16.189245
_cell_angle_alpha 90.000000
_cell_angle_beta 139.175295
_cell_angle_gamma 90.000000
_cell_volume 1970.577428
_symmetry_space_group_name_H-M "P 2/M"
_symmetry_group_IT_number 10
_symmetry_cell_setting 'monoclinic'
loop_
_space_group_symop_operation_xyz
x,y,z
-x,y,-z
-x,-y,-z
x,-y,z
loop_
_atom_site_type_symbol
_atom_site_label
_atom_site_fract_x
_atom_site_fract_y
_atom_site_fract_z
Si Si1 0.608496 0.230343 0.776501
Si Si2 0.865132 0.896916 0.853745
Si Si3 0.519302 0.893192 0.877070
Si Si4 0.630243 0.765984 0.504547
Si Si5 0.190020 0.397412 0.124023
Si Si6 0.749733 0.894042 0.159033
Si Si7 0.090327 0.895947 0.308745
Si Si8 0.305327 0.597105 0.378422
O O1 0.715941 0.169874 0.778295
O O2 0.550075 0.169753 0.817506
O O3 0.452686 0.258206 0.631117
O O4 0.704462 0.321396 0.862715
O O5 0.937051 0.881486 0.805151
O O6 0.805964 0.000000 0.830996
O O7 0.000000 0.871232 0.000000
O O8 0.337559 0.873318 0.805022
O O9 0.540040 0.000000 0.867338
O O10 0.644125 0.858948 0.019997
O O11 0.500000 0.786074 0.500000
O O12 0.746261 0.851324 0.561223
O O13 0.749611 0.681278 0.597851
O O14 0.229149 0.500000 0.115865
O O15 0.240292 0.386618 0.248522
O O16 0.000000 0.376267 0.000000
O O17 0.932171 0.853809 0.262054
O O18 0.762130 0.000000 0.152680
O O19 0.112027 0.000000 0.343983
O O20 0.500000 0.597678 0.500000
O O21 0.239101 0.500000 0.371800
#
# Coordination Sequence:
#
# PCOD8059315 Si02
#       8
#     4   4   4   4   4   4   4   4
#     4  12  20  30  47  70  99 128 160 198 248 294
#     4  10  19  28  41  65  95 124 154 188 237 296
#     4   9  18  32  52  74  95 123 164 212 252 297
#     4  11  20  32  43  67  98 133 170 194 232 299
#     4  10  20  32  48  73 102 130 165 209 249 291
#     4   8  16  34  53  69  91 124 169 212 252 291
#     4  10  19  30  45  64  94 132 161 195 241 287
#     4   9  16  31  50  64  91 134 166 192 234 290
#
# _framework density 16.238894999999999
#
# number of rings (size 3 to 8) (size 9 to 14) (size 15 to 20)
#    0.000    2.125    3.750    2.250    0.000    4.250 
#    0.000    0.625    0.000    2.250    0.000    2.625 
#    0.000    2.000    0.000    0.000    0.000    0.000 
#
# Total GULP energy -396538.048610 kJ/mol
# GULP energy per Si atom -12391.814019 kJ/mol
# Density = 1.620193 g / cm^3
# Si number density = 16.238895 Si / 1000 Ang^3
#
#
#
# Elastic Constant Matrix: (Units=GPa)
#
#
# Indices 1 2 3 4 5 6 
#
# 1 85.0450 51.1592 29.4355 0.0000 9.1135 0.0000
# 2 51.1592 91.3821 33.5121 0.0000 3.5082 0.0000
# 3 29.4355 33.5121 85.3894 0.0000 5.4043 0.0000
# 4 0.0000 0.0000 0.0000 23.8470 0.0000 1.1790
# 5 9.1135 3.5082 5.4043 0.0000 19.9156 0.0000
# 6 0.0000 0.0000 0.0000 1.1790 0.0000 12.1316
#
#
#
# Elastic Compliance Matrix: (Units=1/GPa)
#
#
# Indices 1 2 3 4 5 6 
#
# 1 0.018993 -0.009503 -0.002415 0.000000 -0.006362 0.000000
# 2 -0.009503 0.017554 -0.003757 0.000000 0.002276 0.000000
# 3 -0.002415 -0.003757 0.014149 0.000000 -0.002073 0.000000
# 4 0.000000 0.000000 0.000000 0.042136 0.000000 -0.004095
# 5 -0.006362 0.002276 -0.002073 0.000000 0.053285 0.000000
# 6 0.000000 0.000000 0.000000 -0.004095 0.000000 0.082827
#
#
# Mechanical properties :
#
#
# Convention : Reuss Voigt Hill
#
# Bulk Modulus (GPa) = 51.69255 54.44778 53.07017
# Shear Modulus (GPa) = 18.74461 21.02614 19.88538
#
# Velocity S-wave (km/s) = 3.40119 3.60224 3.50316
# Velocity P-wave (km/s) = 6.87937 7.13467 7.00818
#
# Compressibility (1/GPa) = 0.01934515
#
# Stress axis : x y z
#
# Youngs Moduli (GPa) = 52.65196 56.96794 70.67464
#
# Poissons Ratio (x) = 0.54136 0.17068
# Poissons Ratio (y) = 0.50035 0.26555
# Poissons Ratio (z) = 0.12715 0.21405
#
# Static dielectric constant tensor:
#      x y z
#    x 2.958090 0.000000 0.175010 
#    y 0.000000 3.404600 0.000000 
#    z 0.175010 0.000000 3.166040 
# 
# 
# High freq. dielectric constant tensor:
#      x y z
#    x 1.584520 0.000000 0.006220 
#    y 0.000000 1.619200 0.000000 
#    z 0.006220 0.000000 1.630820 
# 
# From -- ./inp_files/65118.got.cif
#   From: 2010.06.25/outbox.cif.g09.slc.cpg/sg10_33_cif.got.tgz:65118.got - 2010.06.27 22:07:45.
