data_PCOD8059989
_publ_section_title
;
Structure prediction by ZEFSAII (Michael W. Deem and Ramdas Pophale) SiO2 
 PCOD8059989
Probable space group: P 2/M
;
_chemical_formula_sum "Si O2"
_cell_formula_units_Z 28
_cell_length_a 14.039250
_cell_length_b 17.192304
_cell_length_c 8.557197
_cell_angle_alpha 90.000000
_cell_angle_beta 134.714128
_cell_angle_gamma 90.000000
_cell_volume 1467.745030
_symmetry_space_group_name_H-M "P 2/M"
_symmetry_group_IT_number 10
_symmetry_cell_setting 'monoclinic'
loop_
_space_group_symop_operation_xyz
x,y,z
-x,y,-z
-x,-y,-z
x,-y,z
loop_
_atom_site_type_symbol
_atom_site_label
_atom_site_fract_x
_atom_site_fract_y
_atom_site_fract_z
Si Si1 0.031217 0.411549 0.705903
Si Si2 0.395831 0.224309 0.099917
Si Si3 0.688302 0.253766 0.334379
Si Si4 0.149690 0.185178 0.211569
Si Si5 0.351468 0.912091 0.263749
Si Si6 0.752208 0.411656 0.541346
Si Si7 0.750467 0.330084 0.852789
O O1 0.074428 0.500000 0.732030
O O2 0.911099 0.404251 0.692215
O O3 0.000000 0.374918 0.500000
O O4 0.160536 0.367459 0.912116
O O5 0.552689 0.217062 0.247026
O O6 0.339941 0.142497 0.098932
O O7 0.378832 0.293195 0.209418
O O8 0.305451 0.240050 0.842911
O O9 0.814306 0.212125 0.567938
O O10 0.680573 0.347328 0.350767
O O11 0.248629 0.115443 0.278724
O O12 0.166473 0.260923 0.126826
O O13 0.000000 0.155431 0.000000
O O14 0.500000 0.905123 0.500000
O O15 0.316384 0.000000 0.173914
O O16 0.703635 0.500000 0.446314
O O17 0.715739 0.393676 0.680103
#
# Coordination Sequence:
#
# PCOD8059989 Si02
#       7
#     4   4   4   4   4   4   4
#     4  10  19  31  48  73 107 144 186 237 290 339
#     4  10  21  37  59  82 109 151 187 235 281 346
#     4  10  20  38  57  81 114 147 195 236 285 335
#     4  10  20  34  58  86 114 149 190 233 279 337
#     4  10  20  38  62  88 117 148 185 228 279 345
#     4  10  20  33  51  74 107 147 190 240 285 334
#     4  10  19  31  51  76 105 144 193 234 283 331
#
# _framework density 19.076882000000001
#
# number of rings (size 3 to 8) (size 9 to 14) (size 15 to 20)
#    0.000    2.000    1.429    3.429    0.000    1.429 
#    0.000    8.571    0.000    0.857    0.000    0.000 
#    0.000    0.000    0.000    0.000    0.000    0.000 
#
# Total GULP energy -347073.794395 kJ/mol
# GULP energy per Si atom -12395.492657 kJ/mol
# Density = 1.903346 g / cm^3
# Si number density = 19.076882 Si / 1000 Ang^3
#
#
#
# Elastic Constant Matrix: (Units=GPa)
#
#
# Indices 1 2 3 4 5 6 
#
# 1 68.4285 31.0462 24.2049 0.0000 -12.0722 0.0000
# 2 31.0462 117.8901 41.7704 0.0000 -13.7878 0.0000
# 3 24.2049 41.7704 101.4746 0.0000 -15.9867 0.0000
# 4 0.0000 0.0000 0.0000 17.9903 0.0000 1.2928
# 5 -12.0722 -13.7878 -15.9867 0.0000 34.7965 0.0000
# 6 0.0000 0.0000 0.0000 1.2928 0.0000 15.1363
#
#
#
# Elastic Compliance Matrix: (Units=1/GPa)
#
#
# Indices 1 2 3 4 5 6 
#
# 1 0.017604 -0.003418 -0.002203 0.000000 0.003741 0.000000
# 2 -0.003418 0.010756 -0.003372 0.000000 0.001527 0.000000
# 3 -0.002203 -0.003372 0.012330 0.000000 0.003564 0.000000
# 4 0.000000 0.000000 0.000000 0.055929 0.000000 -0.004777
# 5 0.003741 0.001527 0.003564 0.000000 0.032279 0.000000
# 6 0.000000 0.000000 0.000000 -0.004777 0.000000 0.066474
#
#
# Mechanical properties :
#
#
# Convention : Reuss Voigt Hill
#
# Bulk Modulus (GPa) = 44.04410 53.53735 48.79072
# Shear Modulus (GPa) = 22.63222 26.30272 24.46747
#
# Velocity S-wave (km/s) = 3.44811 3.71721 3.58519
# Velocity P-wave (km/s) = 6.24423 6.82265 6.53983
#
# Compressibility (1/GPa) = 0.02270452
#
# Stress axis : x y z
#
# Youngs Moduli (GPa) = 56.80637 92.97327 81.10619
#
# Poissons Ratio (x) = 0.31777 0.17865
# Poissons Ratio (y) = 0.19416 0.27346
# Poissons Ratio (z) = 0.12513 0.31347
#
# Static dielectric constant tensor:
#      x y z
#    x 3.585820 0.000000 -0.194280 
#    y 0.000000 3.532130 0.000000 
#    z -0.194280 0.000000 3.412690 
# 
# 
# High freq. dielectric constant tensor:
#      x y z
#    x 1.737800 0.000000 -0.010140 
#    y 0.000000 1.732100 0.000000 
#    z -0.010140 0.000000 1.731080 
# 
# From -- ./inp_files/30192.got.cif
#   From: 2010.06.25/outbox.cif.g09.slc.cpg/sg10_16_cif.got.tgz:30192.got - 2010.06.27 22:07:45.
