data_PCOD8059925
_publ_section_title
;
Structure prediction by ZEFSAII (Michael W. Deem and Ramdas Pophale) SiO2 
 PCOD8059925
Probable space group: P 2/M
;
_chemical_formula_sum "Si O2"
_cell_formula_units_Z 24
_cell_length_a 27.520570
_cell_length_b 9.068583
_cell_length_c 27.020902
_cell_angle_alpha 90.000000
_cell_angle_beta 169.064993
_cell_angle_gamma 90.000000
_cell_volume 1279.244136
_symmetry_space_group_name_H-M "P 2/M"
_symmetry_group_IT_number 10
_symmetry_cell_setting 'monoclinic'
loop_
_space_group_symop_operation_xyz
x,y,z
-x,y,-z
-x,-y,-z
x,-y,z
loop_
_atom_site_type_symbol
_atom_site_label
_atom_site_fract_x
_atom_site_fract_y
_atom_site_fract_z
Si Si1 0.750011 0.824168 0.610001
Si Si2 0.250011 0.824166 0.053713
Si Si3 0.250009 0.175390 0.942103
Si Si4 0.250009 0.328787 0.719023
Si Si5 0.249999 0.824073 0.278164
Si Si6 0.750010 0.824776 0.385323
O O1 0.499990 0.763597 0.331854
O O2 0.750002 0.763357 0.665915
O O3 0.750016 0.000000 0.610262
O O4 0.000039 0.763596 0.831905
O O5 0.250009 0.000000 0.053442
O O6 0.250007 0.762167 0.997880
O O7 0.999459 0.235323 0.663410
O O8 0.250010 0.000000 0.943178
O O9 0.500560 0.235324 0.164511
O O10 0.250060 0.500000 0.704693
O O11 0.249985 0.233942 0.669831
O O12 0.000000 0.285121 0.500000
O O13 0.500000 0.285079 0.000000
O O14 0.500000 0.763767 0.500000
O O15 0.250000 0.000000 0.278361
O O16 0.000000 0.763767 0.000000
O O17 0.750009 0.000000 0.383210
#
# Coordination Sequence:
#
# PCOD8059925 Si02
#       6
#     4   4   4   4   4   4
#     4   9  15  21  30  43  59  86 122 158 204 257
#     4   9  15  23  34  48  68  92 120 156 202 255
#     4   9  17  28  42  62  86 109 134 171 218 261
#     4  10  21  36  52  70  93 120 148 178 213 252
#     4   9  15  21  27  36  53  78 113 160 208 247
#     4  10  19  31  48  69  91 115 144 177 217 260
#
# _framework density 18.76108
#
# number of rings (size 3 to 8) (size 9 to 14) (size 15 to 20)
#    0.000    2.667    0.000    3.000    0.000    8.667 
#    0.000    0.000    0.000    0.000    0.000    0.000 
#    0.000    0.000    0.000    0.000    0.000    0.000 
#
# Total GULP energy -297615.249567 kJ/mol
# GULP energy per Si atom -12400.635399 kJ/mol
# Density = 1.871838 g / cm^3
# Si number density = 18.761080 Si / 1000 Ang^3
#
#
#
# Elastic Constant Matrix: (Units=GPa)
#
#
# Indices 1 2 3 4 5 6 
#
# 1 191.5668 15.3676 111.4652 0.0000 0.5548 0.0000
# 2 15.3676 5.9267 12.8787 0.0000 -0.3389 0.0000
# 3 111.4652 12.8787 215.6846 0.0000 2.6948 0.0000
# 4 0.0000 0.0000 0.0000 31.3731 0.0000 4.4845
# 5 0.5548 -0.3389 2.6948 0.0000 42.4537 0.0000
# 6 0.0000 0.0000 0.0000 4.4845 0.0000 -1.5506
#
#
#
# Elastic Compliance Matrix: (Units=1/GPa)
#
#
# Indices 1 2 3 4 5 6 
#
# 1 0.008386 -0.014165 -0.003488 0.000000 -0.000001 0.000000
# 2 -0.014165 0.218030 -0.005727 0.000000 0.002289 0.000000
# 3 -0.003488 -0.005727 0.006786 0.000000 -0.000431 0.000000
# 4 0.000000 0.000000 0.000000 0.022551 0.000000 0.065222
# 5 -0.000001 0.002289 -0.000431 0.000000 0.023601 0.000000
# 6 0.000000 0.000000 0.000000 0.065222 0.000000 -0.456284
#
#
# Mechanical properties :
#
#
# Convention : Reuss Voigt Hill
#
# Bulk Modulus (GPa) = 5.36357 76.95566 41.15962
# Shear Modulus (GPa) = -73.50603 32.68635 -20.40984
#
# Velocity S-wave (km/s) = -6.26619 4.17855 -3.30188
# Velocity P-wave (km/s) = 7.03480 8.02422 2.72945
#
# Compressibility (1/GPa) = 0.18644296
#
# Stress axis : x y z
#
# Youngs Moduli (GPa) = 119.24680 4.58652 147.35441
#
# Poissons Ratio (x) = 0.06497 0.51398
# Poissons Ratio (y) = 1.68910 0.84391
# Poissons Ratio (z) = 0.41594 0.02627
#
# Static dielectric constant tensor:
#      x y z
#    x 3.622320 0.000000 0.012370 
#    y 0.000000 2.604020 0.000000 
#    z 0.012370 0.000000 3.713370 
# 
# 
# High freq. dielectric constant tensor:
#      x y z
#    x 1.749210 0.000000 0.000550 
#    y 0.000000 1.638470 0.000000 
#    z 0.000550 0.000000 1.753210 
# 
# From -- ./inp_files/12145.got.cif
#   From: 2010.06.25/outbox.cif.g09.slc.cpg/sg10_7_cif.got.tgz:12145.got - 2010.06.27 22:07:45.
