data_PCOD8059019
_publ_section_title
;
Structure prediction by ZEFSAII (Michael W. Deem and Ramdas Pophale) SiO2 
 PCOD8059019
Probable space group: P 2/M
;
_chemical_formula_sum "Si O2"
_cell_formula_units_Z 24
_cell_length_a 9.699384
_cell_length_b 8.457614
_cell_length_c 22.011310
_cell_angle_alpha 90.000000
_cell_angle_beta 135.435627
_cell_angle_gamma 90.000000
_cell_volume 1267.055613
_symmetry_space_group_name_H-M "P 2/M"
_symmetry_group_IT_number 10
_symmetry_cell_setting 'monoclinic'
loop_
_space_group_symop_operation_xyz
x,y,z
-x,y,-z
-x,-y,-z
x,-y,z
loop_
_atom_site_type_symbol
_atom_site_label
_atom_site_fract_x
_atom_site_fract_y
_atom_site_fract_z
Si Si1 0.192245 0.812400 0.023835
Si Si2 0.440021 0.813920 0.784342
Si Si3 0.364804 0.314834 0.402814
Si Si4 0.638769 0.184660 0.726373
Si Si5 0.939739 0.683583 0.139955
Si Si6 0.059951 0.185275 0.731657
O O1 0.382121 0.746353 0.119053
O O2 0.193828 0.000000 0.017063
O O3 0.000000 0.756606 0.000000
O O4 0.196220 0.734333 0.958700
O O5 0.473031 0.769747 0.723929
O O6 0.230062 0.747524 0.740621
O O7 0.438251 0.000000 0.793340
O O8 0.500000 0.252842 0.500000
O O9 0.391281 0.500000 0.400786
O O10 0.437816 0.227032 0.364740
O O11 0.139046 0.277295 0.347075
O O12 0.833551 0.281149 0.804203
O O13 0.691652 0.000000 0.746989
O O14 0.912768 0.500000 0.145699
O O15 0.874581 0.782141 0.178659
O O16 0.022185 0.000000 0.710716
#
# Coordination Sequence:
#
# PCOD8059019 Si02
#       6
#     4   4   4   4   4   4
#     4  10  18  33  55  75 103 142 186 225 260 302
#     4   9  19  34  54  81 107 136 176 225 268 305
#     4  10  21  38  58  81 108 137 171 211 259 320
#     4  10  18  34  58  81 104 136 179 219 262 311
#     4  11  21  33  49  76 110 143 183 221 261 308
#     4  10  20  36  57  79 106 138 176 218 266 314
#
# _framework density 18.941552000000001
#
# number of rings (size 3 to 8) (size 9 to 14) (size 15 to 20)
#    0.000    2.000    1.667    5.000    0.000    2.333 
#    0.000    9.167    0.000    5.000    0.000    0.000 
#    0.000    0.000    0.000    0.000    0.000    0.000 
#
# Total GULP energy -297612.890657 kJ/mol
# GULP energy per Si atom -12400.537111 kJ/mol
# Density = 1.889844 g / cm^3
# Si number density = 18.941552 Si / 1000 Ang^3
#
#
#
# Elastic Constant Matrix: (Units=GPa)
#
#
# Indices 1 2 3 4 5 6 
#
# 1 150.8401 6.5744 60.8215 0.0000 -2.9531 0.0000
# 2 6.5744 35.7353 8.8963 0.0000 -1.4745 0.0000
# 3 60.8215 8.8963 126.6044 0.0000 -15.5833 0.0000
# 4 0.0000 0.0000 0.0000 25.4271 0.0000 0.0128
# 5 -2.9531 -1.4745 -15.5833 0.0000 21.5409 0.0000
# 6 0.0000 0.0000 0.0000 0.0128 0.0000 3.2297
#
#
#
# Elastic Compliance Matrix: (Units=1/GPa)
#
#
# Indices 1 2 3 4 5 6 
#
# 1 0.008305 -0.000565 -0.004187 0.000000 -0.001930 0.000000
# 2 -0.000565 0.028526 -0.001649 0.000000 0.000682 0.000000
# 3 -0.004187 -0.001649 0.010913 0.000000 0.007208 0.000000
# 4 0.000000 0.000000 0.000000 0.039328 0.000000 -0.000156
# 5 -0.001930 0.000682 0.007208 0.000000 0.051420 0.000000
# 6 0.000000 0.000000 0.000000 -0.000156 0.000000 0.309628
#
#
# Mechanical properties :
#
#
# Convention : Reuss Voigt Hill
#
# Bulk Modulus (GPa) = 28.61945 51.75159 40.18552
# Shear Modulus (GPa) = 10.58042 25.83205 18.20624
#
# Velocity S-wave (km/s) = 2.36600 3.69694 3.10365
# Velocity P-wave (km/s) = 4.75459 6.75309 5.83996
#
# Compressibility (1/GPa) = 0.03494127
#
# Stress axis : x y z
#
# Youngs Moduli (GPa) = 120.41139 35.05552 91.63039
#
# Poissons Ratio (x) = 0.01981 0.38370
# Poissons Ratio (y) = 0.06804 0.15110
# Poissons Ratio (z) = 0.50422 0.05781
#
# Static dielectric constant tensor:
#      x y z
#    x 3.668020 0.000000 -0.084950 
#    y 0.000000 3.297380 0.000000 
#    z -0.084950 0.000000 3.467750 
# 
# 
# High freq. dielectric constant tensor:
#      x y z
#    x 1.736670 0.000000 -0.012480 
#    y 0.000000 1.724880 0.000000 
#    z -0.012480 0.000000 1.722060 
# 
# From -- ./inp_files/33951.got.cif
#   From: 2010.06.25/outbox.cif.g09.slc.cpg/sg10_17_cif.got.tgz:33951.got - 2010.06.27 22:07:45.
