data_PCOD8059210
_publ_section_title
;
Structure prediction by ZEFSAII (Michael W. Deem and Ramdas Pophale) SiO2 
 PCOD8059210
Probable space group: P 2/M
;
_chemical_formula_sum "Si O2"
_cell_formula_units_Z 24
_cell_length_a 14.549700
_cell_length_b 13.692814
_cell_length_c 9.149657
_cell_angle_alpha 90.000000
_cell_angle_beta 138.849342
_cell_angle_gamma 90.000000
_cell_volume 1199.512231
_symmetry_space_group_name_H-M "P 2/M"
_symmetry_group_IT_number 10
_symmetry_cell_setting 'monoclinic'
loop_
_space_group_symop_operation_xyz
x,y,z
-x,y,-z
-x,-y,-z
x,-y,z
loop_
_atom_site_type_symbol
_atom_site_label
_atom_site_fract_x
_atom_site_fract_y
_atom_site_fract_z
Si Si1 0.695798 0.213794 0.577219
Si Si2 0.951112 0.107012 0.776027
Si Si3 0.064056 0.389903 0.724686
Si Si4 0.216867 0.206149 0.992651
Si Si5 0.458614 0.884549 0.117833
Si Si6 0.870734 0.390986 0.754414
O O1 0.805097 0.162495 0.599343
O O2 0.706655 0.185112 0.760944
O O3 0.547209 0.181612 0.336992
O O4 0.728285 0.329599 0.602529
O O5 0.926072 0.000000 0.680074
O O6 0.000000 0.100948 0.000000
O O7 0.062505 0.160508 0.807392
O O8 0.125263 0.500000 0.782587
O O9 0.000000 0.347768 0.500000
O O10 0.924857 0.392290 0.655617
O O11 0.192055 0.321820 0.934055
O O12 0.302017 0.153029 0.964249
O O13 0.474365 0.000000 0.171068
O O14 0.500000 0.862273 0.000000
O O15 0.839928 0.500000 0.778248
O O16 0.000000 0.342174 0.000000
#
# Coordination Sequence:
#
# PCOD8059210 Si02
#       6
#     4   4   4   4   4   4
#     4  11  20  37  60  90 117 154 199 244 300 350
#     4   9  17  30  54  87 115 138 185 248 295 343
#     4  10  21  36  59  93 128 159 192 238 299 358
#     4  11  21  37  62  89 117 155 202 245 294 352
#     4  11  27  45  59  80 119 165 203 246 302 358
#     4  10  18  34  61  94 126 152 190 244 297 352
#
# _framework density 20.008133999999998
#
# number of rings (size 3 to 8) (size 9 to 14) (size 15 to 20)
#    0.000    1.667    3.333    2.000    2.333    2.667 
#    0.000    0.833    0.000    7.000    0.000    0.000 
#    0.000    0.000    0.000    0.000    0.000    0.000 
#
# Total GULP energy -297489.922172 kJ/mol
# GULP energy per Si atom -12395.413424 kJ/mol
# Density = 1.996259 g / cm^3
# Si number density = 20.008134 Si / 1000 Ang^3
#
#
#
# Elastic Constant Matrix: (Units=GPa)
#
#
# Indices 1 2 3 4 5 6 
#
# 1 111.5667 32.8264 20.5486 0.0000 -0.4681 0.0000
# 2 32.8264 123.4542 26.6320 0.0000 6.1810 0.0000
# 3 20.5486 26.6320 58.3085 0.0000 -5.3418 0.0000
# 4 0.0000 0.0000 0.0000 21.3839 0.0000 1.9243
# 5 -0.4681 6.1810 -5.3418 0.0000 26.8683 0.0000
# 6 0.0000 0.0000 0.0000 1.9243 0.0000 25.0022
#
#
#
# Elastic Compliance Matrix: (Units=1/GPa)
#
#
# Indices 1 2 3 4 5 6 
#
# 1 0.010062 -0.002132 -0.002558 0.000000 0.000157 0.000000
# 2 -0.002132 0.009670 -0.003945 0.000000 -0.003046 0.000000
# 3 -0.002558 -0.003945 0.020302 0.000000 0.004899 0.000000
# 4 0.000000 0.000000 0.000000 0.047090 0.000000 -0.003624
# 5 0.000157 -0.003046 0.004899 0.000000 0.038896 0.000000
# 6 0.000000 0.000000 0.000000 -0.003624 0.000000 0.040275
#
#
# Mechanical properties :
#
#
# Convention : Reuss Voigt Hill
#
# Bulk Modulus (GPa) = 43.92502 50.37151 47.14826
# Shear Modulus (GPa) = 26.15688 28.87237 27.51463
#
# Velocity S-wave (km/s) = 3.61960 3.80285 3.71235
# Velocity P-wave (km/s) = 6.28251 6.67176 6.48006
#
# Compressibility (1/GPa) = 0.02276607
#
# Stress axis : x y z
#
# Youngs Moduli (GPa) = 99.38151 103.40790 49.25561
#
# Poissons Ratio (x) = 0.22042 0.12600
# Poissons Ratio (y) = 0.21184 0.19430
# Poissons Ratio (z) = 0.25423 0.40792
#
# Static dielectric constant tensor:
#      x y z
#    x 3.682450 0.000000 -0.039690 
#    y 0.000000 3.871080 0.000000 
#    z -0.039690 0.000000 3.334200 
# 
# 
# High freq. dielectric constant tensor:
#      x y z
#    x 1.777440 0.000000 -0.013300 
#    y 0.000000 1.790980 0.000000 
#    z -0.013300 0.000000 1.746420 
# 
# From -- ./inp_files/29661.got.cif
#   From: 2010.06.25/outbox.cif.g09.slc.cpg/sg10_15_cif.got.tgz:29661.got - 2010.06.27 22:07:45.
