data_PCOD8059649
_publ_section_title
;
Structure prediction by ZEFSAII (Michael W. Deem and Ramdas Pophale) SiO2 
 PCOD8059649
Probable space group: P 2/M
;
_chemical_formula_sum "Si O2"
_cell_formula_units_Z 24
_cell_length_a 7.902729
_cell_length_b 18.285292
_cell_length_c 13.205672
_cell_angle_alpha 90.000000
_cell_angle_beta 36.397629
_cell_angle_gamma 90.000000
_cell_volume 1132.339044
_symmetry_space_group_name_H-M "P 2/M"
_symmetry_group_IT_number 10
_symmetry_cell_setting 'monoclinic'
loop_
_space_group_symop_operation_xyz
x,y,z
-x,y,-z
-x,-y,-z
x,-y,z
loop_
_atom_site_type_symbol
_atom_site_label
_atom_site_fract_x
_atom_site_fract_y
_atom_site_fract_z
Si Si1 0.572864 0.820856 0.303551
Si Si2 0.276824 0.660760 0.803778
Si Si3 0.034920 0.818608 0.703788
Si Si4 0.271770 0.918159 0.297082
Si Si5 0.096549 0.657291 0.189905
Si Si6 0.569073 0.585418 0.821648
O O1 0.657809 0.745512 0.208908
O O2 0.281410 0.805355 0.503205
O O3 0.822130 0.848017 0.260385
O O4 0.529067 0.879321 0.234609
O O5 0.537709 0.610225 0.719301
O O6 0.211791 0.645078 0.715958
O O7 0.000000 0.637460 0.000000
O O8 0.806497 0.876502 0.769823
O O9 0.869371 0.742883 0.801520
O O10 0.000000 0.920893 0.500000
O O11 0.370476 0.000000 0.221094
O O12 0.122300 0.608774 0.280537
O O13 0.343592 0.632965 0.993843
O O14 0.515303 0.500000 0.860469
#
# Coordination Sequence:
#
# PCOD8059649 Si02
#       6
#     4   4   4   4   4   4
#     4   9  17  30  47  68  91 118 151 186 224 263
#     4   9  18  30  47  69  88 115 152 188 222 262
#     4   9  17  29  47  68  92 119 149 186 223 264
#     4   9  17  28  44  68  95 121 148 181 223 266
#     4   9  17  29  45  67  90 116 148 183 221 263
#     4  10  19  30  47  70  92 115 148 188 226 263
#
# _framework density 21.195063999999999
#
# number of rings (size 3 to 8) (size 9 to 14) (size 15 to 20)
#    0.000    2.833    0.000    2.000    0.000    4.333 
#    0.000    3.333    0.000    3.500    0.000   47.833 
#    0.000    0.000    0.000    0.000    0.000    0.000 
#
# Total GULP energy -297348.508843 kJ/mol
# GULP energy per Si atom -12389.521202 kJ/mol
# Density = 2.114682 g / cm^3
# Si number density = 21.195064 Si / 1000 Ang^3
#
#
#
# Elastic Constant Matrix: (Units=GPa)
#
#
# Indices 1 2 3 4 5 6 
#
# 1 226.1387 119.0124 10.3541 0.0000 9.3771 0.0000
# 2 119.0124 168.7062 15.6995 0.0000 5.6551 0.0000
# 3 10.3541 15.6995 10.7610 0.0000 0.2167 0.0000
# 4 0.0000 0.0000 0.0000 -129.2076 0.0000 -24.7068
# 5 9.3771 5.6551 0.2167 0.0000 7.3104 0.0000
# 6 0.0000 0.0000 0.0000 -24.7068 0.0000 23.3029
#
#
#
# Elastic Compliance Matrix: (Units=1/GPa)
#
#
# Indices 1 2 3 4 5 6 
#
# 1 0.007242 -0.004961 0.000380 0.000000 -0.005463 0.000000
# 2 -0.004961 0.010446 -0.010438 0.000000 -0.001408 0.000000
# 3 0.000380 -0.010438 0.107702 0.000000 0.004396 0.000000
# 4 0.000000 0.000000 0.000000 -0.006435 0.000000 -0.006823
# 5 -0.005463 -0.001408 0.004396 0.000000 0.144757 0.000000
# 6 0.000000 0.000000 0.000000 -0.006823 0.000000 0.035680
#
#
# Mechanical properties :
#
#
# Convention : Reuss Voigt Hill
#
# Bulk Modulus (GPa) = 10.48751 77.30420 43.89586
# Shear Modulus (GPa) = 13.84223 -2.34953 5.74635
#
# Velocity S-wave (km/s) = 2.55833 -1.05401 1.64835
# Velocity P-wave (km/s) = 3.69940 5.92205 4.93742
#
# Compressibility (1/GPa) = 0.09535150
#
# Stress axis : x y z
#
# Youngs Moduli (GPa) = 138.08035 95.73278 9.28488
#
# Poissons Ratio (x) = 0.47494 -0.00352
# Poissons Ratio (y) = 0.68503 0.09691
# Poissons Ratio (z) = -0.05241 0.99923
#
# Static dielectric constant tensor:
#      x y z
#    x 5.812710 0.000000 0.059170 
#    y 0.000000 3.707930 0.000000 
#    z 0.059170 0.000000 3.191970 
# 
# 
# High freq. dielectric constant tensor:
#      x y z
#    x 1.868660 0.000000 0.004810 
#    y 0.000000 1.814650 0.000000 
#    z 0.004810 0.000000 1.769030 
# 
# From -- ./inp_files/42405.got.cif
#   From: 2010.06.25/outbox.cif.g09.slc.cpg/sg10_22_cif.got.tgz:42405.got - 2010.06.27 22:07:45.
