data_PCOD8059888
_publ_section_title
;
Structure prediction by ZEFSAII (Michael W. Deem and Ramdas Pophale) SiO2 
 PCOD8059888
Probable space group: P 2/M
;
_chemical_formula_sum "Si O2"
_cell_formula_units_Z 32
_cell_length_a 12.583178
_cell_length_b 8.894766
_cell_length_c 21.133132
_cell_angle_alpha 90.000000
_cell_angle_beta 126.542729
_cell_angle_gamma 90.000000
_cell_volume 1900.323811
_symmetry_space_group_name_H-M "P 2/M"
_symmetry_group_IT_number 10
_symmetry_cell_setting 'monoclinic'
loop_
_space_group_symop_operation_xyz
x,y,z
-x,y,-z
-x,-y,-z
x,-y,z
loop_
_atom_site_type_symbol
_atom_site_label
_atom_site_fract_x
_atom_site_fract_y
_atom_site_fract_z
Si Si1 0.626239 0.830525 0.500000
Si Si2 0.612348 0.177205 0.812472
Si Si3 0.218574 0.677169 0.341248
Si Si4 0.987400 0.822796 0.187529
Si Si5 0.536078 0.677168 0.658752
Si Si6 0.713250 0.327152 0.090344
Si Si7 0.911948 0.821410 0.911946
Si Si8 0.467431 0.327152 0.090341
O O1 0.500000 0.828089 0.500000
O O2 0.745229 0.745377 0.577540
O O3 0.590148 0.745374 0.422460
O O4 0.670579 0.000000 0.499999
O O5 0.534262 0.256877 0.728317
O O6 0.762800 0.237429 0.866940
O O7 0.542789 0.219014 0.853334
O O8 0.606592 0.000000 0.799647
O O9 0.209083 0.500000 0.345111
O O10 0.077627 0.743121 0.271683
O O11 0.327545 0.724124 0.327546
O O12 0.028910 0.762572 0.133057
O O13 0.836118 0.780987 0.146670
O O14 0.007295 0.000000 0.200355
O O15 0.518862 0.500000 0.654890
O O16 0.759854 0.500000 0.105673
O O17 0.610160 0.300321 0.110162
O O18 0.646389 0.283773 0.000002
O O19 0.915710 0.000000 0.915709
O O20 0.000000 0.753308 0.000000
O O21 0.451486 0.500000 0.105669
#
# Coordination Sequence:
#
# PCOD8059888 Si02
#       8
#     4   4   4   4   4   4   4   4
#     4   9  17  29  47  69  96 129 166 203 245 290
#     4  11  20  31  49  72 101 132 166 206 249 295
#     4  10  19  31  47  69 100 134 168 202 242 294
#     4  11  20  31  49  72 101 132 166 206 249 295
#     4  10  19  31  47  69 100 134 168 202 242 294
#     4   9  19  36  54  71  95 128 167 212 258 300
#     4   9  18  30  43  64  97 132 161 195 244 295
#     4   9  19  36  54  71  95 128 167 212 258 300
#
# _framework density 16.839234999999999
#
# number of rings (size 3 to 8) (size 9 to 14) (size 15 to 20)
#    0.000    2.250    1.250    3.375    0.000    4.500 
#    0.000    1.250    0.000    3.000    0.000    0.875 
#    0.000    7.000    0.000    0.000    0.000    0.000 
#
# Total GULP energy -396890.745951 kJ/mol
# GULP energy per Si atom -12402.835811 kJ/mol
# Density = 1.680091 g / cm^3
# Si number density = 16.839235 Si / 1000 Ang^3
#
#
#
# Elastic Constant Matrix: (Units=GPa)
#
#
# Indices 1 2 3 4 5 6 
#
# 1 61.5539 27.0897 45.2977 0.0000 -1.0127 0.0000
# 2 27.0897 74.5658 49.1484 0.0000 -1.0257 0.0000
# 3 45.2977 49.1484 142.4341 0.0000 -2.7467 0.0000
# 4 0.0000 0.0000 0.0000 32.0748 0.0000 -0.3848
# 5 -1.0127 -1.0257 -2.7467 0.0000 19.1066 0.0000
# 6 0.0000 0.0000 0.0000 -0.3848 0.0000 23.8072
#
#
#
# Elastic Compliance Matrix: (Units=1/GPa)
#
#
# Indices 1 2 3 4 5 6 
#
# 1 0.022288 -0.004433 -0.005555 0.000000 0.000145 0.000000
# 2 -0.004433 0.018241 -0.004884 0.000000 0.000042 0.000000
# 3 -0.005555 -0.004884 0.010491 0.000000 0.000952 0.000000
# 4 0.000000 0.000000 0.000000 0.031183 0.000000 0.000504
# 5 0.000145 0.000042 0.000952 0.000000 0.052485 0.000000
# 6 0.000000 0.000000 0.000000 0.000504 0.000000 0.042012
#
#
# Mechanical properties :
#
#
# Convention : Reuss Voigt Hill
#
# Bulk Modulus (GPa) = 47.00341 57.95837 52.48089
# Shear Modulus (GPa) = 23.41523 25.46559 24.44041
#
# Velocity S-wave (km/s) = 3.73301 3.89302 3.81385
# Velocity P-wave (km/s) = 6.82306 7.39600 7.11530
#
# Compressibility (1/GPa) = 0.02127505
#
# Stress axis : x y z
#
# Youngs Moduli (GPa) = 44.86779 54.82139 95.31942
#
# Poissons Ratio (x) = 0.24304 0.52955
# Poissons Ratio (y) = 0.19891 0.46550
# Poissons Ratio (z) = 0.24926 0.26772
#
# Static dielectric constant tensor:
#      x y z
#    x 2.844910 0.000000 -0.019250 
#    y 0.000000 3.069850 0.000000 
#    z -0.019250 0.000000 3.258740 
# 
# 
# High freq. dielectric constant tensor:
#      x y z
#    x 1.610590 0.000000 -0.002150 
#    y 0.000000 1.650510 0.000000 
#    z -0.002150 0.000000 1.656900 
# 
# From -- ./inp_files/49968.got.cif
#   From: 2010.06.25/outbox.cif.g09.slc.cpg/sg10_25_cif.got.tgz:49968.got - 2010.06.27 22:07:45.
