data_PCOD8059765
_publ_section_title
;
Structure prediction by ZEFSAII (Michael W. Deem and Ramdas Pophale) SiO2 
 PCOD8059765
Probable space group: P 2/M
;
_chemical_formula_sum "Si O2"
_cell_formula_units_Z 28
_cell_length_a 16.107640
_cell_length_b 8.812880
_cell_length_c 21.219106
_cell_angle_alpha 90.000000
_cell_angle_beta 27.658671
_cell_angle_gamma 90.000000
_cell_volume 1398.250701
_symmetry_space_group_name_H-M "P 2/M"
_symmetry_group_IT_number 10
_symmetry_cell_setting 'monoclinic'
loop_
_space_group_symop_operation_xyz
x,y,z
-x,y,-z
-x,-y,-z
x,-y,z
loop_
_atom_site_type_symbol
_atom_site_label
_atom_site_fract_x
_atom_site_fract_y
_atom_site_fract_z
Si Si1 0.624603 0.824821 0.289410
Si Si2 0.425592 0.321122 0.983503
Si Si3 0.041618 0.175724 0.241437
Si Si4 0.105018 0.828208 0.793641
Si Si5 0.464356 0.821419 0.212719
Si Si6 0.268473 0.179702 0.466641
Si Si7 0.784009 0.676256 0.068083
O O1 0.690736 0.805448 0.317612
O O2 0.423258 0.765038 0.411466
O O3 0.760915 0.727043 0.155546
O O4 0.635863 0.000000 0.260261
O O5 0.432145 0.500000 0.974640
O O6 0.221288 0.270147 0.112170
O O7 0.500000 0.261412 0.000000
O O8 0.557678 0.255657 0.840780
O O9 0.908288 0.199742 0.271931
O O10 0.925613 0.238414 0.379187
O O11 0.095210 0.000000 0.213445
O O12 0.042220 0.000000 0.851554
O O13 0.984690 0.708172 0.911680
O O14 0.313667 0.765418 0.364737
O O15 0.657757 0.776539 0.108325
O O16 0.453324 0.000000 0.210516
O O17 0.261445 0.000000 0.473275
O O18 0.737670 0.500000 0.090848
#
# Coordination Sequence:
#
# PCOD8059765 Si02
#       7
#     4   4   4   4   4   4   4
#     4   9  18  32  49  73 110 151 193 236 273 315
#     4  11  24  41  61  87 115 142 178 224 276 336
#     4  10  20  36  59  85 113 147 186 228 282 333
#     4  10  19  30  49  77 109 148 191 235 277 322
#     4  10  19  36  61  85 111 145 185 228 276 329
#     4   8  17  34  56  83 114 148 188 231 271 323
#     4  11  20  30  48  75 110 148 190 235 279 325
#
# _framework density 20.025020000000001
#
# number of rings (size 3 to 8) (size 9 to 14) (size 15 to 20)
#    0.000    2.143    1.429    3.429    0.000    4.000 
#    0.000    7.143    0.000    4.286    0.000    6.000 
#    0.000    0.000    0.000    0.000    0.000    0.000 
#
# Total GULP energy -347006.364920 kJ/mol
# GULP energy per Si atom -12393.084461 kJ/mol
# Density = 1.997944 g / cm^3
# Si number density = 20.025020 Si / 1000 Ang^3
#
#
#
# Elastic Constant Matrix: (Units=GPa)
#
#
# Indices 1 2 3 4 5 6 
#
# 1 106.4396 22.8083 22.4092 0.0000 17.8588 0.0000
# 2 22.8083 50.5559 17.2744 0.0000 8.0964 0.0000
# 3 22.4092 17.2744 86.6713 0.0000 19.9728 0.0000
# 4 0.0000 0.0000 0.0000 6.3887 0.0000 0.6619
# 5 17.8588 8.0964 19.9728 0.0000 16.8341 0.0000
# 6 0.0000 0.0000 0.0000 0.6619 0.0000 19.0060
#
#
#
# Elastic Compliance Matrix: (Units=1/GPa)
#
#
# Indices 1 2 3 4 5 6 
#
# 1 0.012028 -0.003701 0.000218 0.000000 -0.011238 0.000000
# 2 -0.003701 0.023007 -0.002730 0.000000 -0.003900 0.000000
# 3 0.000218 -0.002730 0.016208 0.000000 -0.018147 0.000000
# 4 0.000000 0.000000 0.000000 0.157093 0.000000 -0.005471
# 5 -0.011238 -0.003900 -0.018147 0.000000 0.094732 0.000000
# 6 0.000000 0.000000 0.000000 -0.005471 0.000000 0.052805
#
#
# Mechanical properties :
#
#
# Convention : Reuss Voigt Hill
#
# Bulk Modulus (GPa) = 25.76253 40.96120 33.36186
# Shear Modulus (GPa) = 13.11517 20.52410 16.81964
#
# Velocity S-wave (km/s) = 2.56195 3.20491 2.90130
# Velocity P-wave (km/s) = 4.65237 5.84763 5.28390
#
# Compressibility (1/GPa) = 0.03881606
#
# Stress axis : x y z
#
# Youngs Moduli (GPa) = 83.14059 43.46480 61.69950
#
# Poissons Ratio (x) = 0.16086 -0.01342
# Poissons Ratio (y) = 0.30770 0.16843
# Poissons Ratio (z) = -0.01808 0.11865
#
# Static dielectric constant tensor:
#      x y z
#    x 3.768950 0.000000 0.264830 
#    y 0.000000 3.385870 0.000000 
#    z 0.264830 0.000000 3.701300 
# 
# 
# High freq. dielectric constant tensor:
#      x y z
#    x 1.775650 0.000000 0.013600 
#    y 0.000000 1.756460 0.000000 
#    z 0.013600 0.000000 1.767150 
# 
# From -- ./inp_files/84890.got.cif
#   From: 2010.06.25/outbox.cif.g09.slc.cpg/sg10_43_cif.got.tgz:84890.got - 2010.06.27 22:07:45.
