data_PCOD8059220
_publ_section_title
;
Structure prediction by ZEFSAII (Michael W. Deem and Ramdas Pophale) SiO2 
 PCOD8059220
Probable space group: P 2/M
;
_chemical_formula_sum "Si O2"
_cell_formula_units_Z 32
_cell_length_a 13.591499
_cell_length_b 17.532501
_cell_length_c 16.526083
_cell_angle_alpha 90.000000
_cell_angle_beta 26.078943
_cell_angle_gamma 90.000000
_cell_volume 1731.202361
_symmetry_space_group_name_H-M "P 2/M"
_symmetry_group_IT_number 10
_symmetry_cell_setting 'monoclinic'
loop_
_space_group_symop_operation_xyz
x,y,z
-x,y,-z
-x,-y,-z
x,-y,z
loop_
_atom_site_type_symbol
_atom_site_label
_atom_site_fract_x
_atom_site_fract_y
_atom_site_fract_z
Si Si1 0.463713 0.697963 0.830123
Si Si2 0.018889 0.912835 0.188172
Si Si3 0.277250 0.642391 0.125453
Si Si4 0.480740 0.912684 0.421175
Si Si5 0.810431 0.806480 0.077963
Si Si6 0.788412 0.771572 0.702034
Si Si7 0.761541 0.082907 0.812156
Si Si8 0.130117 0.413847 0.486641
O O1 0.316676 0.733326 0.866262
O O2 0.576691 0.766606 0.798123
O O3 0.658530 0.641596 0.653770
O O4 0.302937 0.651058 0.009880
O O5 0.191976 0.891929 0.130371
O O6 0.778730 0.901391 0.408649
O O7 0.043233 0.000000 0.138488
O O8 0.058825 0.856074 0.084840
O O9 0.256302 0.724943 0.183319
O O10 0.052793 0.594058 0.306546
O O11 0.500000 0.602317 0.000000
O O12 0.500000 0.888568 0.500000
O O13 0.627697 0.858675 0.256589
O O14 0.560742 0.000000 0.349111
O O15 0.000000 0.776409 0.000000
O O16 0.850114 0.857717 0.680693
O O17 0.000000 0.735559 0.500000
O O18 0.871596 0.000000 0.712836
O O19 0.500000 0.078273 0.000000
O O20 0.222523 0.500000 0.417647
O O21 0.000000 0.394161 0.500000
#
# Coordination Sequence:
#
# PCOD8059220 Si02
#       8
#     4   4   4   4   4   4   4   4
#     4  11  23  38  57  86 119 155 186 232 287 341
#     4  10  21  38  57  80 110 150 199 254 302 343
#     4  10  18  35  56  86 119 153 182 216 281 334
#     4  10  21  38  59  82 111 148 196 257 316 346
#     4  12  24  37  58  85 111 151 200 248 297 345
#     4  11  19  33  53  76 112 150 189 229 279 335
#     4  10  21  36  51  73 109 154 202 243 279 338
#     4  11  21  38  63  96 126 150 183 220 271 349
#
# _framework density 18.484264
#
# number of rings (size 3 to 8) (size 9 to 14) (size 15 to 20)
#    0.000    1.375    5.000    3.000    1.750    2.500 
#    0.000    0.625    0.000    0.375    0.000    0.875 
#    0.000    0.000    0.000    0.000    0.000    0.000 
#
# Total GULP energy -396684.487386 kJ/mol
# GULP energy per Si atom -12396.390231 kJ/mol
# Density = 1.844219 g / cm^3
# Si number density = 18.484264 Si / 1000 Ang^3
#
#
#
# Elastic Constant Matrix: (Units=GPa)
#
#
# Indices 1 2 3 4 5 6 
#
# 1 105.1753 44.2322 37.0346 0.0000 -12.7165 0.0000
# 2 44.2322 91.5584 35.0986 0.0000 -2.6014 0.0000
# 3 37.0346 35.0986 109.6341 0.0000 4.9338 0.0000
# 4 0.0000 0.0000 0.0000 24.8219 0.0000 -2.3469
# 5 -12.7165 -2.6014 4.9338 0.0000 23.9528 0.0000
# 6 0.0000 0.0000 0.0000 -2.3469 0.0000 19.1287
#
#
#
# Elastic Compliance Matrix: (Units=1/GPa)
#
#
# Indices 1 2 3 4 5 6 
#
# 1 0.013744 -0.005154 -0.003327 0.000000 0.007422 0.000000
# 2 -0.005154 0.014498 -0.002875 0.000000 -0.000569 0.000000
# 3 -0.003327 -0.002875 0.011364 0.000000 -0.004419 0.000000
# 4 0.000000 0.000000 0.000000 0.040760 0.000000 0.005001
# 5 0.007422 -0.000569 -0.004419 0.000000 0.046538 0.000000
# 6 0.000000 0.000000 0.000000 0.005001 0.000000 0.052891
#
#
# Mechanical properties :
#
#
# Convention : Reuss Voigt Hill
#
# Bulk Modulus (GPa) = 59.18758 59.89984 59.54371
# Shear Modulus (GPa) = 24.02260 26.24750 25.13505
#
# Velocity S-wave (km/s) = 3.60894 3.77237 3.69156
# Velocity P-wave (km/s) = 7.03249 7.17290 7.10305
#
# Compressibility (1/GPa) = 0.01689544
#
# Stress axis : x y z
#
# Youngs Moduli (GPa) = 72.75781 68.97699 87.99472
#
# Poissons Ratio (x) = 0.35548 0.29275
# Poissons Ratio (y) = 0.37497 0.25297
# Poissons Ratio (z) = 0.24206 0.19829
#
# Static dielectric constant tensor:
#      x y z
#    x 3.725150 0.000000 0.255010 
#    y 0.000000 3.429300 0.000000 
#    z 0.255010 0.000000 3.769010 
# 
# 
# High freq. dielectric constant tensor:
#      x y z
#    x 1.689100 0.000000 -0.000210 
#    y 0.000000 1.697990 0.000000 
#    z -0.000210 0.000000 1.730450 
# 
# From -- ./inp_files/65389.got.cif
#   From: 2010.06.25/outbox.cif.g09.slc.cpg/sg10_33_cif.got.tgz:65389.got - 2010.06.27 22:07:45.
