data_PCOD8059033
_publ_section_title
;
Structure prediction by ZEFSAII (Michael W. Deem and Ramdas Pophale) SiO2 
 PCOD8059033
Probable space group: P 2/M
;
_chemical_formula_sum "Si O2"
_cell_formula_units_Z 32
_cell_length_a 30.883663
_cell_length_b 9.084677
_cell_length_c 11.935259
_cell_angle_alpha 90.000000
_cell_angle_beta 30.704915
_cell_angle_gamma 90.000000
_cell_volume 1709.878054
_symmetry_space_group_name_H-M "P 2/M"
_symmetry_group_IT_number 10
_symmetry_cell_setting 'monoclinic'
loop_
_space_group_symop_operation_xyz
x,y,z
-x,y,-z
-x,-y,-z
x,-y,z
loop_
_atom_site_type_symbol
_atom_site_label
_atom_site_fract_x
_atom_site_fract_y
_atom_site_fract_z
Si Si1 0.402491 0.673103 0.712599
Si Si2 0.922692 0.326188 0.812068
Si Si3 0.775154 0.675418 0.296553
Si Si4 0.739228 0.170257 0.842731
Si Si5 0.889422 0.674343 0.637849
Si Si6 0.287140 0.169615 0.352078
Si Si7 0.539010 0.665220 0.035187
Si Si8 0.376474 0.326221 0.520765
O O1 0.500000 0.724077 0.500000
O O2 0.395413 0.500000 0.751307
O O3 0.362346 0.716503 0.681551
O O4 0.349999 0.756396 0.924674
O O5 0.918487 0.500000 0.813713
O O6 0.888099 0.269273 0.769262
O O7 0.019847 0.278778 0.617438
O O8 0.863078 0.269320 0.045212
O O9 0.771340 0.500000 0.315077
O O10 0.769621 0.742573 0.432386
O O11 0.698931 0.737562 0.388272
O O12 0.816592 0.245004 0.733253
O O13 0.754337 0.192756 0.677122
O O14 0.735207 0.000000 0.884343
O O15 0.874141 0.500000 0.663636
O O16 0.382553 0.226561 0.137772
O O17 0.288777 0.000000 0.383526
O O18 0.567305 0.500000 0.008851
O O19 0.500000 0.657992 0.000000
O O20 0.468116 0.732098 0.276518
O O21 0.377393 0.500000 0.503266
#
# Coordination Sequence:
#
# PCOD8059033 Si02
#       8
#     4   4   4   4   4   4   4   4
#     4  10  20  35  57  82 107 138 178 223 270 323
#     4   8  16  32  60  92 114 130 163 223 280 318
#     4  10  18  33  55  79 107 137 172 219 271 318
#     4  11  24  39  53  74 110 151 186 221 263 313
#     4   9  17  35  62  88 110 137 173 215 268 328
#     4  11  24  38  50  71 107 148 187 224 262 309
#     4  10  18  33  56  79 102 135 178 221 266 316
#     4   9  17  30  52  82 108 130 167 219 270 318
#
# _framework density 18.714784999999999
#
# number of rings (size 3 to 8) (size 9 to 14) (size 15 to 20)
#    0.000    2.250    1.250    3.000    0.000    5.500 
#    0.000    5.625    0.000    3.750    0.000    0.000 
#    0.000    0.000    0.000    0.000    0.000    0.000 
#
# Total GULP energy -396770.188755 kJ/mol
# GULP energy per Si atom -12399.068399 kJ/mol
# Density = 1.867219 g / cm^3
# Si number density = 18.714785 Si / 1000 Ang^3
#
#
#
# Elastic Constant Matrix: (Units=GPa)
#
#
# Indices 1 2 3 4 5 6 
#
# 1 88.4441 41.5749 53.7066 0.0000 -3.9182 0.0000
# 2 41.5749 59.9893 47.7241 0.0000 -0.9083 0.0000
# 3 53.7066 47.7241 151.8026 0.0000 4.2096 0.0000
# 4 0.0000 0.0000 0.0000 26.4521 0.0000 -0.3687
# 5 -3.9182 -0.9083 4.2096 0.0000 31.3222 0.0000
# 6 0.0000 0.0000 0.0000 -0.3687 0.0000 19.7208
#
#
#
# Elastic Compliance Matrix: (Units=1/GPa)
#
#
# Indices 1 2 3 4 5 6 
#
# 1 0.018074 -0.009799 -0.003381 0.000000 0.002431 0.000000
# 2 -0.009799 0.027621 -0.005225 0.000000 0.000277 0.000000
# 3 -0.003381 -0.005225 0.009477 0.000000 -0.001848 0.000000
# 4 0.000000 0.000000 0.000000 0.037814 0.000000 0.000707
# 5 0.002431 0.000277 -0.001848 0.000000 0.032487 0.000000
# 6 0.000000 0.000000 0.000000 0.000707 0.000000 0.050721
#
#
# Mechanical properties :
#
#
# Convention : Reuss Voigt Hill
#
# Bulk Modulus (GPa) = 54.45724 65.13859 59.79792
# Shear Modulus (GPa) = 22.81803 25.98104 24.39954
#
# Velocity S-wave (km/s) = 3.49557 3.72998 3.61468
# Velocity P-wave (km/s) = 6.74193 7.30971 7.03156
#
# Compressibility (1/GPa) = 0.01836303
#
# Stress axis : x y z
#
# Youngs Moduli (GPa) = 55.32907 36.20380 105.51372
#
# Poissons Ratio (x) = 0.35477 0.35675
# Poissons Ratio (y) = 0.54218 0.55126
# Poissons Ratio (z) = 0.18707 0.18915
#
# Static dielectric constant tensor:
#      x y z
#    x 3.594990 0.000000 0.042480 
#    y 0.000000 3.135990 0.000000 
#    z 0.042480 0.000000 3.881140 
# 
# 
# High freq. dielectric constant tensor:
#      x y z
#    x 1.725650 0.000000 0.006490 
#    y 0.000000 1.690810 0.000000 
#    z 0.006490 0.000000 1.736030 
# 
# From -- ./inp_files/55339.got.cif
#   From: 2010.06.25/outbox.cif.g09.slc.cpg/sg10_28_cif.got.tgz:55339.got - 2010.06.27 22:07:45.
