data_PCOD8059915
_publ_section_title
;
Structure prediction by ZEFSAII (Michael W. Deem and Ramdas Pophale) SiO2 
 PCOD8059915
Probable space group: P 2/M
;
_chemical_formula_sum "Si O2"
_cell_formula_units_Z 30
_cell_length_a 24.138478
_cell_length_b 9.907394
_cell_length_c 10.930456
_cell_angle_alpha 90.000000
_cell_angle_beta 38.367739
_cell_angle_gamma 90.000000
_cell_volume 1622.534095
_symmetry_space_group_name_H-M "P 2/M"
_symmetry_group_IT_number 10
_symmetry_cell_setting 'monoclinic'
loop_
_space_group_symop_operation_xyz
x,y,z
-x,y,-z
-x,-y,-z
x,-y,z
loop_
_atom_site_type_symbol
_atom_site_label
_atom_site_fract_x
_atom_site_fract_y
_atom_site_fract_z
Si Si1 0.185072 0.352809 0.605793
Si Si2 0.906260 0.646071 0.729259
Si Si3 0.015304 0.852391 0.235734
Si Si4 0.489732 0.653948 0.163221
Si Si5 0.335314 0.846692 0.400885
Si Si6 0.000000 0.743539 0.000000
Si Si7 0.636376 0.145348 0.931019
Si Si8 0.174032 0.245483 0.362522
O O1 0.226765 0.500000 0.566462
O O2 0.239751 0.229198 0.570982
O O3 0.184503 0.346383 0.458976
O O4 0.085127 0.350923 0.830408
O O5 0.884025 0.500000 0.825415
O O6 0.912927 0.750617 0.829320
O O7 0.831335 0.678902 0.758219
O O8 0.000000 0.641832 0.500000
O O9 0.915335 0.841436 0.462684
O O10 0.050824 0.000000 0.207789
O O11 0.014429 0.837949 0.091815
O O12 0.480576 0.500000 0.230385
O O13 0.405726 0.748380 0.347635
O O14 0.500000 0.645609 0.000000
O O15 0.575611 0.727476 0.077177
O O16 0.368122 0.860159 0.206778
O O17 0.328263 0.000000 0.469626
O O18 0.737971 0.154798 0.800461
O O19 0.599271 0.000000 0.043686
#
# Coordination Sequence:
#
# PCOD8059915 Si02
#       8
#     4   4   4   4   4   2   4   4
#     4  10  19  31  48  67  89 121 158 192 228 273
#     4   9  18  31  46  65  90 119 151 189 232 275
#     4  10  20  33  49  66  88 121 158 194 230 272
#     4   9  16  25  38  57  83 116 152 186 221 267
#     4   9  17  28  41  59  85 117 151 187 228 270
#     4  10  22  34  48  68  94 120 152 194 236 270
#     4   9  16  25  39  60  87 118 150 185 225 269
#     4   9  18  29  46  68  93 121 154 190 229 273
#
# _framework density 18.489597
#
# number of rings (size 3 to 8) (size 9 to 14) (size 15 to 20)
#    0.000    2.667    0.000    2.000    0.000   15.733 
#    0.000    0.000    0.000    0.000    0.000    0.000 
#    0.000    1.067    0.000    7.467    0.000    7.600 
#
# Total GULP energy -371705.042157 kJ/mol
# GULP energy per Si atom -12390.168072 kJ/mol
# Density = 1.844751 g / cm^3
# Si number density = 18.489597 Si / 1000 Ang^3
#
#
#
# Elastic Constant Matrix: (Units=GPa)
#
#
# Indices 1 2 3 4 5 6 
#
# 1 75.0043 50.5843 31.3993 0.0000 -10.8579 0.0000
# 2 50.5843 189.1156 39.2951 0.0000 -12.8570 0.0000
# 3 31.3993 39.2951 46.3442 0.0000 -13.7202 0.0000
# 4 0.0000 0.0000 0.0000 8.1617 0.0000 -4.7436
# 5 -10.8579 -12.8570 -13.7202 0.0000 22.5461 0.0000
# 6 0.0000 0.0000 0.0000 -4.7436 0.0000 15.6617
#
#
#
# Elastic Compliance Matrix: (Units=1/GPa)
#
#
# Indices 1 2 3 4 5 6 
#
# 1 0.020023 -0.003068 -0.010524 0.000000 0.001489 0.000000
# 2 -0.003068 0.006892 -0.003707 0.000000 0.000197 0.000000
# 3 -0.010524 -0.003707 0.036257 0.000000 0.014882 0.000000
# 4 0.000000 0.000000 0.000000 0.148699 0.000000 0.045037
# 5 0.001489 0.000197 0.014882 0.000000 0.054239 0.000000
# 6 0.000000 0.000000 0.000000 0.045037 0.000000 0.077491
#
#
# Mechanical properties :
#
#
# Convention : Reuss Voigt Hill
#
# Bulk Modulus (GPa) = 34.99652 61.44683 48.22168
# Shear Modulus (GPa) = 12.89584 21.88625 17.39105
#
# Velocity S-wave (km/s) = 2.64382 3.44424 3.07022
# Velocity P-wave (km/s) = 5.31869 7.00873 6.22137
#
# Compressibility (1/GPa) = 0.02857427
#
# Stress axis : x y z
#
# Youngs Moduli (GPa) = 49.94333 145.09706 27.58120
#
# Poissons Ratio (x) = 0.44512 0.29026
# Poissons Ratio (y) = 0.15321 0.10224
# Poissons Ratio (z) = 0.52560 0.53786
#
# Static dielectric constant tensor:
#      x y z
#    x 3.282210 0.000000 -0.269480 
#    y 0.000000 3.698720 0.000000 
#    z -0.269480 0.000000 2.999210 
# 
# 
# High freq. dielectric constant tensor:
#      x y z
#    x 1.685650 0.000000 -0.033780 
#    y 0.000000 1.734660 0.000000 
#    z -0.033780 0.000000 1.662980 
# 
# From -- ./inp_files/56614.got.cif
#   From: 2010.06.25/outbox.cif.g09.slc.cpg/sg10_29_cif.got.tgz:56614.got - 2010.06.27 22:07:45.
