data_PCOD8059694
_publ_section_title
;
Structure prediction by ZEFSAII (Michael W. Deem and Ramdas Pophale) SiO2 
 PCOD8059694
Probable space group: P 2/M
;
_chemical_formula_sum "Si O2"
_cell_formula_units_Z 28
_cell_length_a 20.555173
_cell_length_b 9.228417
_cell_length_c 11.934240
_cell_angle_alpha 90.000000
_cell_angle_beta 54.716453
_cell_angle_gamma 90.000000
_cell_volume 1847.969373
_symmetry_space_group_name_H-M "P 2/M"
_symmetry_group_IT_number 10
_symmetry_cell_setting 'monoclinic'
loop_
_space_group_symop_operation_xyz
x,y,z
-x,y,-z
-x,-y,-z
x,-y,z
loop_
_atom_site_type_symbol
_atom_site_label
_atom_site_fract_x
_atom_site_fract_y
_atom_site_fract_z
Si Si1 0.719967 0.666510 0.663693
Si Si2 0.989637 0.169977 0.380530
Si Si3 0.139255 0.667989 0.631710
Si Si4 0.859096 0.829344 0.910284
Si Si5 0.413598 0.835369 0.112488
Si Si6 0.906328 0.830581 0.102392
Si Si7 0.739381 0.835568 0.850762
O O1 0.704699 0.500000 0.707323
O O2 0.769160 0.686043 0.500284
O O3 0.633059 0.746032 0.743512
O O4 0.770699 0.737181 0.716323
O O5 0.067947 0.225835 0.237906
O O6 0.000000 0.206909 0.500000
O O7 0.915725 0.257632 0.405892
O O8 0.974506 0.000000 0.375466
O O9 0.115832 0.500000 0.665142
O O10 0.132126 0.742773 0.758454
O O11 0.776264 0.781075 0.932244
O O12 0.865489 0.000000 0.915924
O O13 0.864709 0.768073 0.030857
O O14 0.357922 0.829976 0.054819
O O15 0.424613 0.000000 0.144060
O O16 0.500000 0.766264 0.000000
O O17 0.889799 0.000000 0.139104
O O18 0.000000 0.800508 0.000000
O O19 0.769913 0.000000 0.798931
#
# Coordination Sequence:
#
# PCOD8059694 Si02
#       7
#     4   4   4   4   4   4   4
#     4   9  18  30  44  66  96 124 149 178 218 271
#     4  10  19  30  48  67  86 117 159 194 229 273
#     4  11  22  33  44  63  94 125 157 194 233 272
#     4   9  16  29  46  66  86 114 154 194 232 264
#     4   8  15  28  48  73  96 118 143 176 223 275
#     4  10  19  33  50  63  82 116 164 209 231 261
#     4   8  15  28  47  68  94 117 142 182 225 270
#
# _framework density 15.151766
#
# number of rings (size 3 to 8) (size 9 to 14) (size 15 to 20)
#    0.857    1.857    1.429    1.286    0.000    4.286 
#    0.000    1.429    0.000    0.000    0.000    1.000 
#    0.000    8.000    0.000    0.000    0.000    0.000 
#
# Total GULP energy -346880.012567 kJ/mol
# GULP energy per Si atom -12388.571877 kJ/mol
# Density = 1.511728 g / cm^3
# Si number density = 15.151766 Si / 1000 Ang^3
#
#
#
# Elastic Constant Matrix: (Units=GPa)
#
#
# Indices 1 2 3 4 5 6 
#
# 1 71.7024 31.8754 59.3314 0.0000 -2.6885 0.0000
# 2 31.8754 64.1281 51.2307 0.0000 -1.3791 0.0000
# 3 59.3314 51.2307 111.5790 0.0000 6.0140 0.0000
# 4 0.0000 0.0000 0.0000 21.4786 0.0000 -2.9732
# 5 -2.6885 -1.3791 6.0140 0.0000 24.5744 0.0000
# 6 0.0000 0.0000 0.0000 -2.9732 0.0000 10.5869
#
#
#
# Elastic Compliance Matrix: (Units=1/GPa)
#
#
# Indices 1 2 3 4 5 6 
#
# 1 0.026045 -0.002369 -0.013081 0.000000 0.005918 0.000000
# 2 -0.002369 0.025279 -0.010549 0.000000 0.003741 0.000000
# 3 -0.013081 -0.010549 0.021149 0.000000 -0.007199 0.000000
# 4 0.000000 0.000000 0.000000 0.048441 0.000000 0.013604
# 5 0.005918 0.003741 -0.007199 0.000000 0.043312 0.000000
# 6 0.000000 0.000000 0.000000 0.013604 0.000000 0.098277
#
#
# Mechanical properties :
#
#
# Convention : Reuss Voigt Hill
#
# Bulk Modulus (GPa) = 48.83542 59.14272 53.98907
# Shear Modulus (GPa) = 15.56055 18.32611 16.94333
#
# Velocity S-wave (km/s) = 3.20813 3.48156 3.34764
# Velocity P-wave (km/s) = 6.78407 7.43505 7.11701
#
# Compressibility (1/GPa) = 0.02047694
#
# Stress axis : x y z
#
# Youngs Moduli (GPa) = 38.39447 39.55896 47.28306
#
# Poissons Ratio (x) = 0.09371 0.61850
# Poissons Ratio (y) = 0.09095 0.49877
# Poissons Ratio (z) = 0.50223 0.41729
#
# Static dielectric constant tensor:
#      x y z
#    x 2.904540 0.000000 0.058610 
#    y 0.000000 2.805430 0.000000 
#    z 0.058610 0.000000 2.850230 
# 
# 
# High freq. dielectric constant tensor:
#      x y z
#    x 1.563540 0.000000 0.000880 
#    y 0.000000 1.570900 0.000000 
#    z 0.000880 0.000000 1.562990 
# 
# From -- ./inp_files/54471.got.cif
#   From: 2010.06.25/outbox.cif.g09.slc.cpg/sg10_28_cif.got.tgz:54471.got - 2010.06.27 22:07:45.
