data_PCOD8059866
_publ_section_title
;
Structure prediction by ZEFSAII (Michael W. Deem and Ramdas Pophale) SiO2 
 PCOD8059866
Probable space group: P 2/M
;
_chemical_formula_sum "Si O2"
_cell_formula_units_Z 28
_cell_length_a 13.691144
_cell_length_b 15.528064
_cell_length_c 9.520024
_cell_angle_alpha 90.000000
_cell_angle_beta 47.677510
_cell_angle_gamma 90.000000
_cell_volume 1496.425420
_symmetry_space_group_name_H-M "P 2/M"
_symmetry_group_IT_number 10
_symmetry_cell_setting 'monoclinic'
loop_
_space_group_symop_operation_xyz
x,y,z
-x,y,-z
-x,-y,-z
x,-y,z
loop_
_atom_site_type_symbol
_atom_site_label
_atom_site_fract_x
_atom_site_fract_y
_atom_site_fract_z
Si Si1 0.672325 0.362435 0.707068
Si Si2 0.041786 0.405624 0.609302
Si Si3 0.267389 0.793005 0.540545
Si Si4 0.304399 0.759945 0.827686
Si Si5 0.383460 0.401742 0.924460
Si Si6 0.495841 0.093397 0.339518
Si Si7 0.016715 0.254022 0.142886
O O1 0.800273 0.413437 0.529155
O O2 0.682807 0.266715 0.634360
O O3 0.542050 0.408187 0.774751
O O4 0.671484 0.361882 0.877175
O O5 0.978895 0.500000 0.690432
O O6 0.000000 0.366677 0.500000
O O7 0.977765 0.344682 0.785210
O O8 0.310794 0.756158 0.651648
O O9 0.345303 0.882297 0.440915
O O10 0.107506 0.805111 0.686402
O O11 0.337679 0.663057 0.845961
O O12 0.403640 0.829960 0.800143
O O13 0.159222 0.791424 0.022123
O O14 0.331095 0.500000 0.951031
O O15 0.500000 0.081195 0.500000
O O16 0.531029 0.000000 0.235958
O O17 0.000000 0.281111 0.000000
#
# Coordination Sequence:
#
# PCOD8059866 Si02
#       7
#     4   4   4   4   4   4   4
#     4  10  19  33  49  70 101 135 171 216 252 291
#     4  10  19  31  47  66  94 133 179 212 241 291
#     4   9  18  35  54  73 102 134 169 208 256 300
#     4  10  19  34  53  76 105 133 170 210 252 300
#     4  11  21  32  49  73 105 138 173 213 253 293
#     4   9  17  32  57  80 100 129 165 206 255 308
#     4   9  19  32  48  70 100 134 161 206 254 292
#
# _framework density 18.711258000000001
#
# number of rings (size 3 to 8) (size 9 to 14) (size 15 to 20)
#    0.000    2.286    1.429    2.571    0.000    2.000 
#    0.000    8.571    0.000    6.000    0.000    0.000 
#    0.000    6.286    0.000    0.000    0.000    0.000 
#
# Total GULP energy -346926.873133 kJ/mol
# GULP energy per Si atom -12390.245469 kJ/mol
# Density = 1.866867 g / cm^3
# Si number density = 18.711258 Si / 1000 Ang^3
#
#
#
# Elastic Constant Matrix: (Units=GPa)
#
#
# Indices 1 2 3 4 5 6 
#
# 1 64.8995 43.4703 24.5683 0.0000 -15.8071 0.0000
# 2 43.4703 116.4292 41.2707 0.0000 -9.7984 0.0000
# 3 24.5683 41.2707 72.5226 0.0000 -16.1994 0.0000
# 4 0.0000 0.0000 0.0000 -3.5086 0.0000 -8.0649
# 5 -15.8071 -9.7984 -16.1994 0.0000 23.0838 0.0000
# 6 0.0000 0.0000 0.0000 -8.0649 0.0000 -1.7721
#
#
#
# Elastic Compliance Matrix: (Units=1/GPa)
#
#
# Indices 1 2 3 4 5 6 
#
# 1 0.023843 -0.007487 -0.001043 0.000000 0.012417 0.000000
# 2 -0.007487 0.013113 -0.005725 0.000000 -0.003579 0.000000
# 3 -0.001043 -0.005725 0.019802 0.000000 0.010752 0.000000
# 4 0.000000 0.000000 0.000000 0.030124 0.000000 -0.137099
# 5 0.012417 -0.003579 0.010752 0.000000 0.057850 0.000000
# 6 0.000000 0.000000 0.000000 -0.137099 0.000000 0.059645
#
#
# Mechanical properties :
#
#
# Convention : Reuss Voigt Hill
#
# Bulk Modulus (GPa) = 35.40220 52.49664 43.94942
# Shear Modulus (GPa) = 20.63552 13.19675 16.91613
#
# Velocity S-wave (km/s) = 3.32451 2.65860 3.01002
# Velocity P-wave (km/s) = 5.80498 6.12709 5.96821
#
# Compressibility (1/GPa) = 0.02824683
#
# Stress axis : x y z
#
# Youngs Moduli (GPa) = 41.94189 76.26295 50.50093
#
# Poissons Ratio (x) = 0.57101 0.05266
# Poissons Ratio (y) = 0.31403 0.28911
# Poissons Ratio (z) = 0.04373 0.43660
#
# Static dielectric constant tensor:
#      x y z
#    x 3.673880 0.000000 -0.306720 
#    y 0.000000 3.392910 0.000000 
#    z -0.306720 0.000000 3.518250 
# 
# 
# High freq. dielectric constant tensor:
#      x y z
#    x 1.730800 0.000000 -0.022810 
#    y 0.000000 1.694040 0.000000 
#    z -0.022810 0.000000 1.720780 
# 
# From -- ./inp_files/29401.got.cif
#   From: 2010.06.25/outbox.cif.g09.slc.cpg/sg10_15_cif.got.tgz:29401.got - 2010.06.27 22:07:45.
