data_PCOD8059456
_publ_section_title
;
Structure prediction by ZEFSAII (Michael W. Deem and Ramdas Pophale) SiO2 
 PCOD8059456
Probable space group: P 2/M
;
_chemical_formula_sum "Si O2"
_cell_formula_units_Z 28
_cell_length_a 22.625082
_cell_length_b 13.745736
_cell_length_c 22.606765
_cell_angle_alpha 90.000000
_cell_angle_beta 166.866900
_cell_angle_gamma 90.000000
_cell_volume 1597.465736
_symmetry_space_group_name_H-M "P 2/M"
_symmetry_group_IT_number 10
_symmetry_cell_setting 'monoclinic'
loop_
_space_group_symop_operation_xyz
x,y,z
-x,y,-z
-x,-y,-z
x,-y,z
loop_
_atom_site_type_symbol
_atom_site_label
_atom_site_fract_x
_atom_site_fract_y
_atom_site_fract_z
Si Si1 0.676228 0.609184 0.347979
Si Si2 0.233942 0.196950 0.769064
Si Si3 0.549233 0.884880 0.410921
Si Si4 0.354710 0.195612 0.622899
Si Si5 0.980313 0.114770 0.046548
Si Si6 0.175701 0.114740 0.842873
Si Si7 0.784120 0.608786 0.192192
O O1 0.659396 0.500000 0.358260
O O2 0.657325 0.687329 0.382191
O O3 0.944648 0.625736 0.575946
O O4 0.444502 0.628823 0.076766
O O5 0.195908 0.155665 0.796946
O O6 0.239307 0.314831 0.777103
O O7 0.000000 0.160321 0.500000
O O8 0.500000 0.157497 0.000000
O O9 0.605501 0.826399 0.406617
O O10 0.766119 0.855488 0.669850
O O11 0.549785 0.000000 0.398021
O O12 0.275475 0.846873 0.169407
O O13 0.091658 0.146434 0.388279
O O14 0.589133 0.153321 0.889124
O O15 0.955177 0.000000 0.016097
O O16 0.000000 0.160703 0.000000
O O17 0.189836 0.000000 0.854238
O O18 0.765454 0.500000 0.200771
#
# Coordination Sequence:
#
# PCOD8059456 Si02
#       7
#     4   4   4   4   4   4   4
#     4  10  19  35  59  80 103 134 166 205 267 329
#     4  12  24  38  57  76 102 129 174 219 260 320
#     4  10  19  29  47  76 104 137 177 211 247 295
#     4  12  21  38  58  80 109 136 173 223 265 310
#     4   9  17  30  46  68 105 146 178 209 246 288
#     4  12  25  40  57  76 102 142 177 214 268 313
#     4  10  20  37  57  79 102 128 164 210 269 328
#
# _framework density 17.527761999999999
#
# number of rings (size 3 to 8) (size 9 to 14) (size 15 to 20)
#    0.000    1.286    2.857    4.286    0.000    4.000 
#    0.000    0.000    0.000    0.000    0.000    0.000 
#    0.000    3.429    0.000    0.000    0.000    0.000 
#
# Total GULP energy -347263.540996 kJ/mol
# GULP energy per Si atom -12402.269321 kJ/mol
# Density = 1.748787 g / cm^3
# Si number density = 17.527762 Si / 1000 Ang^3
#
#
#
# Elastic Constant Matrix: (Units=GPa)
#
#
# Indices 1 2 3 4 5 6 
#
# 1 86.1286 11.4602 9.8589 0.0000 11.3687 0.0000
# 2 11.4602 56.2498 8.1577 0.0000 -0.7073 0.0000
# 3 9.8589 8.1577 99.5270 0.0000 18.8092 0.0000
# 4 0.0000 0.0000 0.0000 18.7590 0.0000 0.3597
# 5 11.3687 -0.7073 18.8092 0.0000 27.6108 0.0000
# 6 0.0000 0.0000 0.0000 0.3597 0.0000 18.1213
#
#
#
# Elastic Compliance Matrix: (Units=1/GPa)
#
#
# Indices 1 2 3 4 5 6 
#
# 1 0.012660 -0.002639 -0.000046 0.000000 -0.005249 0.000000
# 2 -0.002639 0.018610 -0.001790 0.000000 0.002782 0.000000
# 3 -0.000046 -0.001790 0.011712 0.000000 -0.008005 0.000000
# 4 0.000000 0.000000 0.000000 0.053328 0.000000 -0.001059
# 5 -0.005249 0.002782 -0.008005 0.000000 0.043904 0.000000
# 6 0.000000 0.000000 0.000000 -0.001059 0.000000 0.055205
#
#
# Mechanical properties :
#
#
# Convention : Reuss Voigt Hill
#
# Bulk Modulus (GPa) = 29.38334 33.42878 31.40606
# Shear Modulus (GPa) = 23.17923 27.06013 25.11968
#
# Velocity S-wave (km/s) = 3.64047 3.93344 3.78979
# Velocity P-wave (km/s) = 5.87120 6.30417 6.09153
#
# Compressibility (1/GPa) = 0.03403289
#
# Stress axis : x y z
#
# Youngs Moduli (GPa) = 78.99057 53.73455 85.38520
#
# Poissons Ratio (x) = 0.14179 0.00391
# Poissons Ratio (y) = 0.20843 0.15282
# Poissons Ratio (z) = 0.00362 0.09618
#
# Static dielectric constant tensor:
#      x y z
#    x 3.245520 0.000000 0.083610 
#    y 0.000000 3.323720 0.000000 
#    z 0.083610 0.000000 3.574320 
# 
# 
# High freq. dielectric constant tensor:
#      x y z
#    x 1.663880 0.000000 0.005090 
#    y 0.000000 1.653730 0.000000 
#    z 0.005090 0.000000 1.708300 
# 
# From -- ./inp_files/90960.got.cif
#   From: 2010.06.25/outbox.cif.g09.slc.cpg/sg10_46_cif.got.tgz:90960.got - 2010.06.27 22:07:45.
