data_PCOD8059563
_publ_section_title
;
Structure prediction by ZEFSAII (Michael W. Deem and Ramdas Pophale) SiO2 
 PCOD8059563
Probable space group: P 2/M
;
_chemical_formula_sum "Si O2"
_cell_formula_units_Z 24
_cell_length_a 31.004069
_cell_length_b 7.884723
_cell_length_c 14.146976
_cell_angle_alpha 90.000000
_cell_angle_beta 156.074472
_cell_angle_gamma 90.000000
_cell_volume 1402.529386
_symmetry_space_group_name_H-M "P 2/M"
_symmetry_group_IT_number 10
_symmetry_cell_setting 'monoclinic'
loop_
_space_group_symop_operation_xyz
x,y,z
-x,y,-z
-x,-y,-z
x,-y,z
loop_
_atom_site_type_symbol
_atom_site_label
_atom_site_fract_x
_atom_site_fract_y
_atom_site_fract_z
Si Si1 0.375742 0.188896 0.481927
Si Si2 0.990246 0.313340 0.869130
Si Si3 0.377686 0.803986 0.016037
Si Si4 0.230862 0.190732 0.550411
Si Si5 0.374984 0.500000 0.143049
Si Si6 0.777828 0.694120 0.673653
Si Si7 0.372946 0.500000 0.349571
O O1 0.497770 0.222775 0.753707
O O2 0.308579 0.196338 0.443828
O O3 0.333514 0.329211 0.323340
O O4 0.363342 0.000000 0.412883
O O5 0.973941 0.500000 0.791995
O O6 0.886519 0.202918 0.636097
O O7 0.000000 0.329586 0.000000
O O8 0.103493 0.235555 0.061481
O O9 0.337753 0.673157 0.016507
O O10 0.352113 0.000000 0.993935
O O11 0.318201 0.751181 0.801001
O O12 0.242491 0.302079 0.479678
O O13 0.251441 0.000000 0.559772
O O14 0.324396 0.500000 0.146676
O O15 0.501028 0.500000 0.403115
O O16 0.767864 0.500000 0.685855
#
# Coordination Sequence:
#
# PCOD8059563 Si02
#       7
#     4   4   4   4   2   4   2
#     4  10  19  33  50  70 101 129 156 196 237 282
#     4   8  16  29  44  64  91 124 163 204 234 266
#     4   9  20  33  47  74 101 125 160 195 232 286
#     4  10  19  30  45  68  99 130 164 198 230 277
#     4   9  18  32  55  68  95 128 151 198 245 287
#     4  10  19  31  46  68  99 130 166 200 230 277
#     4   9  18  34  49  76  93 118 165 194 239 291
#
# _framework density 17.111941000000002
#
# number of rings (size 3 to 8) (size 9 to 14) (size 15 to 20)
#    0.000    2.667    0.833    2.000    2.333    5.000 
#    0.000    6.667    0.000    0.000    0.000    2.333 
#    0.000    4.000    0.000    0.000    0.000    0.000 
#
# Total GULP energy -297424.300249 kJ/mol
# GULP energy per Si atom -12392.679177 kJ/mol
# Density = 1.707299 g / cm^3
# Si number density = 17.111941 Si / 1000 Ang^3
#
#
#
# Elastic Constant Matrix: (Units=GPa)
#
#
# Indices 1 2 3 4 5 6 
#
# 1 80.9244 43.2420 51.6671 0.0000 -6.5200 0.0000
# 2 43.2420 89.4002 32.8872 0.0000 -4.0987 0.0000
# 3 51.6671 32.8872 54.0200 0.0000 6.6167 0.0000
# 4 0.0000 0.0000 0.0000 22.2281 0.0000 0.4596
# 5 -6.5200 -4.0987 6.6167 0.0000 12.6469 0.0000
# 6 0.0000 0.0000 0.0000 0.4596 0.0000 20.6224
#
#
#
# Elastic Compliance Matrix: (Units=1/GPa)
#
#
# Indices 1 2 3 4 5 6 
#
# 1 0.057396 -0.002668 -0.060679 0.000000 0.060471 0.000000
# 2 -0.002668 0.015798 -0.008040 0.000000 0.007951 0.000000
# 3 -0.060679 -0.008040 0.091454 0.000000 -0.081735 0.000000
# 4 0.000000 0.000000 0.000000 0.045009 0.000000 -0.001003
# 5 0.060471 0.007951 -0.081735 0.000000 0.155586 0.000000
# 6 0.000000 0.000000 0.000000 -0.001003 0.000000 0.048513
#
#
# Mechanical properties :
#
#
# Convention : Reuss Voigt Hill
#
# Bulk Modulus (GPa) = 45.71556 53.32635 49.52095
# Shear Modulus (GPa) = 8.86807 17.53603 13.20205
#
# Velocity S-wave (km/s) = 2.27895 3.20470 2.78062
# Velocity P-wave (km/s) = 5.80504 6.70256 6.26988
#
# Compressibility (1/GPa) = 0.02187439
#
# Stress axis : x y z
#
# Youngs Moduli (GPa) = 17.42286 63.29779 10.93449
#
# Poissons Ratio (x) = 0.16886 0.66349
# Poissons Ratio (y) = 0.04648 0.08792
# Poissons Ratio (z) = 1.05720 0.50894
#
# Static dielectric constant tensor:
#      x y z
#    x 3.107620 0.000000 0.149390 
#    y 0.000000 3.307020 0.000000 
#    z 0.149390 0.000000 3.196700 
# 
# 
# High freq. dielectric constant tensor:
#      x y z
#    x 1.627300 0.000000 0.012250 
#    y 0.000000 1.672530 0.000000 
#    z 0.012250 0.000000 1.637530 
# 
# From -- ./inp_files/45228.got.cif
#   From: 2010.06.25/outbox.cif.g09.slc.cpg/sg10_23_cif.got.tgz:45228.got - 2010.06.27 22:07:45.
