data_PCOD8059835
_publ_section_title
;
Structure prediction by ZEFSAII (Michael W. Deem and Ramdas Pophale) SiO2 
 PCOD8059835
Probable space group: P 2/M
;
_chemical_formula_sum "Si O2"
_cell_formula_units_Z 28
_cell_length_a 28.147088
_cell_length_b 13.703219
_cell_length_c 25.532497
_cell_angle_alpha 90.000000
_cell_angle_beta 170.262002
_cell_angle_gamma 90.000000
_cell_volume 1665.725829
_symmetry_space_group_name_H-M "P 2/M"
_symmetry_group_IT_number 10
_symmetry_cell_setting 'monoclinic'
loop_
_space_group_symop_operation_xyz
x,y,z
-x,y,-z
-x,-y,-z
x,-y,z
loop_
_atom_site_type_symbol
_atom_site_label
_atom_site_fract_x
_atom_site_fract_y
_atom_site_fract_z
Si Si1 0.632805 0.616383 0.198161
Si Si2 0.825631 0.612864 0.004135
Si Si3 0.616870 0.889238 0.685447
Si Si4 0.891088 0.792544 0.826322
Si Si5 0.225586 0.388310 0.170129
Si Si6 0.550061 0.616606 0.311187
Si Si7 0.265388 0.383812 0.895518
O O1 0.633707 0.500000 0.199329
O O2 0.949084 0.656659 0.547121
O O3 0.500000 0.655927 0.000000
O O4 0.448201 0.656601 0.045754
O O5 0.858769 0.500000 0.054577
O O6 0.135597 0.660482 0.344908
O O7 0.698673 0.625621 0.808314
O O8 0.615758 0.660173 0.818675
O O9 0.500000 0.880393 0.500000
O O10 0.437725 0.822393 0.531930
O O11 0.615465 0.000000 0.704331
O O12 0.934176 0.846710 0.029996
O O13 0.000000 0.833685 0.000000
O O14 0.953196 0.675879 0.889889
O O15 0.500000 0.351658 0.500000
O O16 0.148287 0.500000 0.099819
O O17 0.558066 0.500000 0.322235
O O18 0.399670 0.654529 0.095287
O O19 0.263476 0.500000 0.892505
#
# Coordination Sequence:
#
# PCOD8059835 Si02
#       7
#     4   4   4   4   4   4   4
#     4   9  15  21  29  44  65  85 103 125 162 216
#     4   9  18  30  42  54  68  89 120 157 191 225
#     4   9  17  30  48  67  85 103 124 154 190 228
#     4  10  19  31  46  65  85 105 130 156 188 239
#     4  10  21  35  48  62  83 110 136 164 203 252
#     4   9  16  27  40  52  64  82 115 154 187 217
#     4   9  15  22  33  46  61  82 106 136 172 210
#
# _framework density 16.809488999999999
#
# number of rings (size 3 to 8) (size 9 to 14) (size 15 to 20)
#    0.000    2.714    0.000    3.000    0.000    9.429 
#    0.000    5.000    0.000    0.429    0.000    0.000 
#    0.000    0.000    0.000    0.000    0.000    0.000 
#
# Total GULP energy -347067.398662 kJ/mol
# GULP energy per Si atom -12395.264238 kJ/mol
# Density = 1.677123 g / cm^3
# Si number density = 16.809489 Si / 1000 Ang^3
#
#
#
# Elastic Constant Matrix: (Units=GPa)
#
#
# Indices 1 2 3 4 5 6 
#
# 1 121.8179 12.1528 67.8097 0.0000 14.7559 0.0000
# 2 12.1528 58.4595 12.3812 0.0000 13.3871 0.0000
# 3 67.8097 12.3812 102.5997 0.0000 14.9818 0.0000
# 4 0.0000 0.0000 0.0000 6.8423 0.0000 8.4715
# 5 14.7559 13.3871 14.9818 0.0000 41.3000 0.0000
# 6 0.0000 0.0000 0.0000 8.4715 0.0000 8.8459
#
#
#
# Elastic Compliance Matrix: (Units=1/GPa)
#
#
# Indices 1 2 3 4 5 6 
#
# 1 0.013110 -0.000620 -0.008379 0.000000 -0.001443 0.000000
# 2 -0.000620 0.018708 -0.001050 0.000000 -0.005461 0.000000
# 3 -0.008379 -0.001050 0.015759 0.000000 -0.002383 0.000000
# 4 0.000000 0.000000 0.000000 -0.786989 0.000000 0.753677
# 5 -0.001443 -0.005461 -0.002383 0.000000 0.027363 0.000000
# 6 0.000000 0.000000 0.000000 0.753677 0.000000 -0.608729
#
#
# Mechanical properties :
#
#
# Convention : Reuss Voigt Hill
#
# Bulk Modulus (GPa) = 36.39251 51.95161 44.17206
# Shear Modulus (GPa) = -3.87141 24.09986 10.11422
#
# Velocity S-wave (km/s) = -1.51925 3.79054 2.45561
# Velocity P-wave (km/s) = 4.31503 7.08031 5.86303
#
# Compressibility (1/GPa) = 0.02747818
#
# Stress axis : x y z
#
# Youngs Moduli (GPa) = 76.27910 53.45339 63.45604
#
# Poissons Ratio (x) = 0.03315 0.53169
# Poissons Ratio (y) = 0.04731 0.06664
# Poissons Ratio (z) = 0.63913 0.05614
#
# Static dielectric constant tensor:
#      x y z
#    x 3.324100 0.000000 0.287840 
#    y 0.000000 2.591340 0.000000 
#    z 0.287840 0.000000 3.312100 
# 
# 
# High freq. dielectric constant tensor:
#      x y z
#    x 1.646190 0.000000 0.029290 
#    y 0.000000 1.564090 0.000000 
#    z 0.029290 0.000000 1.649780 
# 
# From -- ./inp_files/91290.got.cif
#   From: 2010.06.25/outbox.cif.g09.slc.cpg/sg10_46_cif.got.tgz:91290.got - 2010.06.27 22:07:45.
