data_PCOD8059868
_publ_section_title
;
Structure prediction by ZEFSAII (Michael W. Deem and Ramdas Pophale) SiO2 
 PCOD8059868
Probable space group: P 2/M
;
_chemical_formula_sum "Si O2"
_cell_formula_units_Z 28
_cell_length_a 18.680350
_cell_length_b 9.268914
_cell_length_c 14.385820
_cell_angle_alpha 90.000000
_cell_angle_beta 40.011456
_cell_angle_gamma 90.000000
_cell_volume 1601.472352
_symmetry_space_group_name_H-M "P 2/M"
_symmetry_group_IT_number 10
_symmetry_cell_setting 'monoclinic'
loop_
_space_group_symop_operation_xyz
x,y,z
-x,y,-z
-x,-y,-z
x,-y,z
loop_
_atom_site_type_symbol
_atom_site_label
_atom_site_fract_x
_atom_site_fract_y
_atom_site_fract_z
Si Si1 0.369079 0.840519 0.627266
Si Si2 0.180325 0.835733 0.567392
Si Si3 0.148326 0.665466 0.104758
Si Si4 0.626042 0.669260 0.559342
Si Si5 0.011217 0.832126 0.383394
Si Si6 0.994098 0.167796 0.898046
Si Si7 0.375029 0.336573 0.797291
O O1 0.500000 0.856991 0.500000
O O2 0.334450 0.742036 0.575724
O O3 0.329776 0.764863 0.760431
O O4 0.313443 0.000000 0.674255
O O5 0.289507 0.735015 0.448718
O O6 0.112146 0.803846 0.730154
O O7 0.104066 0.800902 0.554452
O O8 0.221603 0.000000 0.524452
O O9 0.108302 0.500000 0.146270
O O10 0.109997 0.743913 0.236644
O O11 0.099626 0.739120 0.060472
O O12 0.283300 0.675155 0.969643
O O13 0.644258 0.500000 0.534120
O O14 0.497825 0.709136 0.712043
O O15 0.000000 0.778729 0.500000
O O16 0.043117 0.000000 0.346058
O O17 0.960961 0.000000 0.921780
O O18 0.000000 0.215398 0.000000
O O19 0.383382 0.500000 0.750167
#
# Coordination Sequence:
#
# PCOD8059868 Si02
#       7
#     4   4   4   4   4   4   4
#     4   9  17  28  43  64  90 128 177 215 240 274
#     4   9  18  32  50  75 101 125 164 209 248 297
#     4  10  20  33  51  77 103 128 167 210 249 297
#     4  10  19  31  47  67 100 139 171 203 245 293
#     4   9  19  38  61  80  99 125 158 203 261 315
#     4   9  19  34  49  68  99 138 171 207 255 298
#     4   9  19  33  46  67 101 138 170 205 246 289
#
# _framework density 17.483910999999999
#
# number of rings (size 3 to 8) (size 9 to 14) (size 15 to 20)
#    0.000    2.714    0.000    2.143    2.000    6.286 
#    0.000    0.000    0.000    0.857    0.000    6.000 
#    0.000    0.000    0.000    0.000    0.000    0.000 
#
# Total GULP energy -347115.529346 kJ/mol
# GULP energy per Si atom -12396.983191 kJ/mol
# Density = 1.744412 g / cm^3
# Si number density = 17.483911 Si / 1000 Ang^3
#
#
#
# Elastic Constant Matrix: (Units=GPa)
#
#
# Indices 1 2 3 4 5 6 
#
# 1 91.9789 47.3201 63.7988 0.0000 7.3776 0.0000
# 2 47.3201 94.4209 54.4807 0.0000 -4.5283 0.0000
# 3 63.7988 54.4807 100.6983 0.0000 0.9562 0.0000
# 4 0.0000 0.0000 0.0000 22.7748 0.0000 -4.8706
# 5 7.3776 -4.5283 0.9562 0.0000 30.2269 0.0000
# 6 0.0000 0.0000 0.0000 -4.8706 0.0000 22.6407
#
#
#
# Elastic Compliance Matrix: (Units=1/GPa)
#
#
# Indices 1 2 3 4 5 6 
#
# 1 0.021271 -0.004624 -0.010923 0.000000 -0.005539 0.000000
# 2 -0.004624 0.016605 -0.006091 0.000000 0.003809 0.000000
# 3 -0.010923 -0.006091 0.020135 0.000000 0.001116 0.000000
# 4 0.000000 0.000000 0.000000 0.046026 0.000000 0.009901
# 5 -0.005539 0.003809 0.001116 0.000000 0.034970 0.000000
# 6 0.000000 0.000000 0.000000 0.009901 0.000000 0.046298
#
#
# Mechanical properties :
#
#
# Convention : Reuss Voigt Hill
#
# Bulk Modulus (GPa) = 67.85173 68.69970 68.27571
# Shear Modulus (GPa) = 21.41402 23.22837 22.32120
#
# Velocity S-wave (km/s) = 3.50349 3.64889 3.57693
# Velocity P-wave (km/s) = 7.43359 7.55850 7.49631
#
# Compressibility (1/GPa) = 0.01473802
#
# Stress axis : x y z
#
# Youngs Moduli (GPa) = 47.01197 60.22288 49.66394
#
# Poissons Ratio (x) = 0.27845 0.54246
# Poissons Ratio (y) = 0.21737 0.30248
# Poissons Ratio (z) = 0.51349 0.36679
#
# Static dielectric constant tensor:
#      x y z
#    x 3.136400 0.000000 -0.097780 
#    y 0.000000 3.353130 0.000000 
#    z -0.097780 0.000000 3.148800 
# 
# 
# High freq. dielectric constant tensor:
#      x y z
#    x 1.652270 0.000000 -0.018590 
#    y 0.000000 1.682940 0.000000 
#    z -0.018590 0.000000 1.660940 
# 
# From -- ./inp_files/54716.got.cif
#   From: 2010.06.25/outbox.cif.g09.slc.cpg/sg10_28_cif.got.tgz:54716.got - 2010.06.27 22:07:45.
