data_PCOD8059219
_publ_section_title
;
Structure prediction by ZEFSAII (Michael W. Deem and Ramdas Pophale) SiO2 
 PCOD8059219
Probable space group: P 2/M
;
_chemical_formula_sum "Si O2"
_cell_formula_units_Z 32
_cell_length_a 17.052094
_cell_length_b 16.947960
_cell_length_c 11.186635
_cell_angle_alpha 90.000000
_cell_angle_beta 146.598386
_cell_angle_gamma 90.000000
_cell_volume 1779.734824
_symmetry_space_group_name_H-M "P 2/M"
_symmetry_group_IT_number 10
_symmetry_cell_setting 'monoclinic'
loop_
_space_group_symop_operation_xyz
x,y,z
-x,y,-z
-x,-y,-z
x,-y,z
loop_
_atom_site_type_symbol
_atom_site_label
_atom_site_fract_x
_atom_site_fract_y
_atom_site_fract_z
Si Si1 0.660370 0.801924 0.200843
Si Si2 0.142313 0.321203 0.121762
Si Si3 0.654625 0.724762 0.954677
Si Si4 0.133394 0.181784 0.934381
Si Si5 0.346386 0.908828 0.357602
Si Si6 0.911862 0.911344 0.508286
Si Si7 0.341559 0.776289 0.533633
Si Si8 0.360898 0.591758 0.246254
O O1 0.758163 0.874424 0.283458
O O2 0.707490 0.773302 0.391386
O O3 0.500000 0.835100 0.000000
O O4 0.671293 0.728389 0.120502
O O5 0.258016 0.295400 0.366694
O O6 0.217861 0.387593 0.137461
O O7 0.092657 0.244868 0.983784
O O8 0.000000 0.357860 0.000000
O O9 0.509587 0.766431 0.731087
O O10 0.647363 0.636296 0.892170
O O11 0.786422 0.772831 0.069289
O O12 0.988754 0.142616 0.704536
O O13 0.232143 0.112122 0.110624
O O14 0.500000 0.886540 0.500000
O O15 0.308617 0.859945 0.429103
O O16 0.335665 0.000000 0.378668
O O17 0.000000 0.912716 0.500000
O O18 0.892218 0.000000 0.532814
O O19 0.500000 0.617402 0.500000
O O20 0.364875 0.500000 0.221241
#
# Coordination Sequence:
#
# PCOD8059219 Si02
#       8
#     4   4   4   4   4   4   4   4
#     4  10  22  37  56  78 106 149 193 232 276 327
#     4  10  20  33  56  85 114 145 177 226 274 327
#     4  10  18  35  56  81 107 141 184 228 264 323
#     4  10  19  33  55  77 108 146 190 230 281 327
#     4  10  19  30  50  78 110 145 183 236 289 330
#     4  11  22  36  52  76 111 147 189 238 284 327
#     4  10  19  34  54  78 111 141 188 229 274 325
#     4  10  20  35  61  89 114 144 175 218 277 335
#
# _framework density 17.980205999999999
#
# number of rings (size 3 to 8) (size 9 to 14) (size 15 to 20)
#    0.000    1.875    3.750    1.125    0.000    1.000 
#    0.000    1.875    0.000    8.250    0.000   11.375 
#    0.000    0.000    0.000    0.000    0.000    0.000 
#
# Total GULP energy -396750.974097 kJ/mol
# GULP energy per Si atom -12398.467941 kJ/mol
# Density = 1.793928 g / cm^3
# Si number density = 17.980206 Si / 1000 Ang^3
#
#
#
# Elastic Constant Matrix: (Units=GPa)
#
#
# Indices 1 2 3 4 5 6 
#
# 1 96.4692 40.8702 36.6486 0.0000 -5.1163 0.0000
# 2 40.8702 90.0778 35.8836 0.0000 -7.7273 0.0000
# 3 36.6486 35.8836 78.2006 0.0000 -4.2169 0.0000
# 4 0.0000 0.0000 0.0000 24.7781 0.0000 -0.1781
# 5 -5.1163 -7.7273 -4.2169 0.0000 36.1084 0.0000
# 6 0.0000 0.0000 0.0000 -0.1781 0.0000 13.5458
#
#
#
# Elastic Compliance Matrix: (Units=1/GPa)
#
#
# Indices 1 2 3 4 5 6 
#
# 1 0.014007 -0.004538 -0.004456 0.000000 0.000493 0.000000
# 2 -0.004538 0.015230 -0.004750 0.000000 0.002061 0.000000
# 3 -0.004456 -0.004750 0.017074 0.000000 0.000346 0.000000
# 4 0.000000 0.000000 0.000000 0.040362 0.000000 0.000531
# 5 0.000493 0.002061 0.000346 0.000000 0.028246 0.000000
# 6 0.000000 0.000000 0.000000 0.000531 0.000000 0.073831
#
#
# Mechanical properties :
#
#
# Convention : Reuss Voigt Hill
#
# Bulk Modulus (GPa) = 53.12642 54.61693 53.87168
# Shear Modulus (GPa) = 22.47061 24.97616 23.72338
#
# Velocity S-wave (km/s) = 3.53900 3.73110 3.63632
# Velocity P-wave (km/s) = 6.80520 7.00025 6.90341
#
# Compressibility (1/GPa) = 0.01882303
#
# Stress axis : x y z
#
# Youngs Moduli (GPa) = 71.39036 65.66050 58.56794
#
# Poissons Ratio (x) = 0.29798 0.26095
# Poissons Ratio (y) = 0.32399 0.27822
# Poissons Ratio (z) = 0.31808 0.31192
#
# Static dielectric constant tensor:
#      x y z
#    x 3.372280 0.000000 -0.004490 
#    y 0.000000 3.049110 0.000000 
#    z -0.004490 0.000000 3.373400 
# 
# 
# High freq. dielectric constant tensor:
#      x y z
#    x 1.702060 0.000000 0.004760 
#    y 0.000000 1.665900 0.000000 
#    z 0.004760 0.000000 1.700520 
# 
# From -- ./inp_files/47826.got.cif
#   From: 2010.06.25/outbox.cif.g09.slc.cpg/sg10_24_cif.got.tgz:47826.got - 2010.06.27 22:07:45.
