data_PCOD8059918
_publ_section_title
;
Structure prediction by ZEFSAII (Michael W. Deem and Ramdas Pophale) SiO2 
 PCOD8059918
Probable space group: P 2/M
;
_chemical_formula_sum "Si O2"
_cell_formula_units_Z 20
_cell_length_a 12.323489
_cell_length_b 9.538641
_cell_length_c 12.093017
_cell_angle_alpha 90.000000
_cell_angle_beta 118.745651
_cell_angle_gamma 90.000000
_cell_volume 1246.341892
_symmetry_space_group_name_H-M "P 2/M"
_symmetry_group_IT_number 10
_symmetry_cell_setting 'monoclinic'
loop_
_space_group_symop_operation_xyz
x,y,z
-x,y,-z
-x,-y,-z
x,-y,z
loop_
_atom_site_type_symbol
_atom_site_label
_atom_site_fract_x
_atom_site_fract_y
_atom_site_fract_z
Si Si1 0.063846 0.665639 0.417590
Si Si2 0.402713 0.665577 0.296112
Si Si3 0.800089 0.161381 0.900220
Si Si4 0.336272 0.334656 0.506945
Si Si5 0.995073 0.838068 0.177220
O O1 0.055516 0.500000 0.392684
O O2 0.206466 0.718477 0.493231
O O3 0.000000 0.710150 0.500000
O O4 0.992346 0.741719 0.283747
O O5 0.385511 0.500000 0.271155
O O6 0.323868 0.744968 0.163852
O O7 0.547630 0.711260 0.359141
O O8 0.352546 0.719944 0.390007
O O9 0.891868 0.206190 0.846370
O O10 0.762386 0.000000 0.869038
O O11 0.866560 0.187317 0.049899
O O12 0.339138 0.500000 0.501085
O O13 0.007816 0.000000 0.218325
#
# Coordination Sequence:
#
# PCOD8059918 Si02
#       5
#     4   4   4   4   4
#     4  10  19  31  48  68  91 118 151 188 217 255
#     4   9  15  26  46  66  89 119 145 178 225 272
#     4   9  17  29  45  67  94 118 144 185 228 263
#     4   8  15  27  42  65  93 117 144 179 225 266
#     4   9  18  31  45  64  93 123 147 179 227 270
#
# _framework density 16.046961
#
# number of rings (size 3 to 8) (size 9 to 14) (size 15 to 20)
#    0.000    3.000    2.000    2.400    0.000    1.200 
#    0.000    5.000    0.000    1.200    0.000    8.400 
#    0.000    0.000    0.000    0.000    0.000    0.000 
#
# Total GULP energy -247897.502530 kJ/mol
# GULP energy per Si atom -12394.875126 kJ/mol
# Density = 1.601044 g / cm^3
# Si number density = 16.046961 Si / 1000 Ang^3
#
#
#
# Elastic Constant Matrix: (Units=GPa)
#
#
# Indices 1 2 3 4 5 6 
#
# 1 93.9945 30.3150 55.2289 0.0000 11.2396 0.0000
# 2 30.3150 47.1106 50.1272 0.0000 7.6904 0.0000
# 3 55.2289 50.1272 105.9187 0.0000 13.6309 0.0000
# 4 0.0000 0.0000 0.0000 29.5776 0.0000 1.6869
# 5 11.2396 7.6904 13.6309 0.0000 30.3521 0.0000
# 6 0.0000 0.0000 0.0000 1.6869 0.0000 8.9282
#
#
#
# Elastic Compliance Matrix: (Units=1/GPa)
#
#
# Indices 1 2 3 4 5 6 
#
# 1 0.015646 -0.002681 -0.006613 0.000000 -0.002144 0.000000
# 2 -0.002681 0.043316 -0.018910 0.000000 -0.001490 0.000000
# 3 -0.006613 -0.018910 0.022190 0.000000 -0.002725 0.000000
# 4 0.000000 0.000000 0.000000 0.034178 0.000000 -0.006458
# 5 -0.002144 -0.001490 -0.002725 0.000000 0.035342 0.000000
# 6 0.000000 0.000000 0.000000 -0.006458 0.000000 0.113225
#
#
# Mechanical properties :
#
#
# Convention : Reuss Voigt Hill
#
# Bulk Modulus (GPa) = 40.41611 57.59623 49.00617
# Shear Modulus (GPa) = 15.21825 21.19509 18.20667
#
# Velocity S-wave (km/s) = 3.08288 3.63825 3.37202
# Velocity P-wave (km/s) = 6.15736 7.32252 6.76507
#
# Compressibility (1/GPa) = 0.02474261
#
# Stress axis : x y z
#
# Youngs Moduli (GPa) = 63.91456 23.08617 45.06591
#
# Poissons Ratio (x) = 0.06189 0.29804
# Poissons Ratio (y) = 0.17135 0.85220
# Poissons Ratio (z) = 0.42269 0.43656
#
# Static dielectric constant tensor:
#      x y z
#    x 3.158330 0.000000 0.275670 
#    y 0.000000 2.790000 0.000000 
#    z 0.275670 0.000000 2.940720 
# 
# 
# High freq. dielectric constant tensor:
#      x y z
#    x 1.597120 0.000000 0.027830 
#    y 0.000000 1.598130 0.000000 
#    z 0.027830 0.000000 1.606840 
# 
# From -- ./inp_files/23456.got.cif
#   From: 2010.06.25/outbox.cif.g09.slc.cpg/sg10_12_cif.got.tgz:23456.got - 2010.06.27 22:07:45.
