data_PCOD8059249
_publ_section_title
;
Structure prediction by ZEFSAII (Michael W. Deem and Ramdas Pophale) SiO2 
 PCOD8059249
Probable space group: P 2/M
;
_chemical_formula_sum "Si O2"
_cell_formula_units_Z 32
_cell_length_a 10.841625
_cell_length_b 17.623653
_cell_length_c 14.180385
_cell_angle_alpha 90.000000
_cell_angle_beta 30.916341
_cell_angle_gamma 90.000000
_cell_volume 1392.068367
_symmetry_space_group_name_H-M "P 2/M"
_symmetry_group_IT_number 10
_symmetry_cell_setting 'monoclinic'
loop_
_space_group_symop_operation_xyz
x,y,z
-x,y,-z
-x,-y,-z
x,-y,z
loop_
_atom_site_type_symbol
_atom_site_label
_atom_site_fract_x
_atom_site_fract_y
_atom_site_fract_z
Si Si1 0.709438 0.800291 0.787806
Si Si2 0.209731 0.666918 0.927508
Si Si3 0.629813 0.360854 0.762554
Si Si4 0.625727 0.912112 0.690359
Si Si5 0.016436 0.586786 0.632911
Si Si6 0.864937 0.164730 0.369428
Si Si7 0.372719 0.314242 0.492588
Si Si8 0.115443 0.162406 0.020074
O O1 0.656525 0.730539 0.752126
O O2 0.763357 0.874976 0.688867
O O3 0.948272 0.785843 0.691201
O O4 0.500000 0.815540 0.000000
O O5 0.341437 0.621416 0.929337
O O6 0.451925 0.679465 0.710423
O O7 0.095222 0.745749 0.038187
O O8 0.000000 0.626033 0.000000
O O9 0.805766 0.398083 0.571118
O O10 0.736017 0.393442 0.792233
O O11 0.757394 0.902695 0.503513
O O12 0.584824 0.000000 0.737877
O O13 0.382921 0.865264 0.847107
O O14 0.033907 0.500000 0.653258
O O15 0.122267 0.639321 0.647217
O O16 0.666339 0.224794 0.466904
O O17 0.979972 0.128139 0.200048
O O18 0.500000 0.349389 0.500000
O O19 0.000000 0.130794 0.000000
#
# Coordination Sequence:
#
# PCOD8059249 Si02
#       8
#     4   4   4   4   4   4   4   4
#     4  12  23  42  68 100 129 170 225 285 345 401
#     4  10  19  35  60  94 126 161 217 278 335 388
#     4  10  18  35  62  92 122 161 220 272 323 385
#     4  12  27  44  64  96 137 180 223 277 348 418
#     4  10  21  36  62  97 131 176 221 271 340 409
#     4  12  24  42  69 100 132 171 233 283 340 401
#     4  11  21  36  66  99 128 171 225 285 333 396
#     4  11  23  43  68  93 129 173 224 287 340 405
#
# _framework density 22.987376999999999
#
# number of rings (size 3 to 8) (size 9 to 14) (size 15 to 20)
#    0.000    1.000    5.000    3.375    1.750    2.250 
#    0.000    0.625    0.000   10.875    0.000    0.000 
#    0.000    0.500    0.000    0.000    0.000    0.000 
#
# Total GULP energy -396507.949970 kJ/mol
# GULP energy per Si atom -12390.873437 kJ/mol
# Density = 2.293506 g / cm^3
# Si number density = 22.987377 Si / 1000 Ang^3
#
#
#
# Elastic Constant Matrix: (Units=GPa)
#
#
# Indices 1 2 3 4 5 6 
#
# 1 152.2560 29.2179 16.5692 0.0000 -21.6809 0.0000
# 2 29.2179 77.1680 -4.5078 0.0000 -2.2258 0.0000
# 3 16.5692 -4.5078 74.1698 0.0000 1.3496 0.0000
# 4 0.0000 0.0000 0.0000 86.6237 0.0000 252.0663
# 5 -21.6809 -2.2258 1.3496 0.0000 42.3310 0.0000
# 6 0.0000 0.0000 0.0000 252.0663 0.0000 855.8310
#
#
#
# Elastic Compliance Matrix: (Units=1/GPa)
#
#
# Indices 1 2 3 4 5 6 
#
# 1 0.007930 -0.003007 -0.002027 0.000000 0.003968 0.000000
# 2 -0.003007 0.014163 0.001548 0.000000 -0.000845 0.000000
# 3 -0.002027 0.001548 0.014055 0.000000 -0.001405 0.000000
# 4 0.000000 0.000000 0.000000 0.080755 0.000000 -0.023785
# 5 0.003968 -0.000845 -0.001405 0.000000 0.025656 0.000000
# 6 0.000000 0.000000 0.000000 -0.023785 0.000000 0.008174
#
#
# Mechanical properties :
#
#
# Convention : Reuss Voigt Hill
#
# Bulk Modulus (GPa) = 34.27255 42.90583 38.58919
# Shear Modulus (GPa) = 29.86314 214.44477 122.15396
#
# Velocity S-wave (km/s) = 3.60823 9.66905 7.29760
# Velocity P-wave (km/s) = 5.68337 11.97329 9.37177
#
# Compressibility (1/GPa) = 0.02917787
#
# Stress axis : x y z
#
# Youngs Moduli (GPa) = 126.09584 70.60561 71.14934
#
# Poissons Ratio (x) = 0.21228 0.14419
# Poissons Ratio (y) = 0.37912 -0.11013
# Poissons Ratio (z) = 0.25554 -0.10929
#
# Static dielectric constant tensor:
#      x y z
#    x 8.949880 0.000000 1.544250 
#    y 0.000000 3.592180 0.000000 
#    z 1.544250 0.000000 4.813750 
# 
# 
# High freq. dielectric constant tensor:
#      x y z
#    x 1.937360 0.000000 -0.009110 
#    y 0.000000 1.850560 0.000000 
#    z -0.009110 0.000000 1.905470 
# 
# From -- ./inp_files/65386.got.cif
#   From: 2010.06.25/outbox.cif.g09.slc.cpg/sg10_33_cif.got.tgz:65386.got - 2010.06.27 22:07:45.
