data_PCOD8059159
_publ_section_title
;
Structure prediction by ZEFSAII (Michael W. Deem and Ramdas Pophale) SiO2 
 PCOD8059159
Probable space group: P 2/M
;
_chemical_formula_sum "Si O2"
_cell_formula_units_Z 32
_cell_length_a 10.956926
_cell_length_b 9.188250
_cell_length_c 15.162374
_cell_angle_alpha 90.000000
_cell_angle_beta 86.519458
_cell_angle_gamma 90.000000
_cell_volume 1523.656011
_symmetry_space_group_name_H-M "P 2/M"
_symmetry_group_IT_number 10
_symmetry_cell_setting 'monoclinic'
loop_
_space_group_symop_operation_xyz
x,y,z
-x,y,-z
-x,-y,-z
x,-y,z
loop_
_atom_site_type_symbol
_atom_site_label
_atom_site_fract_x
_atom_site_fract_y
_atom_site_fract_z
Si Si1 0.602798 0.330370 0.066733
Si Si2 0.859946 0.162846 0.482270
Si Si3 0.864159 0.669778 0.970711
Si Si4 0.878802 0.834805 0.289264
Si Si5 0.622175 0.165415 0.239792
Si Si6 0.249307 0.661435 0.356690
Si Si7 0.482225 0.338417 0.599587
Si Si8 0.130480 0.826765 0.208140
O O1 0.586558 0.500000 0.085036
O O2 0.566482 0.250503 0.159303
O O3 0.500000 0.279319 0.000000
O O4 0.745607 0.295997 0.037329
O O5 0.846627 0.235049 0.385601
O O6 0.792828 0.273024 0.549180
O O7 0.000000 0.152759 0.500000
O O8 0.801412 0.000000 0.490900
O O9 0.867751 0.500000 0.947194
O O10 0.831858 0.761303 0.886336
O O11 0.000000 0.717514 0.000000
O O12 0.769039 0.826570 0.224457
O O13 0.996444 0.763201 0.238340
O O14 0.915445 0.000000 0.310882
O O15 0.598203 0.231636 0.337478
O O16 0.573954 0.000000 0.239470
O O17 0.191302 0.500000 0.345271
O O18 0.393285 0.647476 0.352771
O O19 0.221956 0.770282 0.278321
O O20 0.500000 0.273352 0.500000
O O21 0.421938 0.500000 0.594687
O O22 0.137084 0.000000 0.202167
#
# Coordination Sequence:
#
# PCOD8059159 Si02
#       8
#     4   4   4   4   4   4   4   4
#     4  10  23  43  65  88 122 166 204 247 313 376
#     4  10  18  34  57  80 116 161 198 238 295 360
#     4  10  22  41  64  91 122 156 202 255 305 362
#     4   9  19  36  57  86 122 158 194 241 301 360
#     4  11  23  39  64  94 123 155 203 257 300 356
#     4  11  23  37  56  85 119 154 201 252 299 355
#     4  10  23  43  63  85 121 166 207 249 303 365
#     4  11  22  38  61  88 121 159 197 241 305 369
#
# _framework density 21.002116999999998
#
# number of rings (size 3 to 8) (size 9 to 14) (size 15 to 20)
#    0.000    1.750    1.250    2.625    1.750    2.500 
#    0.000    2.500    0.000    0.000    0.000    0.000 
#    0.000    0.000    0.000    0.000    0.000    0.000 
#
# Total GULP energy -396652.571345 kJ/mol
# GULP energy per Si atom -12395.392855 kJ/mol
# Density = 2.095431 g / cm^3
# Si number density = 21.002117 Si / 1000 Ang^3
#
#
#
# Elastic Constant Matrix: (Units=GPa)
#
#
# Indices 1 2 3 4 5 6 
#
# 1 75.7981 19.9130 18.3642 0.0000 4.8597 0.0000
# 2 19.9130 70.0230 45.7160 0.0000 -11.9366 0.0000
# 3 18.3642 45.7160 128.4790 0.0000 -1.6440 0.0000
# 4 0.0000 0.0000 0.0000 34.6499 0.0000 2.2370
# 5 4.8597 -11.9366 -1.6440 0.0000 26.8035 0.0000
# 6 0.0000 0.0000 0.0000 2.2370 0.0000 21.6851
#
#
#
# Elastic Compliance Matrix: (Units=1/GPa)
#
#
# Indices 1 2 3 4 5 6 
#
# 1 0.014865 -0.004719 -0.000507 0.000000 -0.004828 0.000000
# 2 -0.004719 0.021929 -0.006998 0.000000 0.010192 0.000000
# 3 -0.000507 -0.006998 0.010315 0.000000 -0.002392 0.000000
# 4 0.000000 0.000000 0.000000 0.029054 0.000000 -0.002997
# 5 -0.004828 0.010192 -0.002392 0.000000 0.042576 0.000000
# 6 0.000000 0.000000 0.000000 -0.002997 0.000000 0.046424
#
#
# Mechanical properties :
#
#
# Convention : Reuss Voigt Hill
#
# Bulk Modulus (GPa) = 44.12899 49.14296 46.63597
# Shear Modulus (GPa) = 25.35932 29.31480 27.33706
#
# Velocity S-wave (km/s) = 3.47863 3.74010 3.61173
# Velocity P-wave (km/s) = 6.09851 6.48852 6.29654
#
# Compressibility (1/GPa) = 0.02266084
#
# Stress axis : x y z
#
# Youngs Moduli (GPa) = 67.27134 45.60108 96.94272
#
# Poissons Ratio (x) = 0.21520 0.04919
# Poissons Ratio (y) = 0.31746 0.67841
# Poissons Ratio (z) = 0.03413 0.31912
#
# Static dielectric constant tensor:
#      x y z
#    x 3.791730 0.000000 0.039900 
#    y 0.000000 3.749840 0.000000 
#    z 0.039900 0.000000 3.741060 
# 
# 
# High freq. dielectric constant tensor:
#      x y z
#    x 1.824180 0.000000 0.005530 
#    y 0.000000 1.809170 0.000000 
#    z 0.005530 0.000000 1.828660 
# 
# From -- ./inp_files/63821.got.cif
#   From: 2010.06.25/outbox.cif.g09.slc.cpg/sg10_32_cif.got.tgz:63821.got - 2010.06.27 22:07:45.
