data_PCOD8059569
_publ_section_title
;
Structure prediction by ZEFSAII (Michael W. Deem and Ramdas Pophale) SiO2 
 PCOD8059569
Probable space group: P 2/M
;
_chemical_formula_sum "Si O2"
_cell_formula_units_Z 28
_cell_length_a 19.478242
_cell_length_b 8.754765
_cell_length_c 11.890213
_cell_angle_alpha 90.000000
_cell_angle_beta 51.593404
_cell_angle_gamma 90.000000
_cell_volume 1588.877717
_symmetry_space_group_name_H-M "P 2/M"
_symmetry_group_IT_number 10
_symmetry_cell_setting 'monoclinic'
loop_
_space_group_symop_operation_xyz
x,y,z
-x,y,-z
-x,-y,-z
x,-y,z
loop_
_atom_site_type_symbol
_atom_site_label
_atom_site_fract_x
_atom_site_fract_y
_atom_site_fract_z
Si Si1 0.900589 0.665331 0.612351
Si Si2 0.997879 0.181431 0.876149
Si Si3 0.317834 0.678284 0.316065
Si Si4 0.503458 0.830585 0.863770
Si Si5 0.674740 0.322556 0.954422
Si Si6 0.159612 0.177307 0.117843
Si Si7 0.846054 0.179554 0.442924
O O1 0.853747 0.500000 0.690675
O O2 0.889074 0.798364 0.714762
O O3 0.866692 0.722186 0.529770
O O4 0.000000 0.626627 0.500000
O O5 0.908202 0.240160 0.907874
O O6 0.087846 0.233932 0.723014
O O7 0.994505 0.000000 0.880369
O O8 0.000000 0.248623 0.000000
O O9 0.304620 0.500000 0.350268
O O10 0.415859 0.723125 0.252980
O O11 0.299753 0.720817 0.201484
O O12 0.255941 0.773156 0.467110
O O13 0.515749 0.000000 0.799761
O O14 0.500000 0.840088 0.000000
O O15 0.412271 0.761343 0.913521
O O16 0.655215 0.500000 0.983880
O O17 0.750462 0.272779 0.965441
O O18 0.181428 0.000000 0.077169
O O19 0.856375 0.000000 0.452801
#
# Coordination Sequence:
#
# PCOD8059569 Si02
#       7
#     4   4   4   4   4   4   4
#     4  11  21  31  45  68 101 132 159 201 253 302
#     4   9  20  37  53  72  98 129 168 215 260 295
#     4  10  19  30  45  69 103 139 166 199 246 298
#     4   9  17  29  45  67  98 135 172 207 234 284
#     4  10  19  30  45  69 103 139 166 199 246 298
#     4  11  20  31  51  74  97 130 171 210 245 296
#     4  11  20  31  51  74  97 130 171 210 245 296
#
# _framework density 17.622499999999999
#
# number of rings (size 3 to 8) (size 9 to 14) (size 15 to 20)
#    0.000    1.857    2.857    2.571    0.000    3.429 
#    0.000    0.000    0.000    6.857    0.000    1.000 
#    0.000    8.000    0.000    0.000    0.000    0.000 
#
# Total GULP energy -346936.321277 kJ/mol
# GULP energy per Si atom -12390.582903 kJ/mol
# Density = 1.758239 g / cm^3
# Si number density = 17.622500 Si / 1000 Ang^3
#
#
#
# Elastic Constant Matrix: (Units=GPa)
#
#
# Indices 1 2 3 4 5 6 
#
# 1 99.9809 22.5643 58.1549 0.0000 -19.2536 0.0000
# 2 22.5643 61.6243 12.7724 0.0000 -7.8499 0.0000
# 3 58.1549 12.7724 62.4497 0.0000 -7.8783 0.0000
# 4 0.0000 0.0000 0.0000 16.2245 0.0000 -9.7533
# 5 -19.2536 -7.8499 -7.8783 0.0000 27.4822 0.0000
# 6 0.0000 0.0000 0.0000 -9.7533 0.0000 23.1484
#
#
#
# Elastic Compliance Matrix: (Units=1/GPa)
#
#
# Indices 1 2 3 4 5 6 
#
# 1 0.025388 -0.003469 -0.021594 0.000000 0.010605 0.000000
# 2 -0.003469 0.017853 -0.000087 0.000000 0.002644 0.000000
# 3 -0.021594 -0.000087 0.035512 0.000000 -0.004973 0.000000
# 4 0.000000 0.000000 0.000000 0.082541 0.000000 0.034778
# 5 0.010605 0.002644 -0.004973 0.000000 0.043146 0.000000
# 6 0.000000 0.000000 0.000000 0.034778 0.000000 0.057853
#
#
# Mechanical properties :
#
#
# Convention : Reuss Voigt Hill
#
# Bulk Modulus (GPa) = 35.14761 45.67090 40.40926
# Shear Modulus (GPa) = 15.52419 22.07523 18.79971
#
# Velocity S-wave (km/s) = 2.97127 3.54315 3.26974
# Velocity P-wave (km/s) = 5.63554 6.53537 6.10206
#
# Compressibility (1/GPa) = 0.02845144
#
# Stress axis : x y z
#
# Youngs Moduli (GPa) = 39.38927 56.01451 28.15910
#
# Poissons Ratio (x) = 0.19433 0.60808
# Poissons Ratio (y) = 0.13666 0.00245
# Poissons Ratio (z) = 0.85058 0.00487
#
# Static dielectric constant tensor:
#      x y z
#    x 3.409460 0.000000 -0.319440 
#    y 0.000000 3.257010 0.000000 
#    z -0.319440 0.000000 3.158110 
# 
# 
# High freq. dielectric constant tensor:
#      x y z
#    x 1.671800 0.000000 -0.045040 
#    y 0.000000 1.685510 0.000000 
#    z -0.045040 0.000000 1.643460 
# 
# From -- ./inp_files/54643.got.cif
#   From: 2010.06.25/outbox.cif.g09.slc.cpg/sg10_28_cif.got.tgz:54643.got - 2010.06.27 22:07:45.
