data_PCOD8059824
_publ_section_title
;
Structure prediction by ZEFSAII (Michael W. Deem and Ramdas Pophale) SiO2 
 PCOD8059824
Probable space group: P 2/M
;
_chemical_formula_sum "Si O2"
_cell_formula_units_Z 32
_cell_length_a 28.710446
_cell_length_b 14.682149
_cell_length_c 10.119738
_cell_angle_alpha 90.000000
_cell_angle_beta 28.213796
_cell_angle_gamma 90.000000
_cell_volume 2016.704534
_symmetry_space_group_name_H-M "P 2/M"
_symmetry_group_IT_number 10
_symmetry_cell_setting 'monoclinic'
loop_
_space_group_symop_operation_xyz
x,y,z
-x,y,-z
-x,-y,-z
x,-y,z
loop_
_atom_site_type_symbol
_atom_site_label
_atom_site_fract_x
_atom_site_fract_y
_atom_site_fract_z
Si Si1 0.272347 0.892373 0.092704
Si Si2 0.418234 0.892324 0.954404
Si Si3 0.272357 0.107628 0.545526
Si Si4 0.637696 0.892039 0.405761
Si Si5 0.116960 0.398629 0.059750
Si Si6 0.114186 0.752703 0.866208
Si Si7 0.116950 0.601373 0.355471
Si Si8 0.885820 0.752705 0.437124
O O1 0.360055 0.860215 0.969821
O O2 0.170902 0.845604 0.388846
O O3 0.254402 0.000000 0.146624
O O4 0.302240 0.859547 0.872136
O O5 0.360057 0.860216 0.229880
O O6 0.427482 0.000000 0.931279
O O7 0.527665 0.849079 0.680825
O O8 0.302253 0.140455 0.616618
O O9 0.170909 0.154396 0.756623
O O10 0.254405 0.000000 0.581356
O O11 0.627422 0.000000 0.431448
O O12 0.157658 0.500000 0.925844
O O13 0.150518 0.369238 0.123706
O O14 0.000004 0.400530 0.344543
O O15 0.157781 0.327865 0.849315
O O16 0.129729 0.723342 0.675676
O O17 0.000003 0.771840 0.182555
O O18 0.157646 0.500000 0.285897
O O19 0.157772 0.672132 0.361802
#
# Coordination Sequence:
#
# PCOD8059824 Si02
#       8
#     4   4   4   4   4   4   4   4
#     4  10  19  31  45  66  94 124 157 189 222 267
#     4   9  16  30  49  65  86 117 151 193 239 272
#     4  10  19  31  45  66  94 124 157 189 222 267
#     4   9  18  30  47  67  86 113 153 199 243 272
#     4   8  15  29  48  67  87 114 148 188 233 271
#     4  10  20  31  44  65  94 128 159 185 217 262
#     4   8  15  29  48  67  87 114 148 188 233 271
#     4  10  20  31  44  65  94 128 159 185 217 262
#
# _framework density 15.867471
#
# number of rings (size 3 to 8) (size 9 to 14) (size 15 to 20)
#    0.000    2.750    1.250    1.500    1.750    4.000 
#    0.000    3.750    0.000    2.250    0.000    0.000 
#    0.000    6.000    0.000    0.000    0.000    0.000 
#
# Total GULP energy -396697.774969 kJ/mol
# GULP energy per Si atom -12396.805468 kJ/mol
# Density = 1.583136 g / cm^3
# Si number density = 15.867471 Si / 1000 Ang^3
#
#
#
# Elastic Constant Matrix: (Units=GPa)
#
#
# Indices 1 2 3 4 5 6 
#
# 1 104.3415 39.6203 47.0057 0.0000 19.6794 0.0000
# 2 39.6203 60.8154 34.6017 0.0000 5.1344 0.0000
# 3 47.0057 34.6017 73.0830 0.0000 12.2932 0.0000
# 4 0.0000 0.0000 0.0000 8.9641 0.0000 8.8518
# 5 19.6794 5.1344 12.2932 0.0000 26.6025 0.0000
# 6 0.0000 0.0000 0.0000 8.8518 0.0000 17.6161
#
#
#
# Elastic Compliance Matrix: (Units=1/GPa)
#
#
# Indices 1 2 3 4 5 6 
#
# 1 0.016284 -0.006487 -0.006057 0.000000 -0.007995 0.000000
# 2 -0.006487 0.025100 -0.008353 0.000000 0.003815 0.000000
# 3 -0.006057 -0.008353 0.022237 0.000000 -0.004183 0.000000
# 4 0.000000 0.000000 0.000000 0.221426 0.000000 -0.111263
# 5 -0.007995 0.003815 -0.004183 0.000000 0.044702 0.000000
# 6 0.000000 0.000000 0.000000 -0.111263 0.000000 0.112674
#
#
# Mechanical properties :
#
#
# Convention : Reuss Voigt Hill
#
# Bulk Modulus (GPa) = 45.81620 53.41060 49.61340
# Shear Modulus (GPa) = 10.17307 18.43736 14.30522
#
# Velocity S-wave (km/s) = 2.53480 3.41245 3.00583
# Velocity P-wave (km/s) = 6.12404 7.01854 6.58650
#
# Compressibility (1/GPa) = 0.02182634
#
# Stress axis : x y z
#
# Youngs Moduli (GPa) = 61.41011 39.84047 44.96951
#
# Poissons Ratio (x) = 0.25846 0.27239
# Poissons Ratio (y) = 0.39840 0.37562
# Poissons Ratio (z) = 0.37197 0.33278
#
# Static dielectric constant tensor:
#      x y z
#    x 3.202250 0.000000 0.233060 
#    y 0.000000 2.870500 0.000000 
#    z 0.233060 0.000000 2.974280 
# 
# 
# High freq. dielectric constant tensor:
#      x y z
#    x 1.616850 0.000000 0.022300 
#    y 0.000000 1.574650 0.000000 
#    z 0.022300 0.000000 1.595050 
# 
# From -- ./inp_files/37701.got.cif
#   From: 2010.06.25/outbox.cif.g09.slc.cpg/sg10_19_cif.got.tgz:37701.got - 2010.06.27 22:07:45.
