data_PCOD8059194
_publ_section_title
;
Structure prediction by ZEFSAII (Michael W. Deem and Ramdas Pophale) SiO2 
 PCOD8059194
Probable space group: P 2/M
;
_chemical_formula_sum "Si O2"
_cell_formula_units_Z 22
_cell_length_a 10.858848
_cell_length_b 9.226377
_cell_length_c 11.579411
_cell_angle_alpha 90.000000
_cell_angle_beta 108.461323
_cell_angle_gamma 90.000000
_cell_volume 1100.413692
_symmetry_space_group_name_H-M "P 2/M"
_symmetry_group_IT_number 10
_symmetry_cell_setting 'monoclinic'
loop_
_space_group_symop_operation_xyz
x,y,z
-x,y,-z
-x,-y,-z
x,-y,z
loop_
_atom_site_type_symbol
_atom_site_label
_atom_site_fract_x
_atom_site_fract_y
_atom_site_fract_z
Si Si1 0.819153 0.662553 0.251200
Si Si2 0.586816 0.327053 0.333284
Si Si3 0.863566 0.672538 0.011457
Si Si4 0.000000 0.244318 0.500000
Si Si5 0.317466 0.831204 0.216313
Si Si6 0.749702 0.840889 0.551615
O O1 0.785706 0.500000 0.209083
O O2 0.686915 0.729163 0.264209
O O3 0.858574 0.735059 0.141306
O O4 0.934834 0.661309 0.379414
O O5 0.565877 0.500000 0.327503
O O6 0.455863 0.242098 0.275350
O O7 0.652494 0.281212 0.474122
O O8 0.846292 0.500000 0.996591
O O9 0.749304 0.749859 0.908824
O O10 0.000000 0.722645 0.000000
O O11 0.888961 0.150970 0.529504
O O12 0.232073 0.808669 0.306909
O O13 0.334820 0.000000 0.191042
O O14 0.685438 0.000000 0.516812
#
# Coordination Sequence:
#
# PCOD8059194 Si02
#       6
#     4   4   4   2   4   4
#     4   9  19  35  56  84 114 142 179 230 277 319
#     4  10  21  37  58  83 110 144 186 229 273 323
#     4  10  21  38  59  83 111 144 183 225 271 326
#     4  10  18  34  60  84 109 144 183 220 273 336
#     4  11  23  38  56  80 113 149 183 225 275 323
#     4  10  21  36  55  82 115 146 180 226 276 325
#
# _framework density 19.992481999999999
#
# number of rings (size 3 to 8) (size 9 to 14) (size 15 to 20)
#    0.000    2.000    0.000    3.273    0.000    5.455 
#    0.000    9.091    0.000    0.000    0.000    0.000 
#    0.000    0.000    0.000    0.000    0.000    0.000 
#
# Total GULP energy -272682.576244 kJ/mol
# GULP energy per Si atom -12394.662557 kJ/mol
# Density = 1.994698 g / cm^3
# Si number density = 19.992482 Si / 1000 Ang^3
#
#
#
# Elastic Constant Matrix: (Units=GPa)
#
#
# Indices 1 2 3 4 5 6 
#
# 1 103.1796 27.0541 58.7938 0.0000 0.5471 0.0000
# 2 27.0541 57.9051 24.9855 0.0000 -2.2932 0.0000
# 3 58.7938 24.9855 141.8831 0.0000 -12.7550 0.0000
# 4 0.0000 0.0000 0.0000 18.7438 0.0000 -3.3851
# 5 0.5471 -2.2932 -12.7550 0.0000 32.1187 0.0000
# 6 0.0000 0.0000 0.0000 -3.3851 0.0000 18.4967
#
#
#
# Elastic Compliance Matrix: (Units=1/GPa)
#
#
# Indices 1 2 3 4 5 6 
#
# 1 0.013793 -0.004308 -0.005191 0.000000 -0.002604 0.000000
# 2 -0.004308 0.020035 -0.001668 0.000000 0.000842 0.000000
# 3 -0.005191 -0.001668 0.009841 0.000000 0.003878 0.000000
# 4 0.000000 0.000000 0.000000 0.055175 0.000000 0.010098
# 5 -0.002604 0.000842 0.003878 0.000000 0.032779 0.000000
# 6 0.000000 0.000000 0.000000 0.010098 0.000000 0.055912
#
#
# Mechanical properties :
#
#
# Convention : Reuss Voigt Hill
#
# Bulk Modulus (GPa) = 46.86671 58.29273 52.57972
# Shear Modulus (GPa) = 23.04364 26.68080 24.86222
#
# Velocity S-wave (km/s) = 3.39870 3.65710 3.53027
# Velocity P-wave (km/s) = 6.23656 6.85953 6.55545
#
# Compressibility (1/GPa) = 0.02133711
#
# Stress axis : x y z
#
# Youngs Moduli (GPa) = 72.49980 49.91260 101.61136
#
# Poissons Ratio (x) = 0.21500 0.52748
# Poissons Ratio (y) = 0.31230 0.16944
# Poissons Ratio (z) = 0.37636 0.08323
#
# Static dielectric constant tensor:
#      x y z
#    x 3.812180 0.000000 -0.279530 
#    y 0.000000 3.438730 0.000000 
#    z -0.279530 0.000000 3.820780 
# 
# 
# High freq. dielectric constant tensor:
#      x y z
#    x 1.790060 0.000000 -0.010470 
#    y 0.000000 1.765420 0.000000 
#    z -0.010470 0.000000 1.782960 
# 
# From -- ./inp_files/45024.got.cif
#   From: 2010.06.25/outbox.cif.g09.slc.cpg/sg10_23_cif.got.tgz:45024.got - 2010.06.27 22:07:45.
