data_PCOD8059998
_publ_section_title
;
Structure prediction by ZEFSAII (Michael W. Deem and Ramdas Pophale) SiO2 
 PCOD8059998
Probable space group: P 2/M
;
_chemical_formula_sum "Si O2"
_cell_formula_units_Z 32
_cell_length_a 25.443592
_cell_length_b 14.054939
_cell_length_c 17.609233
_cell_angle_alpha 90.000000
_cell_angle_beta 163.188064
_cell_angle_gamma 90.000000
_cell_volume 1821.348281
_symmetry_space_group_name_H-M "P 2/M"
_symmetry_group_IT_number 10
_symmetry_cell_setting 'monoclinic'
loop_
_space_group_symop_operation_xyz
x,y,z
-x,y,-z
-x,-y,-z
x,-y,z
loop_
_atom_site_type_symbol
_atom_site_label
_atom_site_fract_x
_atom_site_fract_y
_atom_site_fract_z
Si Si1 0.872204 0.610308 0.481222
Si Si2 0.078443 0.888975 0.933208
Si Si3 0.572440 0.679452 0.961024
Si Si4 0.325320 0.890852 0.410003
Si Si5 0.794695 0.397892 0.546784
Si Si6 0.142313 0.726155 0.761318
Si Si7 0.742645 0.890354 0.972315
Si Si8 0.261589 0.794840 0.480904
O O1 0.852579 0.500000 0.429161
O O2 0.703950 0.672688 0.215741
O O3 0.878502 0.621690 0.579903
O O4 0.059433 0.652318 0.707191
O O5 0.864936 0.867207 0.647427
O O6 0.113867 0.000000 0.980283
O O7 0.191533 0.847822 0.161041
O O8 0.152767 0.848549 0.956524
O O9 0.687684 0.672673 0.042567
O O10 0.425958 0.594242 0.763707
O O11 0.452341 0.778493 0.790695
O O12 0.528744 0.882196 0.660182
O O13 0.298340 0.829315 0.447557
O O14 0.276217 0.000000 0.361867
O O15 0.866597 0.500000 0.677443
O O16 0.844946 0.308232 0.670094
O O17 0.000000 0.755127 0.500000
O O18 0.202423 0.825477 0.881122
O O19 0.795726 0.000000 0.063877
#
# Coordination Sequence:
#
# PCOD8059998 Si02
#       8
#     4   4   4   4   4   4   4   4
#     4  10  19  32  52  76 102 131 170 218 252 286
#     4  10  20  33  54  79 100 127 169 217 259 295
#     4   9  19  30  47  72 102 135 164 201 252 295
#     4  10  19  34  55  77 100 129 168 214 261 300
#     4   9  18  31  49  73 101 135 168 201 250 300
#     4  10  20  34  49  75 106 136 171 203 247 304
#     4  10  19  34  53  75 104 135 169 209 250 299
#     4  10  19  31  48  75 104 134 159 202 256 307
#
# _framework density 17.569402
#
# number of rings (size 3 to 8) (size 9 to 14) (size 15 to 20)
#    0.750    1.500    1.250    2.625    0.000    6.500 
#    0.000    0.000    0.000    1.500    0.000    5.250 
#    0.000    6.000    0.000    0.000    0.000    0.000 
#
# Total GULP energy -396484.850695 kJ/mol
# GULP energy per Si atom -12390.151584 kJ/mol
# Density = 1.752941 g / cm^3
# Si number density = 17.569402 Si / 1000 Ang^3
#
#
#
# Elastic Constant Matrix: (Units=GPa)
#
#
# Indices 1 2 3 4 5 6 
#
# 1 66.9914 28.4064 17.4205 0.0000 16.0601 0.0000
# 2 28.4064 49.5036 12.5971 0.0000 -4.2530 0.0000
# 3 17.4205 12.5971 61.5270 0.0000 14.8764 0.0000
# 4 0.0000 0.0000 0.0000 15.1275 0.0000 1.0782
# 5 16.0601 -4.2530 14.8764 0.0000 27.1635 0.0000
# 6 0.0000 0.0000 0.0000 1.0782 0.0000 27.9938
#
#
#
# Elastic Compliance Matrix: (Units=1/GPa)
#
#
# Indices 1 2 3 4 5 6 
#
# 1 0.026382 -0.016840 0.000446 0.000000 -0.018479 0.000000
# 2 -0.016840 0.033138 -0.006545 0.000000 0.018729 0.000000
# 3 0.000446 -0.006545 0.020492 0.000000 -0.012511 0.000000
# 4 0.000000 0.000000 0.000000 0.066287 0.000000 -0.002553
# 5 -0.018479 0.018729 -0.012511 0.000000 0.057524 0.000000
# 6 0.000000 0.000000 0.000000 -0.002553 0.000000 0.035820
#
#
# Mechanical properties :
#
#
# Convention : Reuss Voigt Hill
#
# Bulk Modulus (GPa) = 29.29624 32.76332 31.02978
# Shear Modulus (GPa) = 16.84079 22.03018 19.43549
#
# Velocity S-wave (km/s) = 3.09937 3.54488 3.32959
# Velocity P-wave (km/s) = 5.43313 5.95343 5.69922
#
# Compressibility (1/GPa) = 0.03413408
#
# Stress axis : x y z
#
# Youngs Moduli (GPa) = 37.90498 30.17669 48.79989
#
# Poissons Ratio (x) = 0.50816 -0.02177
# Poissons Ratio (y) = 0.63830 0.31941
# Poissons Ratio (z) = -0.01691 0.19752
#
# Static dielectric constant tensor:
#      x y z
#    x 3.285960 0.000000 0.234640 
#    y 0.000000 3.168440 0.000000 
#    z 0.234640 0.000000 3.199770 
# 
# 
# High freq. dielectric constant tensor:
#      x y z
#    x 1.682840 0.000000 0.027180 
#    y 0.000000 1.664940 0.000000 
#    z 0.027180 0.000000 1.665370 
# 
# From -- ./inp_files/80350.got.cif
#   From: 2010.06.25/outbox.cif.g09.slc.cpg/sg10_41_cif.got.tgz:80350.got - 2010.06.27 22:07:45.
