data_PCOD8059907
_publ_section_title
;
Structure prediction by ZEFSAII (Michael W. Deem and Ramdas Pophale) SiO2 
 PCOD8059907
Probable space group: P 2/M
;
_chemical_formula_sum "Si O2"
_cell_formula_units_Z 32
_cell_length_a 20.401925
_cell_length_b 9.241991
_cell_length_c 12.397915
_cell_angle_alpha 90.000000
_cell_angle_beta 59.258956
_cell_angle_gamma 90.000000
_cell_volume 2009.205286
_symmetry_space_group_name_H-M "P 2/M"
_symmetry_group_IT_number 10
_symmetry_cell_setting 'monoclinic'
loop_
_space_group_symop_operation_xyz
x,y,z
-x,y,-z
-x,-y,-z
x,-y,z
loop_
_atom_site_type_symbol
_atom_site_label
_atom_site_fract_x
_atom_site_fract_y
_atom_site_fract_z
Si Si1 0.220429 0.832676 0.941730
Si Si2 0.524141 0.338487 0.604322
Si Si3 0.935127 0.329148 0.316830
Si Si4 0.090481 0.659153 0.427667
Si Si5 0.360281 0.330123 0.774911
Si Si6 0.908464 0.830308 0.778293
Si Si7 0.655962 0.834657 0.433007
Si Si8 0.823410 0.164036 0.263814
O O1 0.297294 0.742450 0.905971
O O2 0.188304 0.791791 0.850914
O O3 0.243372 0.000000 0.925596
O O4 0.157555 0.793106 0.082277
O O5 0.500000 0.327052 0.500000
O O6 0.552262 0.500000 0.608102
O O7 0.448132 0.300587 0.738794
O O8 0.594646 0.229844 0.570618
O O9 0.949132 0.500000 0.293817
O O10 0.889705 0.292846 0.466472
O O11 0.884837 0.273225 0.260354
O O12 0.016398 0.250826 0.244747
O O13 0.125015 0.500000 0.372834
O O14 0.119930 0.774265 0.315108
O O15 0.000000 0.649514 0.500000
O O16 0.344734 0.500000 0.779716
O O17 0.349172 0.260746 0.668308
O O18 0.925577 0.000000 0.756340
O O19 0.743791 0.824176 0.398039
O O20 0.633919 0.000000 0.426043
O O21 0.854767 0.000000 0.245115
#
# Coordination Sequence:
#
# PCOD8059907 Si02
#       8
#     4   4   4   4   4   4   4   4
#     4   9  19  32  43  60  87 116 144 175 210 248
#     4   8  14  23  35  54  78 104 138 175 206 241
#     4  10  20  32  46  64  85 110 141 177 215 252
#     4   8  16  31  47  64  85 104 130 174 219 254
#     4   9  16  25  38  56  79 109 142 174 207 244
#     4  10  19  31  48  66  84 109 141 176 214 254
#     4   9  16  25  38  56  79 109 141 173 210 247
#     4   9  18  31  43  58  85 117 146 175 207 246
#
# _framework density 15.926695
#
# number of rings (size 3 to 8) (size 9 to 14) (size 15 to 20)
#    0.000    3.000    0.000    3.750    0.000    9.500 
#    0.000    2.500    0.000    0.000    0.000    0.000 
#    0.000    1.000    0.000   11.000    0.000   10.125 
#
# Total GULP energy -396491.713936 kJ/mol
# GULP energy per Si atom -12390.366061 kJ/mol
# Density = 1.589045 g / cm^3
# Si number density = 15.926695 Si / 1000 Ang^3
#
#
#
# Elastic Constant Matrix: (Units=GPa)
#
#
# Indices 1 2 3 4 5 6 
#
# 1 25.4891 33.4085 42.9913 0.0000 -17.7808 0.0000
# 2 33.4085 92.5984 59.0023 0.0000 -20.9081 0.0000
# 3 42.9913 59.0023 92.2386 0.0000 -19.0307 0.0000
# 4 0.0000 0.0000 0.0000 23.3690 0.0000 -4.8493
# 5 -17.7808 -20.9081 -19.0307 0.0000 19.7314 0.0000
# 6 0.0000 0.0000 0.0000 -4.8493 0.0000 22.9027
#
#
#
# Elastic Compliance Matrix: (Units=1/GPa)
#
#
# Indices 1 2 3 4 5 6 
#
# 1 2.450158 -0.048171 -0.831659 0.000000 1.354770 0.000000
# 2 -0.048171 0.020935 0.005844 0.000000 -0.015588 0.000000
# 3 -0.831659 0.005844 0.301349 0.000000 -0.452604 0.000000
# 4 0.000000 0.000000 0.000000 0.044758 0.000000 0.009477
# 5 1.354770 -0.015588 -0.452604 0.000000 0.818472 0.000000
# 6 0.000000 0.000000 0.000000 0.009477 0.000000 0.045670
#
#
# Mechanical properties :
#
#
# Convention : Reuss Voigt Hill
#
# Bulk Modulus (GPa) = 0.97612 53.45892 27.21752
# Shear Modulus (GPa) = 0.86643 18.19555 9.53099
#
# Velocity S-wave (km/s) = 0.73837 3.38369 2.44893
# Velocity P-wave (km/s) = 1.15807 6.99316 5.01226
#
# Compressibility (1/GPa) = 1.02446943
#
# Stress axis : x y z
#
# Youngs Moduli (GPa) = 0.40814 47.76586 3.31842
#
# Poissons Ratio (x) = 2.30092 2.75979
# Poissons Ratio (y) = 0.01966 -0.01939
# Poissons Ratio (z) = 0.33943 -0.27914
#
# Static dielectric constant tensor:
#      x y z
#    x 3.087460 0.000000 -0.382620 
#    y 0.000000 3.181550 0.000000 
#    z -0.382620 0.000000 3.197320 
# 
# 
# High freq. dielectric constant tensor:
#      x y z
#    x 1.578560 0.000000 -0.030290 
#    y 0.000000 1.625110 0.000000 
#    z -0.030290 0.000000 1.585680 
# 
# From -- ./inp_files/54802.got.cif
#   From: 2010.06.25/outbox.cif.g09.slc.cpg/sg10_28_cif.got.tgz:54802.got - 2010.06.27 22:07:45.
