data_PCOD8059614
_publ_section_title
;
Structure prediction by ZEFSAII (Michael W. Deem and Ramdas Pophale) SiO2 
 PCOD8059614
Probable space group: P 2/M
;
_chemical_formula_sum "Si O2"
_cell_formula_units_Z 32
_cell_length_a 26.527768
_cell_length_b 8.794582
_cell_length_c 14.569953
_cell_angle_alpha 90.000000
_cell_angle_beta 34.447808
_cell_angle_gamma 90.000000
_cell_volume 1922.763702
_symmetry_space_group_name_H-M "P 2/M"
_symmetry_group_IT_number 10
_symmetry_cell_setting 'monoclinic'
loop_
_space_group_symop_operation_xyz
x,y,z
-x,y,-z
-x,-y,-z
x,-y,z
loop_
_atom_site_type_symbol
_atom_site_label
_atom_site_fract_x
_atom_site_fract_y
_atom_site_fract_z
Si Si1 0.088134 0.176317 0.815546
Si Si2 0.035890 0.828316 0.692045
Si Si3 0.758074 0.319783 0.931493
Si Si4 0.772769 0.677689 0.271579
Si Si5 0.854919 0.323008 0.964583
Si Si6 0.907025 0.173980 0.594212
Si Si7 0.595518 0.819339 0.256542
Si Si8 0.409367 0.320723 0.539904
O O1 0.088387 0.210433 0.706480
O O2 0.181161 0.247464 0.709694
O O3 0.091782 0.000000 0.832649
O O4 0.000000 0.244845 0.000000
O O5 0.096120 0.810841 0.511341
O O6 0.958303 0.707523 0.797702
O O7 0.997098 0.000000 0.756238
O O8 0.745111 0.500000 0.947985
O O9 0.804267 0.254304 0.953775
O O10 0.821479 0.270948 0.752892
O O11 0.661597 0.238026 0.076456
O O12 0.791239 0.500000 0.250324
O O13 0.667248 0.711385 0.420933
O O14 0.819890 0.750600 0.111196
O O15 0.834920 0.500000 0.996750
O O16 0.000000 0.235185 0.500000
O O17 0.894626 0.000000 0.644366
O O18 0.621643 0.739955 0.313815
O O19 0.496711 0.767744 0.375109
O O20 0.598611 0.000000 0.262669
O O21 0.428315 0.500000 0.520695
#
# Coordination Sequence:
#
# PCOD8059614 Si02
#       8
#     4   4   4   4   4   4   4   4
#     4  10  20  32  48  71  98 131 169 206 245 292
#     4  10  20  34  48  68 100 133 166 208 254 289
#     4  11  21  34  50  71 100 135 170 205 248 296
#     4  10  20  33  49  71  98 133 169 203 244 290
#     4  10  19  30  46  69  97 130 169 205 243 287
#     4  10  20  33  50  72  98 131 169 209 250 293
#     4  11  21  32  49  75 102 131 167 203 246 298
#     4  10  19  34  51  71 102 134 165 203 250 296
#
# _framework density 16.642710000000001
#
# number of rings (size 3 to 8) (size 9 to 14) (size 15 to 20)
#    0.000    1.750    3.750    2.625    0.000    3.000 
#    0.000    0.000    0.000    0.000    0.000    0.875 
#    0.000    7.000    0.000    0.000    0.000    0.000 
#
# Total GULP energy -396707.152812 kJ/mol
# GULP energy per Si atom -12397.098525 kJ/mol
# Density = 1.660483 g / cm^3
# Si number density = 16.642710 Si / 1000 Ang^3
#
#
#
# Elastic Constant Matrix: (Units=GPa)
#
#
# Indices 1 2 3 4 5 6 
#
# 1 97.4603 27.7250 43.1940 0.0000 -0.6398 0.0000
# 2 27.7250 61.4636 33.6815 0.0000 -3.3468 0.0000
# 3 43.1940 33.6815 103.0806 0.0000 -2.8070 0.0000
# 4 0.0000 0.0000 0.0000 24.5204 0.0000 -0.7413
# 5 -0.6398 -3.3468 -2.8070 0.0000 26.0666 0.0000
# 6 0.0000 0.0000 0.0000 -0.7413 0.0000 21.5993
#
#
#
# Elastic Compliance Matrix: (Units=1/GPa)
#
#
# Indices 1 2 3 4 5 6 
#
# 1 0.013222 -0.003596 -0.004382 0.000000 -0.000609 0.000000
# 2 -0.003596 0.020886 -0.005262 0.000000 0.002027 0.000000
# 3 -0.004382 -0.005262 0.013274 0.000000 0.000646 0.000000
# 4 0.000000 0.000000 0.000000 0.040825 0.000000 0.001401
# 5 -0.000609 0.002027 0.000646 0.000000 0.038678 0.000000
# 6 0.000000 0.000000 0.000000 0.001401 0.000000 0.046346
#
#
# Mechanical properties :
#
#
# Convention : Reuss Voigt Hill
#
# Bulk Modulus (GPa) = 47.84368 52.35615 50.09992
# Shear Modulus (GPa) = 24.19217 24.93086 24.56152
#
# Velocity S-wave (km/s) = 3.81677 3.87461 3.84580
# Velocity P-wave (km/s) = 6.94504 7.17941 7.06320
#
# Compressibility (1/GPa) = 0.02090140
#
# Stress axis : x y z
#
# Youngs Moduli (GPa) = 75.63402 47.87897 75.33297
#
# Poissons Ratio (x) = 0.17217 0.33010
# Poissons Ratio (y) = 0.27197 0.39644
# Poissons Ratio (z) = 0.33142 0.25196
#
# Static dielectric constant tensor:
#      x y z
#    x 3.082560 0.000000 -0.036020 
#    y 0.000000 3.052320 0.000000 
#    z -0.036020 0.000000 3.079300 
# 
# 
# High freq. dielectric constant tensor:
#      x y z
#    x 1.618860 0.000000 -0.007480 
#    y 0.000000 1.642180 0.000000 
#    z -0.007480 0.000000 1.628260 
# 
# From -- ./inp_files/66473.got.cif
#   From: 2010.06.25/outbox.cif.g09.slc.cpg/sg10_34_cif.got.tgz:66473.got - 2010.06.27 22:07:45.
