data_PCOD8059564
_publ_section_title
;
Structure prediction by ZEFSAII (Michael W. Deem and Ramdas Pophale) SiO2 
 PCOD8059564
Probable space group: P 2/M
;
_chemical_formula_sum "Si O2"
_cell_formula_units_Z 32
_cell_length_a 12.339055
_cell_length_b 8.771647
_cell_length_c 21.849538
_cell_angle_alpha 90.000000
_cell_angle_beta 46.288636
_cell_angle_gamma 90.000000
_cell_volume 1709.391480
_symmetry_space_group_name_H-M "P 2/M"
_symmetry_group_IT_number 10
_symmetry_cell_setting 'monoclinic'
loop_
_space_group_symop_operation_xyz
x,y,z
-x,y,-z
-x,-y,-z
x,-y,z
loop_
_atom_site_type_symbol
_atom_site_label
_atom_site_fract_x
_atom_site_fract_y
_atom_site_fract_z
Si Si1 0.946006 0.680645 0.282449
Si Si2 0.953632 0.680455 0.139706
Si Si3 0.670490 0.835806 0.928542
Si Si4 0.756188 0.323682 0.778491
Si Si5 0.228263 0.819765 0.979284
Si Si6 0.364693 0.820807 0.735206
Si Si7 0.368503 0.821843 0.594056
Si Si8 0.508036 0.681964 0.202416
O O1 0.934176 0.500000 0.287324
O O2 0.990815 0.734142 0.195608
O O3 0.787532 0.746907 0.365009
O O4 0.071445 0.737972 0.283288
O O5 0.962303 0.500000 0.130259
O O6 0.788518 0.737149 0.187458
O O7 0.058101 0.756250 0.046314
O O8 0.690006 0.704808 0.871137
O O9 0.750655 0.000000 0.881237
O O10 0.500000 0.876061 0.000000
O O11 0.722024 0.769842 0.972777
O O12 0.761062 0.500000 0.762275
O O13 0.643111 0.251411 0.772057
O O14 0.338670 0.738194 0.888948
O O15 0.232427 0.000000 0.965410
O O16 0.410392 0.783922 0.647712
O O17 0.493942 0.750981 0.728375
O O18 0.346483 0.000000 0.753503
O O19 0.500000 0.754805 0.500000
O O20 0.349530 0.000000 0.590660
O O21 0.506994 0.500000 0.203816
#
# Coordination Sequence:
#
# PCOD8059564 Si02
#       8
#     4   4   4   4   4   4   4   4
#     4   9  18  32  52  81 111 136 167 211 261 308
#     4  10  19  33  53  75 103 137 178 225 269 311
#     4  10  19  30  45  69 100 136 181 230 267 302
#     4  10  20  33  50  73 104 141 179 219 260 304
#     4  11  21  32  48  72 103 140 185 229 269 307
#     4  10  21  38  57  77 105 136 169 212 263 316
#     4   9  19  37  62  89 110 129 158 202 258 317
#     4  11  23  36  51  72 103 145 187 221 257 305
#
# _framework density 18.720113000000001
#
# number of rings (size 3 to 8) (size 9 to 14) (size 15 to 20)
#    0.000    2.000    2.500    1.500    0.000    3.500 
#    0.000    2.500    0.000    0.750    0.000    5.250 
#    0.000    0.000    0.000    0.000    0.000    0.000 
#
# Total GULP energy -396524.706600 kJ/mol
# GULP energy per Si atom -12391.397081 kJ/mol
# Density = 1.867751 g / cm^3
# Si number density = 18.720113 Si / 1000 Ang^3
#
#
#
# Elastic Constant Matrix: (Units=GPa)
#
#
# Indices 1 2 3 4 5 6 
#
# 1 112.8955 25.6644 52.1197 0.0000 3.2086 0.0000
# 2 25.6644 43.2048 25.1272 0.0000 -2.5105 0.0000
# 3 52.1197 25.1272 97.4168 0.0000 -13.5534 0.0000
# 4 0.0000 0.0000 0.0000 22.2535 0.0000 -0.2518
# 5 3.2086 -2.5105 -13.5534 0.0000 19.8428 0.0000
# 6 0.0000 0.0000 0.0000 -0.2518 0.0000 23.3098
#
#
#
# Elastic Compliance Matrix: (Units=1/GPa)
#
#
# Indices 1 2 3 4 5 6 
#
# 1 0.013295 -0.004223 -0.007069 0.000000 -0.007512 0.000000
# 2 -0.004223 0.028612 -0.004997 0.000000 0.000890 0.000000
# 3 -0.007069 -0.004997 0.017025 0.000000 0.012140 0.000000
# 4 0.000000 0.000000 0.000000 0.044942 0.000000 0.000485
# 5 -0.007512 0.000890 0.012140 0.000000 0.060015 0.000000
# 6 0.000000 0.000000 0.000000 0.000485 0.000000 0.042906
#
#
# Mechanical properties :
#
#
# Convention : Reuss Voigt Hill
#
# Bulk Modulus (GPa) = 37.94437 51.03773 44.49105
# Shear Modulus (GPa) = 20.14858 23.12159 21.63509
#
# Velocity S-wave (km/s) = 3.28427 3.51824 3.40327
# Velocity P-wave (km/s) = 5.89026 6.62018 6.26586
#
# Compressibility (1/GPa) = 0.02635437
#
# Stress axis : x y z
#
# Youngs Moduli (GPa) = 75.21851 34.95061 58.73728
#
# Poissons Ratio (x) = 0.14758 0.41520
# Poissons Ratio (y) = 0.31762 0.29351
# Poissons Ratio (z) = 0.53171 0.17465
#
# Static dielectric constant tensor:
#      x y z
#    x 3.821210 0.000000 -0.045960 
#    y 0.000000 3.379470 0.000000 
#    z -0.045960 0.000000 3.274910 
# 
# 
# High freq. dielectric constant tensor:
#      x y z
#    x 1.739250 0.000000 -0.006070 
#    y 0.000000 1.726830 0.000000 
#    z -0.006070 0.000000 1.685360 
# 
# From -- ./inp_files/83584.got.cif
#   From: 2010.06.25/outbox.cif.g09.slc.cpg/sg10_42_cif.got.tgz:83584.got - 2010.06.27 22:07:45.
