data_PCOD8059553
_publ_section_title
;
Structure prediction by ZEFSAII (Michael W. Deem and Ramdas Pophale) SiO2 
 PCOD8059553
Probable space group: P 2/M
;
_chemical_formula_sum "Si O2"
_cell_formula_units_Z 32
_cell_length_a 20.825799
_cell_length_b 8.996595
_cell_length_c 27.803232
_cell_angle_alpha 90.000000
_cell_angle_beta 158.911391
_cell_angle_gamma 90.000000
_cell_volume 1874.346800
_symmetry_space_group_name_H-M "P 2/M"
_symmetry_group_IT_number 10
_symmetry_cell_setting 'monoclinic'
loop_
_space_group_symop_operation_xyz
x,y,z
-x,y,-z
-x,-y,-z
x,-y,z
loop_
_atom_site_type_symbol
_atom_site_label
_atom_site_fract_x
_atom_site_fract_y
_atom_site_fract_z
Si Si1 0.646747 0.669967 0.535206
Si Si2 0.827565 0.666221 0.345725
Si Si3 0.054697 0.172277 0.983822
Si Si4 0.376401 0.166053 0.721655
Si Si5 0.710442 0.824605 0.484658
Si Si6 0.030891 0.164196 0.413944
Si Si7 0.579565 0.323687 0.783291
Si Si8 0.246646 0.670803 0.283839
O O1 0.668472 0.500000 0.533747
O O2 0.732190 0.777187 0.555016
O O3 0.439324 0.708555 0.396704
O O4 0.752436 0.697586 0.658367
O O5 0.756882 0.500000 0.289334
O O6 0.667656 0.761057 0.257488
O O7 0.000000 0.670138 0.500000
O O8 0.878039 0.729069 0.328235
O O9 0.219294 0.276271 0.085770
O O10 0.103946 0.000000 0.010168
O O11 0.000000 0.204268 0.000000
O O12 0.891766 0.215563 0.835672
O O13 0.197520 0.159881 0.566000
O O14 0.522718 0.263048 0.795885
O O15 0.451452 0.000000 0.782483
O O16 0.893777 0.780255 0.584964
O O17 0.542016 0.741093 0.344145
O O18 0.675987 0.000000 0.455667
O O19 0.947118 0.000000 0.350928
O O20 0.562595 0.500000 0.771455
O O21 0.195451 0.500000 0.236591
#
# Coordination Sequence:
#
# PCOD8059553 Si02
#       8
#     4   4   4   4   4   4   4   4
#     4   9  18  33  52  71  93 120 152 190 231 276
#     4   9  15  22  35  56  81 112 151 188 221 264
#     4  11  23  36  50  70  95 122 154 192 232 275
#     4   9  16  27  41  57  83 117 151 187 227 271
#     4  10  19  30  45  67  95 124 156 192 232 277
#     4   8  15  25  36  54  83 118 150 183 224 268
#     4  11  21  32  47  66  91 123 158 194 232 276
#     4   9  19  35  52  71  93 120 154 190 230 276
#
# _framework density 17.072614999999999
#
# number of rings (size 3 to 8) (size 9 to 14) (size 15 to 20)
#    0.000    2.500    0.000    4.875    0.000    9.000 
#    0.000    1.250    0.000    0.000    0.000    0.000 
#    0.000    1.000    0.000   10.500    0.000    8.125 
#
# Total GULP energy -396764.042508 kJ/mol
# GULP energy per Si atom -12398.876328 kJ/mol
# Density = 1.703376 g / cm^3
# Si number density = 17.072615 Si / 1000 Ang^3
#
#
#
# Elastic Constant Matrix: (Units=GPa)
#
#
# Indices 1 2 3 4 5 6 
#
# 1 136.6591 65.1654 28.6686 0.0000 6.2831 0.0000
# 2 65.1654 115.1438 27.8228 0.0000 4.3178 0.0000
# 3 28.6686 27.8228 38.9594 0.0000 -1.5012 0.0000
# 4 0.0000 0.0000 0.0000 19.6294 0.0000 3.3401
# 5 6.2831 4.3178 -1.5012 0.0000 13.8866 0.0000
# 6 0.0000 0.0000 0.0000 3.3401 0.0000 33.8198
#
#
#
# Elastic Compliance Matrix: (Units=1/GPa)
#
#
# Indices 1 2 3 4 5 6 
#
# 1 0.010770 -0.004833 -0.004623 0.000000 -0.003870 0.000000
# 2 -0.004833 0.012902 -0.005751 0.000000 -0.002447 0.000000
# 3 -0.004623 -0.005751 0.033466 0.000000 0.007498 0.000000
# 4 0.000000 0.000000 0.000000 0.051815 0.000000 -0.005117
# 5 -0.003870 -0.002447 0.007498 0.000000 0.075334 0.000000
# 6 0.000000 0.000000 0.000000 -0.005117 0.000000 0.030074
#
#
# Mechanical properties :
#
#
# Convention : Reuss Voigt Hill
#
# Bulk Modulus (GPa) = 37.42138 59.34176 48.38157
# Shear Modulus (GPa) = 19.70977 24.74086 22.22532
#
# Velocity S-wave (km/s) = 3.40143 3.81091 3.61198
# Velocity P-wave (km/s) = 6.11497 7.36192 6.76723
#
# Compressibility (1/GPa) = 0.02672269
#
# Stress axis : x y z
#
# Youngs Moduli (GPa) = 92.85267 77.51024 29.88143
#
# Poissons Ratio (x) = 0.37461 0.13813
# Poissons Ratio (y) = 0.44876 0.17186
# Poissons Ratio (z) = 0.42922 0.44580
#
# Static dielectric constant tensor:
#      x y z
#    x 3.457400 0.000000 0.112810 
#    y 0.000000 3.297960 0.000000 
#    z 0.112810 0.000000 2.654550 
# 
# 
# High freq. dielectric constant tensor:
#      x y z
#    x 1.672070 0.000000 0.014020 
#    y 0.000000 1.670460 0.000000 
#    z 0.014020 0.000000 1.593680 
# 
# From -- ./inp_files/54842.got.cif
#   From: 2010.06.25/outbox.cif.g09.slc.cpg/sg10_28_cif.got.tgz:54842.got - 2010.06.27 22:07:45.
