data_PCOD8059539
_publ_section_title
;
Structure prediction by ZEFSAII (Michael W. Deem and Ramdas Pophale) SiO2 
 PCOD8059539
Probable space group: P 2/M
;
_chemical_formula_sum "Si O2"
_cell_formula_units_Z 28
_cell_length_a 9.528375
_cell_length_b 9.254545
_cell_length_c 31.938155
_cell_angle_alpha 90.000000
_cell_angle_beta 32.392932
_cell_angle_gamma 90.000000
_cell_volume 1508.772406
_symmetry_space_group_name_H-M "P 2/M"
_symmetry_group_IT_number 10
_symmetry_cell_setting 'monoclinic'
loop_
_space_group_symop_operation_xyz
x,y,z
-x,y,-z
-x,-y,-z
x,-y,z
loop_
_atom_site_type_symbol
_atom_site_label
_atom_site_fract_x
_atom_site_fract_y
_atom_site_fract_z
Si Si1 0.288296 0.165271 0.929249
Si Si2 0.857182 0.660874 0.171261
Si Si3 0.191585 0.173215 0.245188
Si Si4 0.714912 0.164638 0.975850
Si Si5 0.808786 0.329369 0.278204
Si Si6 0.220177 0.328125 0.413466
Si Si7 0.246030 0.664330 0.314028
O O1 0.518657 0.230624 0.842132
O O2 0.248031 0.000000 0.925349
O O3 0.390601 0.179816 0.950698
O O4 0.000000 0.242296 0.000000
O O5 0.965052 0.500000 0.138051
O O6 0.906416 0.708466 0.206835
O O7 0.556962 0.669225 0.234759
O O8 0.005688 0.761336 0.100939
O O9 0.131782 0.232183 0.306727
O O10 0.973332 0.236502 0.269415
O O11 0.176152 0.000000 0.248123
O O12 0.757175 0.000000 0.952037
O O13 0.500000 0.238803 0.000000
O O14 0.838984 0.500000 0.279974
O O15 0.505320 0.279210 0.357980
O O16 0.217118 0.500000 0.412975
O O17 0.155881 0.275511 0.382266
O O18 0.000000 0.264530 0.500000
O O19 0.146849 0.500000 0.331435
#
# Coordination Sequence:
#
# PCOD8059539 Si02
#       7
#     4   4   4   4   4   4   4
#     4   9  18  31  45  63  90 126 168 211 247 279
#     4   9  18  32  49  70  96 127 163 204 254 304
#     4  11  21  33  51  74 101 135 172 205 244 300
#     4  10  19  30  45  65  90 123 165 211 251 286
#     4   9  18  33  53  76 103 132 162 205 253 292
#     4   8  15  32  59  84 101 125 166 206 240 289
#     4   9  18  33  53  76 101 127 159 204 250 291
#
# _framework density 18.558133999999999
#
# number of rings (size 3 to 8) (size 9 to 14) (size 15 to 20)
#    0.000    2.714    0.000    3.857    0.000    3.714 
#    0.000    4.286    0.000    9.857    0.000    0.000 
#    0.000    0.000    0.000    0.000    0.000    0.000 
#
# Total GULP energy -347046.428875 kJ/mol
# GULP energy per Si atom -12394.515317 kJ/mol
# Density = 1.851589 g / cm^3
# Si number density = 18.558134 Si / 1000 Ang^3
#
#
#
# Elastic Constant Matrix: (Units=GPa)
#
#
# Indices 1 2 3 4 5 6 
#
# 1 96.4076 31.6946 24.7860 0.0000 10.7197 0.0000
# 2 31.6946 51.0391 27.8399 0.0000 6.8636 0.0000
# 3 24.7860 27.8399 102.0804 0.0000 6.9679 0.0000
# 4 0.0000 0.0000 0.0000 14.6006 0.0000 1.4383
# 5 10.7197 6.8636 6.9679 0.0000 22.2629 0.0000
# 6 0.0000 0.0000 0.0000 1.4383 0.0000 20.8328
#
#
#
# Elastic Compliance Matrix: (Units=1/GPa)
#
#
# Indices 1 2 3 4 5 6 
#
# 1 0.013463 -0.007279 -0.001016 0.000000 -0.003920 0.000000
# 2 -0.007279 0.027567 -0.005528 0.000000 -0.003264 0.000000
# 3 -0.001016 -0.005528 0.011650 0.000000 -0.001453 0.000000
# 4 0.000000 0.000000 0.000000 0.068959 0.000000 -0.004761
# 5 -0.003920 -0.003264 -0.001453 0.000000 0.048266 0.000000
# 6 0.000000 0.000000 0.000000 -0.004761 0.000000 0.048330
#
#
# Mechanical properties :
#
#
# Convention : Reuss Voigt Hill
#
# Bulk Modulus (GPa) = 39.94633 46.46310 43.20471
# Shear Modulus (GPa) = 19.66758 22.55304 21.11031
#
# Velocity S-wave (km/s) = 3.25896 3.48985 3.37638
# Velocity P-wave (km/s) = 5.97769 6.42881 6.20735
#
# Compressibility (1/GPa) = 0.02503359
#
# Stress axis : x y z
#
# Youngs Moduli (GPa) = 74.27936 36.27512 85.83872
#
# Poissons Ratio (x) = 0.26403 0.08723
# Poissons Ratio (y) = 0.54065 0.47453
# Poissons Ratio (z) = 0.07548 0.20053
#
# Static dielectric constant tensor:
#      x y z
#    x 3.451600 0.000000 0.102600 
#    y 0.000000 3.117140 0.000000 
#    z 0.102600 0.000000 3.617310 
# 
# 
# High freq. dielectric constant tensor:
#      x y z
#    x 1.726470 0.000000 0.009460 
#    y 0.000000 1.683080 0.000000 
#    z 0.009460 0.000000 1.712150 
# 
# From -- ./inp_files/37269.got.cif
#   From: 2010.06.25/outbox.cif.g09.slc.cpg/sg10_19_cif.got.tgz:37269.got - 2010.06.27 22:07:45.
