data_PCOD8059671
_publ_section_title
;
Structure prediction by ZEFSAII (Michael W. Deem and Ramdas Pophale) SiO2 
 PCOD8059671
Probable space group: P 2/M
;
_chemical_formula_sum "Si O2"
_cell_formula_units_Z 32
_cell_length_a 14.996837
_cell_length_b 9.430257
_cell_length_c 15.469451
_cell_angle_alpha 90.000000
_cell_angle_beta 57.352582
_cell_angle_gamma 90.000000
_cell_volume 1842.100844
_symmetry_space_group_name_H-M "P 2/M"
_symmetry_group_IT_number 10
_symmetry_cell_setting 'monoclinic'
loop_
_space_group_symop_operation_xyz
x,y,z
-x,y,-z
-x,-y,-z
x,-y,z
loop_
_atom_site_type_symbol
_atom_site_label
_atom_site_fract_x
_atom_site_fract_y
_atom_site_fract_z
Si Si1 0.020338 0.659564 0.257741
Si Si2 0.408542 0.837251 0.482871
Si Si3 0.786876 0.332105 0.350930
Si Si4 0.469578 0.163714 0.753559
Si Si5 0.438596 0.832920 0.115023
Si Si6 0.786184 0.166272 0.831373
Si Si7 0.736753 0.664774 0.186253
Si Si8 0.827519 0.341837 0.962836
O O1 0.029097 0.500000 0.290583
O O2 0.900798 0.716348 0.329359
O O3 0.106297 0.759292 0.262606
O O4 0.052153 0.659970 0.138149
O O5 0.500000 0.781347 0.500000
O O6 0.303575 0.744677 0.547840
O O7 0.442186 0.819231 0.366325
O O8 0.382319 0.000000 0.519665
O O9 0.772697 0.500000 0.367419
O O10 0.782945 0.283507 0.253178
O O11 0.515799 0.227396 0.818855
O O12 0.368628 0.251604 0.779451
O O13 0.436465 0.000000 0.780647
O O14 0.313434 0.797405 0.177194
O O15 0.455480 0.000000 0.105031
O O16 0.500000 0.766737 0.000000
O O17 0.759449 0.230043 0.940952
O O18 0.806492 0.000000 0.828966
O O19 0.707508 0.500000 0.205786
O O20 0.823430 0.698574 0.066151
O O21 0.778950 0.500000 0.975814
#
# Coordination Sequence:
#
# PCOD8059671 Si02
#       8
#     4   4   4   4   4   4   4   4
#     4   8  17  33  49  69  98 134 167 202 253 299
#     4  10  20  35  52  73 101 134 165 203 256 299
#     4  10  20  33  53  74  95 131 173 210 247 292
#     4  10  20  34  51  72 103 137 163 198 251 303
#     4   9  17  29  49  76 101 129 165 202 244 295
#     4   9  16  29  49  71  95 125 165 205 241 288
#     4  10  19  30  47  73 100 130 168 207 243 288
#     4   8  16  30  46  66 100 133 161 197 245 297
#
# _framework density 17.371471
#
# number of rings (size 3 to 8) (size 9 to 14) (size 15 to 20)
#    0.750    2.000    1.250    0.750    0.000    3.250 
#    0.000    3.750    0.000    4.875    0.000    5.250 
#    0.000    0.000    0.000    0.000    0.000    0.000 
#
# Total GULP energy -396478.790560 kJ/mol
# GULP energy per Si atom -12389.962205 kJ/mol
# Density = 1.733193 g / cm^3
# Si number density = 17.371471 Si / 1000 Ang^3
#
#
#
# Elastic Constant Matrix: (Units=GPa)
#
#
# Indices 1 2 3 4 5 6 
#
# 1 97.2544 39.5186 20.3454 0.0000 -13.7208 0.0000
# 2 39.5186 45.1704 16.6055 0.0000 -8.4299 0.0000
# 3 20.3454 16.6055 45.0856 0.0000 -5.5641 0.0000
# 4 0.0000 0.0000 0.0000 18.5013 0.0000 -8.2253
# 5 -13.7208 -8.4299 -5.5641 0.0000 29.0705 0.0000
# 6 0.0000 0.0000 0.0000 -8.2253 0.0000 23.6905
#
#
#
# Elastic Compliance Matrix: (Units=1/GPa)
#
#
# Indices 1 2 3 4 5 6 
#
# 1 0.016528 -0.012962 -0.002238 0.000000 0.003613 0.000000
# 2 -0.012962 0.036748 -0.007298 0.000000 0.003141 0.000000
# 3 -0.002238 -0.007298 0.026103 0.000000 0.001824 0.000000
# 4 0.000000 0.000000 0.000000 0.063916 0.000000 0.022192
# 5 0.003613 0.003141 0.001824 0.000000 0.037365 0.000000
# 6 0.000000 0.000000 0.000000 0.022192 0.000000 0.049916
#
#
# Mechanical properties :
#
#
# Convention : Reuss Voigt Hill
#
# Bulk Modulus (GPa) = 29.08485 37.82771 33.45628
# Shear Modulus (GPa) = 17.41966 21.65519 19.53742
#
# Velocity S-wave (km/s) = 3.17010 3.53455 3.35727
# Velocity P-wave (km/s) = 5.49350 6.20326 5.85914
#
# Compressibility (1/GPa) = 0.03438216
#
# Stress axis : x y z
#
# Youngs Moduli (GPa) = 60.50520 27.21241 38.31006
#
# Poissons Ratio (x) = 0.35274 0.08574
# Poissons Ratio (y) = 0.78430 0.27957
# Poissons Ratio (z) = 0.13541 0.19858
#
# Static dielectric constant tensor:
#      x y z
#    x 3.134010 0.000000 0.012210 
#    y 0.000000 3.118170 0.000000 
#    z 0.012210 0.000000 3.227840 
# 
# 
# High freq. dielectric constant tensor:
#      x y z
#    x 1.658020 0.000000 -0.008580 
#    y 0.000000 1.657620 0.000000 
#    z -0.008580 0.000000 1.656640 
# 
# From -- ./inp_files/66542.got.cif
#   From: 2010.06.25/outbox.cif.g09.slc.cpg/sg10_34_cif.got.tgz:66542.got - 2010.06.27 22:07:45.
