data_PCOD8059160
_publ_section_title
;
Structure prediction by ZEFSAII (Michael W. Deem and Ramdas Pophale) SiO2 
 PCOD8059160
Probable space group: P 2/M
;
_chemical_formula_sum "Si O2"
_cell_formula_units_Z 32
_cell_length_a 11.542771
_cell_length_b 16.567627
_cell_length_c 18.422019
_cell_angle_alpha 90.000000
_cell_angle_beta 29.179323
_cell_angle_gamma 90.000000
_cell_volume 1717.599756
_symmetry_space_group_name_H-M "P 2/M"
_symmetry_group_IT_number 10
_symmetry_cell_setting 'monoclinic'
loop_
_space_group_symop_operation_xyz
x,y,z
-x,y,-z
-x,-y,-z
x,-y,z
loop_
_atom_site_type_symbol
_atom_site_label
_atom_site_fract_x
_atom_site_fract_y
_atom_site_fract_z
Si Si1 0.072318 0.676661 0.384161
Si Si2 0.771043 0.410633 0.832675
Si Si3 0.344930 0.177100 0.650839
Si Si4 0.729336 0.094268 0.159087
Si Si5 0.913158 0.282038 0.869989
Si Si6 0.546903 0.689400 0.635851
Si Si7 0.869664 0.586865 0.147053
Si Si8 0.499493 0.775462 0.808127
O O1 0.219773 0.611592 0.257612
O O2 0.227504 0.758837 0.314746
O O3 0.000000 0.636005 0.500000
O O4 0.829670 0.692630 0.474042
O O5 0.887265 0.500000 0.782339
O O6 0.893005 0.337086 0.809286
O O7 0.500000 0.416669 0.000000
O O8 0.500000 0.139459 0.500000
O O9 0.337911 0.113268 0.720713
O O10 0.471077 0.257535 0.609177
O O11 0.084574 0.204580 0.764105
O O12 0.555621 0.134948 0.193416
O O13 0.704552 0.000000 0.158596
O O14 0.000000 0.124818 0.000000
O O15 0.009706 0.339385 0.879205
O O16 0.662241 0.246236 0.034158
O O17 0.416245 0.602767 0.700881
O O18 0.446534 0.719801 0.767822
O O19 0.900388 0.500000 0.170048
O O20 0.000000 0.581040 0.000000
#
# Coordination Sequence:
#
# PCOD8059160 Si02
#       8
#     4   4   4   4   4   4   4   4
#     4  10  21  38  57  79 105 147 194 239 278 338
#     4  11  23  36  51  77 113 148 191 239 285 330
#     4  10  20  33  56  83 115 147 180 227 278 338
#     4  10  20  35  59  92 120 143 181 231 281 337
#     4  11  19  34  55  78 109 149 189 234 281 333
#     4   9  19  33  53  78 110 137 191 235 274 329
#     4  10  19  30  50  78 110 147 188 237 291 337
#     4  10  18  34  57  81 106 145 183 228 275 334
#
# _framework density 18.630652000000001
#
# number of rings (size 3 to 8) (size 9 to 14) (size 15 to 20)
#    0.000    1.875    3.750    1.125    0.000    1.000 
#    0.000    1.875    0.000   13.500    0.000    2.625 
#    0.000    0.000    0.000    0.000    0.000    0.000 
#
# Total GULP energy -396431.759082 kJ/mol
# GULP energy per Si atom -12388.492471 kJ/mol
# Density = 1.858825 g / cm^3
# Si number density = 18.630652 Si / 1000 Ang^3
#
#
#
# Elastic Constant Matrix: (Units=GPa)
#
#
# Indices 1 2 3 4 5 6 
#
# 1 63.6472 21.2998 38.1167 0.0000 -2.5991 0.0000
# 2 21.2998 75.1833 30.9321 0.0000 -0.4348 0.0000
# 3 38.1167 30.9321 119.3548 0.0000 5.4028 0.0000
# 4 0.0000 0.0000 0.0000 52.0870 0.0000 3.4474
# 5 -2.5991 -0.4348 5.4028 0.0000 36.1795 0.0000
# 6 0.0000 0.0000 0.0000 3.4474 0.0000 14.1932
#
#
#
# Elastic Compliance Matrix: (Units=1/GPa)
#
#
# Indices 1 2 3 4 5 6 
#
# 1 0.020373 -0.003402 -0.005728 0.000000 0.002278 0.000000
# 2 -0.003402 0.015477 -0.002942 0.000000 0.000381 0.000000
# 3 -0.005728 -0.002942 0.011065 0.000000 -0.002099 0.000000
# 4 0.000000 0.000000 0.000000 0.019512 0.000000 -0.004739
# 5 0.002278 0.000381 -0.002099 0.000000 0.028122 0.000000
# 6 0.000000 0.000000 0.000000 -0.004739 0.000000 0.071607
#
#
# Mechanical properties :
#
#
# Convention : Reuss Voigt Hill
#
# Bulk Modulus (GPa) = 43.91344 48.76472 46.33908
# Shear Modulus (GPa) = 25.26638 31.68106 28.47372
#
# Velocity S-wave (km/s) = 3.68662 4.12816 3.91362
# Velocity P-wave (km/s) = 6.46090 6.99668 6.73412
#
# Compressibility (1/GPa) = 0.02277207
#
# Stress axis : x y z
#
# Youngs Moduli (GPa) = 49.08355 64.61108 90.37492
#
# Poissons Ratio (x) = 0.21982 0.51765
# Poissons Ratio (y) = 0.16699 0.26587
# Poissons Ratio (z) = 0.28114 0.19007
#
# Static dielectric constant tensor:
#      x y z
#    x 3.452880 0.000000 -0.027560 
#    y 0.000000 3.279020 0.000000 
#    z -0.027560 0.000000 3.634000 
# 
# 
# High freq. dielectric constant tensor:
#      x y z
#    x 1.712770 0.000000 0.004190 
#    y 0.000000 1.688960 0.000000 
#    z 0.004190 0.000000 1.737450 
# 
# From -- ./inp_files/47847.got.cif
#   From: 2010.06.25/outbox.cif.g09.slc.cpg/sg10_24_cif.got.tgz:47847.got - 2010.06.27 22:07:45.
