data_PCOD8059704
_publ_section_title
;
Structure prediction by ZEFSAII (Michael W. Deem and Ramdas Pophale) SiO2 
 PCOD8059704
Probable space group: P 2/M
;
_chemical_formula_sum "Si O2"
_cell_formula_units_Z 24
_cell_length_a 10.261627
_cell_length_b 8.649469
_cell_length_c 23.042989
_cell_angle_alpha 90.000000
_cell_angle_beta 40.574377
_cell_angle_gamma 90.000000
_cell_volume 1330.295494
_symmetry_space_group_name_H-M "P 2/M"
_symmetry_group_IT_number 10
_symmetry_cell_setting 'monoclinic'
loop_
_space_group_symop_operation_xyz
x,y,z
-x,y,-z
-x,-y,-z
x,-y,z
loop_
_atom_site_type_symbol
_atom_site_label
_atom_site_fract_x
_atom_site_fract_y
_atom_site_fract_z
Si Si1 0.514179 0.819564 0.561850
Si Si2 0.882708 0.680734 0.271840
Si Si3 0.536940 0.177346 0.906755
Si Si4 0.923087 0.679178 0.462796
Si Si5 0.865159 0.177881 0.710883
Si Si6 0.214834 0.322883 0.076690
O O1 0.500000 0.765355 0.500000
O O2 0.349301 0.726851 0.654986
O O3 0.730638 0.781301 0.513725
O O4 0.471549 0.000000 0.582575
O O5 0.908105 0.500000 0.277695
O O6 0.980140 0.779071 0.290652
O O7 0.988691 0.719577 0.173765
O O8 0.634312 0.203859 0.810245
O O9 0.650060 0.290362 0.912547
O O10 0.568774 0.000000 0.914765
O O11 0.299918 0.222856 0.992832
O O12 0.865610 0.500000 0.478083
O O13 0.000000 0.724943 0.500000
O O14 0.099378 0.717754 0.357573
O O15 0.904007 0.000000 0.681374
O O16 0.229425 0.500000 0.053248
#
# Coordination Sequence:
#
# PCOD8059704 Si02
#       6
#     4   4   4   4   4   4
#     4  11  22  35  54  79 103 134 174 212 256 309
#     4  10  19  30  48  73 102 135 169 210 254 299
#     4   9  16  25  40  63  94 130 164 201 247 297
#     4  11  24  39  55  76 102 135 174 214 258 307
#     4  10  19  31  48  72 100 133 172 210 253 304
#     4   9  16  25  39  64  96 129 164 201 247 297
#
# _framework density 18.041104000000001
#
# number of rings (size 3 to 8) (size 9 to 14) (size 15 to 20)
#    0.000    2.000    1.667    4.000    0.000    6.000 
#    0.000    0.000    0.000    0.000    0.000    1.167 
#    0.000    9.333    0.000    0.000    0.000    0.000 
#
# Total GULP energy -297464.631600 kJ/mol
# GULP energy per Si atom -12394.359650 kJ/mol
# Density = 1.800004 g / cm^3
# Si number density = 18.041104 Si / 1000 Ang^3
#
#
#
# Elastic Constant Matrix: (Units=GPa)
#
#
# Indices 1 2 3 4 5 6 
#
# 1 49.9114 16.8932 37.6293 0.0000 1.3018 0.0000
# 2 16.8932 48.1676 37.1888 0.0000 -4.7163 0.0000
# 3 37.6293 37.1888 163.2086 0.0000 -12.4379 0.0000
# 4 0.0000 0.0000 0.0000 33.9616 0.0000 -4.1190
# 5 1.3018 -4.7163 -12.4379 0.0000 16.5487 0.0000
# 6 0.0000 0.0000 0.0000 -4.1190 0.0000 13.7258
#
#
#
# Elastic Compliance Matrix: (Units=1/GPa)
#
#
# Indices 1 2 3 4 5 6 
#
# 1 0.026213 -0.005859 -0.005296 0.000000 -0.007713 0.000000
# 2 -0.005859 0.026648 -0.004357 0.000000 0.004781 0.000000
# 3 -0.005296 -0.004357 0.008781 0.000000 0.005775 0.000000
# 4 0.000000 0.000000 0.000000 0.030557 0.000000 0.009170
# 5 -0.007713 0.004781 0.005775 0.000000 0.066737 0.000000
# 6 0.000000 0.000000 0.000000 0.009170 0.000000 0.075607
#
#
# Mechanical properties :
#
#
# Convention : Reuss Voigt Hill
#
# Bulk Modulus (GPa) = 32.66170 49.41221 41.03695
# Shear Modulus (GPa) = 18.13086 24.15233 21.14159
#
# Velocity S-wave (km/s) = 3.17357 3.66285 3.42695
# Velocity P-wave (km/s) = 5.61891 6.73326 6.20116
#
# Compressibility (1/GPa) = 0.03061690
#
# Stress axis : x y z
#
# Youngs Moduli (GPa) = 38.14930 37.52684 113.88195
#
# Poissons Ratio (x) = 0.21988 0.60315
# Poissons Ratio (y) = 0.22353 0.49614
# Poissons Ratio (z) = 0.20205 0.16349
#
# Static dielectric constant tensor:
#      x y z
#    x 2.690730 0.000000 -0.168500 
#    y 0.000000 3.354200 0.000000 
#    z -0.168500 0.000000 4.214740 
# 
# 
# High freq. dielectric constant tensor:
#      x y z
#    x 1.612190 0.000000 -0.015970 
#    y 0.000000 1.713870 0.000000 
#    z -0.015970 0.000000 1.731050 
# 
# From -- ./inp_files/80059.got.cif
#   From: 2010.06.25/outbox.cif.g09.slc.cpg/sg10_41_cif.got.tgz:80059.got - 2010.06.27 22:07:45.
