data_PCOD8059099
_publ_section_title
;
Structure prediction by ZEFSAII (Michael W. Deem and Ramdas Pophale) SiO2 
 PCOD8059099
Probable space group: P 2/M
;
_chemical_formula_sum "Si O2"
_cell_formula_units_Z 32
_cell_length_a 14.166826
_cell_length_b 9.151642
_cell_length_c 23.937459
_cell_angle_alpha 90.000000
_cell_angle_beta 32.767010
_cell_angle_gamma 90.000000
_cell_volume 1679.680907
_symmetry_space_group_name_H-M "P 2/M"
_symmetry_group_IT_number 10
_symmetry_cell_setting 'monoclinic'
loop_
_space_group_symop_operation_xyz
x,y,z
-x,y,-z
-x,-y,-z
x,-y,z
loop_
_atom_site_type_symbol
_atom_site_label
_atom_site_fract_x
_atom_site_fract_y
_atom_site_fract_z
Si Si1 0.185015 0.832079 0.035545
Si Si2 0.787222 0.830793 0.240350
Si Si3 0.294017 0.667337 0.607625
Si Si4 0.180957 0.671587 0.544471
Si Si5 0.796305 0.671661 0.742931
Si Si6 0.297915 0.829868 0.100645
Si Si7 0.479830 0.672826 0.824886
Si Si8 0.497899 0.326572 0.313745
O O1 0.216339 0.776323 0.082982
O O2 0.983506 0.811716 0.119944
O O3 0.244670 0.000000 0.001313
O O4 0.299126 0.739630 0.935750
O O5 0.775339 0.767286 0.308254
O O6 0.665232 0.745180 0.258534
O O7 0.733186 0.000000 0.269133
O O8 0.500000 0.678178 0.500000
O O9 0.236411 0.500000 0.647469
O O10 0.212678 0.732659 0.591075
O O11 0.212163 0.500000 0.532100
O O12 0.322097 0.734953 0.430604
O O13 0.984789 0.709088 0.621668
O O14 0.774213 0.500000 0.761898
O O15 0.795599 0.742500 0.803987
O O16 0.642727 0.733850 0.780055
O O17 0.264998 0.000000 0.127493
O O18 0.500000 0.789657 0.000000
O O19 0.466802 0.500000 0.836578
O O20 0.511533 0.721917 0.745732
O O21 0.516043 0.500000 0.311112
#
# Coordination Sequence:
#
# PCOD8059099 Si02
#       8
#     4   4   4   4   4   4   4   4
#     4  10  22  39  57  79 112 148 181 220 275 333
#     4  11  23  37  56  84 112 142 182 230 275 317
#     4  10  18  33  58  84 112 149 181 212 268 334
#     4   9  18  34  57  82 111 146 179 214 268 330
#     4  10  20  34  55  86 114 138 177 228 273 315
#     4  10  19  34  57  81 108 148 182 210 267 336
#     4  10  22  37  57  83 108 140 186 234 273 312
#     4  10  21  40  59  77 108 148 186 224 270 330
#
# _framework density 19.051237
#
# number of rings (size 3 to 8) (size 9 to 14) (size 15 to 20)
#    0.000    2.000    2.500    1.125    0.000    3.500 
#    0.000    5.625    0.000    0.000    0.000    2.625 
#    0.000    0.000    0.000    0.000    0.000    0.000 
#
# Total GULP energy -396850.923422 kJ/mol
# GULP energy per Si atom -12401.591357 kJ/mol
# Density = 1.900788 g / cm^3
# Si number density = 19.051237 Si / 1000 Ang^3
#
#
#
# Elastic Constant Matrix: (Units=GPa)
#
#
# Indices 1 2 3 4 5 6 
#
# 1 92.8764 28.9670 72.4722 0.0000 13.7439 0.0000
# 2 28.9670 32.6427 39.4101 0.0000 6.6772 0.0000
# 3 72.4722 39.4101 124.4840 0.0000 4.4183 0.0000
# 4 0.0000 0.0000 0.0000 -2.2086 0.0000 -12.2496
# 5 13.7439 6.6772 4.4183 0.0000 31.7942 0.0000
# 6 0.0000 0.0000 0.0000 -12.2496 0.0000 17.5496
#
#
#
# Elastic Compliance Matrix: (Units=1/GPa)
#
#
# Indices 1 2 3 4 5 6 
#
# 1 0.021814 -0.004705 -0.010965 0.000000 -0.006918 0.000000
# 2 -0.004705 0.052868 -0.013744 0.000000 -0.007159 0.000000
# 3 -0.010965 -0.013744 0.018589 0.000000 0.005043 0.000000
# 4 0.000000 0.000000 0.000000 -0.092947 0.000000 -0.064877
# 5 -0.006918 -0.007159 0.005043 0.000000 0.035245 0.000000
# 6 0.000000 0.000000 0.000000 -0.064877 0.000000 0.011697
#
#
# Mechanical properties :
#
#
# Convention : Reuss Voigt Hill
#
# Bulk Modulus (GPa) = 29.03318 59.07797 44.05558
# Shear Modulus (GPa) = 42.52629 16.70396 29.61513
#
# Velocity S-wave (km/s) = 4.72975 2.96428 3.94699
# Velocity P-wave (km/s) = 6.71565 6.54166 6.62923
#
# Compressibility (1/GPa) = 0.03444335
#
# Stress axis : x y z
#
# Youngs Moduli (GPa) = 45.84246 18.91516 53.79588
#
# Poissons Ratio (x) = 0.08899 0.58985
# Poissons Ratio (y) = 0.21568 0.73938
# Poissons Ratio (z) = 0.50265 0.25997
#
# Static dielectric constant tensor:
#      x y z
#    x 3.619420 0.000000 -0.061390 
#    y 0.000000 3.267720 0.000000 
#    z -0.061390 0.000000 3.586440 
# 
# 
# High freq. dielectric constant tensor:
#      x y z
#    x 1.745950 0.000000 -0.008130 
#    y 0.000000 1.716810 0.000000 
#    z -0.008130 0.000000 1.749140 
# 
# From -- ./inp_files/66625.got.cif
#   From: 2010.06.25/outbox.cif.g09.slc.cpg/sg10_34_cif.got.tgz:66625.got - 2010.06.27 22:07:45.
