data_PCOD8059802
_publ_section_title
;
Structure prediction by ZEFSAII (Michael W. Deem and Ramdas Pophale) SiO2 
 PCOD8059802
Probable space group: P 2/M
;
_chemical_formula_sum "Si O2"
_cell_formula_units_Z 32
_cell_length_a 12.094489
_cell_length_b 9.365789
_cell_length_c 20.736618
_cell_angle_alpha 90.000000
_cell_angle_beta 51.406304
_cell_angle_gamma 90.000000
_cell_volume 1835.897035
_symmetry_space_group_name_H-M "P 2/M"
_symmetry_group_IT_number 10
_symmetry_cell_setting 'monoclinic'
loop_
_space_group_symop_operation_xyz
x,y,z
-x,y,-z
-x,-y,-z
x,-y,z
loop_
_atom_site_type_symbol
_atom_site_label
_atom_site_fract_x
_atom_site_fract_y
_atom_site_fract_z
Si Si1 0.944682 0.164314 0.709858
Si Si2 0.659618 0.162792 0.750664
Si Si3 0.341453 0.665297 0.377844
Si Si4 0.340382 0.337208 0.749336
Si Si5 0.899647 0.166898 0.477069
Si Si6 0.100353 0.333102 0.022931
Si Si7 0.055318 0.335686 0.790142
Si Si8 0.658547 0.834703 0.122156
O O1 0.777047 0.193109 0.762337
O O2 0.000000 0.250000 0.750000
O O3 0.024614 0.213854 0.616178
O O4 0.975792 0.000000 0.712496
O O5 0.685736 0.268930 0.682374
O O6 0.505515 0.186118 0.838151
O O7 0.676092 0.000000 0.718522
O O8 0.298782 0.500000 0.391149
O O9 0.505515 0.686117 0.338151
O O10 0.246446 0.745695 0.465156
O O11 0.323908 0.500000 0.781478
O O12 0.314264 0.231070 0.817626
O O13 0.222953 0.306891 0.737663
O O14 0.000000 0.209227 0.500000
O O15 0.863975 0.000000 0.491220
O O16 0.136025 0.500000 0.008780
O O17 0.024614 0.286145 0.116178
O O18 0.246446 0.245695 0.965156
O O19 0.000000 0.290773 0.000000
O O20 0.024208 0.500000 0.787504
O O21 0.701218 0.000000 0.108851
#
# Coordination Sequence:
#
# PCOD8059802 Si02
#       8
#     4   4   4   4   4   4   4   4
#     4  10  21  37  56  76 104 143 178 213 261 316
#     4   9  18  35  53  74 108 145 173 207 267 321
#     4  10  19  30  53  84 107 131 174 227 261 298
#     4   9  18  35  53  74 108 145 173 207 267 321
#     4  10  19  35  56  76 105 143 176 212 265 318
#     4  10  19  35  56  76 105 143 176 212 265 318
#     4  10  21  37  56  76 104 143 178 213 261 316
#     4  10  19  30  53  84 107 131 174 227 261 298
#
# _framework density 17.430171000000001
#
# number of rings (size 3 to 8) (size 9 to 14) (size 15 to 20)
#    0.000    2.250    2.500    0.750    0.000    3.500 
#    0.000    1.250    0.000    7.500    0.000    0.000 
#    0.000    0.000    0.000    0.000    0.000    0.000 
#
# Total GULP energy -396835.451119 kJ/mol
# GULP energy per Si atom -12401.107847 kJ/mol
# Density = 1.739050 g / cm^3
# Si number density = 17.430171 Si / 1000 Ang^3
#
#
#
# Elastic Constant Matrix: (Units=GPa)
#
#
# Indices 1 2 3 4 5 6 
#
# 1 125.8299 58.3599 75.8431 0.0000 -2.7703 0.0000
# 2 58.3599 77.8511 61.4474 0.0000 -6.8481 0.0000
# 3 75.8431 61.4474 118.0772 0.0000 -6.2064 0.0000
# 4 0.0000 0.0000 0.0000 35.6978 0.0000 -0.2542
# 5 -2.7703 -6.8481 -6.2064 0.0000 29.9628 0.0000
# 6 0.0000 0.0000 0.0000 -0.2542 0.0000 30.0649
#
#
#
# Elastic Compliance Matrix: (Units=1/GPa)
#
#
# Indices 1 2 3 4 5 6 
#
# 1 0.014475 -0.006066 -0.006211 0.000000 -0.001335 0.000000
# 2 -0.006066 0.024553 -0.008710 0.000000 0.003247 0.000000
# 3 -0.006211 -0.008710 0.017042 0.000000 0.000965 0.000000
# 4 0.000000 0.000000 0.000000 0.028015 0.000000 0.000237
# 5 -0.001335 0.003247 0.000965 0.000000 0.034193 0.000000
# 6 0.000000 0.000000 0.000000 0.000237 0.000000 0.033263
#
#
# Mechanical properties :
#
#
# Convention : Reuss Voigt Hill
#
# Bulk Modulus (GPa) = 70.94592 79.22878 75.08735
# Shear Modulus (GPa) = 25.22527 27.55228 26.38878
#
# Velocity S-wave (km/s) = 3.80836 3.98014 3.89520
# Velocity P-wave (km/s) = 7.75432 8.16552 7.96257
#
# Compressibility (1/GPa) = 0.01409524
#
# Stress axis : x y z
#
# Youngs Moduli (GPa) = 69.08549 40.72822 58.67880
#
# Poissons Ratio (x) = 0.24706 0.36444
# Poissons Ratio (y) = 0.41908 0.51111
# Poissons Ratio (z) = 0.42908 0.35476
#
# Static dielectric constant tensor:
#      x y z
#    x 3.199670 0.000000 -0.321690 
#    y 0.000000 3.263760 0.000000 
#    z -0.321690 0.000000 3.311990 
# 
# 
# High freq. dielectric constant tensor:
#      x y z
#    x 1.660600 0.000000 -0.025370 
#    y 0.000000 1.676260 0.000000 
#    z -0.025370 0.000000 1.668070 
# 
# From -- ./inp_files/49970.got.cif
#   From: 2010.06.25/outbox.cif.g09.slc.cpg/sg10_25_cif.got.tgz:49970.got - 2010.06.27 22:07:45.
