data_PCOD8059934
_publ_section_title
;
Structure prediction by ZEFSAII (Michael W. Deem and Ramdas Pophale) SiO2 
 PCOD8059934
Probable space group: P 2/M
;
_chemical_formula_sum "Si O2"
_cell_formula_units_Z 32
_cell_length_a 11.498807
_cell_length_b 9.533459
_cell_length_c 20.611155
_cell_angle_alpha 90.000000
_cell_angle_beta 127.776539
_cell_angle_gamma 90.000000
_cell_volume 1785.894494
_symmetry_space_group_name_H-M "P 2/M"
_symmetry_group_IT_number 10
_symmetry_cell_setting 'monoclinic'
loop_
_space_group_symop_operation_xyz
x,y,z
-x,y,-z
-x,-y,-z
x,-y,z
loop_
_atom_site_type_symbol
_atom_site_label
_atom_site_fract_x
_atom_site_fract_y
_atom_site_fract_z
Si Si1 0.547356 0.165372 0.326658
Si Si2 0.061487 0.338065 0.122865
Si Si3 0.089060 0.835396 0.258896
Si Si4 0.173138 0.833940 0.743190
Si Si5 0.869829 0.833634 0.413657
Si Si6 0.405614 0.835374 0.407781
Si Si7 0.228975 0.338431 0.049401
Si Si8 0.500089 0.165857 0.834522
O O1 0.717162 0.206165 0.395897
O O2 0.458207 0.230784 0.356776
O O3 0.495277 0.221460 0.238487
O O4 0.526773 0.000000 0.317404
O O5 0.082815 0.500000 0.149164
O O6 0.112176 0.241760 0.199069
O O7 0.162129 0.298024 0.096220
O O8 0.891318 0.308435 0.047184
O O9 0.230531 0.805814 0.353869
O O10 0.940544 0.775774 0.241900
O O11 0.077166 0.000000 0.239927
O O12 0.125076 0.771462 0.657232
O O13 0.343632 0.793507 0.814602
O O14 0.158113 0.000000 0.735500
O O15 0.000000 0.764668 0.500000
O O16 0.888019 0.000000 0.416110
O O17 0.500000 0.769594 0.500000
O O18 0.438974 0.000000 0.417627
O O19 0.276851 0.500000 0.064805
O O20 0.370918 0.243558 0.082369
O O21 0.525387 0.000000 0.847091
#
# Coordination Sequence:
#
# PCOD8059934 Si02
#       8
#     4   4   4   4   4   4   4   4
#     4   8  14  23  35  57  87 117 152 188 228 274
#     4   9  19  35  52  72  97 124 152 191 243 287
#     4  10  19  31  48  69  98 131 163 194 233 287
#     4   8  16  28  41  64  96 129 161 196 236 277
#     4   8  13  20  35  55  82 121 158 191 229 273
#     4   9  17  25  37  62  95 125 151 192 240 274
#     4   9  18  33  53  74  95 118 153 198 238 285
#     4   9  16  29  48  69  96 126 156 197 240 276
#
# _framework density 17.918192999999999
#
# number of rings (size 3 to 8) (size 9 to 14) (size 15 to 20)
#    0.000    3.250    0.000    3.000    1.750    2.000 
#    0.000    2.500    0.000    4.125    0.000    0.000 
#    0.000    3.000    0.000    0.000    0.000    0.000 
#
# Total GULP energy -396548.096896 kJ/mol
# GULP energy per Si atom -12392.128028 kJ/mol
# Density = 1.787741 g / cm^3
# Si number density = 17.918193 Si / 1000 Ang^3
#
#
#
# Elastic Constant Matrix: (Units=GPa)
#
#
# Indices 1 2 3 4 5 6 
#
# 1 83.2227 19.1018 27.2227 0.0000 9.9081 0.0000
# 2 19.1018 27.2519 27.8966 0.0000 7.0899 0.0000
# 3 27.2227 27.8966 81.7107 0.0000 16.2595 0.0000
# 4 0.0000 0.0000 0.0000 6.7801 0.0000 -6.4653
# 5 9.9081 7.0899 16.2595 0.0000 29.9991 0.0000
# 6 0.0000 0.0000 0.0000 -6.4653 0.0000 7.3784
#
#
#
# Elastic Compliance Matrix: (Units=1/GPa)
#
#
# Indices 1 2 3 4 5 6 
#
# 1 0.014656 -0.007935 -0.001775 0.000000 -0.002003 0.000000
# 2 -0.007935 0.060987 -0.017745 0.000000 -0.002175 0.000000
# 3 -0.001775 -0.017745 0.020105 0.000000 -0.006117 0.000000
# 4 0.000000 0.000000 0.000000 0.897006 0.000000 0.786008
# 5 -0.002003 -0.002175 -0.006117 0.000000 0.037825 0.000000
# 6 0.000000 0.000000 0.000000 0.786008 0.000000 0.824276
#
#
# Mechanical properties :
#
#
# Convention : Reuss Voigt Hill
#
# Bulk Modulus (GPa) = 24.48668 37.84750 31.16709
# Shear Modulus (GPa) = 2.59959 16.69579 9.64769
#
# Velocity S-wave (km/s) = 1.20580 3.05582 2.32293
# Velocity P-wave (km/s) = 3.95400 5.79818 4.96251
#
# Compressibility (1/GPa) = 0.04083854
#
# Stress axis : x y z
#
# Youngs Moduli (GPa) = 68.22959 16.39687 49.73812
#
# Poissons Ratio (x) = 0.13010 0.08830
# Poissons Ratio (y) = 0.54138 0.88261
# Poissons Ratio (z) = 0.12113 0.29097
#
# Static dielectric constant tensor:
#      x y z
#    x 3.528350 0.000000 0.047480 
#    y 0.000000 2.688610 0.000000 
#    z 0.047480 0.000000 3.413690 
# 
# 
# High freq. dielectric constant tensor:
#      x y z
#    x 1.697090 0.000000 0.013950 
#    y 0.000000 1.625980 0.000000 
#    z 0.013950 0.000000 1.694730 
# 
# From -- ./inp_files/83636.got.cif
#   From: 2010.06.25/outbox.cif.g09.slc.cpg/sg10_42_cif.got.tgz:83636.got - 2010.06.27 22:07:45.
