data_PCOD8059493
_publ_section_title
;
Structure prediction by ZEFSAII (Michael W. Deem and Ramdas Pophale) SiO2 
 PCOD8059493
Probable space group: P 2/M
;
_chemical_formula_sum "Si O2"
_cell_formula_units_Z 32
_cell_length_a 20.333482
_cell_length_b 9.249397
_cell_length_c 12.383527
_cell_angle_alpha 90.000000
_cell_angle_beta 59.670046
_cell_angle_gamma 90.000000
_cell_volume 2010.233853
_symmetry_space_group_name_H-M "P 2/M"
_symmetry_group_IT_number 10
_symmetry_cell_setting 'monoclinic'
loop_
_space_group_symop_operation_xyz
x,y,z
-x,y,-z
-x,-y,-z
x,-y,z
loop_
_atom_site_type_symbol
_atom_site_label
_atom_site_fract_x
_atom_site_fract_y
_atom_site_fract_z
Si Si1 0.335683 0.834762 0.578131
Si Si2 0.895288 0.333539 0.778263
Si Si3 0.510356 0.839910 0.620344
Si Si4 0.928002 0.668505 0.334856
Si Si5 0.089860 0.163181 0.441043
Si Si6 0.372287 0.665026 0.758095
Si Si7 0.169587 0.832598 0.749692
Si Si8 0.206925 0.667763 0.935948
O O1 0.399599 0.802236 0.431877
O O2 0.349059 0.721085 0.660694
O O3 0.247897 0.818129 0.613877
O O4 0.349296 0.000000 0.609068
O O5 0.882928 0.500000 0.756432
O O6 0.871900 0.237558 0.694665
O O7 0.981850 0.306474 0.742277
O O8 0.841450 0.285437 0.920506
O O9 0.500000 0.822613 0.500000
O O10 0.449599 0.742385 0.736266
O O11 0.492127 0.000000 0.675518
O O12 0.906705 0.500000 0.355233
O O13 0.889356 0.745313 0.469996
O O14 0.896042 0.741357 0.253256
O O15 0.000000 0.163523 0.500000
O O16 0.121078 0.000000 0.427915
O O17 0.395040 0.500000 0.730505
O O18 0.296476 0.689663 0.893492
O O19 0.181599 0.770369 0.859328
O O20 0.144745 0.000000 0.779186
O O21 0.191942 0.500000 0.916681
#
# Coordination Sequence:
#
# PCOD8059493 Si02
#       8
#     4   4   4   4   4   4   4   4
#     4   8  15  26  37  50  73 107 139 166 201 245
#     4   9  18  32  48  63  82 112 145 174 207 251
#     4   8  13  22  35  50  71 101 135 166 199 242
#     4  10  19  31  47  64  83 110 143 175 211 254
#     4   9  17  30  48  68  86 102 129 175 222 254
#     4   9  15  22  35  55  77 102 134 171 205 236
#     4  10  19  30  43  60  85 115 146 178 211 246
#     4   9  18  31  43  58  85 118 147 173 205 248
#
# _framework density 15.918545999999999
#
# number of rings (size 3 to 8) (size 9 to 14) (size 15 to 20)
#    0.000    3.000    0.000    2.250    0.000    6.250 
#    0.000    2.500    0.000    0.000    0.000    0.000 
#    0.000    1.000    0.000   11.500    0.000    4.750 
#
# Total GULP energy -396479.321344 kJ/mol
# GULP energy per Si atom -12389.978792 kJ/mol
# Density = 1.588232 g / cm^3
# Si number density = 15.918546 Si / 1000 Ang^3
#
#
#
# Elastic Constant Matrix: (Units=GPa)
#
#
# Indices 1 2 3 4 5 6 
#
# 1 25.6227 26.9274 40.0193 0.0000 -14.6207 0.0000
# 2 26.9274 99.7724 55.0228 0.0000 -10.2935 0.0000
# 3 40.0193 55.0228 93.0899 0.0000 -13.1899 0.0000
# 4 0.0000 0.0000 0.0000 19.6267 0.0000 -3.4383
# 5 -14.6207 -10.2935 -13.1899 0.0000 15.5540 0.0000
# 6 0.0000 0.0000 0.0000 -3.4383 0.0000 20.9248
#
#
#
# Elastic Compliance Matrix: (Units=1/GPa)
#
#
# Indices 1 2 3 4 5 6 
#
# 1 0.396127 -0.009725 -0.128089 0.000000 0.257302 0.000000
# 2 -0.009725 0.015210 -0.005317 0.000000 -0.003585 0.000000
# 3 -0.128089 -0.005317 0.058410 0.000000 -0.074390 0.000000
# 4 0.000000 0.000000 0.000000 0.052461 0.000000 0.008620
# 5 0.257302 -0.003585 -0.074390 0.000000 0.240699 0.000000
# 6 0.000000 0.000000 0.000000 0.008620 0.000000 0.049207
#
#
# Mechanical properties :
#
#
# Convention : Reuss Voigt Hill
#
# Bulk Modulus (GPa) = 5.45006 51.38043 28.41525
# Shear Modulus (GPa) = 4.31206 17.65549 10.98377
#
# Velocity S-wave (km/s) = 1.64764 3.33395 2.62963
# Velocity P-wave (km/s) = 2.65533 6.86786 5.20664
#
# Compressibility (1/GPa) = 0.18348408
#
# Stress axis : x y z
#
# Youngs Moduli (GPa) = 2.52444 65.74582 17.12024
#
# Poissons Ratio (x) = 0.63939 2.19292
# Poissons Ratio (y) = 0.02455 0.09103
# Poissons Ratio (z) = 0.32335 0.34960
#
# Static dielectric constant tensor:
#      x y z
#    x 3.038350 0.000000 -0.440350 
#    y 0.000000 3.163680 0.000000 
#    z -0.440350 0.000000 2.980230 
# 
# 
# High freq. dielectric constant tensor:
#      x y z
#    x 1.582580 0.000000 -0.034080 
#    y 0.000000 1.625100 0.000000 
#    z -0.034080 0.000000 1.581120 
# 
# From -- ./inp_files/54862.got.cif
#   From: 2010.06.25/outbox.cif.g09.slc.cpg/sg10_28_cif.got.tgz:54862.got - 2010.06.27 22:07:45.
