data_PCOD8059377
_publ_section_title
;
Structure prediction by ZEFSAII (Michael W. Deem and Ramdas Pophale) SiO2 
 PCOD8059377
Probable space group: P 2/M
;
_chemical_formula_sum "Si O2"
_cell_formula_units_Z 32
_cell_length_a 14.375862
_cell_length_b 9.633724
_cell_length_c 14.145639
_cell_angle_alpha 90.000000
_cell_angle_beta 106.901220
_cell_angle_gamma 90.000000
_cell_volume 1874.455732
_symmetry_space_group_name_H-M "P 2/M"
_symmetry_group_IT_number 10
_symmetry_cell_setting 'monoclinic'
loop_
_space_group_symop_operation_xyz
x,y,z
-x,y,-z
-x,-y,-z
x,-y,z
loop_
_atom_site_type_symbol
_atom_site_label
_atom_site_fract_x
_atom_site_fract_y
_atom_site_fract_z
Si Si1 0.055649 0.346005 0.820575
Si Si2 0.891515 0.845950 0.004015
Si Si3 0.260705 0.836327 0.196648
Si Si4 0.213856 0.343923 0.717294
Si Si5 0.367362 0.164715 0.875533
Si Si6 0.894339 0.335553 0.496153
Si Si7 0.416812 0.836316 0.096404
Si Si8 0.153890 0.335757 0.309283
O O1 0.054562 0.500000 0.864339
O O2 0.118421 0.249967 0.907928
O O3 0.108750 0.345208 0.735938
O O4 0.945560 0.294783 0.773818
O O5 0.859009 0.000000 0.025560
O O6 0.823211 0.792595 0.900827
O O7 0.000000 0.842864 0.000000
O O8 0.361329 0.789825 0.175641
O O9 0.242884 0.747730 0.286564
O O10 0.259059 0.000000 0.220419
O O11 0.258066 0.500000 0.731112
O O12 0.287188 0.240118 0.789270
O O13 0.189139 0.292882 0.603905
O O14 0.472209 0.214779 0.866675
O O15 0.352835 0.000000 0.860469
O O16 0.361737 0.213789 0.983975
O O17 0.905965 0.500000 0.503252
O O18 0.856399 0.282171 0.586353
O O19 0.000000 0.270853 0.500000
O O20 0.416975 0.000000 0.088592
O O21 0.174621 0.500000 0.310100
#
# Coordination Sequence:
#
# PCOD8059377 Si02
#       8
#     4   4   4   4   4   4   4   4
#     4  10  19  29  44  67  95 125 159 194 229 278
#     4  10  19  29  42  64  94 127 158 188 229 279
#     4  10  19  32  48  67  96 131 161 192 235 287
#     4  10  19  31  50  75  98 123 158 202 250 290
#     4   9  17  33  55  76  96 123 163 204 239 285
#     4   9  16  31  52  69  92 130 169 199 235 290
#     4   8  16  32  54  74  95 130 167 192 231 297
#     4  10  19  31  48  69  92 125 166 199 229 275
#
# _framework density 17.071622999999999
#
# number of rings (size 3 to 8) (size 9 to 14) (size 15 to 20)
#    0.000    2.500    2.500    1.500    0.000    2.250 
#    0.000    3.125    0.000    1.500    0.000    5.250 
#    0.000    0.000    0.000    0.000    0.000    0.000 
#
# Total GULP energy -396633.584265 kJ/mol
# GULP energy per Si atom -12394.799508 kJ/mol
# Density = 1.703277 g / cm^3
# Si number density = 17.071623 Si / 1000 Ang^3
#
#
#
# Elastic Constant Matrix: (Units=GPa)
#
#
# Indices 1 2 3 4 5 6 
#
# 1 83.2012 25.9518 43.2960 0.0000 -14.3588 0.0000
# 2 25.9518 45.8431 40.6414 0.0000 -3.9172 0.0000
# 3 43.2960 40.6414 101.3352 0.0000 -17.0768 0.0000
# 4 0.0000 0.0000 0.0000 13.1598 0.0000 1.2709
# 5 -14.3588 -3.9172 -17.0768 0.0000 27.6393 0.0000
# 6 0.0000 0.0000 0.0000 1.2709 0.0000 19.7176
#
#
#
# Elastic Compliance Matrix: (Units=1/GPa)
#
#
# Indices 1 2 3 4 5 6 
#
# 1 0.016765 -0.005411 -0.004079 0.000000 0.005423 0.000000
# 2 -0.005411 0.035997 -0.013103 0.000000 -0.005805 0.000000
# 3 -0.004079 -0.013103 0.018078 0.000000 0.007194 0.000000
# 4 0.000000 0.000000 0.000000 0.076465 0.000000 -0.004929
# 5 0.005423 -0.005805 0.007194 0.000000 0.042619 0.000000
# 6 0.000000 0.000000 0.000000 -0.004929 0.000000 0.051034
#
#
# Mechanical properties :
#
#
# Convention : Reuss Voigt Hill
#
# Bulk Modulus (GPa) = 38.98057 50.01754 44.49906
# Shear Modulus (GPa) = 16.96653 20.13603 18.55128
#
# Velocity S-wave (km/s) = 3.15595 3.43812 3.30005
# Velocity P-wave (km/s) = 6.01358 6.71737 6.37520
#
# Compressibility (1/GPa) = 0.02565381
#
# Stress axis : x y z
#
# Youngs Moduli (GPa) = 59.64668 27.77983 55.31434
#
# Poissons Ratio (x) = 0.15033 0.22563
# Poissons Ratio (y) = 0.32277 0.72480
# Poissons Ratio (z) = 0.24330 0.36401
#
# Static dielectric constant tensor:
#      x y z
#    x 3.438930 0.000000 -0.214780 
#    y 0.000000 2.950260 0.000000 
#    z -0.214780 0.000000 3.213950 
# 
# 
# High freq. dielectric constant tensor:
#      x y z
#    x 1.652170 0.000000 -0.011550 
#    y 0.000000 1.629190 0.000000 
#    z -0.011550 0.000000 1.649780 
# 
# From -- ./inp_files/66195.got.cif
#   From: 2010.06.25/outbox.cif.g09.slc.cpg/sg10_34_cif.got.tgz:66195.got - 2010.06.27 22:07:45.
