data_PCOD8059606
_publ_section_title
;
Structure prediction by ZEFSAII (Michael W. Deem and Ramdas Pophale) SiO2 
 PCOD8059606
Probable space group: P 2/M
;
_chemical_formula_sum "Si O2"
_cell_formula_units_Z 24
_cell_length_a 14.315329
_cell_length_b 7.556333
_cell_length_c 32.009646
_cell_angle_alpha 90.000000
_cell_angle_beta 26.563728
_cell_angle_gamma 90.000000
_cell_volume 1548.418073
_symmetry_space_group_name_H-M "P 2/M"
_symmetry_group_IT_number 10
_symmetry_cell_setting 'monoclinic'
loop_
_space_group_symop_operation_xyz
x,y,z
-x,y,-z
-x,-y,-z
x,-y,z
loop_
_atom_site_type_symbol
_atom_site_label
_atom_site_fract_x
_atom_site_fract_y
_atom_site_fract_z
Si Si1 0.175137 0.500000 0.110594
Si Si2 0.526949 0.798031 0.108226
Si Si3 0.595054 0.701979 0.256582
Si Si4 0.040148 0.798031 0.108226
Si Si5 0.382487 0.500000 0.110594
Si Si6 0.378621 0.701979 0.256581
Si Si7 0.682049 0.000000 0.603682
Si Si8 0.903223 0.000000 0.603682
O O1 0.052952 0.675141 0.144209
O O2 0.188719 0.500000 0.155641
O O3 0.405240 0.500000 0.000000
O O4 0.370214 0.675142 0.144208
O O5 0.512177 0.750000 0.162604
O O6 0.461814 0.000000 0.125655
O O7 0.765382 0.761078 1.000000
O O8 0.551930 0.500000 0.286852
O O9 0.530827 0.738950 0.234586
O O10 0.461465 0.824851 0.341364
O O11 0.837406 0.750001 0.162605
O O12 0.035564 0.000000 0.125656
O O13 0.300664 0.500000 0.286852
O O14 0.173079 0.824851 0.341364
O O15 0.810489 0.000000 0.594755
O O16 0.844368 0.000000 0.500000
#
# Coordination Sequence:
#
# PCOD8059606 Si02
#       8
#     2   4   4   4   2   4   2   2
#     4   9  18  32  47  65  92 123 155 193 235 272
#     4  10  19  30  46  68  95 127 158 189 225 269
#     4  10  19  30  46  68  95 127 158 189 225 269
#     4  10  19  30  46  68  95 127 158 189 225 269
#     4   9  18  32  47  65  92 123 155 193 235 272
#     4  10  19  30  46  68  95 127 158 189 225 269
#     4   9  18  32  47  65  92 123 155 193 235 272
#     4   9  18  32  47  65  92 123 155 193 235 272
#
# _framework density 15.499689
#
# number of rings (size 3 to 8) (size 9 to 14) (size 15 to 20)
#    0.000    2.333    3.333    0.000    0.000    2.000 
#    0.000   10.000    0.000    0.000    0.000    0.000 
#    0.000    4.000    0.000    0.000    0.000    0.000 
#
# Total GULP energy -297577.010313 kJ/mol
# GULP energy per Si atom -12399.042096 kJ/mol
# Density = 1.546441 g / cm^3
# Si number density = 15.499689 Si / 1000 Ang^3
#
#
#
# Elastic Constant Matrix: (Units=GPa)
#
#
# Indices 1 2 3 4 5 6 
#
# 1 78.8423 53.3446 45.3568 0.0000 0.6525 0.0000
# 2 53.3446 149.5401 53.3397 0.0000 -0.0001 0.0000
# 3 45.3568 53.3397 78.7919 0.0000 -0.6517 0.0000
# 4 0.0000 0.0000 0.0000 17.9134 0.0000 0.0000
# 5 0.6525 -0.0001 -0.6517 0.0000 3.3054 0.0000
# 6 0.0000 0.0000 0.0000 0.0000 0.0000 17.9165
#
#
#
# Elastic Compliance Matrix: (Units=1/GPa)
#
#
# Indices 1 2 3 4 5 6 
#
# 1 0.020857 -0.004140 -0.009253 0.000000 -0.005942 0.000000
# 2 -0.004140 0.009642 -0.004144 0.000000 0.000000 0.000000
# 3 -0.009253 -0.004144 0.020873 0.000000 0.005942 0.000000
# 4 0.000000 0.000000 0.000000 0.055824 0.000000 0.000000
# 5 -0.005942 0.000000 0.005942 0.000000 0.304882 0.000000
# 6 0.000000 0.000000 0.000000 0.000000 0.000000 0.055815
#
#
# Mechanical properties :
#
#
# Convention : Reuss Voigt Hill
#
# Bulk Modulus (GPa) = 61.35824 67.91739 64.63781
# Shear Modulus (GPa) = 9.83478 18.16927 14.00203
#
# Velocity S-wave (km/s) = 2.52169 3.42751 3.00888
# Velocity P-wave (km/s) = 6.93911 7.71864 7.33923
#
# Compressibility (1/GPa) = 0.01629773
#
# Stress axis : x y z
#
# Youngs Moduli (GPa) = 47.94626 103.71105 47.90886
#
# Poissons Ratio (x) = 0.42933 0.44330
# Poissons Ratio (y) = 0.19848 0.19856
# Poissons Ratio (z) = 0.44364 0.42983
#
# Static dielectric constant tensor:
#      x y z
#    x 2.882280 0.000000 0.000000 
#    y 0.000000 3.327410 0.000000 
#    z 0.000000 0.000000 2.882010 
# 
# 
# High freq. dielectric constant tensor:
#      x y z
#    x 1.565090 0.000000 0.000000 
#    y 0.000000 1.619070 0.000000 
#    z 0.000000 0.000000 1.565070 
# 
# From -- ./inp_files/28875.got.cif
#   From: 2010.06.25/outbox.cif.g09.slc.cpg/sg10_15_cif.got.tgz:28875.got - 2010.06.27 22:07:45.
