data_PCOD8059382
_publ_section_title
;
Structure prediction by ZEFSAII (Michael W. Deem and Ramdas Pophale) SiO2 
 PCOD8059382
Probable space group: P 2/M
;
_chemical_formula_sum "Si O2"
_cell_formula_units_Z 24
_cell_length_a 5.050037
_cell_length_b 22.196321
_cell_length_c 15.165794
_cell_angle_alpha 90.000000
_cell_angle_beta 120.476655
_cell_angle_gamma 90.000000
_cell_volume 1465.093300
_symmetry_space_group_name_H-M "P 2/M"
_symmetry_group_IT_number 10
_symmetry_cell_setting 'monoclinic'
loop_
_space_group_symop_operation_xyz
x,y,z
-x,y,-z
-x,-y,-z
x,-y,z
loop_
_atom_site_type_symbol
_atom_site_label
_atom_site_fract_x
_atom_site_fract_y
_atom_site_fract_z
Si Si1 0.644516 0.565209 0.930902
Si Si2 0.659418 0.682019 0.121221
Si Si3 0.331085 0.930971 0.884962
Si Si4 0.314178 0.879393 0.214261
Si Si5 0.166459 0.751955 0.122246
Si Si6 0.651649 0.931083 0.431437
O O1 0.641306 0.500000 0.879127
O O2 0.420860 0.616194 0.848838
O O3 0.500000 0.552093 0.000000
O O4 0.000000 0.588564 0.000000
O O5 0.513747 0.731471 0.161661
O O6 0.009147 0.701115 0.159341
O O7 0.500000 0.681466 0.000000
O O8 0.441620 0.892183 0.821054
O O9 0.966951 0.926092 0.836613
O O10 0.421233 0.000000 0.883774
O O11 0.500000 0.905437 0.000000
O O12 0.174768 0.813001 0.179540
O O13 0.484273 0.886157 0.336083
O O14 0.000000 0.761793 0.000000
O O15 0.500000 0.924880 0.500000
O O16 0.000000 0.909927 0.500000
O O17 0.632193 0.000000 0.392805
#
# Coordination Sequence:
#
# PCOD8059382 Si02
#       6
#     4   4   4   4   4   4
#     4   9  15  23  37  56  78 110 155 198 225 244
#     4   9  16  27  39  56  84 117 151 186 217 246
#     4  11  22  34  49  70  95 120 147 183 226 273
#     4  12  22  35  52  70  92 120 153 186 230 282
#     4  10  19  29  43  62  88 120 150 178 213 264
#     4  10  21  37  55  72  88 109 144 192 242 287
#
# _framework density 16.381208999999998
#
# number of rings (size 3 to 8) (size 9 to 14) (size 15 to 20)
#    0.000    1.833    0.000    7.500    0.000    4.000 
#    0.000    0.000    0.000    0.000    0.000    0.000 
#    0.000    0.000    0.000    0.000    0.000   16.667 
#
# Total GULP energy -297396.691685 kJ/mol
# GULP energy per Si atom -12391.528820 kJ/mol
# Density = 1.634393 g / cm^3
# Si number density = 16.381209 Si / 1000 Ang^3
#
#
#
# Elastic Constant Matrix: (Units=GPa)
#
#
# Indices 1 2 3 4 5 6 
#
# 1 93.9212 21.7319 23.4265 0.0000 7.2131 0.0000
# 2 21.7319 90.3460 27.2538 0.0000 0.7778 0.0000
# 3 23.4265 27.2538 68.5227 0.0000 5.5811 0.0000
# 4 0.0000 0.0000 0.0000 5.8836 0.0000 2.4967
# 5 7.2131 0.7778 5.5811 0.0000 15.7793 0.0000
# 6 0.0000 0.0000 0.0000 2.4967 0.0000 24.5217
#
#
#
# Elastic Compliance Matrix: (Units=1/GPa)
#
#
# Indices 1 2 3 4 5 6 
#
# 1 0.012199 -0.001985 -0.003022 0.000000 -0.004410 0.000000
# 2 -0.001985 0.012922 -0.004616 0.000000 0.001903 0.000000
# 3 -0.003022 -0.004616 0.017846 0.000000 -0.004703 0.000000
# 4 0.000000 0.000000 0.000000 0.177638 0.000000 -0.018087
# 5 -0.004410 0.001903 -0.004703 0.000000 0.066960 0.000000
# 6 0.000000 0.000000 0.000000 -0.018087 0.000000 0.042622
#
#
# Mechanical properties :
#
#
# Convention : Reuss Voigt Hill
#
# Bulk Modulus (GPa) = 42.15611 44.17937 43.16774
# Shear Modulus (GPa) = 13.99234 21.26211 17.62722
#
# Velocity S-wave (km/s) = 2.92579 3.60663 3.28390
# Velocity P-wave (km/s) = 6.09950 6.66121 6.38654
#
# Compressibility (1/GPa) = 0.02372135
#
# Stress axis : x y z
#
# Youngs Moduli (GPa) = 81.97465 77.38705 56.03550
#
# Poissons Ratio (x) = 0.15360 0.16934
# Poissons Ratio (y) = 0.16270 0.25866
# Poissons Ratio (z) = 0.24772 0.35722
#
# Static dielectric constant tensor:
#      x y z
#    x 3.463610 0.000000 0.018030 
#    y 0.000000 3.462150 0.000000 
#    z 0.018030 0.000000 2.614740 
# 
# 
# High freq. dielectric constant tensor:
#      x y z
#    x 1.660870 0.000000 0.000190 
#    y 0.000000 1.630860 0.000000 
#    z 0.000190 0.000000 1.554380 
# 
# From -- ./inp_files/59584.got.cif
#   From: 2010.06.25/outbox.cif.g09.slc.cpg/sg10_30_cif.got.tgz:59584.got - 2010.06.27 22:07:45.
