data_PCOD8059677
_publ_section_title
;
Structure prediction by ZEFSAII (Michael W. Deem and Ramdas Pophale) SiO2 
 PCOD8059677
Probable space group: P 2/M
;
_chemical_formula_sum "Si O2"
_cell_formula_units_Z 32
_cell_length_a 19.370784
_cell_length_b 9.845447
_cell_length_c 14.816225
_cell_angle_alpha 90.000000
_cell_angle_beta 38.873099
_cell_angle_gamma 90.000000
_cell_volume 1773.378636
_symmetry_space_group_name_H-M "P 2/M"
_symmetry_group_IT_number 10
_symmetry_cell_setting 'monoclinic'
loop_
_space_group_symop_operation_xyz
x,y,z
-x,y,-z
-x,-y,-z
x,-y,z
loop_
_atom_site_type_symbol
_atom_site_label
_atom_site_fract_x
_atom_site_fract_y
_atom_site_fract_z
Si Si1 0.019135 0.146548 0.194865
Si Si2 0.874787 0.160947 0.629975
Si Si3 0.404924 0.656951 0.796044
Si Si4 0.305223 0.660526 0.711272
Si Si5 0.200544 0.845688 0.484360
Si Si6 0.242059 0.155938 0.071458
Si Si7 0.343266 0.658130 0.470488
Si Si8 0.925571 0.355761 0.993714
O O1 0.141106 0.165182 0.106621
O O2 0.929508 0.159612 0.363786
O O3 0.007714 0.000000 0.158911
O O4 0.997267 0.262163 0.145025
O O5 0.799613 0.200946 0.619870
O O6 0.802828 0.214492 0.787718
O O7 0.000000 0.222390 0.500000
O O8 0.886825 0.000000 0.626313
O O9 0.367887 0.500000 0.845581
O O10 0.388720 0.701482 0.707045
O O11 0.532403 0.675027 0.689961
O O12 0.338588 0.749807 0.934008
O O13 0.301156 0.500000 0.704352
O O14 0.335998 0.717486 0.580605
O O15 0.186470 0.718588 0.861813
O O16 0.267803 0.744955 0.479920
O O17 0.245833 0.000000 0.450477
O O18 0.284502 0.000000 0.036783
O O19 0.306706 0.500000 0.503253
O O20 0.897159 0.500000 0.973282
O O21 0.000000 0.394539 0.000000
#
# Coordination Sequence:
#
# PCOD8059677 Si02
#       8
#     4   4   4   4   4   4   4   4
#     4  10  19  31  50  77 107 136 166 209 266 318
#     4   9  16  32  58  82 105 137 176 214 257 317
#     4  10  20  36  57  78 104 142 183 221 261 307
#     4   9  17  32  53  76 101 136 183 221 254 305
#     4  10  20  35  56  81 108 138 174 218 267 316
#     4  10  19  33  56  83 106 132 172 219 264 311
#     4  10  21  37  56  77 104 141 183 223 262 307
#     4  10  19  30  47  73 105 140 175 212 255 309
#
# _framework density 18.044651000000002
#
# number of rings (size 3 to 8) (size 9 to 14) (size 15 to 20)
#    0.000    2.250    2.500    1.125    0.000    3.750 
#    0.000    2.500    0.000    6.000    0.000    0.000 
#    0.000    0.000    0.000    0.000    0.000    0.000 
#
# Total GULP energy -396497.112138 kJ/mol
# GULP energy per Si atom -12390.534754 kJ/mol
# Density = 1.800358 g / cm^3
# Si number density = 18.044651 Si / 1000 Ang^3
#
#
#
# Elastic Constant Matrix: (Units=GPa)
#
#
# Indices 1 2 3 4 5 6 
#
# 1 73.6295 35.6239 39.6741 0.0000 9.9882 0.0000
# 2 35.6239 72.3866 48.7494 0.0000 10.4678 0.0000
# 3 39.6741 48.7494 96.5080 0.0000 17.1476 0.0000
# 4 0.0000 0.0000 0.0000 30.1400 0.0000 0.5704
# 5 9.9882 10.4678 17.1476 0.0000 32.1317 0.0000
# 6 0.0000 0.0000 0.0000 0.5704 0.0000 25.6415
#
#
#
# Elastic Compliance Matrix: (Units=1/GPa)
#
#
# Indices 1 2 3 4 5 6 
#
# 1 0.019214 -0.006210 -0.004485 0.000000 -0.001556 0.000000
# 2 -0.006210 0.022994 -0.008920 0.000000 -0.000800 0.000000
# 3 -0.004485 -0.008920 0.017618 0.000000 -0.005102 0.000000
# 4 0.000000 0.000000 0.000000 0.033192 0.000000 -0.000738
# 5 -0.001556 -0.000800 -0.005102 0.000000 0.034589 0.000000
# 6 0.000000 0.000000 0.000000 -0.000738 0.000000 0.039016
#
#
# Mechanical properties :
#
#
# Convention : Reuss Voigt Hill
#
# Bulk Modulus (GPa) = 48.55516 54.51320 51.53418
# Shear Modulus (GPa) = 23.50522 25.48110 24.49316
#
# Velocity S-wave (km/s) = 3.61309 3.76189 3.68824
# Velocity P-wave (km/s) = 6.66128 7.01034 6.83804
#
# Compressibility (1/GPa) = 0.02059513
#
# Stress axis : x y z
#
# Youngs Moduli (GPa) = 52.04507 43.49015 56.76022
#
# Poissons Ratio (x) = 0.27008 0.25460
# Poissons Ratio (y) = 0.32321 0.50629
# Poissons Ratio (z) = 0.23345 0.38792
#
# Static dielectric constant tensor:
#      x y z
#    x 3.239770 0.000000 0.078220 
#    y 0.000000 3.195220 0.000000 
#    z 0.078220 0.000000 3.454780 
# 
# 
# High freq. dielectric constant tensor:
#      x y z
#    x 1.692250 0.000000 0.001220 
#    y 0.000000 1.669500 0.000000 
#    z 0.001220 0.000000 1.700360 
# 
# From -- ./inp_files/46662.got.cif
#   From: 2010.06.25/outbox.cif.g09.slc.cpg/sg10_24_cif.got.tgz:46662.got - 2010.06.27 22:07:45.
