data_PCOD8059355
_publ_section_title
;
Structure prediction by ZEFSAII (Michael W. Deem and Ramdas Pophale) SiO2 
 PCOD8059355
Probable space group: P 2/M
;
_chemical_formula_sum "Si O2"
_cell_formula_units_Z 32
_cell_length_a 22.903191
_cell_length_b 9.157185
_cell_length_c 11.450873
_cell_angle_alpha 90.000000
_cell_angle_beta 125.364751
_cell_angle_gamma 90.000000
_cell_volume 1958.447965
_symmetry_space_group_name_H-M "P 2/M"
_symmetry_group_IT_number 10
_symmetry_cell_setting 'monoclinic'
loop_
_space_group_symop_operation_xyz
x,y,z
-x,y,-z
-x,-y,-z
x,-y,z
loop_
_atom_site_type_symbol
_atom_site_label
_atom_site_fract_x
_atom_site_fract_y
_atom_site_fract_z
Si Si1 0.303827 0.664395 0.315917
Si Si2 0.390138 0.827218 0.810740
Si Si3 0.868797 0.171392 0.674083
Si Si4 0.146808 0.333095 0.104384
Si Si5 0.022799 0.836680 0.891771
Si Si6 0.432019 0.173313 0.348775
Si Si7 0.734156 0.671249 0.461874
Si Si8 0.463338 0.827492 0.129660
O O1 0.333923 0.500000 0.342888
O O2 0.229159 0.676277 0.156737
O O3 0.359581 0.773733 0.323973
O O4 0.291450 0.707451 0.436575
O O5 0.320107 0.740215 0.692928
O O6 0.456703 0.772804 0.808505
O O7 0.377246 0.000000 0.782402
O O8 0.406974 0.783131 0.964209
O O9 0.859136 0.226876 0.793592
O O10 0.812248 0.257377 0.527466
O O11 0.951799 0.201711 0.732509
O O12 0.851639 0.000000 0.650109
O O13 0.128284 0.500000 0.117573
O O14 0.088897 0.274415 0.941879
O O15 0.048970 0.000000 0.892366
O O16 0.000000 0.824742 0.000000
O O17 0.500000 0.230859 0.500000
O O18 0.438329 0.237718 0.224806
O O19 0.429849 0.000000 0.345043
O O20 0.740489 0.500000 0.447527
O O21 0.467627 0.000000 0.141373
#
# Coordination Sequence:
#
# PCOD8059355 Si02
#       8
#     4   4   4   4   4   4   4   4
#     4   9  19  31  40  57  86 117 145 174 211 252
#     4   9  16  30  50  64  82 112 140 172 216 260
#     4   9  16  25  37  55  80 110 143 174 208 253
#     4   9  16  25  37  54  79 110 143 177 210 247
#     4   8  14  23  35  53  77 106 141 175 205 247
#     4  10  19  30  46  67  87 108 141 180 211 247
#     4  10  19  29  41  61  88 113 144 182 213 249
#     4   8  16  30  47  68  87 106 139 178 214 254
#
# _framework density 16.339469000000001
#
# number of rings (size 3 to 8) (size 9 to 14) (size 15 to 20)
#    0.000    3.000    0.000    4.125    0.000    7.000 
#    0.000    2.500    0.000    0.000    0.000    0.000 
#    0.000    1.000    0.000   11.250    0.000    8.125 
#
# Total GULP energy -396519.640280 kJ/mol
# GULP energy per Si atom -12391.238759 kJ/mol
# Density = 1.630228 g / cm^3
# Si number density = 16.339469 Si / 1000 Ang^3
#
#
#
# Elastic Constant Matrix: (Units=GPa)
#
#
# Indices 1 2 3 4 5 6 
#
# 1 53.6547 30.3465 51.7365 0.0000 15.9114 0.0000
# 2 30.3465 64.9863 50.7081 0.0000 17.3030 0.0000
# 3 51.7365 50.7081 118.0152 0.0000 28.4224 0.0000
# 4 0.0000 0.0000 0.0000 15.2292 0.0000 4.4722
# 5 15.9114 17.3030 28.4224 0.0000 30.3441 0.0000
# 6 0.0000 0.0000 0.0000 4.4722 0.0000 16.7214
#
#
#
# Elastic Compliance Matrix: (Units=1/GPa)
#
#
# Indices 1 2 3 4 5 6 
#
# 1 0.034273 -0.006000 -0.011548 0.000000 -0.003734 0.000000
# 2 -0.006000 0.024806 -0.006946 0.000000 -0.004493 0.000000
# 3 -0.011548 -0.006946 0.018218 0.000000 -0.007048 0.000000
# 4 0.000000 0.000000 0.000000 0.071260 0.000000 -0.019059
# 5 -0.003734 -0.004493 -0.007048 0.000000 0.044077 0.000000
# 6 0.000000 0.000000 0.000000 -0.019059 0.000000 0.064901
#
#
# Mechanical properties :
#
#
# Convention : Reuss Voigt Hill
#
# Bulk Modulus (GPa) = 35.32374 55.80428 45.56401
# Shear Modulus (GPa) = 15.82482 19.38327 17.60405
#
# Velocity S-wave (km/s) = 3.11545 3.44799 3.28593
# Velocity P-wave (km/s) = 5.88277 7.07663 6.50714
#
# Compressibility (1/GPa) = 0.02830957
#
# Stress axis : x y z
#
# Youngs Moduli (GPa) = 29.17714 40.31316 54.89091
#
# Poissons Ratio (x) = 0.24187 0.63387
# Poissons Ratio (y) = 0.17506 0.38129
# Poissons Ratio (z) = 0.33693 0.28003
#
# Static dielectric constant tensor:
#      x y z
#    x 3.057740 0.000000 0.406330 
#    y 0.000000 3.004920 0.000000 
#    z 0.406330 0.000000 3.386600 
# 
# 
# High freq. dielectric constant tensor:
#      x y z
#    x 1.590120 0.000000 0.041950 
#    y 0.000000 1.623970 0.000000 
#    z 0.041950 0.000000 1.619800 
# 
# From -- ./inp_files/56454.got.cif
#   From: 2010.06.25/outbox.cif.g09.slc.cpg/sg10_29_cif.got.tgz:56454.got - 2010.06.27 22:07:45.
