data_PCOD8059240
_publ_section_title
;
Structure prediction by ZEFSAII (Michael W. Deem and Ramdas Pophale) SiO2 
 PCOD8059240
Probable space group: P 2/M
;
_chemical_formula_sum "Si O2"
_cell_formula_units_Z 32
_cell_length_a 19.676700
_cell_length_b 8.871532
_cell_length_c 24.350611
_cell_angle_alpha 90.000000
_cell_angle_beta 22.664561
_cell_angle_gamma 90.000000
_cell_volume 1637.946102
_symmetry_space_group_name_H-M "P 2/M"
_symmetry_group_IT_number 10
_symmetry_cell_setting 'monoclinic'
loop_
_space_group_symop_operation_xyz
x,y,z
-x,y,-z
-x,-y,-z
x,-y,z
loop_
_atom_site_type_symbol
_atom_site_label
_atom_site_fract_x
_atom_site_fract_y
_atom_site_fract_z
Si Si1 0.803135 0.321517 0.432192
Si Si2 0.673017 0.678771 0.340931
Si Si3 0.628729 0.323342 0.735322
Si Si4 0.329245 0.177674 0.888483
Si Si5 0.985421 0.321591 0.184862
Si Si6 0.639878 0.320738 0.850906
Si Si7 0.028792 0.677560 0.582557
Si Si8 0.594189 0.678819 0.278669
O O1 0.793714 0.500000 0.443269
O O2 0.910399 0.270883 0.299223
O O3 0.896291 0.253125 0.416637
O O4 0.605275 0.259838 0.574695
O O5 0.500000 0.747066 0.500000
O O6 0.660682 0.500000 0.354407
O O7 0.850225 0.734533 0.238693
O O8 0.679667 0.730249 0.272612
O O9 0.592066 0.500000 0.753968
O O10 0.509631 0.234609 0.781089
O O11 0.583725 0.272865 0.831119
O O12 0.834223 0.286317 0.568886
O O13 0.299997 0.243715 0.849418
O O14 0.332658 0.000000 0.883328
O O15 0.167869 0.234593 0.045073
O O16 0.018075 0.500000 0.157056
O O17 0.645539 0.500000 0.850629
O O18 0.835125 0.252516 0.716079
O O19 0.500000 0.256439 0.000000
O O20 0.006473 0.500000 0.605535
O O21 0.605286 0.500000 0.263154
#
# Coordination Sequence:
#
# PCOD8059240 Si02
#       8
#     4   4   4   4   4   4   4   4
#     4   9  16  28  55  88 113 138 180 232 278 328
#     4   9  16  30  58  92 118 138 177 236 288 334
#     4  10  19  35  59  81 108 147 185 228 279 331
#     4  12  26  40  53  77 115 154 193 238 278 326
#     4  10  20  35  58  87 114 145 183 231 289 341
#     4   9  18  29  48  86 123 142 170 220 278 335
#     4   9  16  28  50  84 116 141 173 220 274 327
#     4  10  18  35  61  87 112 143 185 234 284 336
#
# _framework density 19.536660999999999
#
# number of rings (size 3 to 8) (size 9 to 14) (size 15 to 20)
#    0.000    2.250    2.500    1.500    1.750    2.000 
#    0.000    3.750    0.000    2.625    0.000    0.000 
#    0.000    0.000    0.000    0.000    0.000    0.000 
#
# Total GULP energy -396748.010783 kJ/mol
# GULP energy per Si atom -12398.375337 kJ/mol
# Density = 1.949220 g / cm^3
# Si number density = 19.536661 Si / 1000 Ang^3
#
#
#
# Elastic Constant Matrix: (Units=GPa)
#
#
# Indices 1 2 3 4 5 6 
#
# 1 121.0486 21.1160 36.4993 0.0000 17.8143 0.0000
# 2 21.1160 37.1699 19.1137 0.0000 4.1494 0.0000
# 3 36.4993 19.1137 99.7037 0.0000 10.9574 0.0000
# 4 0.0000 0.0000 0.0000 0.8828 0.0000 -2.8201
# 5 17.8143 4.1494 10.9574 0.0000 36.3599 0.0000
# 6 0.0000 0.0000 0.0000 -2.8201 0.0000 2.9407
#
#
#
# Elastic Compliance Matrix: (Units=1/GPa)
#
#
# Indices 1 2 3 4 5 6 
#
# 1 0.010314 -0.004113 -0.002568 0.000000 -0.003810 0.000000
# 2 -0.004113 0.031593 -0.004526 0.000000 -0.000226 0.000000
# 3 -0.002568 -0.004526 0.012041 0.000000 -0.001854 0.000000
# 4 0.000000 0.000000 0.000000 -0.548919 0.000000 -0.526416
# 5 -0.003810 -0.000226 -0.001854 0.000000 0.029954 0.000000
# 6 0.000000 0.000000 0.000000 -0.526416 0.000000 -0.164778
#
#
# Mechanical properties :
#
#
# Convention : Reuss Voigt Hill
#
# Bulk Modulus (GPa) = 31.71289 45.70890 38.71089
# Shear Modulus (GPa) = -8.37704 20.11622 5.86959
#
# Velocity S-wave (km/s) = -2.07296 3.21232 1.73520
# Velocity P-wave (km/s) = 3.24626 6.09967 4.88590
#
# Compressibility (1/GPa) = 0.03153292
#
# Stress axis : x y z
#
# Youngs Moduli (GPa) = 96.95773 31.65285 83.04728
#
# Poissons Ratio (x) = 0.13019 0.21330
# Poissons Ratio (y) = 0.39880 0.37586
# Poissons Ratio (z) = 0.24903 0.14326
#
# Static dielectric constant tensor:
#      x y z
#    x 3.849710 0.000000 0.013950 
#    y 0.000000 2.865040 0.000000 
#    z 0.013950 0.000000 3.703340 
# 
# 
# High freq. dielectric constant tensor:
#      x y z
#    x 1.778110 0.000000 0.004420 
#    y 0.000000 1.684830 0.000000 
#    z 0.004420 0.000000 1.769880 
# 
# From -- ./inp_files/93641.got.cif
#   From: 2010.06.25/outbox.cif.g09.slc.cpg/sg10_47_cif.got.tgz:93641.got - 2010.06.27 22:07:45.
