data_PCOD8059025
_publ_section_title
;
Structure prediction by ZEFSAII (Michael W. Deem and Ramdas Pophale) SiO2 
 PCOD8059025
Probable space group: P 2/M
;
_chemical_formula_sum "Si O2"
_cell_formula_units_Z 32
_cell_length_a 12.171918
_cell_length_b 8.968300
_cell_length_c 19.939060
_cell_angle_alpha 90.000000
_cell_angle_beta 124.919060
_cell_angle_gamma 90.000000
_cell_volume 1784.708480
_symmetry_space_group_name_H-M "P 2/M"
_symmetry_group_IT_number 10
_symmetry_cell_setting 'monoclinic'
loop_
_space_group_symop_operation_xyz
x,y,z
-x,y,-z
-x,-y,-z
x,-y,z
loop_
_atom_site_type_symbol
_atom_site_label
_atom_site_fract_x
_atom_site_fract_y
_atom_site_fract_z
Si Si1 0.621791 0.676052 0.880420
Si Si2 0.146139 0.176178 0.293728
Si Si3 0.323724 0.823813 0.234223
Si Si4 0.321074 0.670566 0.742755
Si Si5 0.646272 0.824233 0.026007
Si Si6 0.150810 0.823526 0.788861
Si Si7 0.592791 0.326745 0.372136
Si Si8 0.353561 0.824759 0.476609
O O1 0.640435 0.500000 0.884190
O O2 0.702558 0.746674 0.846439
O O3 0.466448 0.722969 0.819912
O O4 0.681957 0.740956 0.969720
O O5 0.199812 0.219993 0.238911
O O6 0.244757 0.237337 0.385885
O O7 0.997496 0.243176 0.251290
O O8 0.142439 0.000000 0.299229
O O9 0.457323 0.766203 0.316666
O O10 0.336714 0.000000 0.228906
O O11 0.296637 0.500000 0.754010
O O12 0.206344 0.768017 0.737112
O O13 0.312878 0.694771 0.659949
O O14 0.753525 0.768025 0.117838
O O15 0.654193 0.000000 0.016149
O O16 0.500000 0.775621 0.000000
O O17 0.147917 0.000000 0.785884
O O18 0.555341 0.500000 0.367907
O O19 0.672687 0.264161 0.463795
O O20 0.500000 0.786394 0.500000
O O21 0.337934 0.000000 0.484851
#
# Coordination Sequence:
#
# PCOD8059025 Si02
#       8
#     4   4   4   4   4   4   4   4
#     4  10  20  33  52  79 108 137 173 218 263 306
#     4   9  19  35  54  78 106 136 171 214 265 311
#     4  10  18  33  55  77 105 139 174 214 262 309
#     4   9  19  34  50  73 106 138 170 209 257 313
#     4  10  19  32  52  81 105 131 177 222 257 304
#     4  10  20  35  55  77 105 136 172 217 260 310
#     4  10  20  33  51  80 110 136 172 217 263 307
#     4  10  18  33  55  79 103 134 177 219 257 304
#
# _framework density 17.930098999999998
#
# number of rings (size 3 to 8) (size 9 to 14) (size 15 to 20)
#    0.000    2.250    2.500    1.875    0.000    3.500 
#    0.000    3.125    0.000    7.500    0.000    0.000 
#    0.000    0.000    0.000    0.000    0.000    0.000 
#
# Total GULP energy -396846.074855 kJ/mol
# GULP energy per Si atom -12401.439839 kJ/mol
# Density = 1.788929 g / cm^3
# Si number density = 17.930099 Si / 1000 Ang^3
#
#
#
# Elastic Constant Matrix: (Units=GPa)
#
#
# Indices 1 2 3 4 5 6 
#
# 1 131.9236 40.9065 72.1645 0.0000 -7.0987 0.0000
# 2 40.9065 51.0268 34.0747 0.0000 -9.1787 0.0000
# 3 72.1645 34.0747 116.2351 0.0000 -9.7423 0.0000
# 4 0.0000 0.0000 0.0000 20.8912 0.0000 -7.0749
# 5 -7.0987 -9.1787 -9.7423 0.0000 32.7603 0.0000
# 6 0.0000 0.0000 0.0000 -7.0749 0.0000 14.6671
#
#
#
# Elastic Compliance Matrix: (Units=1/GPa)
#
#
# Indices 1 2 3 4 5 6 
#
# 1 0.012906 -0.006339 -0.006224 0.000000 -0.000830 0.000000
# 2 -0.006339 0.028248 -0.003894 0.000000 0.005383 0.000000
# 3 -0.006224 -0.003894 0.013747 0.000000 0.001648 0.000000
# 4 0.000000 0.000000 0.000000 0.057213 0.000000 0.027598
# 5 -0.000830 0.005383 0.001648 0.000000 0.032343 0.000000
# 6 0.000000 0.000000 0.000000 0.027598 0.000000 0.081492
#
#
# Mechanical properties :
#
#
# Convention : Reuss Voigt Hill
#
# Bulk Modulus (GPa) = 45.48227 65.94188 55.71208
# Shear Modulus (GPa) = 18.78342 23.79969 21.29155
#
# Velocity S-wave (km/s) = 3.24016 3.64725 3.44972
# Velocity P-wave (km/s) = 6.27851 7.38875 6.85614
#
# Compressibility (1/GPa) = 0.02198659
#
# Stress axis : x y z
#
# Youngs Moduli (GPa) = 77.48590 35.40031 72.74351
#
# Poissons Ratio (x) = 0.22442 0.45273
# Poissons Ratio (y) = 0.49121 0.28327
# Poissons Ratio (z) = 0.48224 0.13785
#
# Static dielectric constant tensor:
#      x y z
#    x 3.371200 0.000000 -0.094750 
#    y 0.000000 3.138550 0.000000 
#    z -0.094750 0.000000 3.384350 
# 
# 
# High freq. dielectric constant tensor:
#      x y z
#    x 1.687640 0.000000 -0.022080 
#    y 0.000000 1.683460 0.000000 
#    z -0.022080 0.000000 1.686460 
# 
# From -- ./inp_files/52833.got.cif
#   From: 2010.06.25/outbox.cif.g09.slc.cpg/sg10_27_cif.got.tgz:52833.got - 2010.06.27 22:07:45.
