data_PCOD8059230
_publ_section_title
;
Structure prediction by ZEFSAII (Michael W. Deem and Ramdas Pophale) SiO2 
 PCOD8059230
Probable space group: P 2/M
;
_chemical_formula_sum "Si O2"
_cell_formula_units_Z 32
_cell_length_a 20.022617
_cell_length_b 9.114507
_cell_length_c 25.114876
_cell_angle_alpha 90.000000
_cell_angle_beta 22.762860
_cell_angle_gamma 90.000000
_cell_volume 1773.388661
_symmetry_space_group_name_H-M "P 2/M"
_symmetry_group_IT_number 10
_symmetry_cell_setting 'monoclinic'
loop_
_space_group_symop_operation_xyz
x,y,z
-x,y,-z
-x,-y,-z
x,-y,z
loop_
_atom_site_type_symbol
_atom_site_label
_atom_site_fract_x
_atom_site_fract_y
_atom_site_fract_z
Si Si1 0.636701 0.827513 0.636347
Si Si2 0.184500 0.827760 0.112249
Si Si3 0.824518 0.168243 0.660682
Si Si4 0.522196 0.325861 0.824429
Si Si5 0.977453 0.171847 0.659575
Si Si6 0.465674 0.169540 0.405999
Si Si7 0.333167 0.334362 0.659595
Si Si8 0.145829 0.830880 0.712162
O O1 0.533702 0.741448 0.757192
O O2 0.831278 0.763038 0.490302
O O3 0.538956 0.795947 0.653077
O O4 0.637532 0.000000 0.649842
O O5 0.109863 0.766241 0.222915
O O6 0.045124 0.798653 0.168598
O O7 0.231871 0.000000 0.081108
O O8 0.350880 0.732512 0.978064
O O9 0.682882 0.277375 0.742214
O O10 0.000000 0.192619 0.500000
O O11 0.854405 0.208476 0.700380
O O12 0.761828 0.000000 0.700399
O O13 0.517393 0.500000 0.824284
O O14 0.004675 0.000000 0.647516
O O15 0.624513 0.257623 0.315329
O O16 0.282190 0.216455 0.566339
O O17 0.501059 0.000000 0.391027
O O18 0.500000 0.320821 0.500000
O O19 0.279818 0.500000 0.710754
O O20 0.174096 0.258217 0.746014
O O21 0.171308 0.000000 0.707656
#
# Coordination Sequence:
#
# PCOD8059230 Si02
#       8
#     4   4   4   4   4   4   4   4
#     4  10  18  35  60  84 107 137 183 233 277 320
#     4  10  20  37  59  82 109 142 184 230 274 321
#     4  10  19  36  63  85 106 138 180 230 276 321
#     4  12  26  39  52  78 116 151 182 217 268 334
#     4   9  17  33  61  89 105 130 181 234 276 318
#     4   9  16  28  52  82 108 133 174 232 276 312
#     4   9  17  27  42  71 113 151 179 209 257 324
#     4   9  16  29  52  79 106 137 177 226 273 314
#
# _framework density 18.044549
#
# number of rings (size 3 to 8) (size 9 to 14) (size 15 to 20)
#    0.000    2.250    2.500    1.500    0.000    3.250 
#    0.000    3.750    0.000    0.750    0.000    5.250 
#    0.000    0.000    0.000    0.000    0.000    0.000 
#
# Total GULP energy -396822.370055 kJ/mol
# GULP energy per Si atom -12400.699064 kJ/mol
# Density = 1.800348 g / cm^3
# Si number density = 18.044549 Si / 1000 Ang^3
#
#
#
# Elastic Constant Matrix: (Units=GPa)
#
#
# Indices 1 2 3 4 5 6 
#
# 1 118.3963 53.7776 44.6411 0.0000 -3.1432 0.0000
# 2 53.7776 80.4754 32.9549 0.0000 -2.4755 0.0000
# 3 44.6411 32.9549 58.0724 0.0000 7.7731 0.0000
# 4 0.0000 0.0000 0.0000 12.6781 0.0000 1.7363
# 5 -3.1432 -2.4755 7.7731 0.0000 21.9195 0.0000
# 6 0.0000 0.0000 0.0000 1.7363 0.0000 11.7776
#
#
#
# Elastic Compliance Matrix: (Units=1/GPa)
#
#
# Indices 1 2 3 4 5 6 
#
# 1 0.014446 -0.006176 -0.008172 0.000000 0.004272 0.000000
# 2 -0.006176 0.019446 -0.006785 0.000000 0.003717 0.000000
# 3 -0.008172 -0.006785 0.028988 0.000000 -0.012218 0.000000
# 4 0.000000 0.000000 0.000000 0.080502 0.000000 -0.011868
# 5 0.004272 0.003717 -0.012218 0.000000 0.050986 0.000000
# 6 0.000000 0.000000 0.000000 -0.011868 0.000000 0.086657
#
#
# Mechanical properties :
#
#
# Convention : Reuss Voigt Hill
#
# Bulk Modulus (GPa) = 48.51180 57.74347 53.12763
# Shear Modulus (GPa) = 15.14407 17.64640 16.39524
#
# Velocity S-wave (km/s) = 2.90014 3.13059 3.01757
# Velocity P-wave (km/s) = 6.17716 6.71844 6.45347
#
# Compressibility (1/GPa) = 0.02061354
#
# Stress axis : x y z
#
# Youngs Moduli (GPa) = 69.22352 51.42453 34.49714
#
# Poissons Ratio (x) = 0.31758 0.28192
# Poissons Ratio (y) = 0.42749 0.23408
# Poissons Ratio (z) = 0.56570 0.34894
#
# Static dielectric constant tensor:
#      x y z
#    x 3.542150 0.000000 -0.044810 
#    y 0.000000 3.127980 0.000000 
#    z -0.044810 0.000000 3.123380 
# 
# 
# High freq. dielectric constant tensor:
#      x y z
#    x 1.715100 0.000000 -0.007150 
#    y 0.000000 1.675020 0.000000 
#    z -0.007150 0.000000 1.670930 
# 
# From -- ./inp_files/93566.got.cif
#   From: 2010.06.25/outbox.cif.g09.slc.cpg/sg10_47_cif.got.tgz:93566.got - 2010.06.27 22:07:45.
