data_PCOD8059754
_publ_section_title
;
Structure prediction by ZEFSAII (Michael W. Deem and Ramdas Pophale) SiO2 
 PCOD8059754
Probable space group: P 2/M
;
_chemical_formula_sum "Si O2"
_cell_formula_units_Z 32
_cell_length_a 8.834628
_cell_length_b 13.513496
_cell_length_c 19.402764
_cell_angle_alpha 90.000000
_cell_angle_beta 135.192069
_cell_angle_gamma 90.000000
_cell_volume 1632.464851
_symmetry_space_group_name_H-M "P 2/M"
_symmetry_group_IT_number 10
_symmetry_cell_setting 'monoclinic'
loop_
_space_group_symop_operation_xyz
x,y,z
-x,y,-z
-x,-y,-z
x,-y,z
loop_
_atom_site_type_symbol
_atom_site_label
_atom_site_fract_x
_atom_site_fract_y
_atom_site_fract_z
Si Si1 0.979676 0.729558 0.225691
Si Si2 0.622886 0.610814 0.849686
Si Si3 0.722352 0.615070 0.035431
Si Si4 0.694304 0.883762 0.208340
Si Si5 0.827205 0.208181 0.391499
Si Si6 0.772098 0.114167 0.903951
Si Si7 0.649899 0.772032 0.743614
Si Si8 0.121516 0.388845 0.679176
O O1 0.902429 0.680099 0.130118
O O2 0.827004 0.822273 0.194905
O O3 0.004756 0.650288 0.294851
O O4 0.221704 0.764153 0.286400
O O5 0.694317 0.500000 0.851897
O O6 0.695158 0.682480 0.812040
O O7 0.369190 0.614848 0.780544
O O8 0.728406 0.642184 0.956376
O O9 0.773418 0.500000 0.063019
O O10 0.500000 0.642724 0.000000
O O11 0.798939 0.863559 0.316978
O O12 0.444848 0.845038 0.127334
O O13 0.710618 0.000000 0.196679
O O14 0.600262 0.221099 0.357085
O O15 0.917861 0.316023 0.397820
O O16 0.000000 0.161612 0.500000
O O17 0.734218 0.130025 0.810256
O O18 0.783914 0.000000 0.925354
O O19 0.000000 0.163886 0.000000
O O20 0.045298 0.500000 0.635747
#
# Coordination Sequence:
#
# PCOD8059754 Si02
#       8
#     4   4   4   4   4   4   4   4
#     4  11  21  31  51  79 112 146 175 220 269 324
#     4   9  18  33  50  72 105 146 190 226 254 300
#     4  10  19  30  49  76 107 148 192 222 256 312
#     4   9  20  39  59  81 110 142 177 218 267 325
#     4   9  19  38  62  83 100 133 181 228 276 323
#     4   9  19  36  56  75 102 141 181 220 258 303
#     4  10  22  34  53  80 109 140 177 229 271 316
#     4   9  17  33  53  75 107 145 179 216 265 318
#
# _framework density 19.602260000000001
#
# number of rings (size 3 to 8) (size 9 to 14) (size 15 to 20)
#    0.000    2.500    1.250    1.125    1.750    2.000 
#    0.000    3.750    0.000    4.125    0.000    0.000 
#    0.000    0.000    0.000    0.000    0.000    0.000 
#
# Total GULP energy -396651.814441 kJ/mol
# GULP energy per Si atom -12395.369201 kJ/mol
# Density = 1.955764 g / cm^3
# Si number density = 19.602260 Si / 1000 Ang^3
#
#
#
# Elastic Constant Matrix: (Units=GPa)
#
#
# Indices 1 2 3 4 5 6 
#
# 1 123.9527 23.1122 33.0020 0.0000 18.6587 0.0000
# 2 23.1122 51.9082 12.2282 0.0000 8.3502 0.0000
# 3 33.0020 12.2282 98.6430 0.0000 8.8709 0.0000
# 4 0.0000 0.0000 0.0000 18.0482 0.0000 0.2658
# 5 18.6587 8.3502 8.8709 0.0000 15.6105 0.0000
# 6 0.0000 0.0000 0.0000 0.2658 0.0000 15.6595
#
#
#
# Elastic Compliance Matrix: (Units=1/GPa)
#
#
# Indices 1 2 3 4 5 6 
#
# 1 0.010690 -0.002588 -0.002351 0.000000 -0.010057 0.000000
# 2 -0.002588 0.021974 -0.001137 0.000000 -0.008014 0.000000
# 3 -0.002351 -0.001137 0.011337 0.000000 -0.003024 0.000000
# 4 0.000000 0.000000 0.000000 0.055421 0.000000 -0.000941
# 5 -0.010057 -0.008014 -0.003024 0.000000 0.082086 0.000000
# 6 0.000000 0.000000 0.000000 -0.000941 0.000000 0.063875
#
#
# Mechanical properties :
#
#
# Convention : Reuss Voigt Hill
#
# Bulk Modulus (GPa) = 31.39912 45.68765 38.54338
# Shear Modulus (GPa) = 18.64609 23.60773 21.12691
#
# Velocity S-wave (km/s) = 3.08753 3.47412 3.28652
# Velocity P-wave (km/s) = 5.36315 6.28097 5.84012
#
# Compressibility (1/GPa) = 0.03184803
#
# Stress axis : x y z
#
# Youngs Moduli (GPa) = 93.54487 45.50768 88.20585
#
# Poissons Ratio (x) = 0.11778 0.20739
# Poissons Ratio (y) = 0.24210 0.10033
# Poissons Ratio (z) = 0.21994 0.05176
#
# Static dielectric constant tensor:
#      x y z
#    x 3.489450 0.000000 0.155800 
#    y 0.000000 3.695580 0.000000 
#    z 0.155800 0.000000 3.273630 
# 
# 
# High freq. dielectric constant tensor:
#      x y z
#    x 1.758480 0.000000 0.008950 
#    y 0.000000 1.765730 0.000000 
#    z 0.008950 0.000000 1.730390 
# 
# From -- ./inp_files/36371.got.cif
#   From: 2010.06.25/outbox.cif.g09.slc.cpg/sg10_19_cif.got.tgz:36371.got - 2010.06.27 22:07:45.
