data_PCOD8059674
_publ_section_title
;
Structure prediction by ZEFSAII (Michael W. Deem and Ramdas Pophale) SiO2 
 PCOD8059674
Probable space group: P 2/M
;
_chemical_formula_sum "Si O2"
_cell_formula_units_Z 32
_cell_length_a 15.426726
_cell_length_b 8.369137
_cell_length_c 12.373092
_cell_angle_alpha 90.000000
_cell_angle_beta 92.615605
_cell_angle_gamma 90.000000
_cell_volume 1595.805626
_symmetry_space_group_name_H-M "P 2/M"
_symmetry_group_IT_number 10
_symmetry_cell_setting 'monoclinic'
loop_
_space_group_symop_operation_xyz
x,y,z
-x,y,-z
-x,-y,-z
x,-y,z
loop_
_atom_site_type_symbol
_atom_site_label
_atom_site_fract_x
_atom_site_fract_y
_atom_site_fract_z
Si Si1 0.194721 0.810302 0.963929
Si Si2 0.566455 0.809647 0.594310
Si Si3 0.089681 0.189958 0.554856
Si Si4 0.761260 0.809761 0.591376
Si Si5 0.467510 0.813668 0.164815
Si Si6 0.053193 0.189660 0.788722
Si Si7 0.860420 0.809946 0.805785
Si Si8 0.621718 0.315403 0.043912
O O1 0.113732 0.749659 0.888784
O O2 0.206585 0.000000 0.957678
O O3 0.178665 0.749576 0.084077
O O4 0.279742 0.725485 0.922680
O O5 0.500000 0.741374 0.500000
O O6 0.663087 0.746643 0.569928
O O7 0.540628 0.747737 0.712906
O O8 0.563449 0.000000 0.593015
O O9 0.174636 0.257636 0.498001
O O10 0.095362 0.247314 0.678709
O O11 0.000000 0.257667 0.500000
O O12 0.088885 0.000000 0.544048
O O13 0.797692 0.746924 0.707911
O O14 0.761051 0.000000 0.590064
O O15 0.398670 0.728395 0.081863
O O16 0.445123 0.000000 0.161648
O O17 0.563781 0.784521 0.124866
O O18 0.956908 0.262016 0.796232
O O19 0.046713 0.000000 0.790397
O O20 0.866032 0.000000 0.804409
O O21 0.601616 0.500000 0.062092
#
# Coordination Sequence:
#
# PCOD8059674 Si02
#       8
#     4   4   4   4   4   4   4   4
#     4  10  19  30  47  73 102 131 166 209 262 316
#     4   9  18  30  46  75 112 141 166 206 262 316
#     4   9  14  22  36  58  94 133 164 198 248 308
#     4   9  15  23  38  59  91 135 170 196 240 301
#     4  10  19  35  59  81 104 134 173 217 262 313
#     4   9  16  25  40  66  99 133 166 207 256 306
#     4   9  15  25  42  65  95 129 168 211 254 299
#     4  11  22  36  54  76 104 138 176 219 265 315
#
# _framework density 20.052568000000001
#
# number of rings (size 3 to 8) (size 9 to 14) (size 15 to 20)
#    0.000    2.500    1.250    3.375    0.000    4.500 
#    0.000    3.750    0.000    3.000    0.000    0.000 
#    0.000    0.500    0.000    0.250    0.000    0.000 
#
# Total GULP energy -396721.144139 kJ/mol
# GULP energy per Si atom -12397.535754 kJ/mol
# Density = 2.000693 g / cm^3
# Si number density = 20.052568 Si / 1000 Ang^3
#
#
#
# Elastic Constant Matrix: (Units=GPa)
#
#
# Indices 1 2 3 4 5 6 
#
# 1 169.4387 1.5788 65.4984 0.0000 3.6091 0.0000
# 2 1.5788 19.6635 3.0754 0.0000 1.8698 0.0000
# 3 65.4984 3.0754 109.5505 0.0000 -6.9003 0.0000
# 4 0.0000 0.0000 0.0000 1.4444 0.0000 0.6779
# 5 3.6091 1.8698 -6.9003 0.0000 33.8725 0.0000
# 6 0.0000 0.0000 0.0000 0.6779 0.0000 2.2474
#
#
#
# Elastic Compliance Matrix: (Units=1/GPa)
#
#
# Indices 1 2 3 4 5 6 
#
# 1 0.007784 0.000295 -0.004777 0.000000 -0.001819 0.000000
# 2 0.000295 0.051425 -0.001824 0.000000 -0.003242 0.000000
# 3 -0.004777 -0.001824 0.012231 0.000000 0.003101 0.000000
# 4 0.000000 0.000000 0.000000 0.806478 0.000000 -0.243242
# 5 -0.001819 -0.003242 0.003101 0.000000 0.030527 0.000000
# 6 0.000000 0.000000 0.000000 -0.243242 0.000000 0.518315
#
#
# Mechanical properties :
#
#
# Convention : Reuss Voigt Hill
#
# Bulk Modulus (GPa) = 16.99861 48.77308 32.88585
# Shear Modulus (GPa) = 3.42704 22.74622 13.08663
#
# Velocity S-wave (km/s) = 1.30872 3.37163 2.55741
# Velocity P-wave (km/s) = 3.28315 6.28750 5.01556
#
# Compressibility (1/GPa) = 0.05882833
#
# Stress axis : x y z
#
# Youngs Moduli (GPa) = 128.46126 19.44562 81.76028
#
# Poissons Ratio (x) = -0.00574 0.39057
# Poissons Ratio (y) = -0.03791 0.14915
# Poissons Ratio (z) = 0.61366 0.03547
#
# Static dielectric constant tensor:
#      x y z
#    x 3.858330 0.000000 -0.030380 
#    y 0.000000 2.923010 0.000000 
#    z -0.030380 0.000000 3.860480 
# 
# 
# High freq. dielectric constant tensor:
#      x y z
#    x 1.794930 0.000000 -0.005300 
#    y 0.000000 1.710990 0.000000 
#    z -0.005300 0.000000 1.788530 
# 
# From -- ./inp_files/52779.got.cif
#   From: 2010.06.25/outbox.cif.g09.slc.cpg/sg10_27_cif.got.tgz:52779.got - 2010.06.27 22:07:45.
