data_PCOD8059760
_publ_section_title
;
Structure prediction by ZEFSAII (Michael W. Deem and Ramdas Pophale) SiO2 
 PCOD8059760
Probable space group: P 2/M
;
_chemical_formula_sum "Si O2"
_cell_formula_units_Z 28
_cell_length_a 10.280068
_cell_length_b 9.360161
_cell_length_c 14.657640
_cell_angle_alpha 90.000000
_cell_angle_beta 93.438810
_cell_angle_gamma 90.000000
_cell_volume 1407.863902
_symmetry_space_group_name_H-M "P 2/M"
_symmetry_group_IT_number 10
_symmetry_cell_setting 'monoclinic'
loop_
_space_group_symop_operation_xyz
x,y,z
-x,y,-z
-x,-y,-z
x,-y,z
loop_
_atom_site_type_symbol
_atom_site_label
_atom_site_fract_x
_atom_site_fract_y
_atom_site_fract_z
Si Si1 0.229920 0.666138 0.424718
Si Si2 0.680123 0.834048 0.053177
Si Si3 0.989029 0.669589 0.721835
Si Si4 0.575866 0.831483 0.863348
Si Si5 0.033189 0.832859 0.899656
Si Si6 0.466391 0.333946 0.311242
Si Si7 0.247210 0.330402 0.627328
O O1 0.198024 0.500000 0.429965
O O2 0.120260 0.729869 0.352273
O O3 0.377252 0.692507 0.396354
O O4 0.217848 0.733795 0.525279
O O5 0.679361 0.785592 0.946432
O O6 0.649453 0.000000 0.046940
O O7 0.563954 0.769495 0.108321
O O8 0.814510 0.799466 0.107999
O O9 0.979734 0.500000 0.735382
O O10 0.960465 0.744294 0.818092
O O11 0.131343 0.716010 0.690175
O O12 0.607958 0.748583 0.772506
O O13 0.577387 0.000000 0.842639
O O14 0.998310 0.000000 0.887904
O O15 0.000000 0.779454 0.000000
O O16 0.471107 0.500000 0.285936
O O17 0.612242 0.271949 0.332942
O O18 0.256758 0.500000 0.620176
#
# Coordination Sequence:
#
# PCOD8059760 Si02
#       7
#     4   4   4   4   4   4   4
#     4   9  18  32  51  76 105 134 165 204 251 300
#     4   8  16  32  50  69  93 129 173 204 237 295
#     4  10  20  34  54  78 101 130 170 211 249 291
#     4   9  17  31  52  71  94 130 168 205 244 293
#     4  10  21  35  52  73 101 135 169 203 247 303
#     4  10  19  30  49  77 104 127 161 206 251 292
#     4   9  17  32  54  76 100 134 172 204 241 300
#
# _framework density 19.888283999999999
#
# number of rings (size 3 to 8) (size 9 to 14) (size 15 to 20)
#    0.000    2.714    0.000    2.571    2.000    3.714 
#    0.000    2.143    0.000    5.143    0.000    0.000 
#    0.000    0.000    0.000    0.000    0.000    0.000 
#
# Total GULP energy -347035.538051 kJ/mol
# GULP energy per Si atom -12394.126359 kJ/mol
# Density = 1.984302 g / cm^3
# Si number density = 19.888284 Si / 1000 Ang^3
#
#
#
# Elastic Constant Matrix: (Units=GPa)
#
#
# Indices 1 2 3 4 5 6 
#
# 1 65.0283 12.3955 13.4358 0.0000 7.7604 0.0000
# 2 12.3955 29.0350 32.6839 0.0000 1.8072 0.0000
# 3 13.4358 32.6839 126.3345 0.0000 11.3824 0.0000
# 4 0.0000 0.0000 0.0000 11.2795 0.0000 1.6204
# 5 7.7604 1.8072 11.3824 0.0000 28.8802 0.0000
# 6 0.0000 0.0000 0.0000 1.6204 0.0000 13.5706
#
#
#
# Elastic Compliance Matrix: (Units=1/GPa)
#
#
# Indices 1 2 3 4 5 6 
#
# 1 0.017257 -0.007721 0.000556 0.000000 -0.004373 0.000000
# 2 -0.007721 0.052157 -0.013028 0.000000 0.003946 0.000000
# 3 0.000556 -0.013028 0.011578 0.000000 -0.003897 0.000000
# 4 0.000000 0.000000 0.000000 0.090204 0.000000 -0.010771
# 5 -0.004373 0.003946 -0.003897 0.000000 0.037090 0.000000
# 6 0.000000 0.000000 0.000000 -0.010771 0.000000 0.074975
#
#
# Mechanical properties :
#
#
# Convention : Reuss Voigt Hill
#
# Bulk Modulus (GPa) = 24.62678 37.49201 31.05939
# Shear Modulus (GPa) = 14.82883 21.53823 18.18353
#
# Velocity S-wave (km/s) = 2.73354 3.29441 3.02699
# Velocity P-wave (km/s) = 4.72995 5.77608 5.27899
#
# Compressibility (1/GPa) = 0.04060621
#
# Stress axis : x y z
#
# Youngs Moduli (GPa) = 57.94870 19.17286 86.37139
#
# Poissons Ratio (x) = 0.14804 -0.04805
# Poissons Ratio (y) = 0.44743 1.12523
# Poissons Ratio (z) = -0.03224 0.24978
#
# Static dielectric constant tensor:
#      x y z
#    x 3.962020 0.000000 0.102120 
#    y 0.000000 2.998100 0.000000 
#    z 0.102120 0.000000 3.703640 
# 
# 
# High freq. dielectric constant tensor:
#      x y z
#    x 1.786730 0.000000 0.003340 
#    y 0.000000 1.709420 0.000000 
#    z 0.003340 0.000000 1.788290 
# 
# From -- ./inp_files/46037.got.cif
#   From: 2010.06.25/outbox.cif.g09.slc.cpg/sg10_24_cif.got.tgz:46037.got - 2010.06.27 22:07:45.
