data_PCOD8059897
_publ_section_title
;
Structure prediction by ZEFSAII (Michael W. Deem and Ramdas Pophale) SiO2 
 PCOD8059897
Probable space group: P 2/M
;
_chemical_formula_sum "Si O2"
_cell_formula_units_Z 32
_cell_length_a 17.141305
_cell_length_b 9.376228
_cell_length_c 11.621350
_cell_angle_alpha 90.000000
_cell_angle_beta 95.632684
_cell_angle_gamma 90.000000
_cell_volume 1858.773981
_symmetry_space_group_name_H-M "P 2/M"
_symmetry_group_IT_number 10
_symmetry_cell_setting 'monoclinic'
loop_
_space_group_symop_operation_xyz
x,y,z
-x,y,-z
-x,-y,-z
x,-y,z
loop_
_atom_site_type_symbol
_atom_site_label
_atom_site_fract_x
_atom_site_fract_y
_atom_site_fract_z
Si Si1 0.196158 0.661161 0.070346
Si Si2 0.271807 0.339204 0.857865
Si Si3 0.047622 0.664320 0.623352
Si Si4 0.096450 0.336984 0.258810
Si Si5 0.580913 0.334174 0.958808
Si Si6 0.330325 0.834599 0.201063
Si Si7 0.207610 0.166034 0.647640
Si Si8 0.766716 0.163243 0.605167
O O1 0.228835 0.500000 0.102282
O O2 0.112297 0.680656 0.122918
O O3 0.251937 0.782882 0.126984
O O4 0.195297 0.677673 0.931438
O O5 0.276354 0.500000 0.810311
O O6 0.349724 0.301752 0.941135
O O7 0.264983 0.232029 0.751202
O O8 0.074466 0.500000 0.638205
O O9 0.122923 0.762734 0.639284
O O10 0.000000 0.691452 0.500000
O O11 0.991336 0.712036 0.721602
O O12 0.104959 0.500000 0.299667
O O13 0.160736 0.255954 0.342531
O O14 0.574493 0.500000 0.928291
O O15 0.500000 0.276330 0.000000
O O16 0.596240 0.252881 0.839862
O O17 0.313802 0.805544 0.334824
O O18 0.344803 0.000000 0.177175
O O19 0.249259 0.194179 0.531145
O O20 0.196985 0.000000 0.671741
O O21 0.791953 0.000000 0.628459
#
# Coordination Sequence:
#
# PCOD8059897 Si02
#       8
#     4   4   4   4   4   4   4   4
#     4   8  15  29  48  68  91 123 159 198 244 289
#     4   9  18  33  51  71  96 124 157 195 235 283
#     4  10  19  31  47  70  96 123 162 211 252 287
#     4   9  16  28  48  70  91 118 159 207 251 291
#     4   9  18  34  56  80 103 125 151 189 237 285
#     4   9  16  27  46  73 100 123 154 195 234 276
#     4  11  22  33  47  67  96 134 168 198 239 289
#     4   9  18  30  44  66  96 128 161 199 239 278
#
# _framework density 17.215648000000002
#
# number of rings (size 3 to 8) (size 9 to 14) (size 15 to 20)
#    0.000    2.750    1.250    1.500    0.000    4.000 
#    0.000    0.625    0.000    4.500    0.000    5.250 
#    0.000    0.000    0.000    0.000    0.000    0.000 
#
# Total GULP energy -396504.527862 kJ/mol
# GULP energy per Si atom -12390.766496 kJ/mol
# Density = 1.717646 g / cm^3
# Si number density = 17.215648 Si / 1000 Ang^3
#
#
#
# Elastic Constant Matrix: (Units=GPa)
#
#
# Indices 1 2 3 4 5 6 
#
# 1 83.3848 41.5426 53.6366 0.0000 -30.4727 0.0000
# 2 41.5426 76.3169 54.4722 0.0000 -15.0385 0.0000
# 3 53.6366 54.4722 105.4982 0.0000 -25.9140 0.0000
# 4 0.0000 0.0000 0.0000 21.0790 0.0000 -11.4249
# 5 -30.4727 -15.0385 -25.9140 0.0000 30.7464 0.0000
# 6 0.0000 0.0000 0.0000 -11.4249 0.0000 8.9798
#
#
#
# Elastic Compliance Matrix: (Units=1/GPa)
#
#
# Indices 1 2 3 4 5 6 
#
# 1 0.024689 -0.006507 -0.004999 0.000000 0.017074 0.000000
# 2 -0.006507 0.022514 -0.009074 0.000000 -0.003085 0.000000
# 3 -0.004999 -0.009074 0.018158 0.000000 0.005911 0.000000
# 4 0.000000 0.000000 0.000000 0.152831 0.000000 0.194445
# 5 0.017074 -0.003085 0.005911 0.000000 0.052919 0.000000
# 6 0.000000 0.000000 0.000000 0.194445 0.000000 0.358753
#
#
# Mechanical properties :
#
#
# Convention : Reuss Voigt Hill
#
# Bulk Modulus (GPa) = 41.32076 62.72255 52.02165
# Shear Modulus (GPa) = 7.36277 19.86426 13.61352
#
# Velocity S-wave (km/s) = 2.07028 3.40052 2.81510
# Velocity P-wave (km/s) = 5.45607 7.20629 6.39137
#
# Compressibility (1/GPa) = 0.02420091
#
# Stress axis : x y z
#
# Youngs Moduli (GPa) = 40.50314 44.41585 55.07324
#
# Poissons Ratio (x) = 0.28903 0.27529
# Poissons Ratio (y) = 0.26356 0.49976
# Poissons Ratio (z) = 0.20246 0.40305
#
# Static dielectric constant tensor:
#      x y z
#    x 3.112960 0.000000 -0.527380 
#    y 0.000000 3.234600 0.000000 
#    z -0.527380 0.000000 3.469150 
# 
# 
# High freq. dielectric constant tensor:
#      x y z
#    x 1.632190 0.000000 -0.039680 
#    y 0.000000 1.667280 0.000000 
#    z -0.039680 0.000000 1.660500 
# 
# From -- ./inp_files/52748.got.cif
#   From: 2010.06.25/outbox.cif.g09.slc.cpg/sg10_27_cif.got.tgz:52748.got - 2010.06.27 22:07:45.
