data_PCOD8059980
_publ_section_title
;
Structure prediction by ZEFSAII (Michael W. Deem and Ramdas Pophale) SiO2 
 PCOD8059980
Probable space group: P 2/M
;
_chemical_formula_sum "Si O2"
_cell_formula_units_Z 32
_cell_length_a 23.437104
_cell_length_b 9.332682
_cell_length_c 20.829073
_cell_angle_alpha 90.000000
_cell_angle_beta 156.321229
_cell_angle_gamma 90.000000
_cell_volume 1829.714093
_symmetry_space_group_name_H-M "P 2/M"
_symmetry_group_IT_number 10
_symmetry_cell_setting 'monoclinic'
loop_
_space_group_symop_operation_xyz
x,y,z
-x,y,-z
-x,-y,-z
x,-y,z
loop_
_atom_site_type_symbol
_atom_site_label
_atom_site_fract_x
_atom_site_fract_y
_atom_site_fract_z
Si Si1 0.429529 0.157340 0.996466
Si Si2 0.283012 0.335774 0.517753
Si Si3 0.159359 0.831332 0.646249
Si Si4 0.961527 0.668304 0.831048
Si Si5 0.766113 0.167395 0.871294
Si Si6 0.465494 0.165705 0.614545
Si Si7 0.681020 0.667395 0.299408
Si Si8 0.776094 0.834354 0.733408
O O1 0.264784 0.204038 0.815088
O O2 0.435491 0.000000 0.035936
O O3 0.500000 0.146256 0.000000
O O4 0.519279 0.271743 0.129909
O O5 0.321125 0.500000 0.544993
O O6 0.139269 0.292992 0.332693
O O7 0.415460 0.247832 0.626476
O O8 0.259957 0.303447 0.568751
O O9 0.210106 0.745365 0.635993
O O10 0.000000 0.782821 0.500000
O O11 0.165940 0.000000 0.636772
O O12 0.977873 0.500000 0.858545
O O13 0.903356 0.738636 0.836650
O O14 0.112138 0.738820 0.970112
O O15 0.623468 0.214256 0.760189
O O16 0.750141 0.206215 0.780112
O O17 0.798924 0.000000 0.914365
O O18 0.368033 0.201818 0.452836
O O19 0.458414 0.000000 0.624229
O O20 0.675225 0.500000 0.276227
O O21 0.820220 0.000000 0.770787
#
# Coordination Sequence:
#
# PCOD8059980 Si02
#       8
#     4   4   4   4   4   4   4   4
#     4   8  15  29  49  73 100 127 155 189 229 271
#     4   9  20  37  51  66  93 129 165 200 237 277
#     4   9  18  33  52  76 106 133 155 187 234 280
#     4  10  20  33  48  67  95 129 163 197 235 285
#     4  10  19  31  48  72  98 120 150 198 251 294
#     4   9  18  32  51  72  92 120 159 199 239 288
#     4  10  19  32  52  74  96 127 166 200 232 276
#     4   9  17  31  50  70  94 123 154 194 245 294
#
# _framework density 17.489072
#
# number of rings (size 3 to 8) (size 9 to 14) (size 15 to 20)
#    0.000    2.750    0.000    2.250    0.000    8.000 
#    0.000    1.250    0.000    9.750    0.000    0.000 
#    0.000    0.000    0.000    0.000    0.000    0.000 
#
# Total GULP energy -396769.216796 kJ/mol
# GULP energy per Si atom -12399.038025 kJ/mol
# Density = 1.744927 g / cm^3
# Si number density = 17.489072 Si / 1000 Ang^3
#
#
#
# Elastic Constant Matrix: (Units=GPa)
#
#
# Indices 1 2 3 4 5 6 
#
# 1 83.9257 51.2948 57.7248 0.0000 5.6234 0.0000
# 2 51.2948 76.5719 56.8224 0.0000 5.9134 0.0000
# 3 57.7248 56.8224 114.1465 0.0000 22.9455 0.0000
# 4 0.0000 0.0000 0.0000 20.5987 0.0000 -9.1499
# 5 5.6234 5.9134 22.9455 0.0000 26.9193 0.0000
# 6 0.0000 0.0000 0.0000 -9.1499 0.0000 15.9592
#
#
#
# Elastic Compliance Matrix: (Units=1/GPa)
#
#
# Indices 1 2 3 4 5 6 
#
# 1 0.022905 -0.010291 -0.007184 0.000000 0.003599 0.000000
# 2 -0.010291 0.025934 -0.008439 0.000000 0.003646 0.000000
# 3 -0.007184 -0.008439 0.019212 0.000000 -0.013022 0.000000
# 4 0.000000 0.000000 0.000000 0.065135 0.000000 0.037344
# 5 0.003599 0.003646 -0.013022 0.000000 0.046695 0.000000
# 6 0.000000 0.000000 0.000000 0.037344 0.000000 0.084070
#
#
# Mechanical properties :
#
#
# Convention : Reuss Voigt Hill
#
# Bulk Modulus (GPa) = 61.63689 67.36982 64.50335
# Shear Modulus (GPa) = 15.56730 19.94891 17.75811
#
# Velocity S-wave (km/s) = 2.98672 3.38101 3.18996
# Velocity P-wave (km/s) = 6.87121 7.33801 7.10844
#
# Compressibility (1/GPa) = 0.01622405
#
# Stress axis : x y z
#
# Youngs Moduli (GPa) = 43.65870 38.55950 52.05048
#
# Poissons Ratio (x) = 0.39680 0.37393
# Poissons Ratio (y) = 0.44928 0.43924
# Poissons Ratio (z) = 0.31364 0.32540
#
# Static dielectric constant tensor:
#      x y z
#    x 3.030960 0.000000 0.063740 
#    y 0.000000 3.257010 0.000000 
#    z 0.063740 0.000000 3.597210 
# 
# 
# High freq. dielectric constant tensor:
#      x y z
#    x 1.649820 0.000000 0.002580 
#    y 0.000000 1.675000 0.000000 
#    z 0.002580 0.000000 1.682370 
# 
# From -- ./inp_files/91231.got.cif
#   From: 2010.06.25/outbox.cif.g09.slc.cpg/sg10_46_cif.got.tgz:91231.got - 2010.06.27 22:07:45.
