data_PCOD8059136
_publ_section_title
;
Structure prediction by ZEFSAII (Michael W. Deem and Ramdas Pophale) SiO2 
 PCOD8059136
Probable space group: P 2/M
;
_chemical_formula_sum "Si O2"
_cell_formula_units_Z 28
_cell_length_a 18.009718
_cell_length_b 8.759995
_cell_length_c 21.639164
_cell_angle_alpha 90.000000
_cell_angle_beta 153.858796
_cell_angle_gamma 90.000000
_cell_volume 1504.114254
_symmetry_space_group_name_H-M "P 2/M"
_symmetry_group_IT_number 10
_symmetry_cell_setting 'monoclinic'
loop_
_space_group_symop_operation_xyz
x,y,z
-x,y,-z
-x,-y,-z
x,-y,z
loop_
_atom_site_type_symbol
_atom_site_label
_atom_site_fract_x
_atom_site_fract_y
_atom_site_fract_z
Si Si1 0.633830 0.320323 0.551231
Si Si2 0.930067 0.820494 0.612832
Si Si3 0.339797 0.821992 0.102088
Si Si4 0.975969 0.179478 0.787864
Si Si5 0.481121 0.821068 0.075553
Si Si6 0.587254 0.321141 0.376384
Si Si7 0.247326 0.680457 0.799199
O O1 0.500000 0.251945 0.500000
O O2 0.644568 0.500000 0.566119
O O3 0.818417 0.255249 0.704958
O O4 0.575555 0.271098 0.439195
O O5 0.980153 0.769911 0.719523
O O6 0.739773 0.767826 0.456841
O O7 0.053954 0.734435 0.658090
O O8 0.946984 0.000000 0.615082
O O9 0.450621 0.786867 0.124396
O O10 0.413517 0.726252 0.214059
O O11 0.344997 0.000000 0.122422
O O12 0.148249 0.766269 0.948774
O O13 0.954727 0.000000 0.776299
O O14 0.666346 0.760660 0.195672
O O15 0.461966 0.000000 0.046554
O O16 0.342276 0.731799 0.932190
O O17 0.619367 0.500000 0.394022
O O18 0.258139 0.500000 0.799500
#
# Coordination Sequence:
#
# PCOD8059136 Si02
#       7
#     4   4   4   4   4   4   4
#     4   9  19  37  58  81 109 139 172 210 257 316
#     4  10  18  34  55  75 102 141 182 223 264 315
#     4  10  20  36  54  77 108 142 178 217 263 319
#     4   9  18  33  55  81 104 134 180 220 254 305
#     4  10  19  33  51  72 103 143 182 220 265 316
#     4  10  21  35  54  81 108 138 174 218 267 315
#     4  11  20  30  48  78 108 135 177 229 272 309
#
# _framework density 18.615606
#
# number of rings (size 3 to 8) (size 9 to 14) (size 15 to 20)
#    0.000    2.143    1.429    3.429    0.000    3.143 
#    0.000    1.429    0.000    8.571    0.000    0.000 
#    0.000    0.000    0.000    0.000    0.000    0.000 
#
# Total GULP energy -347259.769374 kJ/mol
# GULP energy per Si atom -12402.134621 kJ/mol
# Density = 1.857324 g / cm^3
# Si number density = 18.615606 Si / 1000 Ang^3
#
#
#
# Elastic Constant Matrix: (Units=GPa)
#
#
# Indices 1 2 3 4 5 6 
#
# 1 103.4737 32.0801 55.7925 0.0000 25.7383 0.0000
# 2 32.0801 55.6956 27.7844 0.0000 6.4564 0.0000
# 3 55.7925 27.7844 117.9513 0.0000 12.5533 0.0000
# 4 0.0000 0.0000 0.0000 32.6903 0.0000 4.3206
# 5 25.7383 6.4564 12.5533 0.0000 28.9143 0.0000
# 6 0.0000 0.0000 0.0000 4.3206 0.0000 24.7593
#
#
#
# Elastic Compliance Matrix: (Units=1/GPa)
#
#
# Indices 1 2 3 4 5 6 
#
# 1 0.017443 -0.005882 -0.005612 0.000000 -0.011778 0.000000
# 2 -0.005882 0.022515 -0.002667 0.000000 0.001367 0.000000
# 3 -0.005612 -0.002667 0.011707 0.000000 0.000508 0.000000
# 4 0.000000 0.000000 0.000000 0.031312 0.000000 -0.005464
# 5 -0.011778 0.001367 0.000508 0.000000 0.044543 0.000000
# 6 0.000000 0.000000 0.000000 -0.005464 0.000000 0.041342
#
#
# Mechanical properties :
#
#
# Convention : Reuss Voigt Hill
#
# Bulk Modulus (GPa) = 42.83910 56.49274 49.66592
# Shear Modulus (GPa) = 24.39441 28.03703 26.21572
#
# Velocity S-wave (km/s) = 3.62391 3.88507 3.75676
# Velocity P-wave (km/s) = 6.36967 7.10900 6.74947
#
# Compressibility (1/GPa) = 0.02334316
#
# Stress axis : x y z
#
# Youngs Moduli (GPa) = 57.32798 44.41536 85.42202
#
# Poissons Ratio (x) = 0.26127 0.47938
# Poissons Ratio (y) = 0.33723 0.22778
# Poissons Ratio (z) = 0.32172 0.11843
#
# Static dielectric constant tensor:
#      x y z
#    x 3.485400 0.000000 0.210810 
#    y 0.000000 3.347490 0.000000 
#    z 0.210810 0.000000 3.375110 
# 
# 
# High freq. dielectric constant tensor:
#      x y z
#    x 1.708330 0.000000 0.018290 
#    y 0.000000 1.724300 0.000000 
#    z 0.018290 0.000000 1.713060 
# 
# From -- ./inp_files/90356.got.cif
#   From: 2010.06.25/outbox.cif.g09.slc.cpg/sg10_46_cif.got.tgz:90356.got - 2010.06.27 22:07:45.
