data_PCOD8059576
_publ_section_title
;
Structure prediction by ZEFSAII (Michael W. Deem and Ramdas Pophale) SiO2 
 PCOD8059576
Probable space group: P 2/M
;
_chemical_formula_sum "Si O2"
_cell_formula_units_Z 28
_cell_length_a 14.750192
_cell_length_b 13.824506
_cell_length_c 14.862656
_cell_angle_alpha 90.000000
_cell_angle_beta 28.877815
_cell_angle_gamma 90.000000
_cell_volume 1463.659061
_symmetry_space_group_name_H-M "P 2/M"
_symmetry_group_IT_number 10
_symmetry_cell_setting 'monoclinic'
loop_
_space_group_symop_operation_xyz
x,y,z
-x,y,-z
-x,-y,-z
x,-y,z
loop_
_atom_site_type_symbol
_atom_site_label
_atom_site_fract_x
_atom_site_fract_y
_atom_site_fract_z
Si Si1 0.575869 0.113220 0.073714
Si Si2 0.962342 0.389906 0.929464
Si Si3 0.277872 0.387164 0.513423
Si Si4 0.598269 0.608816 0.001146
Si Si5 0.203105 0.886702 0.292237
Si Si6 0.983462 0.390607 0.416686
Si Si7 0.609948 0.281530 0.166356
O O1 0.362269 0.134192 0.228212
O O2 0.612865 0.168117 0.136629
O O3 0.606266 0.000000 0.065262
O O4 0.723757 0.152828 0.868943
O O5 0.887583 0.500000 0.980913
O O6 0.154932 0.374705 0.709345
O O7 0.813417 0.313700 0.021584
O O8 0.000000 0.366698 0.000000
O O9 0.336972 0.500000 0.451744
O O10 0.166727 0.346708 0.521980
O O11 0.456766 0.316192 0.373200
O O12 0.521851 0.500000 0.076074
O O13 0.820738 0.613213 0.804204
O O14 0.500000 0.657925 0.000000
O O15 0.532194 0.664934 0.145426
O O16 0.000000 0.842595 0.500000
O O17 0.179631 0.000000 0.299126
O O18 0.919743 0.500000 0.491526
O O19 0.000000 0.336830 0.500000
#
# Coordination Sequence:
#
# PCOD8059576 Si02
#       7
#     4   4   4   4   4   4   4
#     4   9  20  35  51  78 113 147 190 242 284 326
#     4  10  22  41  62  84 112 143 180 233 287 335
#     4  10  20  35  55  81 110 141 181 225 272 330
#     4  10  19  30  45  70 108 148 182 215 258 317
#     4   8  15  33  56  73 101 148 195 238 283 327
#     4   9  16  29  45  66 104 147 178 212 254 306
#     4  12  22  34  56  80 109 145 187 227 279 341
#
# _framework density 19.130137999999999
#
# number of rings (size 3 to 8) (size 9 to 14) (size 15 to 20)
#    0.000    2.286    1.429    3.000    2.000    4.000 
#    0.000    2.143    0.000    0.429    0.000    1.000 
#    0.000    0.000    0.000    0.000    0.000    0.000 
#
# Total GULP energy -347023.712822 kJ/mol
# GULP energy per Si atom -12393.704029 kJ/mol
# Density = 1.908660 g / cm^3
# Si number density = 19.130138 Si / 1000 Ang^3
#
#
#
# Elastic Constant Matrix: (Units=GPa)
#
#
# Indices 1 2 3 4 5 6 
#
# 1 64.6150 34.4975 30.7212 0.0000 8.9626 0.0000
# 2 34.4975 73.0629 31.2545 0.0000 -0.9354 0.0000
# 3 30.7212 31.2545 118.3132 0.0000 -4.5917 0.0000
# 4 0.0000 0.0000 0.0000 -15.5955 0.0000 -21.2971
# 5 8.9626 -0.9354 -4.5917 0.0000 26.5039 0.0000
# 6 0.0000 0.0000 0.0000 -21.2971 0.0000 7.7298
#
#
#
# Elastic Compliance Matrix: (Units=1/GPa)
#
#
# Indices 1 2 3 4 5 6 
#
# 1 0.023771 -0.009638 -0.003978 0.000000 -0.009068 0.000000
# 2 -0.009638 0.019339 -0.002470 0.000000 0.003514 0.000000
# 3 -0.003978 -0.002470 0.010255 0.000000 0.003035 0.000000
# 4 0.000000 0.000000 0.000000 -0.013464 0.000000 -0.037095
# 5 -0.009068 0.003514 0.003035 0.000000 0.041446 0.000000
# 6 0.000000 0.000000 0.000000 -0.037095 0.000000 0.027164
#
#
# Mechanical properties :
#
#
# Convention : Reuss Voigt Hill
#
# Bulk Modulus (GPa) = 47.18464 49.88197 48.53330
# Shear Modulus (GPa) = 33.84106 14.36217 24.10162
#
# Velocity S-wave (km/s) = 4.21050 2.74298 3.55332
# Velocity P-wave (km/s) = 6.95388 6.01361 6.50077
#
# Compressibility (1/GPa) = 0.02119334
#
# Stress axis : x y z
#
# Youngs Moduli (GPa) = 42.06756 51.70877 97.51011
#
# Poissons Ratio (x) = 0.49838 0.38792
# Poissons Ratio (y) = 0.40545 0.24082
# Poissons Ratio (z) = 0.16736 0.12771
#
# Static dielectric constant tensor:
#      x y z
#    x 3.239340 0.000000 0.030170 
#    y 0.000000 3.288130 0.000000 
#    z 0.030170 0.000000 3.815880 
# 
# 
# High freq. dielectric constant tensor:
#      x y z
#    x 1.708450 0.000000 -0.007810 
#    y 0.000000 1.714280 0.000000 
#    z -0.007810 0.000000 1.758690 
# 
# From -- ./inp_files/67535.got.cif
#   From: 2010.06.25/outbox.cif.g09.slc.cpg/sg10_34_cif.got.tgz:67535.got - 2010.06.27 22:07:45.
