data_PCOD8059181
_publ_section_title
;
Structure prediction by ZEFSAII (Michael W. Deem and Ramdas Pophale) SiO2 
 PCOD8059181
Probable space group: P 2/M
;
_chemical_formula_sum "Si O2"
_cell_formula_units_Z 28
_cell_length_a 20.912612
_cell_length_b 8.609849
_cell_length_c 17.887235
_cell_angle_alpha 90.000000
_cell_angle_beta 27.189824
_cell_angle_gamma 90.000000
_cell_volume 1471.655515
_symmetry_space_group_name_H-M "P 2/M"
_symmetry_group_IT_number 10
_symmetry_cell_setting 'monoclinic'
loop_
_space_group_symop_operation_xyz
x,y,z
-x,y,-z
-x,-y,-z
x,-y,z
loop_
_atom_site_type_symbol
_atom_site_label
_atom_site_fract_x
_atom_site_fract_y
_atom_site_fract_z
Si Si1 0.009534 0.176511 0.285969
Si Si2 0.894065 0.670472 0.676457
Si Si3 0.778459 0.679687 0.040845
Si Si4 0.578066 0.682294 0.991867
Si Si5 0.992934 0.817212 0.922242
Si Si6 0.514930 0.316575 0.224363
Si Si7 0.794184 0.682820 0.416144
O O1 0.038141 0.196754 0.343094
O O2 0.852531 0.227270 0.428316
O O3 0.037963 0.000000 0.231114
O O4 0.108855 0.298253 0.141170
O O5 0.881488 0.500000 0.728869
O O6 0.000000 0.653884 0.500000
O O7 0.740584 0.723538 0.810391
O O8 0.763033 0.500000 0.078785
O O9 0.633393 0.749160 0.158283
O O10 0.839521 0.770505 0.049599
O O11 0.547627 0.500000 0.024030
O O12 0.528547 0.750668 0.124834
O O13 0.500000 0.755842 0.000000
O O14 0.122170 0.736944 0.744505
O O15 0.013256 0.000000 0.893997
O O16 0.000000 0.760303 0.000000
O O17 0.536739 0.500000 0.195995
O O18 0.369127 0.271576 0.415512
O O19 0.812850 0.500000 0.406947
#
# Coordination Sequence:
#
# PCOD8059181 Si02
#       7
#     4   4   4   4   4   4   4
#     4  11  21  34  51  74 107 145 181 221 272 322
#     4  10  20  33  53  77 100 134 185 233 276 322
#     4  10  18  34  59  83 107 138 179 224 265 316
#     4   9  17  30  50  77 108 138 174 227 279 316
#     4  10  21  38  58  82 113 145 178 217 264 323
#     4   9  18  32  53  82 112 139 178 230 277 318
#     4  10  20  34  57  84 109 139 181 225 267 318
#
# _framework density 19.026192999999999
#
# number of rings (size 3 to 8) (size 9 to 14) (size 15 to 20)
#    0.000    2.143    1.429    4.286    2.000    1.429 
#    0.000    3.571    0.000    4.714    0.000    0.000 
#    0.000    0.000    0.000    0.000    0.000    0.000 
#
# Total GULP energy -346952.893293 kJ/mol
# GULP energy per Si atom -12391.174760 kJ/mol
# Density = 1.898289 g / cm^3
# Si number density = 19.026193 Si / 1000 Ang^3
#
#
#
# Elastic Constant Matrix: (Units=GPa)
#
#
# Indices 1 2 3 4 5 6 
#
# 1 168.9240 28.6559 73.6718 0.0000 -9.4564 0.0000
# 2 28.6559 44.8229 22.2994 0.0000 -2.6824 0.0000
# 3 73.6718 22.2994 108.7661 0.0000 -17.2597 0.0000
# 4 0.0000 0.0000 0.0000 17.9035 0.0000 11.0929
# 5 -9.4564 -2.6824 -17.2597 0.0000 28.8895 0.0000
# 6 0.0000 0.0000 0.0000 11.0929 0.0000 24.3637
#
#
#
# Elastic Compliance Matrix: (Units=1/GPa)
#
#
# Indices 1 2 3 4 5 6 
#
# 1 0.008748 -0.002931 -0.005428 0.000000 -0.000651 0.000000
# 2 -0.002931 0.025844 -0.003408 0.000000 -0.000596 0.000000
# 3 -0.005428 -0.003408 0.014623 0.000000 0.006644 0.000000
# 4 0.000000 0.000000 0.000000 0.077804 0.000000 -0.035424
# 5 -0.000651 -0.000596 0.006644 0.000000 0.038315 0.000000
# 6 0.000000 0.000000 0.000000 -0.035424 0.000000 0.057174
#
#
# Mechanical properties :
#
#
# Convention : Reuss Voigt Hill
#
# Bulk Modulus (GPa) = 38.93819 63.52968 51.23393
# Shear Modulus (GPa) = 19.63861 27.42374 23.53117
#
# Velocity S-wave (km/s) = 3.21625 3.80065 3.52060
# Velocity P-wave (km/s) = 5.85682 7.26107 6.59642
#
# Compressibility (1/GPa) = 0.02568173
#
# Stress axis : x y z
#
# Youngs Moduli (GPa) = 114.31557 38.69426 68.38431
#
# Poissons Ratio (x) = 0.11342 0.37116
# Poissons Ratio (y) = 0.33509 0.23302
# Poissons Ratio (z) = 0.62046 0.13185
#
# Static dielectric constant tensor:
#      x y z
#    x 4.116890 0.000000 -0.226080 
#    y 0.000000 3.228840 0.000000 
#    z -0.226080 0.000000 3.389180 
# 
# 
# High freq. dielectric constant tensor:
#      x y z
#    x 1.746780 0.000000 -0.013080 
#    y 0.000000 1.712800 0.000000 
#    z -0.013080 0.000000 1.726970 
# 
# From -- ./inp_files/79208.got.cif
#   From: 2010.06.25/outbox.cif.g09.slc.cpg/sg10_40_cif.got.tgz:79208.got - 2010.06.27 22:07:45.
