data_PCOD8059515
_publ_section_title
;
Structure prediction by ZEFSAII (Michael W. Deem and Ramdas Pophale) SiO2 
 PCOD8059515
Probable space group: P 2/M
;
_chemical_formula_sum "Si O2"
_cell_formula_units_Z 30
_cell_length_a 15.957722
_cell_length_b 13.946314
_cell_length_c 25.316667
_cell_angle_alpha 90.000000
_cell_angle_beta 18.556228
_cell_angle_gamma 90.000000
_cell_volume 1793.019512
_symmetry_space_group_name_H-M "P 2/M"
_symmetry_group_IT_number 10
_symmetry_cell_setting 'monoclinic'
loop_
_space_group_symop_operation_xyz
x,y,z
-x,y,-z
-x,-y,-z
x,-y,z
loop_
_atom_site_type_symbol
_atom_site_label
_atom_site_fract_x
_atom_site_fract_y
_atom_site_fract_z
Si Si1 0.756399 0.107509 0.185530
Si Si2 0.256765 0.611041 0.252781
Si Si3 0.000000 0.721179 0.500000
Si Si4 0.874952 0.387474 0.876905
Si Si5 0.002367 0.732135 0.900894
Si Si6 0.073341 0.610011 0.647004
Si Si7 0.397325 0.609697 0.724293
Si Si8 0.515834 0.233956 0.730558
O O1 0.517219 0.154667 0.295654
O O2 0.818273 0.171105 0.201043
O O3 0.682885 0.000000 0.247345
O O4 0.000000 0.108790 0.000000
O O5 0.185536 0.500000 0.299569
O O6 0.172348 0.656932 0.358084
O O7 0.095088 0.657689 0.300142
O O8 0.564315 0.628417 0.060168
O O9 0.796053 0.788024 0.590005
O O10 0.943176 0.500000 0.847374
O O11 0.008727 0.319040 0.840617
O O12 0.996877 0.347134 0.749552
O O13 0.120668 0.657287 0.872936
O O14 0.709666 0.765587 0.090366
O O15 0.985586 0.500000 0.701444
O O16 0.386391 0.621404 0.451512
O O17 0.344961 0.500000 0.769970
O O18 0.515699 0.659521 0.705604
#
# Coordination Sequence:
#
# PCOD8059515 Si02
#       8
#     4   4   2   4   4   4   4   4
#     4   8  16  33  54  71  93 121 149 186 239 296
#     4  10  19  30  44  63  94 135 169 196 232 269
#     4  12  19  30  47  70  98 120 152 206 236 280
#     4  10  19  30  45  66  97 132 166 204 228 260
#     4  10  19  31  46  72  95 121 158 193 236 287
#     4   9  18  31  44  61  90 133 177 199 224 267
#     4  10  19  30  44  64  95 130 161 195 233 277
#     4  10  20  31  47  71  97 122 153 192 240 287
#
# _framework density 16.731552000000001
#
# number of rings (size 3 to 8) (size 9 to 14) (size 15 to 20)
#    0.000    2.267    2.667    2.200    0.000    4.267 
#    0.000    2.333    0.000    0.000    0.000    7.467 
#    0.000    1.067    0.000    0.000    0.000    0.000 
#
# Total GULP energy -371853.926826 kJ/mol
# GULP energy per Si atom -12395.130894 kJ/mol
# Density = 1.669347 g / cm^3
# Si number density = 16.731552 Si / 1000 Ang^3
#
#
#
# Elastic Constant Matrix: (Units=GPa)
#
#
# Indices 1 2 3 4 5 6 
#
# 1 89.2589 33.9953 19.5415 0.0000 -11.0174 0.0000
# 2 33.9953 89.0940 11.5661 0.0000 -10.6486 0.0000
# 3 19.5415 11.5661 43.7920 0.0000 -11.6491 0.0000
# 4 0.0000 0.0000 0.0000 6.5095 0.0000 -1.9070
# 5 -11.0174 -10.6486 -11.6491 0.0000 35.1598 0.0000
# 6 0.0000 0.0000 0.0000 -1.9070 0.0000 18.1764
#
#
#
# Elastic Compliance Matrix: (Units=1/GPa)
#
#
# Indices 1 2 3 4 5 6 
#
# 1 0.014178 -0.004621 -0.004712 0.000000 0.001482 0.000000
# 2 -0.004621 0.013375 -0.000853 0.000000 0.002320 0.000000
# 3 -0.004712 -0.000853 0.027089 0.000000 0.007240 0.000000
# 4 0.000000 0.000000 0.000000 0.158493 0.000000 0.016628
# 5 0.001482 0.002320 0.007240 0.000000 0.032007 0.000000
# 6 0.000000 0.000000 0.000000 0.016628 0.000000 0.056761
#
#
# Mechanical properties :
#
#
# Convention : Reuss Voigt Hill
#
# Bulk Modulus (GPa) = 29.18023 39.15009 34.16516
# Shear Modulus (GPa) = 14.98351 22.43862 18.71107
#
# Velocity S-wave (km/s) = 2.99578 3.66607 3.34774
# Velocity P-wave (km/s) = 5.42626 6.43194 5.95039
#
# Compressibility (1/GPa) = 0.03426978
#
# Stress axis : x y z
#
# Youngs Moduli (GPa) = 70.53272 74.76411 36.91512
#
# Poissons Ratio (x) = 0.34548 0.17394
# Poissons Ratio (y) = 0.32593 0.03150
# Poissons Ratio (z) = 0.33234 0.06381
#
# Static dielectric constant tensor:
#      x y z
#    x 3.242150 0.000000 -0.098980 
#    y 0.000000 2.959110 0.000000 
#    z -0.098980 0.000000 3.100430 
# 
# 
# High freq. dielectric constant tensor:
#      x y z
#    x 1.645970 0.000000 -0.012220 
#    y 0.000000 1.597780 0.000000 
#    z -0.012220 0.000000 1.640880 
# 
# From -- ./inp_files/47176.got.cif
#   From: 2010.06.25/outbox.cif.g09.slc.cpg/sg10_24_cif.got.tgz:47176.got - 2010.06.27 22:07:45.
