data_PCOD8059747
_publ_section_title
;
Structure prediction by ZEFSAII (Michael W. Deem and Ramdas Pophale) SiO2 
 PCOD8059747
Probable space group: P 2/M
;
_chemical_formula_sum "Si O2"
_cell_formula_units_Z 32
_cell_length_a 25.748033
_cell_length_b 8.960203
_cell_length_c 14.552729
_cell_angle_alpha 90.000000
_cell_angle_beta 147.175317
_cell_angle_gamma 90.000000
_cell_volume 1819.960414
_symmetry_space_group_name_H-M "P 2/M"
_symmetry_group_IT_number 10
_symmetry_cell_setting 'monoclinic'
loop_
_space_group_symop_operation_xyz
x,y,z
-x,y,-z
-x,-y,-z
x,-y,z
loop_
_atom_site_type_symbol
_atom_site_label
_atom_site_fract_x
_atom_site_fract_y
_atom_site_fract_z
Si Si1 0.105024 0.177444 0.760961
Si Si2 0.356948 0.674871 0.430930
Si Si3 0.443750 0.826789 0.256454
Si Si4 0.892168 0.177148 0.440238
Si Si5 0.344035 0.329642 0.618814
Si Si6 0.728232 0.826734 0.861739
Si Si7 0.283997 0.176439 0.702772
Si Si8 0.432681 0.326296 0.052788
O O1 0.129650 0.237185 0.695095
O O2 0.997939 0.230516 0.629675
O O3 0.112384 0.000000 0.770575
O O4 0.181561 0.240061 0.947731
O O5 0.375490 0.500000 0.445903
O O6 0.457069 0.757198 0.562035
O O7 0.317308 0.709117 0.474003
O O8 0.278585 0.734577 0.242768
O O9 0.367856 0.801744 0.223715
O O10 0.459478 0.000000 0.257957
O O11 0.402967 0.748734 0.104604
O O12 0.812462 0.237921 0.392023
O O13 0.890332 0.000000 0.435782
O O14 0.318650 0.500000 0.604398
O O15 0.281988 0.223894 0.593035
O O16 0.455984 0.299213 0.801210
O O17 0.743379 0.000000 0.860477
O O18 0.375646 0.251656 0.885324
O O19 0.292527 0.000000 0.724344
O O20 0.407719 0.500000 0.021215
#
# Coordination Sequence:
#
# PCOD8059747 Si02
#       8
#     4   4   4   4   4   4   4   4
#     4   8  14  28  49  71  99 129 151 182 234 288
#     4  10  21  35  49  66  94 132 167 197 234 284
#     4  10  19  31  48  73 102 126 157 201 239 276
#     4   8  15  28  47  73 101 125 151 186 233 288
#     4   9  20  36  48  62  90 129 167 198 233 281
#     4  10  19  30  49  75  98 124 160 200 240 281
#     4  11  20  29  48  76  98 120 158 203 242 282
#     4  10  20  33  48  68  98 134 165 192 230 285
#
# _framework density 17.582799999999999
#
# number of rings (size 3 to 8) (size 9 to 14) (size 15 to 20)
#    0.000    2.500    0.000    4.500    0.000    9.000 
#    0.000    0.000    0.000    2.250    0.000   10.500 
#    0.000    0.000    0.000    0.000    0.000    0.000 
#
# Total GULP energy -396787.399779 kJ/mol
# GULP energy per Si atom -12399.606243 kJ/mol
# Density = 1.754278 g / cm^3
# Si number density = 17.582800 Si / 1000 Ang^3
#
#
#
# Elastic Constant Matrix: (Units=GPa)
#
#
# Indices 1 2 3 4 5 6 
#
# 1 115.0958 48.8568 62.4740 0.0000 -8.5902 0.0000
# 2 48.8568 67.7780 35.7369 0.0000 -5.1355 0.0000
# 3 62.4740 35.7369 116.5345 0.0000 -15.4534 0.0000
# 4 0.0000 0.0000 0.0000 13.0438 0.0000 -13.2137
# 5 -8.5902 -5.1355 -15.4534 0.0000 20.5813 0.0000
# 6 0.0000 0.0000 0.0000 -13.2137 0.0000 18.7057
#
#
#
# Elastic Compliance Matrix: (Units=1/GPa)
#
#
# Indices 1 2 3 4 5 6 
#
# 1 0.015133 -0.007909 -0.005677 0.000000 0.000080 0.000000
# 2 -0.007909 0.021736 -0.002381 0.000000 0.000335 0.000000
# 3 -0.005677 -0.002381 0.013284 0.000000 0.007011 0.000000
# 4 0.000000 0.000000 0.000000 0.269564 0.000000 0.190419
# 5 0.000080 0.000335 0.007011 0.000000 0.053969 0.000000
# 6 0.000000 0.000000 0.000000 0.190419 0.000000 0.187971
#
#
# Mechanical properties :
#
#
# Convention : Reuss Voigt Hill
#
# Bulk Modulus (GPa) = 54.88666 65.94930 60.41798
# Shear Modulus (GPa) = 8.33798 20.62220 14.48009
#
# Velocity S-wave (km/s) = 2.18000 3.42842 2.87285
# Velocity P-wave (km/s) = 6.13355 7.29804 6.74099
#
# Compressibility (1/GPa) = 0.01821936
#
# Stress axis : x y z
#
# Youngs Moduli (GPa) = 66.08019 46.00627 75.27646
#
# Poissons Ratio (x) = 0.36388 0.42732
# Poissons Ratio (y) = 0.52265 0.17925
# Poissons Ratio (z) = 0.37512 0.10955
#
# Static dielectric constant tensor:
#      x y z
#    x 3.338110 0.000000 -0.073480 
#    y 0.000000 3.084670 0.000000 
#    z -0.073480 0.000000 3.348690 
# 
# 
# High freq. dielectric constant tensor:
#      x y z
#    x 1.674270 0.000000 -0.011860 
#    y 0.000000 1.662680 0.000000 
#    z -0.011860 0.000000 1.668570 
# 
# From -- ./inp_files/72232.got.cif
#   From: 2010.06.25/outbox.cif.g09.slc.cpg/sg10_37_cif.got.tgz:72232.got - 2010.06.27 22:07:45.
