data_PCOD8059273
_publ_section_title
;
Structure prediction by ZEFSAII (Michael W. Deem and Ramdas Pophale) SiO2 
 PCOD8059273
Probable space group: P 2/M
;
_chemical_formula_sum "Si O2"
_cell_formula_units_Z 26
_cell_length_a 7.693931
_cell_length_b 16.757932
_cell_length_c 15.818943
_cell_angle_alpha 90.000000
_cell_angle_beta 33.882532
_cell_angle_gamma 90.000000
_cell_volume 1137.063812
_symmetry_space_group_name_H-M "P 2/M"
_symmetry_group_IT_number 10
_symmetry_cell_setting 'monoclinic'
loop_
_space_group_symop_operation_xyz
x,y,z
-x,y,-z
-x,-y,-z
x,-y,z
loop_
_atom_site_type_symbol
_atom_site_label
_atom_site_fract_x
_atom_site_fract_y
_atom_site_fract_z
Si Si1 0.748671 0.000000 0.826242
Si Si2 0.260608 0.749116 0.459138
Si Si3 0.658366 0.000000 0.172619
Si Si4 0.513009 0.413568 0.594582
Si Si5 0.336939 0.829244 0.824476
Si Si6 0.127286 0.826000 0.252399
Si Si7 0.106159 0.591936 0.051097
Si Si8 0.500000 0.706546 0.000000
O O1 0.939912 0.083849 0.755489
O O2 0.593589 0.000000 0.798600
O O3 0.500000 0.000000 0.000000
O O4 0.244907 0.653895 0.474676
O O5 0.594431 0.771054 0.282307
O O6 0.000000 0.779229 0.500000
O O7 0.191543 0.794118 0.575271
O O8 0.626854 0.916868 0.235289
O O9 0.000000 0.000000 0.000000
O O10 0.500000 0.410648 0.500000
O O11 0.638754 0.500000 0.574475
O O12 0.172608 0.398523 0.769939
O O13 0.578650 0.822306 0.803421
O O14 0.000000 0.811402 0.000000
O O15 0.213655 0.764009 0.143157
O O16 0.225733 0.500000 0.000357
O O17 0.386045 0.649704 0.968692
O O18 0.000000 0.618723 0.000000
#
# Coordination Sequence:
#
# PCOD8059273 Si02
#       8
#     2   4   2   4   4   4   4   2
#     4  10  18  37  57  77 126 167 205 254 311 390
#     4  10  22  37  57  91 122 151 212 263 317 382
#     4   8  16  33  53  83 109 150 207 250 313 377
#     4  10  22  42  62  83 122 167 207 258 331 397
#     4   9  19  35  60  85 119 161 206 264 324 383
#     4  10  22  36  57  94 119 166 213 260 319 380
#     4  10  24  43  66  98 131 171 217 269 330 392
#     4  12  23  37  68  94 134 168 222 265 321 388
#
# _framework density 22.86591
#
# number of rings (size 3 to 8) (size 9 to 14) (size 15 to 20)
#    0.000    2.154    0.769    1.154    6.462    0.923 
#    0.000    3.846    0.000    0.000    0.000    5.385 
#    0.000    0.000    0.000    0.000    0.000    0.000 
#
# Total GULP energy -322160.497725 kJ/mol
# GULP energy per Si atom -12390.788374 kJ/mol
# Density = 2.281387 g / cm^3
# Si number density = 22.865910 Si / 1000 Ang^3
#
#
#
# Elastic Constant Matrix: (Units=GPa)
#
#
# Indices 1 2 3 4 5 6 
#
# 1 49.7750 35.3051 18.7005 0.0000 8.7449 0.0000
# 2 35.3051 196.9808 58.6250 0.0000 13.8591 0.0000
# 3 18.7005 58.6250 134.5376 0.0000 27.6639 0.0000
# 4 0.0000 0.0000 0.0000 48.8734 0.0000 -1.1371
# 5 8.7449 13.8591 27.6639 0.0000 28.7283 0.0000
# 6 0.0000 0.0000 0.0000 -1.1371 0.0000 25.2171
#
#
#
# Elastic Compliance Matrix: (Units=1/GPa)
#
#
# Indices 1 2 3 4 5 6 
#
# 1 0.023838 -0.003726 -0.000708 0.000000 -0.004778 0.000000
# 2 -0.003726 0.006420 -0.002339 0.000000 0.000289 0.000000
# 3 -0.000708 -0.002339 0.010317 0.000000 -0.008591 0.000000
# 4 0.000000 0.000000 0.000000 0.020483 0.000000 0.000924
# 5 -0.004778 0.000289 -0.008591 0.000000 0.044396 0.000000
# 6 0.000000 0.000000 0.000000 0.000924 0.000000 0.039697
#
#
# Mechanical properties :
#
#
# Convention : Reuss Voigt Hill
#
# Bulk Modulus (GPa) = 36.99558 67.39495 52.19527
# Shear Modulus (GPa) = 29.81392 38.47463 34.14427
#
# Velocity S-wave (km/s) = 3.61482 4.10642 3.86844
# Velocity P-wave (km/s) = 5.79974 7.21260 6.54441
#
# Compressibility (1/GPa) = 0.02703025
#
# Stress axis : x y z
#
# Youngs Moduli (GPa) = 41.94927 155.75672 96.92707
#
# Poissons Ratio (x) = 0.58033 0.06858
# Poissons Ratio (y) = 0.15630 0.22674
# Poissons Ratio (z) = 0.02968 0.36436
#
# Static dielectric constant tensor:
#      x y z
#    x 3.952690 0.000000 0.147970 
#    y 0.000000 6.703280 0.000000 
#    z 0.147970 0.000000 4.081140 
# 
# 
# High freq. dielectric constant tensor:
#      x y z
#    x 1.873370 0.000000 0.016710 
#    y 0.000000 1.931310 0.000000 
#    z 0.016710 0.000000 1.890530 
# 
# From -- ./inp_files/75487.got.cif
#   From: 2010.06.25/outbox.cif.g09.slc.cpg/sg10_38_cif.got.tgz:75487.got - 2010.06.27 22:07:45.
