data_PCOD8059078
_publ_section_title
;
Structure prediction by ZEFSAII (Michael W. Deem and Ramdas Pophale) SiO2 
 PCOD8059078
Probable space group: P 2/M
;
_chemical_formula_sum "Si O2"
_cell_formula_units_Z 28
_cell_length_a 15.068025
_cell_length_b 8.867253
_cell_length_c 16.711687
_cell_angle_alpha 90.000000
_cell_angle_beta 45.542229
_cell_angle_gamma 90.000000
_cell_volume 1593.756976
_symmetry_space_group_name_H-M "P 2/M"
_symmetry_group_IT_number 10
_symmetry_cell_setting 'monoclinic'
loop_
_space_group_symop_operation_xyz
x,y,z
-x,y,-z
-x,-y,-z
x,-y,z
loop_
_atom_site_type_symbol
_atom_site_label
_atom_site_fract_x
_atom_site_fract_y
_atom_site_fract_z
Si Si1 0.447681 0.177827 0.151572
Si Si2 0.147284 0.824088 0.758987
Si Si3 0.759698 0.174124 0.125500
Si Si4 0.887839 0.677502 0.895082
Si Si5 0.377787 0.676539 0.527884
Si Si6 0.305637 0.821394 0.089804
Si Si7 0.471849 0.177112 0.313812
O O1 0.336267 0.226909 0.162345
O O2 0.421859 0.230590 0.258377
O O3 0.460736 0.000000 0.140382
O O4 0.580920 0.238612 0.037054
O O5 0.164718 0.791149 0.841843
O O6 0.264311 0.767547 0.635699
O O7 0.026724 0.738790 0.804575
O O8 0.130608 0.000000 0.753551
O O9 0.616843 0.217513 0.229852
O O10 0.771550 0.000000 0.092098
O O11 0.816838 0.273676 0.019762
O O12 0.892512 0.500000 0.888510
O O13 0.818872 0.738953 0.859684
O O14 0.500000 0.721504 0.500000
O O15 0.349603 0.500000 0.550456
O O16 0.394746 0.726103 0.425643
O O17 0.286618 0.000000 0.094010
O O18 0.449570 0.000000 0.342894
#
# Coordination Sequence:
#
# PCOD8059078 Si02
#       7
#     4   4   4   4   4   4   4
#     4   8  15  29  55  83 106 136 178 226 267 307
#     4  11  23  39  58  77 102 144 192 229 261 310
#     4  10  20  35  56  80 107 142 184 223 261 313
#     4  12  24  35  51  79 115 149 177 217 274 328
#     4  11  23  37  54  79 112 145 177 220 272 320
#     4   9  16  32  55  79 107 141 180 220 264 316
#     4  10  18  33  57  83 109 140 182 225 263 311
#
# _framework density 17.568550999999999
#
# number of rings (size 3 to 8) (size 9 to 14) (size 15 to 20)
#    0.000    1.857    2.857    3.429    0.000    4.000 
#    0.000    2.143    0.000    0.857    0.000    6.000 
#    0.000    0.000    0.000    0.000    0.000    0.000 
#
# Total GULP energy -347225.328837 kJ/mol
# GULP energy per Si atom -12400.904601 kJ/mol
# Density = 1.752856 g / cm^3
# Si number density = 17.568551 Si / 1000 Ang^3
#
#
#
# Elastic Constant Matrix: (Units=GPa)
#
#
# Indices 1 2 3 4 5 6 
#
# 1 132.6748 53.9150 41.8077 0.0000 -1.7038 0.0000
# 2 53.9150 75.3836 34.4908 0.0000 -2.4724 0.0000
# 3 41.8077 34.4908 58.4052 0.0000 2.2811 0.0000
# 4 0.0000 0.0000 0.0000 15.1964 0.0000 -3.9527
# 5 -1.7038 -2.4724 2.2811 0.0000 27.4140 0.0000
# 6 0.0000 0.0000 0.0000 -3.9527 0.0000 14.2216
#
#
#
# Elastic Compliance Matrix: (Units=1/GPa)
#
#
# Indices 1 2 3 4 5 6 
#
# 1 0.011473 -0.006056 -0.004658 0.000000 0.000554 0.000000
# 2 -0.006056 0.021552 -0.008481 0.000000 0.002273 0.000000
# 3 -0.004658 -0.008481 0.025589 0.000000 -0.003184 0.000000
# 4 0.000000 0.000000 0.000000 0.070933 0.000000 0.019715
# 5 0.000554 0.002273 -0.003184 0.000000 0.036982 0.000000
# 6 0.000000 0.000000 0.000000 0.019715 0.000000 0.075795
#
#
# Mechanical properties :
#
#
# Convention : Reuss Voigt Hill
#
# Bulk Modulus (GPa) = 49.44730 58.54340 53.99535
# Shear Modulus (GPa) = 17.39403 20.44974 18.92188
#
# Velocity S-wave (km/s) = 3.14995 3.41544 3.28538
# Velocity P-wave (km/s) = 6.43708 6.99634 6.72253
#
# Compressibility (1/GPa) = 0.02022355
#
# Stress axis : x y z
#
# Youngs Moduli (GPa) = 87.15918 46.39954 39.07996
#
# Poissons Ratio (x) = 0.28102 0.18203
# Poissons Ratio (y) = 0.52787 0.33143
# Poissons Ratio (z) = 0.40598 0.39351
#
# Static dielectric constant tensor:
#      x y z
#    x 3.655020 0.000000 0.173830 
#    y 0.000000 3.102750 0.000000 
#    z 0.173830 0.000000 3.194700 
# 
# 
# High freq. dielectric constant tensor:
#      x y z
#    x 1.688620 0.000000 0.005830 
#    y 0.000000 1.665700 0.000000 
#    z 0.005830 0.000000 1.660860 
# 
# From -- ./inp_files/49149.got.cif
#   From: 2010.06.25/outbox.cif.g09.slc.cpg/sg10_25_cif.got.tgz:49149.got - 2010.06.27 22:07:45.
