data_PCOD8059689
_publ_section_title
;
Structure prediction by ZEFSAII (Michael W. Deem and Ramdas Pophale) SiO2 
 PCOD8059689
Probable space group: P 2/M
;
_chemical_formula_sum "Si O2"
_cell_formula_units_Z 32
_cell_length_a 25.193060
_cell_length_b 8.568748
_cell_length_c 16.383099
_cell_angle_alpha 90.000000
_cell_angle_beta 153.282463
_cell_angle_gamma 90.000000
_cell_volume 1590.059322
_symmetry_space_group_name_H-M "P 2/M"
_symmetry_group_IT_number 10
_symmetry_cell_setting 'monoclinic'
loop_
_space_group_symop_operation_xyz
x,y,z
-x,y,-z
-x,-y,-z
x,-y,z
loop_
_atom_site_type_symbol
_atom_site_label
_atom_site_fract_x
_atom_site_fract_y
_atom_site_fract_z
Si Si1 0.746017 0.821255 0.466523
Si Si2 0.805222 0.178815 0.296321
Si Si3 0.610935 0.317336 0.597530
Si Si4 0.323475 0.682561 0.024606
Si Si5 0.571984 0.180475 0.368662
Si Si6 0.777337 0.815375 0.953521
Si Si7 0.038041 0.180717 0.339662
Si Si8 0.370034 0.323100 0.836625
O O1 0.692705 0.785655 0.482702
O O2 0.886633 0.796706 0.641367
O O3 0.690626 0.690076 0.333692
O O4 0.714418 0.000000 0.397893
O O5 0.786597 0.272448 0.186250
O O6 0.900898 0.250404 0.492741
O O7 0.679799 0.197671 0.168357
O O8 0.832322 0.000000 0.311538
O O9 0.500000 0.267785 0.500000
O O10 0.611735 0.500000 0.580295
O O11 0.604383 0.227343 0.504091
O O12 0.729931 0.266353 0.806840
O O13 0.319145 0.500000 0.035160
O O14 0.455543 0.728391 0.174685
O O15 0.306199 0.771824 0.085836
O O16 0.538523 0.000000 0.318767
O O17 0.778450 0.000000 0.941808
O O18 0.908954 0.746278 0.149429
O O19 0.024835 0.000000 0.341837
O O20 0.358436 0.500000 0.854879
O O21 0.500000 0.268228 0.000000
#
# Coordination Sequence:
#
# PCOD8059689 Si02
#       8
#     4   4   4   4   4   4   4   4
#     4   9  19  36  57  82 112 147 189 234 282 333
#     4  10  20  36  56  79 111 152 197 239 280 333
#     4  11  23  40  61  87 120 152 181 230 294 347
#     4  12  24  37  54  84 123 154 188 239 295 342
#     4  11  22  37  62  91 116 149 193 238 283 343
#     4  11  22  39  64  87 110 148 196 238 282 343
#     4   8  18  38  61  84 113 150 193 241 283 325
#     4  10  19  30  47  75 111 150 190 233 285 337
#
# _framework density 20.125036000000001
#
# number of rings (size 3 to 8) (size 9 to 14) (size 15 to 20)
#    0.000    1.750    1.250    4.500    0.000    5.000 
#    0.000    9.375    0.000    3.750    0.000    0.000 
#    0.000    0.000    0.000    0.000    0.000    0.000 
#
# Total GULP energy -396495.133659 kJ/mol
# GULP energy per Si atom -12390.472927 kJ/mol
# Density = 2.007923 g / cm^3
# Si number density = 20.125036 Si / 1000 Ang^3
#
#
#
# Elastic Constant Matrix: (Units=GPa)
#
#
# Indices 1 2 3 4 5 6 
#
# 1 73.3527 9.1838 21.5854 0.0000 -2.4303 0.0000
# 2 9.1838 26.8241 6.1808 0.0000 6.7242 0.0000
# 3 21.5854 6.1808 102.6368 0.0000 3.8884 0.0000
# 4 0.0000 0.0000 0.0000 22.0372 0.0000 -0.1494
# 5 -2.4303 6.7242 3.8884 0.0000 27.5345 0.0000
# 6 0.0000 0.0000 0.0000 -0.1494 0.0000 19.5692
#
#
#
# Elastic Compliance Matrix: (Units=1/GPa)
#
#
# Indices 1 2 3 4 5 6 
#
# 1 0.015285 -0.005309 -0.003011 0.000000 0.003071 0.000000
# 2 -0.005309 0.041982 -0.001011 0.000000 -0.010578 0.000000
# 3 -0.003011 -0.001011 0.010494 0.000000 -0.001501 0.000000
# 4 0.000000 0.000000 0.000000 0.045380 0.000000 0.000347
# 5 0.003071 -0.010578 -0.001501 0.000000 0.039384 0.000000
# 6 0.000000 0.000000 0.000000 0.000347 0.000000 0.051103
#
#
# Mechanical properties :
#
#
# Convention : Reuss Voigt Hill
#
# Bulk Modulus (GPa) = 20.36696 30.74595 25.55646
# Shear Modulus (GPa) = 20.95041 24.88575 22.91808
#
# Velocity S-wave (km/s) = 3.22997 3.52029 3.37825
# Velocity P-wave (km/s) = 4.90433 5.64215 5.28613
#
# Compressibility (1/GPa) = 0.04909912
#
# Stress axis : x y z
#
# Youngs Moduli (GPa) = 65.42214 23.81957 95.29150
#
# Poissons Ratio (x) = 0.12646 0.28695
# Poissons Ratio (y) = 0.34734 0.09632
# Poissons Ratio (z) = 0.19700 0.02408
#
# Static dielectric constant tensor:
#      x y z
#    x 3.644260 0.000000 0.003090 
#    y 0.000000 3.488610 0.000000 
#    z 0.003090 0.000000 3.778840 
# 
# 
# High freq. dielectric constant tensor:
#      x y z
#    x 1.783580 0.000000 0.001760 
#    y 0.000000 1.775930 0.000000 
#    z 0.001760 0.000000 1.776980 
# 
# From -- ./inp_files/71672.got.cif
#   From: 2010.06.25/outbox.cif.g09.slc.cpg/sg10_36_cif.got.tgz:71672.got - 2010.06.27 22:07:45.
