data_PCOD8059850
_publ_section_title
;
Structure prediction by ZEFSAII (Michael W. Deem and Ramdas Pophale) SiO2 
 PCOD8059850
Probable space group: P 2/M
;
_chemical_formula_sum "Si O2"
_cell_formula_units_Z 28
_cell_length_a 19.098424
_cell_length_b 8.824148
_cell_length_c 11.405271
_cell_angle_alpha 90.000000
_cell_angle_beta 54.203836
_cell_angle_gamma 90.000000
_cell_volume 1559.020840
_symmetry_space_group_name_H-M "P 2/M"
_symmetry_group_IT_number 10
_symmetry_cell_setting 'monoclinic'
loop_
_space_group_symop_operation_xyz
x,y,z
-x,y,-z
-x,-y,-z
x,-y,z
loop_
_atom_site_type_symbol
_atom_site_label
_atom_site_fract_x
_atom_site_fract_y
_atom_site_fract_z
Si Si1 0.405399 0.167370 0.609125
Si Si2 0.504537 0.677426 0.859263
Si Si3 0.335900 0.324684 0.887364
Si Si4 0.821546 0.177763 0.050110
Si Si5 0.183039 0.320601 0.688507
Si Si6 0.006606 0.666214 0.131726
Si Si7 0.665720 0.831916 0.576488
O O1 0.500000 0.231407 0.500000
O O2 0.359260 0.295788 0.729427
O O3 0.362300 0.151465 0.527994
O O4 0.405157 0.000000 0.671084
O O5 0.512469 0.500000 0.825229
O O6 0.414956 0.739521 0.889648
O O7 0.590659 0.754227 0.725381
O O8 0.500000 0.715023 0.000000
O O9 0.320427 0.500000 0.929778
O O10 0.244332 0.237224 0.987468
O O11 0.801004 0.245796 0.199217
O O12 0.810490 0.000000 0.073298
O O13 0.917306 0.217675 0.909540
O O14 0.192246 0.500000 0.697284
O O15 0.087471 0.277335 0.733001
O O16 0.246468 0.265714 0.521178
O O17 0.028807 0.500000 0.162706
O O18 0.000000 0.651534 0.000000
O O19 0.683927 0.000000 0.611155
#
# Coordination Sequence:
#
# PCOD8059850 Si02
#       7
#     4   4   4   4   4   4   4
#     4  10  19  31  46  69 102 131 159 201 250 297
#     4  10  23  41  56  72  97 131 173 217 256 299
#     4  11  21  32  51  73  97 132 171 208 250 300
#     4  11  20  29  45  71 104 137 168 205 248 297
#     4  10  19  31  48  71 102 138 172 205 243 293
#     4   8  16  30  45  65  98 137 172 203 238 289
#     4  11  21  32  51  77 104 134 167 207 252 301
#
# _framework density 17.959990999999999
#
# number of rings (size 3 to 8) (size 9 to 14) (size 15 to 20)
#    0.000    1.857    2.857    3.429    0.000    4.857 
#    0.000    0.000    0.000    0.000    0.000    1.000 
#    0.000    8.000    0.000    0.000    0.000    0.000 
#
# Total GULP energy -346879.985144 kJ/mol
# GULP energy per Si atom -12388.570898 kJ/mol
# Density = 1.791911 g / cm^3
# Si number density = 17.959991 Si / 1000 Ang^3
#
#
#
# Elastic Constant Matrix: (Units=GPa)
#
#
# Indices 1 2 3 4 5 6 
#
# 1 86.2639 46.3522 66.5245 0.0000 -35.5622 0.0000
# 2 46.3522 95.5570 44.6625 0.0000 -16.4613 0.0000
# 3 66.5245 44.6625 77.6958 0.0000 -24.7732 0.0000
# 4 0.0000 0.0000 0.0000 2.0632 0.0000 -2.5445
# 5 -35.5622 -16.4613 -24.7732 0.0000 34.9150 0.0000
# 6 0.0000 0.0000 0.0000 -2.5445 0.0000 18.5784
#
#
#
# Elastic Compliance Matrix: (Units=1/GPa)
#
#
# Indices 1 2 3 4 5 6 
#
# 1 0.047638 -0.004738 -0.030121 0.000000 0.024916 0.000000
# 2 -0.004738 0.014818 -0.004876 0.000000 -0.001299 0.000000
# 3 -0.030121 -0.004876 0.039997 0.000000 -0.004599 0.000000
# 4 0.000000 0.000000 0.000000 0.583186 0.000000 0.079874
# 5 0.024916 -0.001299 -0.004599 0.000000 0.050143 0.000000
# 6 0.000000 0.000000 0.000000 0.079874 0.000000 0.064765
#
#
# Mechanical properties :
#
#
# Convention : Reuss Voigt Hill
#
# Bulk Modulus (GPa) = 43.50639 63.84392 53.67516
# Shear Modulus (GPa) = 5.63268 17.90983 11.77126
#
# Velocity S-wave (km/s) = 1.77286 3.16128 2.56289
# Velocity P-wave (km/s) = 5.33548 6.99643 6.22163
#
# Compressibility (1/GPa) = 0.02298513
#
# Stress axis : x y z
#
# Youngs Moduli (GPa) = 20.99179 67.48457 25.00193
#
# Poissons Ratio (x) = 0.31971 0.75307
# Poissons Ratio (y) = 0.09945 0.12190
# Poissons Ratio (z) = 0.63228 0.32904
#
# Static dielectric constant tensor:
#      x y z
#    x 3.575260 0.000000 -0.559700 
#    y 0.000000 3.519350 0.000000 
#    z -0.559700 0.000000 3.219180 
# 
# 
# High freq. dielectric constant tensor:
#      x y z
#    x 1.684600 0.000000 -0.047450 
#    y 0.000000 1.699610 0.000000 
#    z -0.047450 0.000000 1.659450 
# 
# From -- ./inp_files/54673.got.cif
#   From: 2010.06.25/outbox.cif.g09.slc.cpg/sg10_28_cif.got.tgz:54673.got - 2010.06.27 22:07:45.
