data_PCOD8059138
_publ_section_title
;
Structure prediction by ZEFSAII (Michael W. Deem and Ramdas Pophale) SiO2 
 PCOD8059138
Probable space group: P 2/M
;
_chemical_formula_sum "Si O2"
_cell_formula_units_Z 28
_cell_length_a 14.483756
_cell_length_b 8.516132
_cell_length_c 14.408149
_cell_angle_alpha 90.000000
_cell_angle_beta 120.257714
_cell_angle_gamma 90.000000
_cell_volume 1535.071897
_symmetry_space_group_name_H-M "P 2/M"
_symmetry_group_IT_number 10
_symmetry_cell_setting 'monoclinic'
loop_
_space_group_symop_operation_xyz
x,y,z
-x,y,-z
-x,-y,-z
x,-y,z
loop_
_atom_site_type_symbol
_atom_site_label
_atom_site_fract_x
_atom_site_fract_y
_atom_site_fract_z
Si Si1 0.761821 0.684255 0.548789
Si Si2 0.009878 0.685881 0.400525
Si Si3 0.328152 0.819148 0.673104
Si Si4 0.447452 0.315534 0.206556
Si Si5 0.608687 0.817059 0.004797
Si Si6 0.403356 0.684171 0.388624
Si Si7 0.213885 0.318989 0.777697
O O1 0.753693 0.500000 0.523082
O O2 0.683913 0.777017 0.440418
O O3 0.713066 0.722523 0.625700
O O4 0.883058 0.746030 0.597566
O O5 0.011748 0.500000 0.411287
O O6 0.910650 0.734061 0.283754
O O7 0.000000 0.758485 0.500000
O O8 0.447158 0.781503 0.765858
O O9 0.247575 0.707464 0.688217
O O10 0.302356 0.000000 0.680624
O O11 0.471389 0.500000 0.222794
O O12 0.369763 0.274757 0.081241
O O13 0.402193 0.251950 0.282267
O O14 0.598869 0.000000 0.979151
O O15 0.500000 0.755347 0.000000
O O16 0.713419 0.787677 0.119806
O O17 0.500000 0.757393 0.500000
O O18 0.422929 0.500000 0.393983
O O19 0.228428 0.500000 0.813289
#
# Coordination Sequence:
#
# PCOD8059138 Si02
#       7
#     4   4   4   4   4   4   4
#     4  10  18  34  55  76 109 144 175 215 263 307
#     4   9  17  30  53  83 106 134 175 219 259 305
#     4  12  22  31  47  78 113 143 175 213 259 311
#     4  11  21  35  55  78 105 141 182 214 256 313
#     4  11  23  37  53  78 110 137 171 216 268 316
#     4   9  17  30  53  83 106 134 175 219 259 305
#     4  11  21  35  55  78 105 141 182 214 256 313
#
# _framework density 18.240186999999999
#
# number of rings (size 3 to 8) (size 9 to 14) (size 15 to 20)
#    0.000    1.571    4.286    2.571    0.000    0.571 
#    0.000    4.286    0.000    0.857    0.000    6.000 
#    0.000    0.000    0.000    0.000    0.000    0.000 
#
# Total GULP energy -347102.184980 kJ/mol
# GULP energy per Si atom -12396.506606 kJ/mol
# Density = 1.819867 g / cm^3
# Si number density = 18.240187 Si / 1000 Ang^3
#
#
#
# Elastic Constant Matrix: (Units=GPa)
#
#
# Indices 1 2 3 4 5 6 
#
# 1 116.0538 20.1934 49.9050 0.0000 -2.2251 0.0000
# 2 20.1934 34.9158 20.9724 0.0000 0.1201 0.0000
# 3 49.9050 20.9724 104.4605 0.0000 -7.2304 0.0000
# 4 0.0000 0.0000 0.0000 16.1038 0.0000 1.0586
# 5 -2.2251 0.1201 -7.2304 0.0000 30.8443 0.0000
# 6 0.0000 0.0000 0.0000 1.0586 0.0000 7.9327
#
#
#
# Elastic Compliance Matrix: (Units=1/GPa)
#
#
# Indices 1 2 3 4 5 6 
#
# 1 0.011258 -0.003717 -0.004650 0.000000 -0.000264 0.000000
# 2 -0.003717 0.033881 -0.005138 0.000000 -0.001604 0.000000
# 3 -0.004650 -0.005138 0.013016 0.000000 0.002736 0.000000
# 4 0.000000 0.000000 0.000000 0.062647 0.000000 -0.008360
# 5 -0.000264 -0.001604 0.002736 0.000000 0.033049 0.000000
# 6 0.000000 0.000000 0.000000 -0.008360 0.000000 0.127176
#
#
# Mechanical properties :
#
#
# Convention : Reuss Voigt Hill
#
# Bulk Modulus (GPa) = 32.10778 48.61907 40.36343
# Shear Modulus (GPa) = 15.70259 21.93345 18.81802
#
# Velocity S-wave (km/s) = 2.93726 3.47144 3.21546
# Velocity P-wave (km/s) = 5.39855 6.54069 5.99687
#
# Compressibility (1/GPa) = 0.03114510
#
# Stress axis : x y z
#
# Youngs Moduli (GPa) = 88.82443 29.51468 76.83106
#
# Poissons Ratio (x) = 0.10970 0.35730
# Poissons Ratio (y) = 0.33015 0.39474
# Poissons Ratio (z) = 0.41308 0.15164
#
# Static dielectric constant tensor:
#      x y z
#    x 3.496980 0.000000 -0.028230 
#    y 0.000000 3.013730 0.000000 
#    z -0.028230 0.000000 3.323910 
# 
# 
# High freq. dielectric constant tensor:
#      x y z
#    x 1.694320 0.000000 -0.001130 
#    y 0.000000 1.683070 0.000000 
#    z -0.001130 0.000000 1.698220 
# 
# From -- ./inp_files/66236.got.cif
#   From: 2010.06.25/outbox.cif.g09.slc.cpg/sg10_34_cif.got.tgz:66236.got - 2010.06.27 22:07:45.
