data_PCOD8059414
_publ_section_title
;
Structure prediction by ZEFSAII (Michael W. Deem and Ramdas Pophale) SiO2 
 PCOD8059414
Probable space group: P 2/M
;
_chemical_formula_sum "Si O2"
_cell_formula_units_Z 30
_cell_length_a 29.848636
_cell_length_b 12.983550
_cell_length_c 27.972466
_cell_angle_alpha 90.000000
_cell_angle_beta 9.645169
_cell_angle_gamma 90.000000
_cell_volume 1816.279871
_symmetry_space_group_name_H-M "P 2/M"
_symmetry_group_IT_number 10
_symmetry_cell_setting 'monoclinic'
loop_
_space_group_symop_operation_xyz
x,y,z
-x,y,-z
-x,-y,-z
x,-y,z
loop_
_atom_site_type_symbol
_atom_site_label
_atom_site_fract_x
_atom_site_fract_y
_atom_site_fract_z
Si Si1 0.436758 0.377424 0.438895
Si Si2 0.220345 0.378400 0.132723
Si Si3 0.700595 0.000000 0.332357
Si Si4 0.193691 0.622719 0.510568
Si Si5 0.087860 0.236623 0.353573
Si Si6 0.588040 0.113298 0.853268
Si Si7 0.973293 0.621505 0.211061
Si Si8 0.300923 0.775792 0.665120
O O1 0.420238 0.500000 0.466477
O O2 0.234862 0.341529 0.609943
O O3 0.359202 0.317204 0.568059
O O4 0.731180 0.341466 0.113655
O O5 0.216778 0.500000 0.138658
O O6 0.134394 0.341969 0.275997
O O7 0.014404 0.335859 0.309874
O O8 0.512630 0.335856 0.811647
O O9 0.500000 0.000000 0.500000
O O10 0.657071 0.889164 0.404945
O O11 0.000000 0.000000 0.000000
O O12 0.191710 0.500000 0.513877
O O13 0.109936 0.668983 0.650186
O O14 0.000000 0.264562 0.500000
O O15 0.866512 0.172890 0.557730
O O16 0.360803 0.172918 0.063436
O O17 0.625039 0.000000 0.791550
O O18 0.500000 0.102338 0.000000
O O19 0.966746 0.500000 0.222081
O O20 0.500000 0.762944 0.500000
O O21 0.000000 0.762864 0.000000
#
# Coordination Sequence:
#
# PCOD8059414 Si02
#       8
#     4   4   2   4   4   4   4   4
#     4  10  19  29  44  68  96 122 151 186 227 283
#     4  10  19  30  45  67  95 125 156 186 219 274
#     4   8  16  30  46  62  84 118 156 194 222 242
#     4   9  17  30  47  64  87 120 155 194 232 261
#     4  10  19  30  45  67  96 124 150 185 225 276
#     4   9  17  30  47  65  87 114 147 191 233 263
#     4   9  17  30  46  65  91 118 147 190 235 268
#     4  10  19  31  46  65  94 127 156 188 222 265
#
# _framework density 16.517278999999998
#
# number of rings (size 3 to 8) (size 9 to 14) (size 15 to 20)
#    0.000    2.533    0.000    2.800    0.000    5.600 
#    0.000    0.000    0.000    4.800    0.000    0.000 
#   40.000    0.000    0.000    0.000    0.000    0.000 
#
# Total GULP energy -371869.602540 kJ/mol
# GULP energy per Si atom -12395.653418 kJ/mol
# Density = 1.647969 g / cm^3
# Si number density = 16.517279 Si / 1000 Ang^3
#
#
#
# Elastic Constant Matrix: (Units=GPa)
#
#
# Indices 1 2 3 4 5 6 
#
# 1 206.6014 42.4149 -29.2705 0.0000 -52.4537 0.0000
# 2 42.4149 57.3323 37.0856 0.0000 6.0771 0.0000
# 3 -29.2705 37.0856 233.3852 0.0000 24.9217 0.0000
# 4 0.0000 0.0000 0.0000 7.7606 0.0000 -1.6769
# 5 -52.4537 6.0771 24.9217 0.0000 57.4992 0.0000
# 6 0.0000 0.0000 0.0000 -1.6769 0.0000 6.2250
#
#
#
# Elastic Compliance Matrix: (Units=1/GPa)
#
#
# Indices 1 2 3 4 5 6 
#
# 1 0.008939 -0.008524 0.001582 0.000000 0.008370 0.000000
# 2 -0.008524 0.027599 -0.004522 0.000000 -0.008733 0.000000
# 3 0.001582 -0.004522 0.005239 0.000000 -0.000350 0.000000
# 4 0.000000 0.000000 0.000000 0.136820 0.000000 0.036857
# 5 0.008370 -0.008733 -0.000350 0.000000 0.026102 0.000000
# 6 0.000000 0.000000 0.000000 0.036857 0.000000 0.170572
#
#
# Mechanical properties :
#
#
# Convention : Reuss Voigt Hill
#
# Bulk Modulus (GPa) = 53.05263 66.41987 59.73625
# Shear Modulus (GPa) = 12.36148 44.10289 28.23219
#
# Velocity S-wave (km/s) = 2.73865 5.17291 4.13879
# Velocity P-wave (km/s) = 6.49534 8.71656 7.68661
#
# Compressibility (1/GPa) = 0.01884921
#
# Stress axis : x y z
#
# Youngs Moduli (GPa) = 111.86445 36.23317 190.87348
#
# Poissons Ratio (x) = 0.30885 -0.30193
# Poissons Ratio (y) = 0.95352 0.86314
# Poissons Ratio (z) = -0.17695 0.16385
#
# Static dielectric constant tensor:
#      x y z
#    x 3.137930 0.000000 -0.271690 
#    y 0.000000 3.072230 0.000000 
#    z -0.271690 0.000000 3.386500 
# 
# 
# High freq. dielectric constant tensor:
#      x y z
#    x 1.629490 0.000000 -0.023140 
#    y 0.000000 1.608630 0.000000 
#    z -0.023140 0.000000 1.650700 
# 
# From -- ./inp_files/13143.got.cif
#   From: 2010.06.25/outbox.cif.g09.slc.cpg/sg10_7_cif.got.tgz:13143.got - 2010.06.27 22:07:45.
