data_PCOD8059785
_publ_section_title
;
Structure prediction by ZEFSAII (Michael W. Deem and Ramdas Pophale) SiO2 
 PCOD8059785
Probable space group: P 2/M
;
_chemical_formula_sum "Si O2"
_cell_formula_units_Z 28
_cell_length_a 14.897307
_cell_length_b 9.124327
_cell_length_c 13.712070
_cell_angle_alpha 90.000000
_cell_angle_beta 50.308247
_cell_angle_gamma 90.000000
_cell_volume 1434.218934
_symmetry_space_group_name_H-M "P 2/M"
_symmetry_group_IT_number 10
_symmetry_cell_setting 'monoclinic'
loop_
_space_group_symop_operation_xyz
x,y,z
-x,y,-z
-x,-y,-z
x,-y,z
loop_
_atom_site_type_symbol
_atom_site_label
_atom_site_fract_x
_atom_site_fract_y
_atom_site_fract_z
Si Si1 0.370435 0.673533 0.117258
Si Si2 0.127988 0.167818 0.953623
Si Si3 0.419651 0.340394 0.477195
Si Si4 0.823194 0.660216 0.254336
Si Si5 0.708617 0.324461 0.614643
Si Si6 0.085248 0.828837 0.633309
Si Si7 0.168679 0.830633 0.146465
O O1 0.366267 0.500000 0.113280
O O2 0.334026 0.727658 0.250181
O O3 0.277005 0.736098 0.106995
O O4 0.500000 0.730912 0.000000
O O5 0.207985 0.268338 0.828773
O O6 0.165641 0.000000 0.916048
O O7 0.140801 0.219392 0.055612
O O8 0.000000 0.197045 0.000000
O O9 0.500000 0.250258 0.500000
O O10 0.480046 0.500000 0.417650
O O11 0.295310 0.365434 0.608747
O O12 0.392679 0.266415 0.390523
O O13 0.884335 0.500000 0.199816
O O14 0.900087 0.769508 0.266858
O O15 0.721581 0.500000 0.597861
O O16 0.834683 0.254025 0.501791
O O17 0.947258 0.805313 0.706258
O O18 0.117907 0.000000 0.609801
O O19 0.205035 0.000000 0.124909
#
# Coordination Sequence:
#
# PCOD8059785 Si02
#       7
#     4   4   4   4   4   4   4
#     4  10  23  42  61  82 113 152 191 238 291 342
#     4  10  19  35  54  76 113 154 184 221 280 339
#     4   8  15  29  50  76 106 140 177 220 271 327
#     4  10  19  30  50  82 114 146 184 230 278 333
#     4   9  19  36  57  82 112 146 185 234 288 337
#     4  10  19  35  57  82 113 148 185 229 288 346
#     4  10  22  38  58  83 112 152 196 238 284 340
#
# _framework density 19.522819999999999
#
# number of rings (size 3 to 8) (size 9 to 14) (size 15 to 20)
#    0.000    2.429    1.429    1.714    0.000    4.571 
#    0.000    5.714    0.000   12.429    0.000    0.000 
#    0.000    0.000    0.000    0.000    0.000    0.000 
#
# Total GULP energy -346912.751321 kJ/mol
# GULP energy per Si atom -12389.741119 kJ/mol
# Density = 1.947839 g / cm^3
# Si number density = 19.522820 Si / 1000 Ang^3
#
#
#
# Elastic Constant Matrix: (Units=GPa)
#
#
# Indices 1 2 3 4 5 6 
#
# 1 126.7058 33.4556 58.7146 0.0000 3.8699 0.0000
# 2 33.4556 54.6521 35.4826 0.0000 5.4020 0.0000
# 3 58.7146 35.4826 109.5967 0.0000 19.5602 0.0000
# 4 0.0000 0.0000 0.0000 22.5354 0.0000 8.0819
# 5 3.8699 5.4020 19.5602 0.0000 26.7320 0.0000
# 6 0.0000 0.0000 0.0000 8.0819 0.0000 29.3315
#
#
#
# Elastic Compliance Matrix: (Units=1/GPa)
#
#
# Indices 1 2 3 4 5 6 
#
# 1 0.011273 -0.003707 -0.005385 0.000000 0.003057 0.000000
# 2 -0.003707 0.024406 -0.005902 0.000000 -0.000077 0.000000
# 3 -0.005385 -0.005902 0.015606 0.000000 -0.009447 0.000000
# 4 0.000000 0.000000 0.000000 0.049240 0.000000 -0.013568
# 5 0.003057 -0.000077 -0.009447 0.000000 0.043894 0.000000
# 6 0.000000 0.000000 0.000000 -0.013568 0.000000 0.037831
#
#
# Mechanical properties :
#
#
# Convention : Reuss Voigt Hill
#
# Bulk Modulus (GPa) = 46.95349 60.69557 53.82453
# Shear Modulus (GPa) = 22.79590 26.60655 24.70123
#
# Velocity S-wave (km/s) = 3.42080 3.69568 3.56089
# Velocity P-wave (km/s) = 6.30121 7.02622 6.67357
#
# Compressibility (1/GPa) = 0.02129767
#
# Stress axis : x y z
#
# Youngs Moduli (GPa) = 88.70747 40.97315 64.07774
#
# Poissons Ratio (x) = 0.15189 0.34505
# Poissons Ratio (y) = 0.32884 0.37819
# Poissons Ratio (z) = 0.47767 0.24182
#
# Static dielectric constant tensor:
#      x y z
#    x 3.802220 0.000000 0.278070 
#    y 0.000000 3.478800 0.000000 
#    z 0.278070 0.000000 3.743890 
# 
# 
# High freq. dielectric constant tensor:
#      x y z
#    x 1.753820 0.000000 0.008630 
#    y 0.000000 1.740600 0.000000 
#    z 0.008630 0.000000 1.759830 
# 
# From -- ./inp_files/50051.got.cif
#   From: 2010.06.25/outbox.cif.g09.slc.cpg/sg10_26_cif.got.tgz:50051.got - 2010.06.27 22:07:45.
