data_PCOD8059531
_publ_section_title
;
Structure prediction by ZEFSAII (Michael W. Deem and Ramdas Pophale) SiO2 
 PCOD8059531
Probable space group: P 2/M
;
_chemical_formula_sum "Si O2"
_cell_formula_units_Z 32
_cell_length_a 13.598899
_cell_length_b 8.895169
_cell_length_c 18.689479
_cell_angle_alpha 90.000000
_cell_angle_beta 68.665611
_cell_angle_gamma 90.000000
_cell_volume 2105.840308
_symmetry_space_group_name_H-M "P 2/M"
_symmetry_group_IT_number 10
_symmetry_cell_setting 'monoclinic'
loop_
_space_group_symop_operation_xyz
x,y,z
-x,y,-z
-x,-y,-z
x,-y,z
loop_
_atom_site_type_symbol
_atom_site_label
_atom_site_fract_x
_atom_site_fract_y
_atom_site_fract_z
Si Si1 0.506432 0.176996 0.265423
Si Si2 0.271854 0.823004 0.734575
Si Si3 0.520003 0.179205 0.888758
Si Si4 0.575021 0.670430 0.583482
Si Si5 0.652530 0.323862 0.969487
Si Si6 0.877983 0.676138 0.969486
Si Si7 0.091240 0.179205 0.888758
Si Si8 0.341497 0.329570 0.583480
O O1 0.622854 0.240649 0.254294
O O2 0.474958 0.231530 0.194805
O O3 0.418261 0.234689 0.345129
O O4 0.507791 0.000000 0.268986
O O5 0.169760 0.768472 0.805194
O O6 0.263388 0.765310 0.654870
O O7 0.276777 0.000000 0.731011
O O8 0.620385 0.252327 0.901907
O O9 0.522200 0.000000 0.896607
O O10 0.411998 0.241598 0.950857
O O11 0.604630 0.500000 0.594365
O O12 0.654805 0.730736 0.500001
O O13 0.457960 0.681722 0.584079
O O14 0.625098 0.500000 0.977939
O O15 0.776053 0.294304 0.947894
O O16 0.896969 0.500000 0.977931
O O17 0.977706 0.747684 0.901908
O O18 0.862853 0.758389 0.049146
O O19 0.081202 0.000000 0.896611
O O20 0.301005 0.500000 0.594363
#
# Coordination Sequence:
#
# PCOD8059531 Si02
#       8
#     4   4   4   4   4   4   4   4
#     4   9  17  27  39  58  83 109 137 168 201 237
#     4   9  17  27  39  58  83 109 137 168 201 237
#     4  10  19  30  45  63  83 108 139 173 206 244
#     4   8  14  24  37  54  77 106 138 167 196 233
#     4  10  20  32  45  61  82 108 138 172 209 247
#     4  10  20  32  45  61  82 108 138 172 209 247
#     4  10  19  30  45  63  83 108 139 173 206 244
#     4   8  14  24  37  54  77 106 138 167 196 233
#
# _framework density 15.195833
#
# number of rings (size 3 to 8) (size 9 to 14) (size 15 to 20)
#    0.000    2.750    0.000    4.500    0.000    5.500 
#    0.000    5.000    0.000    0.000    0.000    0.000 
#    0.000    1.000    0.000   11.000    0.000    8.500 
#
# Total GULP energy -396612.090095 kJ/mol
# GULP energy per Si atom -12394.127815 kJ/mol
# Density = 1.516125 g / cm^3
# Si number density = 15.195833 Si / 1000 Ang^3
#
#
#
# Elastic Constant Matrix: (Units=GPa)
#
#
# Indices 1 2 3 4 5 6 
#
# 1 77.0751 31.0379 51.7341 0.0000 -0.4818 0.0000
# 2 31.0379 49.2951 37.4248 0.0000 -0.2401 0.0000
# 3 51.7341 37.4248 151.7356 0.0000 -2.3019 0.0000
# 4 0.0000 0.0000 0.0000 21.9784 0.0000 -0.1020
# 5 -0.4818 -0.2401 -2.3019 0.0000 19.1973 0.0000
# 6 0.0000 0.0000 0.0000 -0.1020 0.0000 19.2279
#
#
#
# Elastic Compliance Matrix: (Units=1/GPa)
#
#
# Indices 1 2 3 4 5 6 
#
# 1 0.019571 -0.008927 -0.004473 0.000000 -0.000157 0.000000
# 2 -0.008927 0.029035 -0.004123 0.000000 -0.000355 0.000000
# 3 -0.004473 -0.004123 0.009147 0.000000 0.000933 0.000000
# 4 0.000000 0.000000 0.000000 0.045500 0.000000 0.000241
# 5 -0.000157 -0.000355 0.000933 0.000000 0.052194 0.000000
# 6 0.000000 0.000000 0.000000 0.000241 0.000000 0.052009
#
#
# Mechanical properties :
#
#
# Convention : Reuss Voigt Hill
#
# Bulk Modulus (GPa) = 44.04144 57.61103 50.82624
# Shear Modulus (GPa) = 19.99425 22.60799 21.30112
#
# Velocity S-wave (km/s) = 3.63129 3.86135 3.74809
# Velocity P-wave (km/s) = 6.82841 7.60755 7.22848
#
# Compressibility (1/GPa) = 0.02270589
#
# Stress axis : x y z
#
# Youngs Moduli (GPa) = 51.09658 34.44073 109.32996
#
# Poissons Ratio (x) = 0.30746 0.48905
# Poissons Ratio (y) = 0.45615 0.45078
# Poissons Ratio (z) = 0.22856 0.14200
#
# Static dielectric constant tensor:
#      x y z
#    x 2.692330 0.000000 -0.023140 
#    y 0.000000 2.974870 0.000000 
#    z -0.023140 0.000000 3.313560 
# 
# 
# High freq. dielectric constant tensor:
#      x y z
#    x 1.536110 0.000000 -0.001850 
#    y 0.000000 1.589670 0.000000 
#    z -0.001850 0.000000 1.585880 
# 
# From -- ./inp_files/77382.got.cif
#   From: 2010.06.25/outbox.cif.g09.slc.cpg/sg10_39_cif.got.tgz:77382.got - 2010.06.27 22:07:45.
