data_PCOD8059734
_publ_section_title
;
Structure prediction by ZEFSAII (Michael W. Deem and Ramdas Pophale) SiO2 
 PCOD8059734
Probable space group: P 2/M
;
_chemical_formula_sum "Si O2"
_cell_formula_units_Z 32
_cell_length_a 18.577468
_cell_length_b 12.872710
_cell_length_c 21.516025
_cell_angle_alpha 90.000000
_cell_angle_beta 159.571664
_cell_angle_gamma 90.000000
_cell_volume 1795.925027
_symmetry_space_group_name_H-M "P 2/M"
_symmetry_group_IT_number 10
_symmetry_cell_setting 'monoclinic'
loop_
_space_group_symop_operation_xyz
x,y,z
-x,y,-z
-x,-y,-z
x,-y,z
loop_
_atom_site_type_symbol
_atom_site_label
_atom_site_fract_x
_atom_site_fract_y
_atom_site_fract_z
Si Si1 0.407235 0.120091 0.768635
Si Si2 0.228880 0.756509 0.447181
Si Si3 0.383796 0.243426 0.165483
Si Si4 0.008519 0.120101 0.369898
Si Si5 0.667993 0.117582 0.586788
Si Si6 0.157634 0.377608 0.885867
Si Si7 0.075586 0.882417 0.994390
Si Si8 0.378089 0.255267 0.959367
O O1 0.566583 0.152257 0.843460
O O2 0.457351 0.185192 0.870459
O O3 0.171754 0.141614 0.557222
O O4 0.443787 0.000000 0.812868
O O5 0.405618 0.710275 0.635219
O O6 0.340233 0.806101 0.478066
O O7 0.102634 0.847626 0.379519
O O8 0.075969 0.663745 0.305459
O O9 0.253721 0.193873 0.115888
O O10 0.264410 0.336134 0.034885
O O11 0.949125 0.000000 0.318088
O O12 0.803149 0.185084 0.216289
O O13 0.500000 0.158338 0.500000
O O14 0.611396 0.000000 0.520460
O O15 0.894016 0.121747 0.797997
O O16 0.150654 0.500000 0.883648
O O17 0.286018 0.344892 0.928602
O O18 0.161339 0.000000 0.070444
O O19 0.000000 0.841630 0.000000
O O20 0.500000 0.306521 0.000000
#
# Coordination Sequence:
#
# PCOD8059734 Si02
#       8
#     4   4   4   4   4   4   4   4
#     4   9  18  31  49  75 108 144 177 206 247 309
#     4  10  19  34  55  78 104 140 177 223 268 311
#     4  10  19  34  55  78 104 140 177 223 268 311
#     4   9  18  31  49  75 108 144 177 206 247 309
#     4  10  19  30  48  80 118 151 179 208 249 305
#     4  10  22  40  59  78  98 129 179 231 279 326
#     4  10  19  30  48  80 118 151 179 208 249 305
#     4  10  21  35  52  77 105 134 171 217 268 319
#
# _framework density 17.818116
#
# number of rings (size 3 to 8) (size 9 to 14) (size 15 to 20)
#    0.000    2.250    1.250    1.875    0.000    4.750 
#    0.000    1.250    0.000    0.750    0.000    7.000 
#    0.000    0.000    0.000    0.000    0.000    0.000 
#
# Total GULP energy -396847.086000 kJ/mol
# GULP energy per Si atom -12401.471438 kJ/mol
# Density = 1.777756 g / cm^3
# Si number density = 17.818116 Si / 1000 Ang^3
#
#
#
# Elastic Constant Matrix: (Units=GPa)
#
#
# Indices 1 2 3 4 5 6 
#
# 1 111.1025 40.9247 34.2575 0.0000 7.6247 0.0000
# 2 40.9247 97.3068 44.1200 0.0000 -0.7331 0.0000
# 3 34.2575 44.1200 102.9347 0.0000 -5.6630 0.0000
# 4 0.0000 0.0000 0.0000 15.8353 0.0000 -0.3604
# 5 7.6247 -0.7331 -5.6630 0.0000 25.5340 0.0000
# 6 0.0000 0.0000 0.0000 -0.3604 0.0000 14.2862
#
#
#
# Elastic Compliance Matrix: (Units=1/GPa)
#
#
# Indices 1 2 3 4 5 6 
#
# 1 0.011397 -0.003727 -0.002418 0.000000 -0.004047 0.000000
# 2 -0.003727 0.013993 -0.004732 0.000000 0.000465 0.000000
# 3 -0.002418 -0.004732 0.012735 0.000000 0.003411 0.000000
# 4 0.000000 0.000000 0.000000 0.063187 0.000000 0.001594
# 5 -0.004047 0.000465 0.003411 0.000000 0.041142 0.000000
# 6 0.000000 0.000000 0.000000 0.001594 0.000000 0.070038
#
#
# Mechanical properties :
#
#
# Convention : Reuss Voigt Hill
#
# Bulk Modulus (GPa) = 61.08194 61.10538 61.09366
# Shear Modulus (GPa) = 20.85912 23.93386 22.39649
#
# Velocity S-wave (km/s) = 3.42522 3.66899 3.54920
# Velocity P-wave (km/s) = 7.07093 7.23305 7.15245
#
# Compressibility (1/GPa) = 0.01637145
#
# Stress axis : x y z
#
# Youngs Moduli (GPa) = 87.74265 71.46251 78.52141
#
# Poissons Ratio (x) = 0.26637 0.18986
# Poissons Ratio (y) = 0.32705 0.37154
# Poissons Ratio (z) = 0.21216 0.33814
#
# Static dielectric constant tensor:
#      x y z
#    x 3.272980 0.000000 -0.075670 
#    y 0.000000 2.881800 0.000000 
#    z -0.075670 0.000000 3.591170 
# 
# 
# High freq. dielectric constant tensor:
#      x y z
#    x 1.690990 0.000000 -0.004340 
#    y 0.000000 1.644750 0.000000 
#    z -0.004340 0.000000 1.709270 
# 
# From -- ./inp_files/34845.got.cif
#   From: 2010.06.25/outbox.cif.g09.slc.cpg/sg10_18_cif.got.tgz:34845.got - 2010.06.27 22:07:45.
