data_PCOD8059059
_publ_section_title
;
Structure prediction by ZEFSAII (Michael W. Deem and Ramdas Pophale) SiO2 
 PCOD8059059
Probable space group: P 2/M
;
_chemical_formula_sum "Si O2"
_cell_formula_units_Z 28
_cell_length_a 23.094108
_cell_length_b 8.795356
_cell_length_c 20.079418
_cell_angle_alpha 90.000000
_cell_angle_beta 160.229419
_cell_angle_gamma 90.000000
_cell_volume 1379.588827
_symmetry_space_group_name_H-M "P 2/M"
_symmetry_group_IT_number 10
_symmetry_cell_setting 'monoclinic'
loop_
_space_group_symop_operation_xyz
x,y,z
-x,y,-z
-x,-y,-z
x,-y,z
loop_
_atom_site_type_symbol
_atom_site_label
_atom_site_fract_x
_atom_site_fract_y
_atom_site_fract_z
Si Si1 0.389287 0.320822 0.543779
Si Si2 0.267557 0.819459 0.117101
Si Si3 0.332457 0.177734 0.618555
Si Si4 0.046641 0.822905 0.757992
Si Si5 0.090828 0.826901 0.661699
Si Si6 0.517753 0.827410 0.947037
Si Si7 0.036706 0.824507 0.116699
O O1 0.394311 0.500000 0.545874
O O2 0.546862 0.256125 0.669924
O O3 0.419533 0.265129 0.651994
O O4 0.207485 0.265799 0.319716
O O5 0.289739 0.000000 0.144003
O O6 0.196140 0.762022 0.967978
O O7 0.130752 0.765564 0.024763
O O8 0.400494 0.246649 0.762438
O O9 0.130384 0.206088 0.395572
O O10 0.381107 0.000000 0.665421
O O11 0.046121 0.745330 0.683901
O O12 0.079008 0.000000 0.781087
O O13 0.000000 0.744686 0.500000
O O14 0.021933 0.000000 0.589059
O O15 0.291380 0.818323 0.871361
O O16 0.452615 0.000000 0.885799
O O17 0.500000 0.744445 0.000000
O O18 0.071154 0.000000 0.172194
O O19 0.000000 0.799510 0.000000
#
# Coordination Sequence:
#
# PCOD8059059 Si02
#       7
#     4   4   4   4   4   4   4
#     4  12  25  39  59  89 126 163 201 243 296 358
#     4  10  20  38  63  89 118 153 200 247 294 353
#     4  10  18  33  56  80 111 150 201 253 300 354
#     4   9  16  28  50  77 104 143 189 241 294 341
#     4   9  15  22  34  62 105 143 178 226 292 356
#     4   9  16  25  42  72 107 144 187 246 309 355
#     4  10  22  43  70  96 121 153 197 248 299 354
#
# _framework density 20.295902000000002
#
# number of rings (size 3 to 8) (size 9 to 14) (size 15 to 20)
#    0.000    2.143    1.429    3.000    0.000    7.143 
#    0.000    2.857    0.000    0.429    0.000    0.000 
#    0.000    5.143    0.000    0.000    0.000    0.000 
#
# Total GULP energy -347077.906468 kJ/mol
# GULP energy per Si atom -12395.639517 kJ/mol
# Density = 2.024971 g / cm^3
# Si number density = 20.295902 Si / 1000 Ang^3
#
#
#
# Elastic Constant Matrix: (Units=GPa)
#
#
# Indices 1 2 3 4 5 6 
#
# 1 131.1360 37.3527 54.0946 0.0000 7.5707 0.0000
# 2 37.3527 55.0285 42.4802 0.0000 3.2266 0.0000
# 3 54.0946 42.4802 111.2304 0.0000 10.6285 0.0000
# 4 0.0000 0.0000 0.0000 9.6936 0.0000 1.1298
# 5 7.5707 3.2266 10.6285 0.0000 31.9233 0.0000
# 6 0.0000 0.0000 0.0000 1.1298 0.0000 4.8098
#
#
#
# Elastic Compliance Matrix: (Units=1/GPa)
#
#
# Indices 1 2 3 4 5 6 
#
# 1 0.010267 -0.004436 -0.003211 0.000000 -0.000917 0.000000
# 2 -0.004436 0.027702 -0.008526 0.000000 0.001091 0.000000
# 3 -0.003211 -0.008526 0.014102 0.000000 -0.003072 0.000000
# 4 0.000000 0.000000 0.000000 0.106064 0.000000 -0.024913
# 5 -0.000917 0.001091 -0.003072 0.000000 0.032455 0.000000
# 6 0.000000 0.000000 0.000000 -0.024913 0.000000 0.213759
#
#
# Mechanical properties :
#
#
# Convention : Reuss Voigt Hill
#
# Bulk Modulus (GPa) = 50.70260 62.80554 56.75407
# Shear Modulus (GPa) = 11.27977 20.18317 15.73147
#
# Velocity S-wave (km/s) = 2.36003 3.15690 2.78709
# Velocity P-wave (km/s) = 5.69756 6.65584 6.19526
#
# Compressibility (1/GPa) = 0.01972285
#
# Stress axis : x y z
#
# Youngs Moduli (GPa) = 97.40039 36.09862 70.91261
#
# Poissons Ratio (x) = 0.16015 0.22771
# Poissons Ratio (y) = 0.43210 0.60463
# Poissons Ratio (z) = 0.31277 0.30779
#
# Static dielectric constant tensor:
#      x y z
#    x 3.988660 0.000000 -0.107210 
#    y 0.000000 3.015990 0.000000 
#    z -0.107210 0.000000 3.748680 
# 
# 
# High freq. dielectric constant tensor:
#      x y z
#    x 1.811500 0.000000 -0.000760 
#    y 0.000000 1.711180 0.000000 
#    z -0.000760 0.000000 1.807280 
# 
# From -- ./inp_files/86548.got.cif
#   From: 2010.06.25/outbox.cif.g09.slc.cpg/sg10_44_cif.got.tgz:86548.got - 2010.06.27 22:07:45.
