data_PCOD8059521
_publ_section_title
;
Structure prediction by ZEFSAII (Michael W. Deem and Ramdas Pophale) SiO2 
 PCOD8059521
Probable space group: P 2/M
;
_chemical_formula_sum "Si O2"
_cell_formula_units_Z 24
_cell_length_a 11.820768
_cell_length_b 8.972489
_cell_length_c 20.929837
_cell_angle_alpha 90.000000
_cell_angle_beta 38.454726
_cell_angle_gamma 90.000000
_cell_volume 1380.518613
_symmetry_space_group_name_H-M "P 2/M"
_symmetry_group_IT_number 10
_symmetry_cell_setting 'monoclinic'
loop_
_space_group_symop_operation_xyz
x,y,z
-x,y,-z
-x,-y,-z
x,-y,z
loop_
_atom_site_type_symbol
_atom_site_label
_atom_site_fract_x
_atom_site_fract_y
_atom_site_fract_z
Si Si1 0.888939 0.823399 0.362275
Si Si2 0.567026 0.671740 0.566549
Si Si3 0.131873 0.825622 0.886251
Si Si4 0.142677 0.672147 0.749668
Si Si5 0.543245 0.828975 0.705373
Si Si6 0.905795 0.827262 0.605087
O O1 0.683043 0.769925 0.466129
O O2 0.958124 0.752492 0.264951
O O3 0.016535 0.759385 0.363256
O O4 0.896667 0.000000 0.352180
O O5 0.622419 0.500000 0.533559
O O6 0.356481 0.697679 0.645164
O O7 0.610505 0.723691 0.618878
O O8 0.078831 0.743233 0.844507
O O9 0.338397 0.788980 0.817315
O O10 0.103336 0.000000 0.887181
O O11 0.000000 0.765585 0.000000
O O12 0.088622 0.500000 0.774557
O O13 0.686641 0.803193 0.699620
O O14 0.552334 0.000000 0.677250
O O15 0.000000 0.756188 0.500000
O O16 0.958927 0.000000 0.582841
#
# Coordination Sequence:
#
# PCOD8059521 Si02
#       6
#     4   4   4   4   4   4
#     4  11  20  30  47  68  95 131 166 197 231 277
#     4  10  19  30  44  66  98 130 160 195 233 279
#     4   9  18  33  55  79  96 115 153 203 247 287
#     4  10  21  34  47  68  98 128 159 195 240 290
#     4   9  16  30  50  70  96 127 158 195 237 279
#     4   9  16  28  46  69  96 128 165 195 225 274
#
# _framework density 17.38477
#
# number of rings (size 3 to 8) (size 9 to 14) (size 15 to 20)
#    0.000    2.333    1.667    2.000    0.000    4.333 
#    0.000    2.500    0.000    1.000    0.000    7.000 
#    0.000    0.000    0.000    0.000    0.000    0.000 
#
# Total GULP energy -297528.813994 kJ/mol
# GULP energy per Si atom -12397.033916 kJ/mol
# Density = 1.734520 g / cm^3
# Si number density = 17.384770 Si / 1000 Ang^3
#
#
#
# Elastic Constant Matrix: (Units=GPa)
#
#
# Indices 1 2 3 4 5 6 
#
# 1 120.5843 40.8259 58.2406 0.0000 27.2903 0.0000
# 2 40.8259 60.4406 34.7541 0.0000 15.5891 0.0000
# 3 58.2406 34.7541 102.0407 0.0000 18.7755 0.0000
# 4 0.0000 0.0000 0.0000 17.0147 0.0000 1.9324
# 5 27.2903 15.5891 18.7755 0.0000 20.8754 0.0000
# 6 0.0000 0.0000 0.0000 1.9324 0.0000 11.3984
#
#
#
# Elastic Compliance Matrix: (Units=1/GPa)
#
#
# Indices 1 2 3 4 5 6 
#
# 1 0.014674 -0.004106 -0.004807 0.000000 -0.011794 0.000000
# 2 -0.004106 0.024005 -0.004220 0.000000 -0.008763 0.000000
# 3 -0.004807 -0.004220 0.014673 0.000000 -0.003762 0.000000
# 4 0.000000 0.000000 0.000000 0.059927 0.000000 -0.010159
# 5 -0.011794 -0.008763 -0.003762 0.000000 0.073248 0.000000
# 6 0.000000 0.000000 0.000000 -0.010159 0.000000 0.089454
#
#
# Mechanical properties :
#
#
# Convention : Reuss Voigt Hill
#
# Bulk Modulus (GPa) = 36.91846 61.18963 49.05404
# Shear Modulus (GPa) = 16.06295 19.80737 17.93516
#
# Velocity S-wave (km/s) = 3.04298 3.37909 3.21543
# Velocity P-wave (km/s) = 5.79901 7.10620 6.48562
#
# Compressibility (1/GPa) = 0.02708672
#
# Stress axis : x y z
#
# Youngs Moduli (GPa) = 68.14897 41.65718 68.15249
#
# Poissons Ratio (x) = 0.17104 0.32759
# Poissons Ratio (y) = 0.27981 0.28761
# Poissons Ratio (z) = 0.32757 0.17580
#
# Static dielectric constant tensor:
#      x y z
#    x 3.401590 0.000000 0.058500 
#    y 0.000000 3.121000 0.000000 
#    z 0.058500 0.000000 3.062870 
# 
# 
# High freq. dielectric constant tensor:
#      x y z
#    x 1.674480 0.000000 0.007800 
#    y 0.000000 1.659780 0.000000 
#    z 0.007800 0.000000 1.636840 
# 
# From -- ./inp_files/45130.got.cif
#   From: 2010.06.25/outbox.cif.g09.slc.cpg/sg10_23_cif.got.tgz:45130.got - 2010.06.27 22:07:45.
