data_PCOD8059041
_publ_section_title
;
Structure prediction by ZEFSAII (Michael W. Deem and Ramdas Pophale) SiO2 
 PCOD8059041
Probable space group: P 2/M
;
_chemical_formula_sum "Si O2"
_cell_formula_units_Z 28
_cell_length_a 28.815221
_cell_length_b 7.799947
_cell_length_c 10.353777
_cell_angle_alpha 90.000000
_cell_angle_beta 142.530535
_cell_angle_gamma 90.000000
_cell_volume 1415.656025
_symmetry_space_group_name_H-M "P 2/M"
_symmetry_group_IT_number 10
_symmetry_cell_setting 'monoclinic'
loop_
_space_group_symop_operation_xyz
x,y,z
-x,y,-z
-x,-y,-z
x,-y,z
loop_
_atom_site_type_symbol
_atom_site_label
_atom_site_fract_x
_atom_site_fract_y
_atom_site_fract_z
Si Si1 0.578140 0.192444 0.536031
Si Si2 0.264656 0.698528 0.199521
Si Si3 0.166635 0.701213 0.735965
Si Si4 0.953216 0.000000 0.526665
Si Si5 0.582840 0.305554 0.837379
Si Si6 0.268906 0.699887 0.715023
Si Si7 0.177481 0.295521 0.268018
Si Si8 0.056043 0.000000 0.003686
O O1 0.652898 0.210351 0.613275
O O2 0.594353 0.262341 0.713501
O O3 0.503888 0.279735 0.306239
O O4 0.552082 0.000000 0.492776
O O5 0.283116 0.500000 0.232671
O O6 0.218281 0.747904 0.223810
O O7 0.217100 0.757265 0.970116
O O8 0.142320 0.500000 0.691295
O O9 0.093886 0.823459 0.572312
O O10 0.213294 0.741007 0.710464
O O11 0.000000 0.000000 0.500000
O O12 0.010209 0.000000 0.770860
O O13 0.605780 0.500000 0.900630
O O14 0.647908 0.213522 0.069706
O O15 0.276739 0.500000 0.709335
O O16 0.233411 0.772390 0.504642
O O17 0.156779 0.500000 0.232734
O O18 0.103032 0.177708 0.112451
O O19 0.000000 0.000000 0.000000
#
# Coordination Sequence:
#
# PCOD8059041 Si02
#       8
#     4   4   4   2   4   4   4   2
#     4  11  21  31  50  86 124 156 195 244 295 338
#     4  10  20  37  60  84 115 160 199 235 291 346
#     4  10  21  38  61  88 114 149 193 236 289 344
#     4  12  26  40  60  90 119 146 186 234 293 354
#     4  10  18  33  55  81 119 156 199 248 288 336
#     4   9  18  36  60  85 111 150 199 243 285 334
#     4  10  23  42  63  88 119 154 197 241 288 352
#     4  12  26  44  64  92 117 154 194 228 303 364
#
# _framework density 19.778817
#
# number of rings (size 3 to 8) (size 9 to 14) (size 15 to 20)
#    0.000    1.714    1.429    4.286    2.000    1.143 
#    3.857    0.714    0.000    4.286    0.000    0.000 
#    0.000    0.000    0.000    0.000    0.000    0.000 
#
# Total GULP energy -347051.298564 kJ/mol
# GULP energy per Si atom -12394.689234 kJ/mol
# Density = 1.973380 g / cm^3
# Si number density = 19.778817 Si / 1000 Ang^3
#
#
#
# Elastic Constant Matrix: (Units=GPa)
#
#
# Indices 1 2 3 4 5 6 
#
# 1 108.2855 34.4303 70.9785 0.0000 5.3746 0.0000
# 2 34.4303 74.4140 37.9896 0.0000 13.4331 0.0000
# 3 70.9785 37.9896 145.6255 0.0000 9.1917 0.0000
# 4 0.0000 0.0000 0.0000 6.2894 0.0000 7.4857
# 5 5.3746 13.4331 9.1917 0.0000 39.1113 0.0000
# 6 0.0000 0.0000 0.0000 7.4857 0.0000 22.7127
#
#
#
# Elastic Compliance Matrix: (Units=1/GPa)
#
#
# Indices 1 2 3 4 5 6 
#
# 1 0.014353 -0.003664 -0.006085 0.000000 0.000716 0.000000
# 2 -0.003664 0.017237 -0.002405 0.000000 -0.004852 0.000000
# 3 -0.006085 -0.002405 0.010511 0.000000 -0.000808 0.000000
# 4 0.000000 0.000000 0.000000 0.261622 0.000000 -0.086226
# 5 0.000716 -0.004852 -0.000808 0.000000 0.027326 0.000000
# 6 0.000000 0.000000 0.000000 -0.086226 0.000000 0.072447
#
#
# Mechanical properties :
#
#
# Convention : Reuss Voigt Hill
#
# Bulk Modulus (GPa) = 56.19862 68.34687 62.27275
# Shear Modulus (GPa) = 11.52781 25.95111 18.73946
#
# Velocity S-wave (km/s) = 2.41682 3.62617 3.08141
# Velocity P-wave (km/s) = 6.02190 7.22238 6.64929
#
# Compressibility (1/GPa) = 0.01779403
#
# Stress axis : x y z
#
# Youngs Moduli (GPa) = 69.67281 58.01519 95.13678
#
# Poissons Ratio (x) = 0.21254 0.57892
# Poissons Ratio (y) = 0.25525 0.22878
# Poissons Ratio (z) = 0.42397 0.13951
#
# Static dielectric constant tensor:
#      x y z
#    x 3.561670 0.000000 -0.120780 
#    y 0.000000 3.682760 0.000000 
#    z -0.120780 0.000000 3.800960 
# 
# 
# High freq. dielectric constant tensor:
#      x y z
#    x 1.763170 0.000000 0.009460 
#    y 0.000000 1.772060 0.000000 
#    z 0.009460 0.000000 1.779570 
# 
# From -- ./inp_files/38072.got.cif
#   From: 2010.06.25/outbox.cif.g09.slc.cpg/sg10_20_cif.got.tgz:38072.got - 2010.06.27 22:07:45.
