data_PCOD8059463
_publ_section_title
;
Structure prediction by ZEFSAII (Michael W. Deem and Ramdas Pophale) SiO2 
 PCOD8059463
Probable space group: P 2/M
;
_chemical_formula_sum "Si O2"
_cell_formula_units_Z 32
_cell_length_a 12.031467
_cell_length_b 9.308104
_cell_length_c 15.129051
_cell_angle_alpha 90.000000
_cell_angle_beta 91.450176
_cell_angle_gamma 90.000000
_cell_volume 1693.761964
_symmetry_space_group_name_H-M "P 2/M"
_symmetry_group_IT_number 10
_symmetry_cell_setting 'monoclinic'
loop_
_space_group_symop_operation_xyz
x,y,z
-x,y,-z
-x,-y,-z
x,-y,z
loop_
_atom_site_type_symbol
_atom_site_label
_atom_site_fract_x
_atom_site_fract_y
_atom_site_fract_z
Si Si1 0.579024 0.329728 0.584819
Si Si2 0.479970 0.828726 0.237084
Si Si3 0.171789 0.669875 0.450446
Si Si4 0.072112 0.834794 0.078430
Si Si5 0.112550 0.161922 0.791576
Si Si6 0.333619 0.832406 0.888685
Si Si7 0.684115 0.171355 0.917980
Si Si8 0.941874 0.330275 0.374466
O O1 0.500000 0.291004 0.500000
O O2 0.578617 0.500000 0.601666
O O3 0.530644 0.251049 0.669899
O O4 0.705354 0.270237 0.571211
O O5 0.591656 0.772540 0.190171
O O6 0.384484 0.775474 0.167749
O O7 0.477888 0.000000 0.253847
O O8 0.180741 0.500000 0.452766
O O9 0.130619 0.726736 0.544625
O O10 0.072476 0.718265 0.381406
O O11 0.192461 0.762959 0.091459
O O12 0.008959 0.821039 0.169488
O O13 0.090559 0.000000 0.050443
O O14 0.000000 0.758259 0.000000
O O15 0.205005 0.202607 0.866150
O O16 0.121078 0.268170 0.710486
O O17 0.132441 0.000000 0.758117
O O18 0.358586 0.000000 0.892502
O O19 0.362643 0.771871 0.987642
O O20 0.683983 0.000000 0.918558
O O21 0.936944 0.500000 0.370736
#
# Coordination Sequence:
#
# PCOD8059463 Si02
#       8
#     4   4   4   4   4   4   4   4
#     4  10  22  39  57  75 100 136 173 208 252 311
#     4  10  21  34  53  80 104 131 172 218 258 293
#     4   8  17  36  56  73  95 129 171 206 246 303
#     4   9  15  26  44  70 102 133 165 200 240 289
#     4  10  19  29  48  77 106 132 163 206 252 296
#     4   9  17  31  49  74 108 140 171 208 251 299
#     4   9  16  29  50  74 102 138 174 206 245 302
#     4   9  18  34  56  75  96 129 167 207 248 301
#
# _framework density 18.892855999999998
#
# number of rings (size 3 to 8) (size 9 to 14) (size 15 to 20)
#    0.000    2.750    1.250    1.125    3.500    1.750 
#    0.000    1.875    0.000    2.625    0.000    0.000 
#    0.000    0.000    0.000    0.000    0.000    0.000 
#
# Total GULP energy -396481.370614 kJ/mol
# GULP energy per Si atom -12390.042832 kJ/mol
# Density = 1.884985 g / cm^3
# Si number density = 18.892856 Si / 1000 Ang^3
#
#
#
# Elastic Constant Matrix: (Units=GPa)
#
#
# Indices 1 2 3 4 5 6 
#
# 1 118.0159 18.9186 50.8966 0.0000 -12.5766 0.0000
# 2 18.9186 20.8268 32.0285 0.0000 1.4937 0.0000
# 3 50.8966 32.0285 136.1459 0.0000 2.5077 0.0000
# 4 0.0000 0.0000 0.0000 434.3078 0.0000 -66.4881
# 5 -12.5766 1.4937 2.5077 0.0000 25.3318 0.0000
# 6 0.0000 0.0000 0.0000 -66.4881 0.0000 23.9920
#
#
#
# Elastic Compliance Matrix: (Units=1/GPa)
#
#
# Indices 1 2 3 4 5 6 
#
# 1 0.011415 -0.006395 -0.002880 0.000000 0.006329 0.000000
# 2 -0.006395 0.078998 -0.016079 0.000000 -0.006241 0.000000
# 3 -0.002880 -0.016079 0.012235 0.000000 -0.001693 0.000000
# 4 0.000000 0.000000 0.000000 0.003999 0.000000 0.011083
# 5 0.006329 -0.006241 -0.001693 0.000000 0.043154 0.000000
# 6 0.000000 0.000000 0.000000 0.011083 0.000000 0.072394
#
#
# Mechanical properties :
#
#
# Convention : Reuss Voigt Hill
#
# Bulk Modulus (GPa) = 19.25211 53.18622 36.21916
# Shear Modulus (GPa) = 17.22855 108.26932 62.74893
#
# Velocity S-wave (km/s) = 3.02306 7.57835 5.76933
# Velocity P-wave (km/s) = 4.73259 10.23659 7.97450
#
# Compressibility (1/GPa) = 0.05194236
#
# Stress axis : x y z
#
# Youngs Moduli (GPa) = 87.60488 12.65847 81.73036
#
# Poissons Ratio (x) = 0.08095 0.23535
# Poissons Ratio (y) = 0.56020 1.31414
# Poissons Ratio (z) = 0.25226 0.20354
#
# Static dielectric constant tensor:
#      x y z
#    x 3.900900 0.000000 -0.002120 
#    y 0.000000 2.821960 0.000000 
#    z -0.002120 0.000000 3.471180 
# 
# 
# High freq. dielectric constant tensor:
#      x y z
#    x 1.752190 0.000000 -0.000830 
#    y 0.000000 1.661770 0.000000 
#    z -0.000830 0.000000 1.741410 
# 
# From -- ./inp_files/46673.got.cif
#   From: 2010.06.25/outbox.cif.g09.slc.cpg/sg10_24_cif.got.tgz:46673.got - 2010.06.27 22:07:45.
