data_PCOD8059375
_publ_section_title
;
Structure prediction by ZEFSAII (Michael W. Deem and Ramdas Pophale) SiO2 
 PCOD8059375
Probable space group: P 2/M
;
_chemical_formula_sum "Si O2"
_cell_formula_units_Z 28
_cell_length_a 15.046116
_cell_length_b 12.945249
_cell_length_c 12.856488
_cell_angle_alpha 90.000000
_cell_angle_beta 138.113359
_cell_angle_gamma 90.000000
_cell_volume 1671.906042
_symmetry_space_group_name_H-M "P 2/M"
_symmetry_group_IT_number 10
_symmetry_cell_setting 'monoclinic'
loop_
_space_group_symop_operation_xyz
x,y,z
-x,y,-z
-x,-y,-z
x,-y,z
loop_
_atom_site_type_symbol
_atom_site_label
_atom_site_fract_x
_atom_site_fract_y
_atom_site_fract_z
Si Si1 0.416943 0.779097 0.122130
Si Si2 0.109449 0.876234 0.394658
Si Si3 0.124668 0.121870 0.170481
Si Si4 0.643644 0.612447 0.080688
Si Si5 0.301191 0.796064 0.727626
Si Si6 0.818948 0.114309 0.185757
Si Si7 0.403339 0.879944 0.319873
O O1 0.542406 0.812448 0.159652
O O2 0.452585 0.800207 0.273234
O O3 0.374048 0.663064 0.050286
O O4 0.285960 0.846180 0.989156
O O5 0.126375 0.840816 0.290629
O O6 0.218134 0.806764 0.549756
O O7 0.965493 0.834486 0.308551
O O8 0.133339 0.000000 0.431809
O O9 0.257647 0.156009 0.227564
O O10 0.112037 0.000000 0.159692
O O11 0.000000 0.171290 0.000000
O O12 0.715914 0.500000 0.133684
O O13 0.722918 0.688420 0.229363
O O14 0.500000 0.591795 0.000000
O O15 0.245248 0.884011 0.755511
O O16 0.849716 0.000000 0.176154
O O17 0.500000 0.863801 0.500000
O O18 0.408454 0.000000 0.286763
#
# Coordination Sequence:
#
# PCOD8059375 Si02
#       7
#     4   4   4   4   4   4   4
#     4  10  19  30  47  68  89 118 154 189 225 270
#     4  10  19  30  44  64  95 130 157 185 220 257
#     4   9  17  29  43  59  83 121 164 191 209 245
#     4   8  16  32  51  69  89 114 146 187 234 280
#     4  10  19  29  45  69  92 116 148 185 228 276
#     4  10  19  29  42  63  94 128 155 180 215 265
#     4  10  19  29  42  64  95 124 150 186 224 256
#
# _framework density 16.747351999999999
#
# number of rings (size 3 to 8) (size 9 to 14) (size 15 to 20)
#    0.000    2.429    0.000    4.286    0.000    7.429 
#    0.000    0.000    0.000    7.286    0.000    1.000 
#    0.000    5.714    0.000    0.000    0.000    0.000 
#
# Total GULP energy -346881.790958 kJ/mol
# GULP energy per Si atom -12388.635391 kJ/mol
# Density = 1.670923 g / cm^3
# Si number density = 16.747352 Si / 1000 Ang^3
#
#
#
# Elastic Constant Matrix: (Units=GPa)
#
#
# Indices 1 2 3 4 5 6 
#
# 1 79.6694 31.2415 29.5857 0.0000 -8.0460 0.0000
# 2 31.2415 70.9882 40.1760 0.0000 -8.5078 0.0000
# 3 29.5857 40.1760 98.4552 0.0000 -6.0877 0.0000
# 4 0.0000 0.0000 0.0000 27.1895 0.0000 -14.7892
# 5 -8.0460 -8.5078 -6.0877 0.0000 34.0920 0.0000
# 6 0.0000 0.0000 0.0000 -14.7892 0.0000 19.4078
#
#
#
# Elastic Compliance Matrix: (Units=1/GPa)
#
#
# Indices 1 2 3 4 5 6 
#
# 1 0.015738 -0.005310 -0.002442 0.000000 0.001953 0.000000
# 2 -0.005310 0.020477 -0.006595 0.000000 0.002679 0.000000
# 3 -0.002442 -0.006595 0.013594 0.000000 0.000206 0.000000
# 4 0.000000 0.000000 0.000000 0.062815 0.000000 0.047866
# 5 0.001953 0.002679 0.000206 0.000000 0.030499 0.000000
# 6 0.000000 0.000000 0.000000 0.047866 0.000000 0.088001
#
#
# Mechanical properties :
#
#
# Convention : Reuss Voigt Hill
#
# Bulk Modulus (GPa) = 47.35594 50.12436 48.74015
# Shear Modulus (GPa) = 18.73667 26.01182 22.37425
#
# Velocity S-wave (km/s) = 3.34845 3.94533 3.65908
# Velocity P-wave (km/s) = 6.57933 7.12382 6.85698
#
# Compressibility (1/GPa) = 0.02111668
#
# Stress axis : x y z
#
# Youngs Moduli (GPa) = 63.53952 48.83463 73.56013
#
# Poissons Ratio (x) = 0.25933 0.17960
# Poissons Ratio (y) = 0.33742 0.48510
# Poissons Ratio (z) = 0.15514 0.32204
#
# Static dielectric constant tensor:
#      x y z
#    x 3.310100 0.000000 0.055080 
#    y 0.000000 2.995150 0.000000 
#    z 0.055080 0.000000 3.305910 
# 
# 
# High freq. dielectric constant tensor:
#      x y z
#    x 1.650090 0.000000 0.001600 
#    y 0.000000 1.586370 0.000000 
#    z 0.001600 0.000000 1.656160 
# 
# From -- ./inp_files/28944.got.cif
#   From: 2010.06.25/outbox.cif.g09.slc.cpg/sg10_15_cif.got.tgz:28944.got - 2010.06.27 22:07:45.
