data_PCOD8059424
_publ_section_title
;
Structure prediction by ZEFSAII (Michael W. Deem and Ramdas Pophale) SiO2 
 PCOD8059424
Probable space group: P 2/M
;
_chemical_formula_sum "Si O2"
_cell_formula_units_Z 28
_cell_length_a 16.240553
_cell_length_b 9.311725
_cell_length_c 18.528471
_cell_angle_alpha 90.000000
_cell_angle_beta 143.761369
_cell_angle_gamma 90.000000
_cell_volume 1656.410402
_symmetry_space_group_name_H-M "P 2/M"
_symmetry_group_IT_number 10
_symmetry_cell_setting 'monoclinic'
loop_
_space_group_symop_operation_xyz
x,y,z
-x,y,-z
-x,-y,-z
x,-y,z
loop_
_atom_site_type_symbol
_atom_site_label
_atom_site_fract_x
_atom_site_fract_y
_atom_site_fract_z
Si Si1 0.720294 0.663843 0.982898
Si Si2 0.967401 0.668584 0.588824
Si Si3 0.037804 0.337416 0.255869
Si Si4 0.113508 0.160613 0.181109
Si Si5 0.776171 0.330707 0.323467
Si Si6 0.796591 0.162127 0.907243
Si Si7 0.503121 0.831975 0.086955
O O1 0.666362 0.500000 0.942324
O O2 0.705322 0.730901 0.891909
O O3 0.632025 0.756542 0.976191
O O4 0.877499 0.671877 0.120814
O O5 0.989077 0.500000 0.612106
O O6 0.835148 0.702195 0.445108
O O7 0.944240 0.734950 0.652172
O O8 0.110349 0.726191 0.654188
O O9 0.091066 0.500000 0.294362
O O10 0.136565 0.257188 0.268171
O O11 0.205647 0.215254 0.177945
O O12 0.159583 0.000000 0.233718
O O13 0.953458 0.163370 0.045836
O O14 0.744907 0.500000 0.291768
O O15 0.638119 0.239032 0.217478
O O16 0.737014 0.000000 0.871002
O O17 0.500923 0.000000 0.104058
O O18 0.500000 0.803551 0.000000
#
# Coordination Sequence:
#
# PCOD8059424 Si02
#       7
#     4   4   4   4   4   4   4
#     4  10  19  29  45  68  91 119 154 186 218 262
#     4   8  15  29  49  70  90 115 146 184 229 266
#     4   9  16  26  42  67  95 118 146 185 224 262
#     4   8  14  24  39  60  87 121 153 178 215 265
#     4   9  17  32  52  68  86 116 153 187 220 264
#     4   8  14  26  41  58  87 122 151 181 218 262
#     4  11  23  35  46  64  92 122 150 183 223 263
#
# _framework density 16.904024
#
# number of rings (size 3 to 8) (size 9 to 14) (size 15 to 20)
#    0.000    3.000    0.000    3.429    0.000    3.429 
#    0.000    5.714    0.000    0.000    0.000    1.000 
#    0.000    8.000    0.000    0.000    0.000    0.000 
#
# Total GULP energy -347035.743490 kJ/mol
# GULP energy per Si atom -12394.133696 kJ/mol
# Density = 1.686555 g / cm^3
# Si number density = 16.904024 Si / 1000 Ang^3
#
#
#
# Elastic Constant Matrix: (Units=GPa)
#
#
# Indices 1 2 3 4 5 6 
#
# 1 120.3965 60.4565 27.0237 0.0000 -35.7759 0.0000
# 2 60.4565 85.3331 24.1923 0.0000 -12.9233 0.0000
# 3 27.0237 24.1923 39.8510 0.0000 -16.7047 0.0000
# 4 0.0000 0.0000 0.0000 16.2579 0.0000 -2.7585
# 5 -35.7759 -12.9233 -16.7047 0.0000 29.6887 0.0000
# 6 0.0000 0.0000 0.0000 -2.7585 0.0000 31.7883
#
#
#
# Elastic Compliance Matrix: (Units=1/GPa)
#
#
# Indices 1 2 3 4 5 6 
#
# 1 0.019323 -0.011283 0.001895 0.000000 0.019439 0.000000
# 2 -0.011283 0.020812 -0.009010 0.000000 -0.009607 0.000000
# 3 0.001895 -0.009010 0.037416 0.000000 0.019414 0.000000
# 4 0.000000 0.000000 0.000000 0.062428 0.000000 0.005417
# 5 0.019439 -0.009607 0.019414 0.000000 0.063850 0.000000
# 6 0.000000 0.000000 0.000000 0.005417 0.000000 0.031928
#
#
# Mechanical properties :
#
#
# Convention : Reuss Voigt Hill
#
# Bulk Modulus (GPa) = 24.53694 52.10284 38.31989
# Shear Modulus (GPa) = 17.47413 24.47417 20.97415
#
# Velocity S-wave (km/s) = 3.21865 3.80917 3.52629
# Velocity P-wave (km/s) = 5.32540 7.08773 6.26881
#
# Compressibility (1/GPa) = 0.04075488
#
# Stress axis : x y z
#
# Youngs Moduli (GPa) = 51.75302 48.04931 26.72643
#
# Poissons Ratio (x) = 0.54213 -0.05065
# Poissons Ratio (y) = 0.58392 0.24081
# Poissons Ratio (z) = -0.09807 0.43293
#
# Static dielectric constant tensor:
#      x y z
#    x 3.520610 0.000000 -0.379160 
#    y 0.000000 3.179420 0.000000 
#    z -0.379160 0.000000 2.886920 
# 
# 
# High freq. dielectric constant tensor:
#      x y z
#    x 1.658910 0.000000 -0.024570 
#    y 0.000000 1.639770 0.000000 
#    z -0.024570 0.000000 1.610520 
# 
# From -- ./inp_files/49191.got.cif
#   From: 2010.06.25/outbox.cif.g09.slc.cpg/sg10_25_cif.got.tgz:49191.got - 2010.06.27 22:07:45.
