data_PCOD8059269
_publ_section_title
;
Structure prediction by ZEFSAII (Michael W. Deem and Ramdas Pophale) SiO2 
 PCOD8059269
Probable space group: P 2/M
;
_chemical_formula_sum "Si O2"
_cell_formula_units_Z 30
_cell_length_a 17.825847
_cell_length_b 18.932211
_cell_length_c 8.694658
_cell_angle_alpha 90.000000
_cell_angle_beta 146.794932
_cell_angle_gamma 90.000000
_cell_volume 1606.930095
_symmetry_space_group_name_H-M "P 2/M"
_symmetry_group_IT_number 10
_symmetry_cell_setting 'monoclinic'
loop_
_space_group_symop_operation_xyz
x,y,z
-x,y,-z
-x,-y,-z
x,-y,z
loop_
_atom_site_type_symbol
_atom_site_label
_atom_site_fract_x
_atom_site_fract_y
_atom_site_fract_z
Si Si1 0.007278 0.297878 0.688357
Si Si2 0.862783 0.215276 0.679609
Si Si3 0.299122 0.711086 0.350329
Si Si4 0.713883 0.078735 0.417596
Si Si5 0.617759 0.580431 0.322184
Si Si6 0.500000 0.190567 0.500000
Si Si7 0.541912 0.080124 0.819881
Si Si8 0.917652 0.578693 0.713274
O O1 0.000000 0.278767 0.500000
O O2 0.892654 0.244852 0.561594
O O3 0.954139 0.377206 0.625176
O O4 0.161972 0.293594 0.015041
O O5 0.733771 0.253274 0.540488
O O6 0.841228 0.131455 0.645089
O O7 0.000000 0.236082 0.000000
O O8 0.370070 0.635101 0.512443
O O9 0.400365 0.759582 0.425828
O O10 0.615883 0.087761 0.397372
O O11 0.774493 0.000000 0.517433
O O12 0.634529 0.096237 0.125406
O O13 0.591027 0.500000 0.338190
O O14 0.757250 0.581877 0.466217
O O15 0.500000 0.603526 0.000000
O O16 0.578730 0.137515 0.752303
O O17 0.567922 0.000000 0.803824
O O18 0.971658 0.500000 0.776690
O O19 0.000000 0.611849 0.000000
#
# Coordination Sequence:
#
# PCOD8059269 Si02
#       8
#     4   4   4   4   4   2   4   4
#     4  11  23  37  58  86 119 151 196 250 292 338
#     4  10  20  38  58  80 117 153 189 240 288 348
#     4  11  23  39  56  89 118 156 200 239 291 359
#     4   9  18  35  58  82 108 149 195 236 287 347
#     4  10  21  38  63  89 118 156 199 244 294 350
#     4  12  23  34  57  88 120 154 188 234 303 352
#     4   9  19  35  56  82 114 147 190 242 286 341
#     4  10  18  36  65  86 110 156 202 239 286 351
#
# _framework density 18.669136000000002
#
# number of rings (size 3 to 8) (size 9 to 14) (size 15 to 20)
#    0.000    1.867    4.000    1.400    1.867    2.667 
#    0.000    0.333    0.000    0.400    0.000    0.000 
#    0.000    0.000    0.000    0.000    0.000    0.000 
#
# Total GULP energy -371820.379226 kJ/mol
# GULP energy per Si atom -12394.012641 kJ/mol
# Density = 1.862664 g / cm^3
# Si number density = 18.669136 Si / 1000 Ang^3
#
#
#
# Elastic Constant Matrix: (Units=GPa)
#
#
# Indices 1 2 3 4 5 6 
#
# 1 109.4250 56.5322 33.1081 0.0000 -11.3574 0.0000
# 2 56.5322 132.0175 30.2699 0.0000 -5.5500 0.0000
# 3 33.1081 30.2699 66.2535 0.0000 0.7683 0.0000
# 4 0.0000 0.0000 0.0000 25.8632 0.0000 -2.4261
# 5 -11.3574 -5.5500 0.7683 0.0000 26.3626 0.0000
# 6 0.0000 0.0000 0.0000 -2.4261 0.0000 13.3909
#
#
#
# Elastic Compliance Matrix: (Units=1/GPa)
#
#
# Indices 1 2 3 4 5 6 
#
# 1 0.013372 -0.004437 -0.004713 0.000000 0.004964 0.000000
# 2 -0.004437 0.010029 -0.002368 0.000000 0.000269 0.000000
# 3 -0.004713 -0.002368 0.018566 0.000000 -0.003070 0.000000
# 4 0.000000 0.000000 0.000000 0.039334 0.000000 0.007126
# 5 0.004964 0.000269 -0.003070 0.000000 0.040217 0.000000
# 6 0.000000 0.000000 0.000000 0.007126 0.000000 0.075969
#
#
# Mechanical properties :
#
#
# Convention : Reuss Voigt Hill
#
# Bulk Modulus (GPa) = 52.82076 60.83516 56.82796
# Shear Modulus (GPa) = 22.04271 25.64238 23.84255
#
# Velocity S-wave (km/s) = 3.43986 3.71012 3.57754
# Velocity P-wave (km/s) = 6.64315 7.14213 6.89715
#
# Compressibility (1/GPa) = 0.01893195
#
# Stress axis : x y z
#
# Youngs Moduli (GPa) = 74.78300 99.71132 53.86184
#
# Poissons Ratio (x) = 0.44241 0.25383
# Poissons Ratio (y) = 0.33180 0.12754
# Poissons Ratio (z) = 0.35243 0.23611
#
# Static dielectric constant tensor:
#      x y z
#    x 3.392320 0.000000 0.035660 
#    y 0.000000 3.692050 0.000000 
#    z 0.035660 0.000000 3.247930 
# 
# 
# High freq. dielectric constant tensor:
#      x y z
#    x 1.706060 0.000000 0.001850 
#    y 0.000000 1.742430 0.000000 
#    z 0.001850 0.000000 1.709830 
# 
# From -- ./inp_files/32994.got.cif
#   From: 2010.06.25/outbox.cif.g09.slc.cpg/sg10_17_cif.got.tgz:32994.got - 2010.06.27 22:07:45.
