data_PCOD8059589
_publ_section_title
;
Structure prediction by ZEFSAII (Michael W. Deem and Ramdas Pophale) SiO2 
 PCOD8059589
Probable space group: P 2/M
;
_chemical_formula_sum "Si O2"
_cell_formula_units_Z 32
_cell_length_a 20.613033
_cell_length_b 9.550199
_cell_length_c 11.259595
_cell_angle_alpha 90.000000
_cell_angle_beta 64.990591
_cell_angle_gamma 90.000000
_cell_volume 2008.720617
_symmetry_space_group_name_H-M "P 2/M"
_symmetry_group_IT_number 10
_symmetry_cell_setting 'monoclinic'
loop_
_space_group_symop_operation_xyz
x,y,z
-x,y,-z
-x,-y,-z
x,-y,z
loop_
_atom_site_type_symbol
_atom_site_label
_atom_site_fract_x
_atom_site_fract_y
_atom_site_fract_z
Si Si1 0.110890 0.160665 0.972151
Si Si2 0.616109 0.655041 0.079152
Si Si3 0.934652 0.665331 0.466260
Si Si4 0.224587 0.664696 0.011213
Si Si5 0.965495 0.838991 0.211609
Si Si6 0.794479 0.666287 0.709197
Si Si7 0.511439 0.842294 0.850576
Si Si8 0.360104 0.343519 0.218993
O O1 0.178662 0.256966 0.947582
O O2 0.090053 0.185299 0.851912
O O3 0.131915 0.000000 0.977466
O O4 0.044836 0.202667 0.107821
O O5 0.593185 0.500000 0.140971
O O6 0.691886 0.698346 0.078470
O O7 0.555023 0.765714 0.162803
O O8 0.624845 0.650008 0.931747
O O9 0.931927 0.500000 0.446580
O O10 0.942404 0.739024 0.334954
O O11 0.862172 0.722018 0.583494
O O12 0.000000 0.707616 0.500000
O O13 0.209679 0.500000 0.013176
O O14 0.202161 0.723492 0.158542
O O15 0.963715 0.000000 0.254799
O O16 0.794056 0.500000 0.717684
O O17 0.721043 0.713713 0.700244
O O18 0.584533 0.761283 0.760209
O O19 0.516560 0.000000 0.797503
O O20 0.500000 0.842043 0.000000
O O21 0.369409 0.500000 0.265552
#
# Coordination Sequence:
#
# PCOD8059589 Si02
#       8
#     4   4   4   4   4   4   4   4
#     4   9  18  32  47  61  82 111 141 176 214 250
#     4   8  14  23  35  53  77 106 137 165 198 245
#     4  10  19  30  46  67  89 111 138 176 216 249
#     4   9  16  27  44  64  85 110 142 176 208 248
#     4   9  19  34  47  61  83 112 144 174 209 254
#     4   8  15  27  41  60  86 113 140 172 212 254
#     4   9  15  21  31  50  76 104 136 173 205 233
#     4   8  13  23  37  49  70 108 143 166 196 243
#
# _framework density 15.930538
#
# number of rings (size 3 to 8) (size 9 to 14) (size 15 to 20)
#    0.000    3.250    0.000    3.375    0.000    4.250 
#    0.000    4.375    0.000    0.000    0.000    0.000 
#    0.000    1.000    0.000   11.250    0.000    8.750 
#
# Total GULP energy -396659.922796 kJ/mol
# GULP energy per Si atom -12395.622587 kJ/mol
# Density = 1.589428 g / cm^3
# Si number density = 15.930538 Si / 1000 Ang^3
#
#
#
# Elastic Constant Matrix: (Units=GPa)
#
#
# Indices 1 2 3 4 5 6 
#
# 1 130.6213 66.9787 38.7142 0.0000 -21.4502 0.0000
# 2 66.9787 77.0813 27.5863 0.0000 -9.1703 0.0000
# 3 38.7142 27.5863 49.4589 0.0000 -7.8356 0.0000
# 4 0.0000 0.0000 0.0000 17.6503 0.0000 2.3770
# 5 -21.4502 -9.1703 -7.8356 0.0000 20.0260 0.0000
# 6 0.0000 0.0000 0.0000 2.3770 0.0000 24.5813
#
#
#
# Elastic Compliance Matrix: (Units=1/GPa)
#
#
# Indices 1 2 3 4 5 6 
#
# 1 0.016839 -0.011549 -0.005032 0.000000 0.010779 0.000000
# 2 -0.011549 0.024458 -0.005104 0.000000 -0.003167 0.000000
# 3 -0.005032 -0.005104 0.027484 0.000000 0.003027 0.000000
# 4 0.000000 0.000000 0.000000 0.057404 0.000000 -0.005551
# 5 0.010779 -0.003167 0.003027 0.000000 0.061215 0.000000
# 6 0.000000 0.000000 0.000000 -0.005551 0.000000 0.041218
#
#
# Mechanical properties :
#
#
# Convention : Reuss Voigt Hill
#
# Bulk Modulus (GPa) = 39.35072 58.19110 48.77091
# Shear Modulus (GPa) = 17.82803 20.71034 19.26919
#
# Velocity S-wave (km/s) = 3.34894 3.60952 3.48167
# Velocity P-wave (km/s) = 6.30150 7.34703 6.84426
#
# Compressibility (1/GPa) = 0.02541250
#
# Stress axis : x y z
#
# Youngs Moduli (GPa) = 59.38549 40.88586 36.38543
#
# Poissons Ratio (x) = 0.47219 0.18308
# Poissons Ratio (y) = 0.68584 0.18570
# Poissons Ratio (z) = 0.29881 0.20867
#
# Static dielectric constant tensor:
#      x y z
#    x 3.188890 0.000000 -0.295010 
#    y 0.000000 2.977210 0.000000 
#    z -0.295010 0.000000 2.690250 
# 
# 
# High freq. dielectric constant tensor:
#      x y z
#    x 1.618660 0.000000 -0.021910 
#    y 0.000000 1.602910 0.000000 
#    z -0.021910 0.000000 1.559100 
# 
# From -- ./inp_files/54833.got.cif
#   From: 2010.06.25/outbox.cif.g09.slc.cpg/sg10_28_cif.got.tgz:54833.got - 2010.06.27 22:07:45.
