data_PCOD8059668
_publ_section_title
;
Structure prediction by ZEFSAII (Michael W. Deem and Ramdas Pophale) SiO2 
 PCOD8059668
Probable space group: P 2/M
;
_chemical_formula_sum "Si O2"
_cell_formula_units_Z 32
_cell_length_a 11.725674
_cell_length_b 8.911565
_cell_length_c 17.037570
_cell_angle_alpha 90.000000
_cell_angle_beta 85.999792
_cell_angle_gamma 90.000000
_cell_volume 1775.988411
_symmetry_space_group_name_H-M "P 2/M"
_symmetry_group_IT_number 10
_symmetry_cell_setting 'monoclinic'
loop_
_space_group_symop_operation_xyz
x,y,z
-x,y,-z
-x,-y,-z
x,-y,z
loop_
_atom_site_type_symbol
_atom_site_label
_atom_site_fract_x
_atom_site_fract_y
_atom_site_fract_z
Si Si1 0.616077 0.826245 0.738086
Si Si2 0.750663 0.322968 0.595663
Si Si3 0.979594 0.173791 0.909898
Si Si4 0.382485 0.326801 0.548545
Si Si5 0.639884 0.827337 0.286364
Si Si6 0.861132 0.320559 0.221239
Si Si7 0.044882 0.664047 0.324302
Si Si8 0.789236 0.333529 0.831324
O O1 0.656311 0.755650 0.654079
O O2 0.480512 0.801641 0.750693
O O3 0.672523 0.749656 0.811703
O O4 0.649842 0.000000 0.735935
O O5 0.745984 0.500000 0.615667
O O6 0.721992 0.293807 0.506262
O O7 0.879718 0.259063 0.609471
O O8 0.082537 0.255766 0.859809
O O9 0.855358 0.241616 0.895354
O O10 0.980496 0.000000 0.886303
O O11 0.000000 0.199668 0.000000
O O12 0.500000 0.285424 0.500000
O O13 0.383113 0.500000 0.575646
O O14 0.364788 0.222029 0.623350
O O15 0.730927 0.730724 0.233235
O O16 0.676769 0.000000 0.282379
O O17 0.870516 0.500000 0.217818
O O18 0.930180 0.257053 0.295890
O O19 0.008073 0.500000 0.356137
O O20 0.131016 0.654044 0.247688
O O21 0.759546 0.500000 0.864439
#
# Coordination Sequence:
#
# PCOD8059668 Si02
#       8
#     4   4   4   4   4   4   4   4
#     4  10  19  30  47  72 101 135 175 218 266 315
#     4   9  16  29  49  71  97 127 168 223 273 315
#     4  10  20  35  58  87 116 141 165 201 252 306
#     4  10  19  31  49  73  99 132 177 225 271 318
#     4  11  23  35  49  71 104 143 178 218 272 325
#     4  10  20  35  55  77 103 137 179 219 256 307
#     4   7  13  27  47  70  93 123 163 209 257 299
#     4   9  17  30  51  78 106 135 171 213 252 297
#
# _framework density 18.018135000000001
#
# number of rings (size 3 to 8) (size 9 to 14) (size 15 to 20)
#    0.000    2.500    1.250    3.375    0.000    3.250 
#    0.000    1.250    0.000    4.500    0.000    5.250 
#    0.000    0.000    0.000    0.000    0.000    0.000 
#
# Total GULP energy -396579.992914 kJ/mol
# GULP energy per Si atom -12393.124779 kJ/mol
# Density = 1.797712 g / cm^3
# Si number density = 18.018135 Si / 1000 Ang^3
#
#
#
# Elastic Constant Matrix: (Units=GPa)
#
#
# Indices 1 2 3 4 5 6 
#
# 1 99.8823 53.3152 44.6418 0.0000 14.2905 0.0000
# 2 53.3152 99.9284 44.2692 0.0000 10.1390 0.0000
# 3 44.6418 44.2692 70.5312 0.0000 17.3543 0.0000
# 4 0.0000 0.0000 0.0000 24.8322 0.0000 3.4628
# 5 14.2905 10.1390 17.3543 0.0000 25.7788 0.0000
# 6 0.0000 0.0000 0.0000 3.4628 0.0000 27.0149
#
#
#
# Elastic Compliance Matrix: (Units=1/GPa)
#
#
# Indices 1 2 3 4 5 6 
#
# 1 0.016086 -0.005668 -0.005967 0.000000 -0.002671 0.000000
# 2 -0.005668 0.015864 -0.006720 0.000000 0.001427 0.000000
# 3 -0.005967 -0.006720 0.024820 0.000000 -0.010758 0.000000
# 4 0.000000 0.000000 0.000000 0.041003 0.000000 -0.005256
# 5 -0.002671 0.001427 -0.010758 0.000000 0.046953 0.000000
# 6 0.000000 0.000000 0.000000 -0.005256 0.000000 0.037690
#
#
# Mechanical properties :
#
#
# Convention : Reuss Voigt Hill
#
# Bulk Modulus (GPa) = 49.85256 61.64381 55.74819
# Shear Modulus (GPa) = 22.14213 24.06623 23.10418
#
# Velocity S-wave (km/s) = 3.50934 3.65864 3.58477
# Velocity P-wave (km/s) = 6.64445 7.22038 6.93839
#
# Compressibility (1/GPa) = 0.02005915
#
# Stress axis : x y z
#
# Youngs Moduli (GPa) = 62.16451 63.03643 40.29057
#
# Poissons Ratio (x) = 0.35731 0.24040
# Poissons Ratio (y) = 0.35237 0.27077
# Poissons Ratio (z) = 0.37091 0.42363
#
# Static dielectric constant tensor:
#      x y z
#    x 3.618410 0.000000 0.426280 
#    y 0.000000 3.349500 0.000000 
#    z 0.426280 0.000000 3.096430 
# 
# 
# High freq. dielectric constant tensor:
#      x y z
#    x 1.700150 0.000000 0.031400 
#    y 0.000000 1.693060 0.000000 
#    z 0.031400 0.000000 1.665170 
# 
# From -- ./inp_files/75982.got.cif
#   From: 2010.06.25/outbox.cif.g09.slc.cpg/sg10_38_cif.got.tgz:75982.got - 2010.06.27 22:07:45.
