data_PCOD8059397
_publ_section_title
;
Structure prediction by ZEFSAII (Michael W. Deem and Ramdas Pophale) SiO2 
 PCOD8059397
Probable space group: P 2/M
;
_chemical_formula_sum "Si O2"
_cell_formula_units_Z 24
_cell_length_a 11.819000
_cell_length_b 9.358216
_cell_length_c 19.803057
_cell_angle_alpha 90.000000
_cell_angle_beta 139.970053
_cell_angle_gamma 90.000000
_cell_volume 1408.782375
_symmetry_space_group_name_H-M "P 2/M"
_symmetry_group_IT_number 10
_symmetry_cell_setting 'monoclinic'
loop_
_space_group_symop_operation_xyz
x,y,z
-x,y,-z
-x,-y,-z
x,-y,z
loop_
_atom_site_type_symbol
_atom_site_label
_atom_site_fract_x
_atom_site_fract_y
_atom_site_fract_z
Si Si1 0.560456 0.840942 0.433262
Si Si2 0.144098 0.335215 0.621699
Si Si3 0.178046 0.667759 0.117484
Si Si4 0.766740 0.662769 0.705398
Si Si5 0.513621 0.160937 0.253634
Si Si6 0.110708 0.660938 0.378832
O O1 0.400427 0.756183 0.395427
O O2 0.523105 0.843523 0.337622
O O3 0.746177 0.767925 0.527632
O O4 0.566307 0.000000 0.466270
O O5 0.196091 0.500000 0.632312
O O6 0.316269 0.238880 0.698179
O O7 0.000000 0.286845 0.500000
O O8 0.069470 0.311300 0.663288
O O9 0.213112 0.500000 0.123939
O O10 0.157248 0.709466 0.187277
O O11 0.337371 0.751779 0.154161
O O12 0.000000 0.716813 0.000000
O O13 0.700643 0.500000 0.679794
O O14 0.914026 0.681492 0.713693
O O15 0.503749 0.000000 0.219423
O O16 0.176124 0.500000 0.424290
#
# Coordination Sequence:
#
# PCOD8059397 Si02
#       6
#     4   4   4   4   4   4
#     4  10  19  29  43  66  97 129 159 191 228 276
#     4  10  19  31  48  68  95 132 169 198 225 270
#     4   9  18  34  56  76  93 118 155 201 248 289
#     4   9  18  31  47  68  94 121 154 195 239 285
#     4  10  20  32  48  72 100 128 160 198 237 279
#     4  10  19  30  45  66  94 129 161 191 230 274
#
# _framework density 17.035988
#
# number of rings (size 3 to 8) (size 9 to 14) (size 15 to 20)
#    0.000    2.333    1.667    1.500    0.000    5.333 
#    0.000    0.000    0.000    1.000    0.000    7.000 
#    0.000    0.000    0.000    0.000    0.000    0.000 
#
# Total GULP energy -297523.806739 kJ/mol
# GULP energy per Si atom -12396.825281 kJ/mol
# Density = 1.699721 g / cm^3
# Si number density = 17.035988 Si / 1000 Ang^3
#
#
#
# Elastic Constant Matrix: (Units=GPa)
#
#
# Indices 1 2 3 4 5 6 
#
# 1 111.7777 50.6893 40.0522 0.0000 16.5878 0.0000
# 2 50.6893 95.6205 50.4212 0.0000 16.1620 0.0000
# 3 40.0522 50.4212 86.1565 0.0000 20.5052 0.0000
# 4 0.0000 0.0000 0.0000 7.7679 0.0000 -4.3087
# 5 16.5878 16.1620 20.5052 0.0000 18.9143 0.0000
# 6 0.0000 0.0000 0.0000 -4.3087 0.0000 7.9070
#
#
#
# Elastic Compliance Matrix: (Units=1/GPa)
#
#
# Indices 1 2 3 4 5 6 
#
# 1 0.012522 -0.004856 -0.001824 0.000000 -0.004856 0.000000
# 2 -0.004856 0.017296 -0.007225 0.000000 -0.002688 0.000000
# 3 -0.001824 -0.007225 0.019991 0.000000 -0.013899 0.000000
# 4 0.000000 0.000000 0.000000 0.184503 0.000000 0.100541
# 5 -0.004856 -0.002688 -0.013899 0.000000 0.074493 0.000000
# 6 0.000000 0.000000 0.000000 0.100541 0.000000 0.181258
#
#
# Mechanical properties :
#
#
# Convention : Reuss Voigt Hill
#
# Bulk Modulus (GPa) = 45.45494 63.98671 54.72082
# Shear Modulus (GPa) = 9.52005 17.07732 13.29868
#
# Velocity S-wave (km/s) = 2.36650 3.16955 2.79699
# Velocity P-wave (km/s) = 5.84865 7.14395 6.52850
#
# Compressibility (1/GPa) = 0.02199981
#
# Stress axis : x y z
#
# Youngs Moduli (GPa) = 79.85631 57.81582 50.02227
#
# Poissons Ratio (x) = 0.28074 0.09125
# Poissons Ratio (y) = 0.38776 0.36142
# Poissons Ratio (z) = 0.14567 0.41773
#
# Static dielectric constant tensor:
#      x y z
#    x 3.331280 0.000000 -0.082310 
#    y 0.000000 3.404940 0.000000 
#    z -0.082310 0.000000 2.925130 
# 
# 
# High freq. dielectric constant tensor:
#      x y z
#    x 1.662010 0.000000 -0.003310 
#    y 0.000000 1.662140 0.000000 
#    z -0.003310 0.000000 1.616660 
# 
# From -- ./inp_files/45180.got.cif
#   From: 2010.06.25/outbox.cif.g09.slc.cpg/sg10_23_cif.got.tgz:45180.got - 2010.06.27 22:07:45.
