data_PCOD8059943
_publ_section_title
;
Structure prediction by ZEFSAII (Michael W. Deem and Ramdas Pophale) SiO2 
 PCOD8059943
Probable space group: P 2/M
;
_chemical_formula_sum "Si O2"
_cell_formula_units_Z 32
_cell_length_a 21.019936
_cell_length_b 9.251084
_cell_length_c 9.332650
_cell_angle_alpha 90.000000
_cell_angle_beta 90.896324
_cell_angle_gamma 90.000000
_cell_volume 1814.578866
_symmetry_space_group_name_H-M "P 2/M"
_symmetry_group_IT_number 10
_symmetry_cell_setting 'monoclinic'
loop_
_space_group_symop_operation_xyz
x,y,z
-x,y,-z
-x,-y,-z
x,-y,z
loop_
_atom_site_type_symbol
_atom_site_label
_atom_site_fract_x
_atom_site_fract_y
_atom_site_fract_z
Si Si1 0.623468 0.328489 0.827946
Si Si2 0.439631 0.660835 0.894870
Si Si3 0.509807 0.170812 0.667774
Si Si4 0.849211 0.166679 0.553841
Si Si5 0.896307 0.832275 0.246758
Si Si6 0.958455 0.167887 0.773170
Si Si7 0.236234 0.668579 0.250557
Si Si8 0.127220 0.669277 0.026886
O O1 0.612391 0.500000 0.806950
O O2 0.574486 0.244707 0.723993
O O3 0.693368 0.277392 0.784524
O O4 0.616339 0.288560 0.997720
O O5 0.426130 0.500000 0.832784
O O6 0.450461 0.767711 0.760318
O O7 0.500000 0.657585 0.000000
O O8 0.500000 0.208059 0.500000
O O9 0.513842 0.000000 0.692946
O O10 0.859400 0.205096 0.389831
O O11 0.913838 0.209889 0.638246
O O12 0.788143 0.254405 0.606588
O O13 0.833754 0.000000 0.577478
O O14 0.970181 0.789343 0.266369
O O15 0.889792 0.000000 0.205564
O O16 0.861505 0.734358 0.128886
O O17 0.936122 0.258096 0.910229
O O18 0.952922 0.000000 0.813169
O O19 0.235656 0.500000 0.281177
O O20 0.189545 0.710300 0.119346
O O21 0.115733 0.500000 0.017686
#
# Coordination Sequence:
#
# PCOD8059943 Si02
#       8
#     4   4   4   4   4   4   4   4
#     4   9  18  34  55  74  93 125 168 203 230 273
#     4   8  15  29  50  74  97 124 161 198 228 266
#     4  10  20  32  48  76 111 135 152 186 237 283
#     4   9  18  32  50  71  95 124 160 201 242 287
#     4  10  19  31  48  70  95 123 157 199 245 292
#     4   9  17  31  50  69  91 123 161 198 241 293
#     4   9  19  36  53  69  93 126 163 200 238 281
#     4  10  20  32  47  69  97 125 155 198 247 289
#
# _framework density 17.634948000000001
#
# number of rings (size 3 to 8) (size 9 to 14) (size 15 to 20)
#    0.000    2.750    0.000    2.250    0.000    8.250 
#    0.000    1.250    0.000    8.250    0.000    0.000 
#    0.000    0.000    0.000    0.000    0.000    0.000 
#
# Total GULP energy -396741.589478 kJ/mol
# GULP energy per Si atom -12398.174671 kJ/mol
# Density = 1.759481 g / cm^3
# Si number density = 17.634948 Si / 1000 Ang^3
#
#
#
# Elastic Constant Matrix: (Units=GPa)
#
#
# Indices 1 2 3 4 5 6 
#
# 1 104.4410 44.9596 49.9497 0.0000 -25.9531 0.0000
# 2 44.9596 66.3028 57.2317 0.0000 -8.0354 0.0000
# 3 49.9497 57.2317 110.2117 0.0000 -19.5555 0.0000
# 4 0.0000 0.0000 0.0000 26.3567 0.0000 -5.3623
# 5 -25.9531 -8.0354 -19.5555 0.0000 21.7795 0.0000
# 6 0.0000 0.0000 0.0000 -5.3623 0.0000 22.1668
#
#
#
# Elastic Compliance Matrix: (Units=1/GPa)
#
#
# Indices 1 2 3 4 5 6 
#
# 1 0.018617 -0.010759 0.000454 0.000000 0.018622 0.000000
# 2 -0.010759 0.033737 -0.015118 0.000000 -0.013948 0.000000
# 3 0.000454 -0.015118 0.018824 0.000000 0.011865 0.000000
# 4 0.000000 0.000000 0.000000 0.039905 0.000000 0.009653
# 5 0.018622 -0.013948 0.011865 0.000000 0.073613 0.000000
# 6 0.000000 0.000000 0.000000 0.009653 0.000000 0.047448
#
#
# Mechanical properties :
#
#
# Convention : Reuss Voigt Hill
#
# Bulk Modulus (GPa) = 49.18501 65.02639 57.10570
# Shear Modulus (GPa) = 17.25526 22.64823 19.95175
#
# Velocity S-wave (km/s) = 3.13144 3.58757 3.36724
# Velocity P-wave (km/s) = 6.40514 7.35626 6.89711
#
# Compressibility (1/GPa) = 0.02033140
#
# Stress axis : x y z
#
# Youngs Moduli (GPa) = 53.71507 29.64082 53.12445
#
# Poissons Ratio (x) = 0.31890 -0.02411
# Poissons Ratio (y) = 0.57791 0.80315
# Poissons Ratio (z) = -0.02437 0.44812
#
# Static dielectric constant tensor:
#      x y z
#    x 3.314630 0.000000 -0.283660 
#    y 0.000000 3.233800 0.000000 
#    z -0.283660 0.000000 3.452080 
# 
# 
# High freq. dielectric constant tensor:
#      x y z
#    x 1.664280 0.000000 -0.015940 
#    y 0.000000 1.677610 0.000000 
#    z -0.015940 0.000000 1.682610 
# 
# From -- ./inp_files/35689.got.cif
#   From: 2010.06.25/outbox.cif.g09.slc.cpg/sg10_18_cif.got.tgz:35689.got - 2010.06.27 22:07:45.
