data_PCOD8059571
_publ_section_title
;
Structure prediction by ZEFSAII (Michael W. Deem and Ramdas Pophale) SiO2 
 PCOD8059571
Probable space group: P 2/M
;
_chemical_formula_sum "Si O2"
_cell_formula_units_Z 28
_cell_length_a 10.339492
_cell_length_b 13.041333
_cell_length_c 15.282073
_cell_angle_alpha 90.000000
_cell_angle_beta 119.927513
_cell_angle_gamma 90.000000
_cell_volume 1785.874124
_symmetry_space_group_name_H-M "P 2/M"
_symmetry_group_IT_number 10
_symmetry_cell_setting 'monoclinic'
loop_
_space_group_symop_operation_xyz
x,y,z
-x,y,-z
-x,-y,-z
x,-y,z
loop_
_atom_site_type_symbol
_atom_site_label
_atom_site_fract_x
_atom_site_fract_y
_atom_site_fract_z
Si Si1 0.824287 0.711624 0.786901
Si Si2 0.987677 0.884757 0.099821
Si Si3 0.154549 0.693400 0.890183
Si Si4 0.325614 0.381062 0.428657
Si Si5 0.166687 0.378463 0.549768
Si Si6 0.656969 0.617102 0.890750
Si Si7 0.316735 0.378910 0.778615
O O1 0.726525 0.688454 0.669243
O O2 0.734383 0.682960 0.842688
O O3 0.862493 0.833452 0.807632
O O4 0.983494 0.650895 0.836673
O O5 0.846363 0.814195 0.081848
O O6 0.968228 0.000000 0.129181
O O7 0.000000 0.883507 0.000000
O O8 0.216952 0.682590 0.813902
O O9 0.256702 0.627256 0.989036
O O10 0.500000 0.365750 0.500000
O O11 0.287386 0.500000 0.396634
O O12 0.243253 0.338691 0.487012
O O13 0.161233 0.500000 0.545285
O O14 0.263635 0.342501 0.665127
O O15 0.000000 0.332638 0.500000
O O16 0.656943 0.500000 0.859196
O O17 0.487881 0.654293 0.847906
O O18 0.293368 0.500000 0.785113
#
# Coordination Sequence:
#
# PCOD8059571 Si02
#       7
#     4   4   4   4   4   4   4
#     4  10  19  32  50  76  91 131 169 208 243 288
#     4   9  18  36  56  74  95 119 161 218 267 295
#     4  10  19  32  48  75  91 130 167 199 243 292
#     4  10  19  30  45  69 104 135 163 199 237 281
#     4   9  17  29  43  62  90 132 173 197 221 262
#     4  11  20  30  43  70 110 138 158 187 238 297
#     4  10  20  31  45  67 106 144 162 189 233 288
#
# _framework density 15.678596000000001
#
# number of rings (size 3 to 8) (size 9 to 14) (size 15 to 20)
#    0.857    1.286    1.429    3.429    0.000    7.429 
#    0.000    0.000    0.000    3.000    0.000    2.000 
#    0.000    0.000    0.000    0.000    0.000    0.000 
#
# Total GULP energy -347074.388276 kJ/mol
# GULP energy per Si atom -12395.513867 kJ/mol
# Density = 1.564291 g / cm^3
# Si number density = 15.678596 Si / 1000 Ang^3
#
#
#
# Elastic Constant Matrix: (Units=GPa)
#
#
# Indices 1 2 3 4 5 6 
#
# 1 81.2050 19.5239 19.3226 0.0000 3.3517 0.0000
# 2 19.5239 55.3550 18.8689 0.0000 2.5922 0.0000
# 3 19.3226 18.8689 95.4065 0.0000 -0.0158 0.0000
# 4 0.0000 0.0000 0.0000 10.9203 0.0000 -3.0165
# 5 3.3517 2.5922 -0.0158 0.0000 27.7646 0.0000
# 6 0.0000 0.0000 0.0000 -3.0165 0.0000 7.3126
#
#
#
# Elastic Compliance Matrix: (Units=1/GPa)
#
#
# Indices 1 2 3 4 5 6 
#
# 1 0.013836 -0.004144 -0.001983 0.000000 -0.001284 0.000000
# 2 -0.004144 0.020704 -0.003256 0.000000 -0.001435 0.000000
# 3 -0.001983 -0.003256 0.011527 0.000000 0.000550 0.000000
# 4 0.000000 0.000000 0.000000 0.103348 0.000000 0.042632
# 5 -0.001284 -0.001435 0.000550 0.000000 0.036306 0.000000
# 6 0.000000 0.000000 0.000000 0.042632 0.000000 0.154336
#
#
# Mechanical properties :
#
#
# Convention : Reuss Voigt Hill
#
# Bulk Modulus (GPa) = 36.62763 38.59970 37.61367
# Shear Modulus (GPa) = 13.58982 20.81625 17.20304
#
# Velocity S-wave (km/s) = 2.94730 3.64770 3.31604
# Velocity P-wave (km/s) = 5.91560 6.51258 6.22126
#
# Compressibility (1/GPa) = 0.02730179
#
# Stress axis : x y z
#
# Youngs Moduli (GPa) = 72.27723 48.30052 86.75280
#
# Poissons Ratio (x) = 0.20015 0.17201
# Poissons Ratio (y) = 0.29951 0.28244
# Poissons Ratio (z) = 0.14331 0.15725
#
# Static dielectric constant tensor:
#      x y z
#    x 3.077140 0.000000 0.010650 
#    y 0.000000 2.693580 0.000000 
#    z 0.010650 0.000000 3.105120 
# 
# 
# High freq. dielectric constant tensor:
#      x y z
#    x 1.612600 0.000000 -0.002850 
#    y 0.000000 1.546960 0.000000 
#    z -0.002850 0.000000 1.610910 
# 
# From -- ./inp_files/61630.got.cif
#   From: 2010.06.25/outbox.cif.g09.slc.cpg/sg10_31_cif.got.tgz:61630.got - 2010.06.27 22:07:45.
