data_PCOD8059951
_publ_section_title
;
Structure prediction by ZEFSAII (Michael W. Deem and Ramdas Pophale) SiO2 
 PCOD8059951
Probable space group: P 2/M
;
_chemical_formula_sum "Si O2"
_cell_formula_units_Z 22
_cell_length_a 21.828218
_cell_length_b 10.578186
_cell_length_c 21.675259
_cell_angle_alpha 90.000000
_cell_angle_beta 166.485302
_cell_angle_gamma 90.000000
_cell_volume 1169.614706
_symmetry_space_group_name_H-M "P 2/M"
_symmetry_group_IT_number 10
_symmetry_cell_setting 'monoclinic'
loop_
_space_group_symop_operation_xyz
x,y,z
-x,y,-z
-x,-y,-z
x,-y,z
loop_
_atom_site_type_symbol
_atom_site_label
_atom_site_fract_x
_atom_site_fract_y
_atom_site_fract_z
Si Si1 0.235517 0.500000 0.279879
Si Si2 0.764344 0.150955 0.227651
Si Si3 0.809035 0.148453 0.133953
Si Si4 0.153825 0.855433 0.092189
Si Si5 0.656220 0.150082 0.408626
Si Si6 0.306294 0.750503 0.422511
O O1 0.500000 0.500000 0.500000
O O2 0.216439 0.615315 0.309449
O O3 0.000000 0.500000 0.000000
O O4 0.789280 0.207876 0.183057
O O5 0.000000 0.203237 0.500000
O O6 0.769499 0.000000 0.230683
O O7 0.500000 0.201101 0.000000
O O8 0.079787 0.186389 0.367744
O O9 0.784114 0.000000 0.116864
O O10 0.575063 0.197133 0.862078
O O11 0.429813 0.786156 0.355700
O O12 0.226195 0.000000 0.174512
O O13 0.000000 0.795351 0.000000
O O14 0.946154 0.842955 0.833033
O O15 0.628821 0.238237 0.441889
O O16 0.636490 0.000000 0.405828
#
# Coordination Sequence:
#
# PCOD8059951 Si02
#       6
#     2   4   4   4   4   4
#     4  12  26  44  62  78 102 136 174 218 264 318
#     4   9  15  23  37  58  88 130 173 203 230 276
#     4   9  17  28  42  65  97 132 168 204 245 291
#     4  11  22  36  56  81 106 129 161 210 262 312
#     4  10  19  31  48  70  98 130 164 206 254 305
#     4  12  23  38  57  78 103 136 173 211 260 322
#
# _framework density 18.809612999999999
#
# number of rings (size 3 to 8) (size 9 to 14) (size 15 to 20)
#    0.000    1.636    0.000    7.091    0.000    7.273 
#    0.000    0.000    0.000    0.000    0.000    0.000 
#    0.000    0.000    0.000   16.364    0.000    7.273 
#
# Total GULP energy -272747.111268 kJ/mol
# GULP energy per Si atom -12397.595967 kJ/mol
# Density = 1.876680 g / cm^3
# Si number density = 18.809613 Si / 1000 Ang^3
#
#
#
# Elastic Constant Matrix: (Units=GPa)
#
#
# Indices 1 2 3 4 5 6 
#
# 1 151.8665 50.8901 63.3416 0.0000 -9.5600 0.0000
# 2 50.8901 46.3837 39.6881 0.0000 -1.6831 0.0000
# 3 63.3416 39.6881 167.5094 0.0000 -2.4763 0.0000
# 4 0.0000 0.0000 0.0000 30.2783 0.0000 4.8546
# 5 -9.5600 -1.6831 -2.4763 0.0000 40.4294 0.0000
# 6 0.0000 0.0000 0.0000 4.8546 0.0000 14.8495
#
#
#
# Elastic Compliance Matrix: (Units=1/GPa)
#
#
# Indices 1 2 3 4 5 6 
#
# 1 0.010907 -0.010523 -0.001601 0.000000 0.002043 0.000000
# 2 -0.010523 0.037215 -0.004857 0.000000 -0.001237 0.000000
# 3 -0.001601 -0.004857 0.007724 0.000000 -0.000108 0.000000
# 4 0.000000 0.000000 0.000000 0.034854 0.000000 -0.011394
# 5 0.002043 -0.001237 -0.000108 0.000000 0.025160 0.000000
# 6 0.000000 0.000000 0.000000 -0.011394 0.000000 0.071067
#
#
# Mechanical properties :
#
#
# Convention : Reuss Voigt Hill
#
# Bulk Modulus (GPa) = 45.69196 74.84437 60.26816
# Shear Modulus (GPa) = 21.91213 31.23410 26.57311
#
# Velocity S-wave (km/s) = 3.41683 4.07939 3.76272
# Velocity P-wave (km/s) = 6.31750 7.87816 7.14060
#
# Compressibility (1/GPa) = 0.02188569
#
# Stress axis : x y z
#
# Youngs Moduli (GPa) = 91.68138 26.87070 129.46124
#
# Poissons Ratio (x) = 0.28276 0.20727
# Poissons Ratio (y) = 0.96476 0.62874
# Poissons Ratio (z) = 0.14679 0.13050
#
# Static dielectric constant tensor:
#      x y z
#    x 3.634040 0.000000 -0.072010 
#    y 0.000000 2.897930 0.000000 
#    z -0.072010 0.000000 3.797560 
# 
# 
# High freq. dielectric constant tensor:
#      x y z
#    x 1.740080 0.000000 -0.003520 
#    y 0.000000 1.656520 0.000000 
#    z -0.003520 0.000000 1.759810 
# 
# From -- ./inp_files/90751.got.cif
#   From: 2010.06.25/outbox.cif.g09.slc.cpg/sg10_46_cif.got.tgz:90751.got - 2010.06.27 22:07:45.
