data_PCOD8059193
_publ_section_title
;
Structure prediction by ZEFSAII (Michael W. Deem and Ramdas Pophale) SiO2 
 PCOD8059193
Probable space group: P 2/M
;
_chemical_formula_sum "Si O2"
_cell_formula_units_Z 28
_cell_length_a 9.704781
_cell_length_b 8.905314
_cell_length_c 28.190543
_cell_angle_alpha 90.000000
_cell_angle_beta 142.579560
_cell_angle_gamma 90.000000
_cell_volume 1480.466208
_symmetry_space_group_name_H-M "P 2/M"
_symmetry_group_IT_number 10
_symmetry_cell_setting 'monoclinic'
loop_
_space_group_symop_operation_xyz
x,y,z
-x,y,-z
-x,-y,-z
x,-y,z
loop_
_atom_site_type_symbol
_atom_site_label
_atom_site_fract_x
_atom_site_fract_y
_atom_site_fract_z
Si Si1 0.140158 0.678992 0.621660
Si Si2 0.743373 0.833706 0.044363
Si Si3 0.535212 0.825861 0.360533
Si Si4 0.151983 0.328161 0.197628
Si Si5 0.492297 0.670646 0.207238
Si Si6 0.662176 0.826956 0.501342
Si Si7 0.756203 0.321085 0.949605
O O1 0.161136 0.500000 0.622679
O O2 0.240003 0.748919 0.600362
O O3 0.293954 0.744553 0.707177
O O4 0.884959 0.725259 0.562238
O O5 0.909685 0.751827 0.126992
O O6 0.840199 0.000000 0.059568
O O7 0.500000 0.847874 0.000000
O O8 0.702879 0.739092 0.986326
O O9 0.304498 0.751668 0.278968
O O10 0.533648 0.802950 0.416622
O O11 0.539483 0.000000 0.347678
O O12 0.116616 0.500000 0.203638
O O13 0.268266 0.317497 0.178157
O O14 0.560162 0.500000 0.216968
O O15 0.430529 0.742900 0.139316
O O16 0.500000 0.774412 0.500000
O O17 0.734111 0.000000 0.527763
O O18 0.750758 0.500000 0.948804
O O19 0.000000 0.261766 0.000000
#
# Coordination Sequence:
#
# PCOD8059193 Si02
#       7
#     4   4   4   4   4   4   4
#     4  10  20  35  58  86 116 146 186 235 278 328
#     4  11  24  39  53  78 117 154 190 231 276 330
#     4  10  20  36  60  86 112 145 185 230 280 332
#     4  10  19  36  60  84 111 144 186 232 281 333
#     4   8  16  32  54  83 112 137 174 231 284 324
#     4  10  22  40  58  79 113 154 189 225 279 341
#     4  10  18  34  60  83 108 145 189 234 280 327
#
# _framework density 18.912962
#
# number of rings (size 3 to 8) (size 9 to 14) (size 15 to 20)
#    0.000    2.143    1.429    3.000    0.000    4.571 
#    2.571    1.429    0.000    0.000    0.000    0.000 
#    0.000    0.000    0.000    0.000    0.000    0.000 
#
# Total GULP energy -347138.112256 kJ/mol
# GULP energy per Si atom -12397.789723 kJ/mol
# Density = 1.886991 g / cm^3
# Si number density = 18.912962 Si / 1000 Ang^3
#
#
#
# Elastic Constant Matrix: (Units=GPa)
#
#
# Indices 1 2 3 4 5 6 
#
# 1 84.0887 26.1112 49.4849 0.0000 -8.8146 0.0000
# 2 26.1112 70.9970 46.8774 0.0000 1.3847 0.0000
# 3 49.4849 46.8774 119.0851 0.0000 -4.8717 0.0000
# 4 0.0000 0.0000 0.0000 -57.4696 0.0000 -12.7281
# 5 -8.8146 1.3847 -4.8717 0.0000 27.7637 0.0000
# 6 0.0000 0.0000 0.0000 -12.7281 0.0000 20.8754
#
#
#
# Elastic Compliance Matrix: (Units=1/GPa)
#
#
# Indices 1 2 3 4 5 6 
#
# 1 0.016450 -0.002349 -0.005734 0.000000 0.004334 0.000000
# 2 -0.002349 0.019511 -0.006824 0.000000 -0.002916 0.000000
# 3 -0.005734 -0.006824 0.013503 0.000000 0.000889 0.000000
# 4 0.000000 0.000000 0.000000 -0.015330 0.000000 -0.009347
# 5 0.004334 -0.002916 0.000889 0.000000 0.037696 0.000000
# 6 0.000000 0.000000 0.000000 -0.009347 0.000000 0.042204
#
#
# Mechanical properties :
#
#
# Convention : Reuss Voigt Hill
#
# Bulk Modulus (GPa) = 50.88737 57.67976 54.28357
# Shear Modulus (GPa) = 33.24539 8.34705 20.79622
#
# Velocity S-wave (km/s) = 4.19717 2.10309 3.31958
# Velocity P-wave (km/s) = 7.10302 6.03829 6.59219
#
# Compressibility (1/GPa) = 0.01965124
#
# Stress axis : x y z
#
# Youngs Moduli (GPa) = 60.78994 51.25210 74.05957
#
# Poissons Ratio (x) = 0.12037 0.42465
# Poissons Ratio (y) = 0.14277 0.50538
# Poissons Ratio (z) = 0.34856 0.34974
#
# Static dielectric constant tensor:
#      x y z
#    x 1.083160 0.000000 -0.092220 
#    y 0.000000 3.467490 0.000000 
#    z -0.092220 0.000000 3.703770 
# 
# 
# High freq. dielectric constant tensor:
#      x y z
#    x 1.711050 0.000000 -0.007110 
#    y 0.000000 1.728360 0.000000 
#    z -0.007110 0.000000 1.752470 
# 
# From -- ./inp_files/37301.got.cif
#   From: 2010.06.25/outbox.cif.g09.slc.cpg/sg10_19_cif.got.tgz:37301.got - 2010.06.27 22:07:45.
