data_PCOD8059916
_publ_section_title
;
Structure prediction by ZEFSAII (Michael W. Deem and Ramdas Pophale) SiO2 
 PCOD8059916
Probable space group: P 2/M
;
_chemical_formula_sum "Si O2"
_cell_formula_units_Z 24
_cell_length_a 19.290864
_cell_length_b 10.249003
_cell_length_c 11.127470
_cell_angle_alpha 90.000000
_cell_angle_beta 41.398299
_cell_angle_gamma 90.000000
_cell_volume 1454.860730
_symmetry_space_group_name_H-M "P 2/M"
_symmetry_group_IT_number 10
_symmetry_cell_setting 'monoclinic'
loop_
_space_group_symop_operation_xyz
x,y,z
-x,y,-z
-x,-y,-z
x,-y,z
loop_
_atom_site_type_symbol
_atom_site_label
_atom_site_fract_x
_atom_site_fract_y
_atom_site_fract_z
Si Si1 0.619680 0.149666 0.863129
Si Si2 0.244711 0.647840 0.176319
Si Si3 0.876755 0.649740 0.165578
Si Si4 0.131813 0.350919 0.088205
Si Si5 0.794374 0.859086 0.457383
Si Si6 0.942352 0.778379 0.460152
O O1 0.668344 0.248421 0.897009
O O2 0.677765 0.166762 0.659491
O O3 0.630008 0.000000 0.896130
O O4 0.500000 0.189697 0.000000
O O5 0.283974 0.500000 0.148687
O O6 0.226447 0.673405 0.058017
O O7 0.133030 0.664473 0.389298
O O8 0.852059 0.500000 0.233170
O O9 0.823115 0.742090 0.332574
O O10 0.829639 0.686716 0.095970
O O11 0.000000 0.675330 0.000000
O O12 0.095587 0.500000 0.135614
O O13 0.027713 0.273216 0.256445
O O14 0.869971 0.873626 0.475989
O O15 0.799307 0.000000 0.384326
O O16 0.000000 0.847367 0.500000
#
# Coordination Sequence:
#
# PCOD8059916 Si02
#       6
#     4   4   4   4   4   4
#     4   9  19  36  54  70  93 124 155 195 250 299
#     4   9  17  28  48  74  96 118 155 203 238 273
#     4  10  19  31  48  67  96 137 169 187 219 280
#     4   9  16  28  44  67  98 131 160 187 226 277
#     4  10  20  32  47  70  96 121 159 204 238 273
#     4   9  16  27  43  66  97 130 157 185 231 284
#
# _framework density 16.496424000000001
#
# number of rings (size 3 to 8) (size 9 to 14) (size 15 to 20)
#    0.000    2.667    1.667    0.500    0.000    5.667 
#    0.000    3.333    0.000    1.000    0.000    7.000 
#    0.000    0.000    0.000    0.000    0.000    0.000 
#
# Total GULP energy -297411.917597 kJ/mol
# GULP energy per Si atom -12392.163233 kJ/mol
# Density = 1.645888 g / cm^3
# Si number density = 16.496424 Si / 1000 Ang^3
#
#
#
# Elastic Constant Matrix: (Units=GPa)
#
#
# Indices 1 2 3 4 5 6 
#
# 1 85.8664 53.1241 52.9993 0.0000 5.2674 0.0000
# 2 53.1241 96.7791 50.7145 0.0000 4.4642 0.0000
# 3 52.9993 50.7145 83.4657 0.0000 1.4073 0.0000
# 4 0.0000 0.0000 0.0000 19.9027 0.0000 2.9279
# 5 5.2674 4.4642 1.4073 0.0000 26.1522 0.0000
# 6 0.0000 0.0000 0.0000 2.9279 0.0000 11.6424
#
#
#
# Elastic Compliance Matrix: (Units=1/GPa)
#
#
# Indices 1 2 3 4 5 6 
#
# 1 0.022136 -0.006870 -0.009835 0.000000 -0.002757 0.000000
# 2 -0.006870 0.017407 -0.006193 0.000000 -0.001254 0.000000
# 3 -0.009835 -0.006193 0.021958 0.000000 0.001857 0.000000
# 4 0.000000 0.000000 0.000000 0.052175 0.000000 -0.013121
# 5 -0.002757 -0.001254 0.001857 0.000000 0.038907 0.000000
# 6 0.000000 0.000000 0.000000 -0.013121 0.000000 0.089192
#
#
# Mechanical properties :
#
#
# Convention : Reuss Voigt Hill
#
# Bulk Modulus (GPa) = 63.67736 64.42079 64.04907
# Shear Modulus (GPa) = 17.07607 18.82435 17.95021
#
# Velocity S-wave (km/s) = 3.22085 3.38171 3.30226
# Velocity P-wave (km/s) = 7.24681 7.37456 7.31096
#
# Compressibility (1/GPa) = 0.01570417
#
# Stress axis : x y z
#
# Youngs Moduli (GPa) = 45.17521 57.44775 45.54132
#
# Poissons Ratio (x) = 0.39466 0.44792
# Poissons Ratio (y) = 0.31035 0.28205
# Poissons Ratio (z) = 0.44431 0.35579
#
# Static dielectric constant tensor:
#      x y z
#    x 3.289490 0.000000 0.224100 
#    y 0.000000 2.986380 0.000000 
#    z 0.224100 0.000000 2.999470 
# 
# 
# High freq. dielectric constant tensor:
#      x y z
#    x 1.628170 0.000000 0.012730 
#    y 0.000000 1.630860 0.000000 
#    z 0.012730 0.000000 1.610290 
# 
# From -- ./inp_files/45132.got.cif
#   From: 2010.06.25/outbox.cif.g09.slc.cpg/sg10_23_cif.got.tgz:45132.got - 2010.06.27 22:07:45.
