data_PCOD8059080
_publ_section_title
;
Structure prediction by ZEFSAII (Michael W. Deem and Ramdas Pophale) SiO2 
 PCOD8059080
Probable space group: P 2/M
;
_chemical_formula_sum "Si O2"
_cell_formula_units_Z 32
_cell_length_a 8.228041
_cell_length_b 13.954072
_cell_length_c 27.434936
_cell_angle_alpha 90.000000
_cell_angle_beta 149.779345
_cell_angle_gamma 90.000000
_cell_volume 1585.460601
_symmetry_space_group_name_H-M "P 2/M"
_symmetry_group_IT_number 10
_symmetry_cell_setting 'monoclinic'
loop_
_space_group_symop_operation_xyz
x,y,z
-x,y,-z
-x,-y,-z
x,-y,z
loop_
_atom_site_type_symbol
_atom_site_label
_atom_site_fract_x
_atom_site_fract_y
_atom_site_fract_z
Si Si1 0.175633 0.770858 0.946847
Si Si2 0.506110 0.106815 0.891807
Si Si3 0.569910 0.234823 0.635311
Si Si4 0.301158 0.390615 0.166115
Si Si5 0.670003 0.393681 0.358549
Si Si6 0.792964 0.242432 0.257324
Si Si7 0.807416 0.729870 0.550620
Si Si8 0.858544 0.893448 0.785714
O O1 0.033704 0.667923 0.926074
O O2 0.905411 0.827220 0.845332
O O3 0.500000 0.754492 0.000000
O O4 0.231885 0.831844 0.010467
O O5 0.432287 0.156373 0.820588
O O6 0.189714 0.099709 0.842500
O O7 0.641022 0.000000 0.916853
O O8 0.421484 0.330096 0.619262
O O9 0.330991 0.202702 0.529091
O O10 0.582931 0.151573 0.679360
O O11 0.927585 0.261832 0.709651
O O12 0.257225 0.500000 0.135753
O O13 0.386953 0.389892 0.245322
O O14 0.583824 0.339339 0.208163
O O15 0.718915 0.500000 0.391297
O O16 0.006501 0.361029 0.422205
O O17 0.953342 0.211563 0.350900
O O18 0.500000 0.688208 0.500000
O O19 0.748234 0.000000 0.772961
#
# Coordination Sequence:
#
# PCOD8059080 Si02
#       8
#     4   4   4   4   4   4   4   4
#     4  10  19  34  58  84 110 140 180 233 282 328
#     4   9  18  34  58  83 107 141 186 229 275 329
#     4  10  18  33  57  83 109 144 187 227 266 324
#     4  10  21  38  56  78 113 151 182 222 279 336
#     4  10  20  34  56  83 110 144 187 232 273 321
#     4   9  20  37  54  76 114 151 180 224 275 324
#     4   9  19  34  53  78 112 151 182 220 274 323
#     4   9  17  32  55  84 113 141 176 227 285 328
#
# _framework density 20.183409000000001
#
# number of rings (size 3 to 8) (size 9 to 14) (size 15 to 20)
#    0.000    2.500    1.250    0.750    0.000    4.000 
#    0.000    6.250    0.000    5.250    0.000    0.000 
#    0.000    0.000    0.000    0.000    0.000    0.000 
#
# Total GULP energy -396664.616507 kJ/mol
# GULP energy per Si atom -12395.769266 kJ/mol
# Density = 2.013747 g / cm^3
# Si number density = 20.183409 Si / 1000 Ang^3
#
#
#
# Elastic Constant Matrix: (Units=GPa)
#
#
# Indices 1 2 3 4 5 6 
#
# 1 61.6552 40.5822 41.7251 0.0000 -10.1538 0.0000
# 2 40.5822 143.9378 76.2240 0.0000 -14.2429 0.0000
# 3 41.7251 76.2240 126.4045 0.0000 -18.1934 0.0000
# 4 0.0000 0.0000 0.0000 16.3164 0.0000 -3.3507
# 5 -10.1538 -14.2429 -18.1934 0.0000 24.9830 0.0000
# 6 0.0000 0.0000 0.0000 -3.3507 0.0000 23.9468
#
#
#
# Elastic Compliance Matrix: (Units=1/GPa)
#
#
# Indices 1 2 3 4 5 6 
#
# 1 0.022291 -0.003387 -0.004792 0.000000 0.003639 0.000000
# 2 -0.003387 0.010772 -0.005241 0.000000 0.000948 0.000000
# 3 -0.004792 -0.005241 0.013341 0.000000 0.004780 0.000000
# 4 0.000000 0.000000 0.000000 0.063101 0.000000 0.008829
# 5 0.003639 0.000948 0.004780 0.000000 0.045527 0.000000
# 6 0.000000 0.000000 0.000000 0.008829 0.000000 0.042995
#
#
# Mechanical properties :
#
#
# Convention : Reuss Voigt Hill
#
# Bulk Modulus (GPa) = 51.11454 72.11780 61.61617
# Shear Modulus (GPa) = 21.60871 24.61366 23.11119
#
# Velocity S-wave (km/s) = 3.27558 3.49592 3.38754
# Velocity P-wave (km/s) = 6.29967 7.21832 6.77458
#
# Compressibility (1/GPa) = 0.01956390
#
# Stress axis : x y z
#
# Youngs Moduli (GPa) = 44.86161 92.83651 74.95549
#
# Poissons Ratio (x) = 0.31445 0.35917
# Poissons Ratio (y) = 0.15195 0.39284
# Poissons Ratio (z) = 0.21497 0.48656
#
# Static dielectric constant tensor:
#      x y z
#    x 3.586010 0.000000 -0.166830 
#    y 0.000000 3.596820 0.000000 
#    z -0.166830 0.000000 3.889760 
# 
# 
# High freq. dielectric constant tensor:
#      x y z
#    x 1.785520 0.000000 -0.007560 
#    y 0.000000 1.760280 0.000000 
#    z -0.007560 0.000000 1.796910 
# 
# From -- ./inp_files/94664.got.cif
#   From: 2010.06.25/outbox.cif.g09.slc.cpg/sg10_48_cif.got.tgz:94664.got - 2010.06.27 22:07:45.
