data_PCOD8059278
_publ_section_title
;
Structure prediction by ZEFSAII (Michael W. Deem and Ramdas Pophale) SiO2 
 PCOD8059278
Probable space group: P 2/M
;
_chemical_formula_sum "Si O2"
_cell_formula_units_Z 32
_cell_length_a 8.229920
_cell_length_b 15.086600
_cell_length_c 23.209591
_cell_angle_alpha 90.000000
_cell_angle_beta 150.772798
_cell_angle_gamma 90.000000
_cell_volume 1407.077792
_symmetry_space_group_name_H-M "P 2/M"
_symmetry_group_IT_number 10
_symmetry_cell_setting 'monoclinic'
loop_
_space_group_symop_operation_xyz
x,y,z
-x,y,-z
-x,-y,-z
x,-y,z
loop_
_atom_site_type_symbol
_atom_site_label
_atom_site_fract_x
_atom_site_fract_y
_atom_site_fract_z
Si Si1 0.164620 0.099406 0.932343
Si Si2 0.587148 0.335089 0.673665
Si Si3 0.706405 0.256763 0.300527
Si Si4 0.879096 0.903177 0.526784
Si Si5 0.800597 0.597371 0.549020
Si Si6 0.705490 0.597963 0.121046
Si Si7 0.516639 0.780282 0.123231
Si Si8 0.817811 0.153753 0.714082
O O1 0.865812 0.127304 0.796718
O O2 0.096316 0.000000 0.935343
O O3 0.500000 0.101441 0.000000
O O4 0.200377 0.172095 0.994640
O O5 0.470604 0.297718 0.698953
O O6 0.297912 0.383378 0.548129
O O7 0.682826 0.251980 0.664762
O O8 0.907982 0.397368 0.778175
O O9 0.445920 0.228304 0.169858
O O10 0.950176 0.173430 0.383996
O O11 0.929760 0.334920 0.343247
O O12 0.473131 0.905441 0.404188
O O13 0.000000 0.884990 0.500000
O O14 0.998580 0.000000 0.585570
O O15 0.500000 0.602103 0.500000
O O16 0.961982 0.500000 0.599801
O O17 0.652759 0.500000 0.134265
O O18 0.582884 0.680855 0.120886
O O19 0.500000 0.603313 0.000000
O O20 0.830484 0.847682 0.210546
#
# Coordination Sequence:
#
# PCOD8059278 Si02
#       8
#     4   4   4   4   4   4   4   4
#     4   9  18  35  61  91 119 154 209 266 314 359
#     4  11  21  38  61  87 125 163 208 247 310 379
#     4  12  24  39  58  91 130 172 204 255 311 384
#     4  11  22  38  60  87 122 168 215 257 313 375
#     4  11  23  39  63  93 124 162 210 262 317 372
#     4  10  21  41  67  93 118 156 209 261 315 377
#     4  10  22  37  62  89 128 162 202 261 319 373
#     4  10  18  37  62  87 115 161 214 262 310 363
#
# _framework density 22.742167999999999
#
# number of rings (size 3 to 8) (size 9 to 14) (size 15 to 20)
#    0.000    1.500    2.500    4.500    0.000    4.000 
#    0.000    3.125    0.000    2.250    0.000    0.000 
#    0.000    0.000    0.000    0.000    0.000    0.000 
#
# Total GULP energy -396518.271035 kJ/mol
# GULP energy per Si atom -12391.195970 kJ/mol
# Density = 2.269041 g / cm^3
# Si number density = 22.742168 Si / 1000 Ang^3
#
#
#
# Elastic Constant Matrix: (Units=GPa)
#
#
# Indices 1 2 3 4 5 6 
#
# 1 55.5323 18.6519 14.3233 0.0000 -23.0608 0.0000
# 2 18.6519 149.9142 42.2280 0.0000 -14.4197 0.0000
# 3 14.3233 42.2280 79.7284 0.0000 -25.0902 0.0000
# 4 0.0000 0.0000 0.0000 -39.9004 0.0000 64.1608
# 5 -23.0608 -14.4197 -25.0902 0.0000 32.3850 0.0000
# 6 0.0000 0.0000 0.0000 64.1608 0.0000 -46.0247
#
#
#
# Elastic Compliance Matrix: (Units=1/GPa)
#
#
# Indices 1 2 3 4 5 6 
#
# 1 0.026257 -0.002102 0.002626 0.000000 0.019795 0.000000
# 2 -0.002102 0.008012 -0.004251 0.000000 -0.001223 0.000000
# 3 0.002626 -0.004251 0.018930 0.000000 0.014644 0.000000
# 4 0.000000 0.000000 0.000000 0.020184 0.000000 0.028138
# 5 0.019795 -0.001223 0.014644 0.000000 0.055775 0.000000
# 6 0.000000 0.000000 0.000000 0.028138 0.000000 0.017499
#
#
# Mechanical properties :
#
#
# Convention : Reuss Voigt Hill
#
# Bulk Modulus (GPa) = 21.86034 48.39792 35.12913
# Shear Modulus (GPa) = 29.52306 3.29010 16.40658
#
# Velocity S-wave (km/s) = 3.60691 1.20409 2.68883
# Velocity P-wave (km/s) = 5.19418 4.82291 5.01199
#
# Compressibility (1/GPa) = 0.04574494
#
# Stress axis : x y z
#
# Youngs Moduli (GPa) = 38.08544 124.81700 52.82517
#
# Poissons Ratio (x) = 0.26242 -0.13872
# Poissons Ratio (y) = 0.08007 0.22454
# Poissons Ratio (z) = -0.10001 0.53054
#
# Static dielectric constant tensor:
#      x y z
#    x 3.828210 0.000000 0.103100 
#    y 0.000000 4.546550 0.000000 
#    z 0.103100 0.000000 4.452990 
# 
# 
# High freq. dielectric constant tensor:
#      x y z
#    x 1.863830 0.000000 -0.004390 
#    y 0.000000 1.910580 0.000000 
#    z -0.004390 0.000000 1.898520 
# 
# From -- ./inp_files/88286.got.cif
#   From: 2010.06.25/outbox.cif.g09.slc.cpg/sg10_45_cif.got.tgz:88286.got - 2010.06.27 22:07:45.
