data_PCOD8059975
_publ_section_title
;
Structure prediction by ZEFSAII (Michael W. Deem and Ramdas Pophale) SiO2 
 PCOD8059975
Probable space group: P 2/M
;
_chemical_formula_sum "Si O2"
_cell_formula_units_Z 32
_cell_length_a 30.617894
_cell_length_b 8.565002
_cell_length_c 21.433073
_cell_angle_alpha 90.000000
_cell_angle_beta 18.237378
_cell_angle_gamma 90.000000
_cell_volume 1759.010958
_symmetry_space_group_name_H-M "P 2/M"
_symmetry_group_IT_number 10
_symmetry_cell_setting 'monoclinic'
loop_
_space_group_symop_operation_xyz
x,y,z
-x,y,-z
-x,-y,-z
x,-y,z
loop_
_atom_site_type_symbol
_atom_site_label
_atom_site_fract_x
_atom_site_fract_y
_atom_site_fract_z
Si Si1 0.023491 0.818622 0.177286
Si Si2 0.637023 0.682823 0.099609
Si Si3 0.527980 0.818105 0.370069
Si Si4 0.732676 0.685313 0.590489
Si Si5 0.557994 0.685872 0.070761
Si Si6 0.762472 0.318396 0.689472
Si Si7 0.066874 0.320256 0.250163
Si Si8 0.292450 0.317966 0.766326
O O1 0.068445 0.787986 0.187488
O O2 0.868309 0.757353 0.373278
O O3 0.031765 0.000000 0.151740
O O4 0.130733 0.731381 0.985574
O O5 0.604641 0.500000 0.149877
O O6 0.544713 0.774379 0.275172
O O7 0.594521 0.749441 0.089757
O O8 0.801258 0.717850 0.885594
O O9 0.640253 0.720975 0.257746
O O10 0.372092 0.775257 0.603662
O O11 0.555917 0.000000 0.343032
O O12 0.748884 0.500000 0.568273
O O13 0.596820 0.741874 0.737465
O O14 0.722316 0.748666 0.675709
O O15 0.568396 0.500000 0.056535
O O16 0.668256 0.758925 0.871510
O O17 0.727081 0.500000 0.737022
O O18 0.926443 0.287483 0.480684
O O19 0.067877 0.500000 0.225510
O O20 0.307260 0.500000 0.732811
#
# Coordination Sequence:
#
# PCOD8059975 Si02
#       8
#     4   4   4   4   4   4   4   4
#     4  11  20  31  50  76 104 133 167 209 257 308
#     4  10  19  31  48  72 105 142 175 210 251 302
#     4  11  21  33  50  76 107 139 168 200 244 300
#     4   9  17  31  51  74 100 133 174 221 265 301
#     4   9  17  29  49  75 101 134 179 221 257 300
#     4   8  14  26  47  75 101 129 170 224 268 297
#     4   9  17  29  47  71 102 136 170 209 259 307
#     4  11  20  33  54  79 105 131 163 206 252 298
#
# _framework density 18.192039999999999
#
# number of rings (size 3 to 8) (size 9 to 14) (size 15 to 20)
#    0.000    2.250    1.250    5.250    0.000    2.000 
#    0.000    3.125    0.000    9.750    0.000    9.625 
#    0.000    0.000    0.000    0.000    0.000    0.000 
#
# Total GULP energy -396786.954223 kJ/mol
# GULP energy per Si atom -12399.592319 kJ/mol
# Density = 1.815063 g / cm^3
# Si number density = 18.192040 Si / 1000 Ang^3
#
#
#
# Elastic Constant Matrix: (Units=GPa)
#
#
# Indices 1 2 3 4 5 6 
#
# 1 96.9242 13.0523 61.1317 0.0000 -9.0453 0.0000
# 2 13.0523 54.6008 22.3865 0.0000 -0.0762 0.0000
# 3 61.1317 22.3865 147.7393 0.0000 -3.1639 0.0000
# 4 0.0000 0.0000 0.0000 9.1456 0.0000 -1.8985
# 5 -9.0453 -0.0762 -3.1639 0.0000 20.7137 0.0000
# 6 0.0000 0.0000 0.0000 -1.8985 0.0000 7.2765
#
#
#
# Elastic Compliance Matrix: (Units=1/GPa)
#
#
# Indices 1 2 3 4 5 6 
#
# 1 0.014614 -0.001125 -0.005759 0.000000 0.005498 0.000000
# 2 -0.001125 0.019617 -0.002524 0.000000 -0.000805 0.000000
# 3 -0.005759 -0.002524 0.009511 0.000000 -0.001071 0.000000
# 4 0.000000 0.000000 0.000000 0.115603 0.000000 0.030163
# 5 0.005498 -0.000805 -0.001071 0.000000 0.050511 0.000000
# 6 0.000000 0.000000 0.000000 0.030163 0.000000 0.145299
#
#
# Mechanical properties :
#
#
# Convention : Reuss Voigt Hill
#
# Bulk Modulus (GPa) = 40.11750 54.71171 47.41460
# Shear Modulus (GPa) = 13.07936 20.94008 17.00972
#
# Velocity S-wave (km/s) = 2.68425 3.39640 3.06111
# Velocity P-wave (km/s) = 5.63090 6.74689 6.21400
#
# Compressibility (1/GPa) = 0.02492678
#
# Stress axis : x y z
#
# Youngs Moduli (GPa) = 68.42712 50.97490 105.13956
#
# Poissons Ratio (x) = 0.05733 0.60548
# Poissons Ratio (y) = 0.07696 0.26542
# Poissons Ratio (z) = 0.39406 0.12868
#
# Static dielectric constant tensor:
#      x y z
#    x 3.196640 0.000000 0.036060 
#    y 0.000000 3.043840 0.000000 
#    z 0.036060 0.000000 3.650170 
# 
# 
# High freq. dielectric constant tensor:
#      x y z
#    x 1.667610 0.000000 0.002560 
#    y 0.000000 1.679020 0.000000 
#    z 0.002560 0.000000 1.722630 
# 
# From -- ./inp_files/87169.got.cif
#   From: 2010.06.25/outbox.cif.g09.slc.cpg/sg10_44_cif.got.tgz:87169.got - 2010.06.27 22:07:45.
