data_PCOD8059854
_publ_section_title
;
Structure prediction by ZEFSAII (Michael W. Deem and Ramdas Pophale) SiO2 
 PCOD8059854
Probable space group: P 2/M
;
_chemical_formula_sum "Si O2"
_cell_formula_units_Z 24
_cell_length_a 15.637238
_cell_length_b 13.306314
_cell_length_c 12.857148
_cell_angle_alpha 90.000000
_cell_angle_beta 35.544593
_cell_angle_gamma 90.000000
_cell_volume 1555.213348
_symmetry_space_group_name_H-M "P 2/M"
_symmetry_group_IT_number 10
_symmetry_cell_setting 'monoclinic'
loop_
_space_group_symop_operation_xyz
x,y,z
-x,y,-z
-x,-y,-z
x,-y,z
loop_
_atom_site_type_symbol
_atom_site_label
_atom_site_fract_x
_atom_site_fract_y
_atom_site_fract_z
Si Si1 0.160604 0.618529 0.227441
Si Si2 0.649113 0.697829 0.542689
Si Si3 0.642286 0.887253 0.431053
Si Si4 0.171368 0.380786 0.448453
Si Si5 0.173371 0.278991 0.825735
Si Si6 0.670931 0.383168 0.138780
O O1 0.156371 0.500000 0.237659
O O2 0.211018 0.654960 0.291963
O O3 0.995540 0.653658 0.362492
O O4 0.274699 0.657068 0.027744
O O5 0.613235 0.817006 0.561558
O O6 0.721612 0.680640 0.582347
O O7 0.759325 0.661549 0.340982
O O8 0.501780 0.633385 0.678978
O O9 0.500000 0.886869 0.500000
O O10 0.777756 0.838382 0.231642
O O11 0.683304 0.000000 0.425760
O O12 0.194513 0.500000 0.441990
O O13 0.238937 0.323761 0.865029
O O14 0.000000 0.289987 0.000000
O O15 0.707599 0.500000 0.115068
#
# Coordination Sequence:
#
# PCOD8059854 Si02
#       6
#     4   4   4   4   4   4
#     4   8  17  30  46  67  94 134 166 190 228 272
#     4  10  19  31  46  73  92 125 161 194 245 280
#     4   9  18  36  53  70  95 122 155 201 250 289
#     4   9  16  30  48  69  98 127 162 196 229 280
#     4  10  20  33  48  72  98 122 164 191 239 297
#     4  11  20  31  45  68 103 133 161 194 228 281
#
# _framework density 15.431965
#
# number of rings (size 3 to 8) (size 9 to 14) (size 15 to 20)
#    1.000    1.500    1.667    3.000    0.000    3.333 
#    0.000    2.500    0.000    0.000    0.000    5.833 
#    0.000    0.000    0.000    0.000    0.000    0.000 
#
# Total GULP energy -297385.084372 kJ/mol
# GULP energy per Si atom -12391.045182 kJ/mol
# Density = 1.539684 g / cm^3
# Si number density = 15.431965 Si / 1000 Ang^3
#
#
#
# Elastic Constant Matrix: (Units=GPa)
#
#
# Indices 1 2 3 4 5 6 
#
# 1 120.7662 34.3941 42.6299 0.0000 0.6137 0.0000
# 2 34.3941 60.3630 12.1222 0.0000 8.9873 0.0000
# 3 42.6299 12.1222 97.1184 0.0000 -1.7045 0.0000
# 4 0.0000 0.0000 0.0000 -4.6806 0.0000 -6.8985
# 5 0.6137 8.9873 -1.7045 0.0000 25.2124 0.0000
# 6 0.0000 0.0000 0.0000 -6.8985 0.0000 17.4138
#
#
#
# Elastic Compliance Matrix: (Units=1/GPa)
#
#
# Indices 1 2 3 4 5 6 
#
# 1 0.011459 -0.005901 -0.004267 0.000000 0.001536 0.000000
# 2 -0.005901 0.021061 -0.000168 0.000000 -0.007375 0.000000
# 3 -0.004267 -0.000168 0.012208 0.000000 0.000989 0.000000
# 4 0.000000 0.000000 0.000000 -0.134889 0.000000 -0.053437
# 5 0.001536 -0.007375 0.000989 0.000000 0.042322 0.000000
# 6 0.000000 0.000000 0.000000 -0.053437 0.000000 0.036257
#
#
# Mechanical properties :
#
#
# Convention : Reuss Voigt Hill
#
# Bulk Modulus (GPa) = 41.56877 50.72668 46.14772
# Shear Modulus (GPa) = 292.28092 20.19586 156.23839
#
# Velocity S-wave (km/s) = 13.77719 3.62152 10.07289
# Velocity P-wave (km/s) = 16.73548 7.10139 12.85508
#
# Compressibility (1/GPa) = 0.02405652
#
# Stress axis : x y z
#
# Youngs Moduli (GPa) = 87.26440 47.48174 81.91483
#
# Poissons Ratio (x) = 0.28021 0.34949
# Poissons Ratio (y) = 0.51498 0.01375
# Poissons Ratio (z) = 0.37232 0.00797
#
# Static dielectric constant tensor:
#      x y z
#    x 2.989950 0.000000 0.052210 
#    y 0.000000 2.734910 0.000000 
#    z 0.052210 0.000000 3.246160 
# 
# 
# High freq. dielectric constant tensor:
#      x y z
#    x 1.597880 0.000000 -0.002720 
#    y 0.000000 1.551120 0.000000 
#    z -0.002720 0.000000 1.594280 
# 
# From -- ./inp_files/51241.got.cif
#   From: 2010.06.25/outbox.cif.g09.slc.cpg/sg10_26_cif.got.tgz:51241.got - 2010.06.27 22:07:45.
