data_PCOD8059073
_publ_section_title
;
Structure prediction by ZEFSAII (Michael W. Deem and Ramdas Pophale) SiO2 
 PCOD8059073
Probable space group: P 2/M
;
_chemical_formula_sum "Si O2"
_cell_formula_units_Z 32
_cell_length_a 20.256235
_cell_length_b 9.062995
_cell_length_c 25.052034
_cell_angle_alpha 90.000000
_cell_angle_beta 22.687117
_cell_angle_gamma 90.000000
_cell_volume 1773.868906
_symmetry_space_group_name_H-M "P 2/M"
_symmetry_group_IT_number 10
_symmetry_cell_setting 'monoclinic'
loop_
_space_group_symop_operation_xyz
x,y,z
-x,y,-z
-x,-y,-z
x,-y,z
loop_
_atom_site_type_symbol
_atom_site_label
_atom_site_fract_x
_atom_site_fract_y
_atom_site_fract_z
Si Si1 0.666705 0.837967 0.339177
Si Si2 0.122801 0.176375 0.722990
Si Si3 0.843353 0.326369 0.867801
Si Si4 0.443148 0.175014 0.416451
Si Si5 0.501106 0.169987 0.145849
Si Si6 0.991756 0.325844 0.643378
Si Si7 0.649230 0.828060 0.629802
Si Si8 0.150556 0.827848 0.348394
O O1 0.500000 0.852735 0.500000
O O2 0.816087 0.762917 0.263806
O O3 0.604340 0.756757 0.330578
O O4 0.735712 0.000000 0.272715
O O5 0.261745 0.229156 0.575404
O O6 0.942812 0.249716 0.842608
O O7 0.103762 0.000000 0.737805
O O8 0.850298 0.500000 0.870616
O O9 0.928310 0.276499 0.748933
O O10 0.648344 0.273863 0.013489
O O11 0.453143 0.222058 0.347140
O O12 0.453513 0.000000 0.416031
O O13 0.473901 0.203717 0.228709
O O14 0.330144 0.209576 0.241505
O O15 0.552523 0.000000 0.098864
O O16 0.996923 0.500000 0.633811
O O17 0.858803 0.261259 0.699703
O O18 0.178430 0.262970 0.492304
O O19 0.700908 0.000000 0.588398
O O20 0.000000 0.774970 0.500000
O O21 0.130525 0.000000 0.350548
#
# Coordination Sequence:
#
# PCOD8059073 Si02
#       8
#     4   4   4   4   4   4   4   4
#     4   7  11  20  39  75 109 130 163 211 264 312
#     4   9  15  27  51  76 103 139 175 214 262 313
#     4  11  24  38  51  74 111 146 179 217 256 308
#     4   8  13  23  47  80 108 132 164 216 270 309
#     4  10  22  38  57  80 104 134 175 218 263 315
#     4  11  23  36  54  80 108 141 176 212 258 313
#     4  10  18  33  57  82 106 135 175 221 264 310
#     4  10  20  38  61  83 107 132 168 219 265 310
#
# _framework density 18.039663000000001
#
# number of rings (size 3 to 8) (size 9 to 14) (size 15 to 20)
#    0.000    2.500    2.500    2.250    0.000    3.250 
#    0.000    2.500    0.000    4.875    0.000    5.250 
#    0.000    0.000    0.000    0.000    0.000    0.000 
#
# Total GULP energy -396602.251671 kJ/mol
# GULP energy per Si atom -12393.820365 kJ/mol
# Density = 1.799860 g / cm^3
# Si number density = 18.039663 Si / 1000 Ang^3
#
#
#
# Elastic Constant Matrix: (Units=GPa)
#
#
# Indices 1 2 3 4 5 6 
#
# 1 134.6929 35.7913 29.3748 0.0000 -18.7504 0.0000
# 2 35.7913 40.0371 26.7131 0.0000 -4.2508 0.0000
# 3 29.3748 26.7131 63.6636 0.0000 -12.3492 0.0000
# 4 0.0000 0.0000 0.0000 16.9976 0.0000 6.2884
# 5 -18.7504 -4.2508 -12.3492 0.0000 21.2563 0.0000
# 6 0.0000 0.0000 0.0000 6.2884 0.0000 9.7007
#
#
#
# Elastic Compliance Matrix: (Units=1/GPa)
#
#
# Indices 1 2 3 4 5 6 
#
# 1 0.010880 -0.009114 0.000352 0.000000 0.007979 0.000000
# 2 -0.009114 0.042378 -0.015206 0.000000 -0.008399 0.000000
# 3 0.000352 -0.015206 0.024113 0.000000 0.011279 0.000000
# 4 0.000000 0.000000 0.000000 0.077392 0.000000 -0.050169
# 5 0.007979 -0.008399 0.011279 0.000000 0.058956 0.000000
# 6 0.000000 0.000000 0.000000 -0.050169 0.000000 0.135607
#
#
# Mechanical properties :
#
#
# Convention : Reuss Voigt Hill
#
# Bulk Modulus (GPa) = 33.97221 46.90577 40.43899
# Shear Modulus (GPa) = 12.28278 19.35856 15.82067
#
# Velocity S-wave (km/s) = 2.61219 3.27939 2.96462
# Velocity P-wave (km/s) = 5.28875 6.35587 5.84671
#
# Compressibility (1/GPa) = 0.02943582
#
# Stress axis : x y z
#
# Youngs Moduli (GPa) = 91.91045 23.59721 41.47097
#
# Poissons Ratio (x) = 0.21506 -0.01459
# Poissons Ratio (y) = 0.83766 0.63059
# Poissons Ratio (z) = -0.03233 0.35881
#
# Static dielectric constant tensor:
#      x y z
#    x 3.874740 0.000000 -0.129320 
#    y 0.000000 2.975570 0.000000 
#    z -0.129320 0.000000 3.034300 
# 
# 
# High freq. dielectric constant tensor:
#      x y z
#    x 1.722880 0.000000 -0.014360 
#    y 0.000000 1.662250 0.000000 
#    z -0.014360 0.000000 1.666420 
# 
# From -- ./inp_files/93593.got.cif
#   From: 2010.06.25/outbox.cif.g09.slc.cpg/sg10_47_cif.got.tgz:93593.got - 2010.06.27 22:07:45.
