data_PCOD8059823
_publ_section_title
;
Structure prediction by ZEFSAII (Michael W. Deem and Ramdas Pophale) SiO2 
 PCOD8059823
Probable space group: P 2/M
;
_chemical_formula_sum "Si O2"
_cell_formula_units_Z 24
_cell_length_a 23.972780
_cell_length_b 10.720532
_cell_length_c 5.150435
_cell_angle_alpha 90.000000
_cell_angle_beta 108.345793
_cell_angle_gamma 90.000000
_cell_volume 1256.390320
_symmetry_space_group_name_H-M "P 2/M"
_symmetry_group_IT_number 10
_symmetry_cell_setting 'monoclinic'
loop_
_space_group_symop_operation_xyz
x,y,z
-x,y,-z
-x,-y,-z
x,-y,z
loop_
_atom_site_type_symbol
_atom_site_label
_atom_site_fract_x
_atom_site_fract_y
_atom_site_fract_z
Si Si1 0.234193 0.143531 0.595631
Si Si2 0.566212 0.148686 0.589154
Si Si3 0.162361 0.145380 0.973875
Si Si4 0.931920 0.248021 0.827425
Si Si5 0.040943 0.500000 0.309005
Si Si6 0.959851 0.000000 0.687349
Si Si7 0.634892 0.148956 0.191163
O O1 0.210064 0.161758 0.271969
O O2 0.298957 0.204338 0.706060
O O3 0.240313 0.000000 0.683275
O O4 0.190551 0.200846 0.750747
O O5 0.500000 0.201578 0.500000
O O6 0.598811 0.200801 0.383263
O O7 0.564790 0.000000 0.586856
O O8 0.602085 0.198609 0.888491
O O9 0.106674 0.232599 0.968288
O O10 0.142020 0.000000 0.919564
O O11 0.918274 0.375441 0.647910
O O12 0.918935 0.124798 0.627894
O O13 0.000000 0.248489 0.000000
O O14 0.000000 0.500000 0.500000
O O15 0.000000 0.500000 0.000000
O O16 0.000000 0.000000 0.500000
O O17 0.000000 0.000000 0.000000
O O18 0.636742 0.000000 0.203767
#
# Coordination Sequence:
#
# PCOD8059823 Si02
#       7
#     4   4   4   4   2   2   4
#     4   9  18  29  42  59  83 112 146 184 232 274
#     4   9  15  21  32  50  71  99 140 184 222 258
#     4  10  19  31  45  66  87 111 146 190 228 277
#     4  10  21  37  53  74  96 123 151 193 242 291
#     4  10  22  38  54  72  96 124 152 182 231 298
#     4  10  20  32  50  72  94 118 148 182 229 284
#     4   9  15  24  35  48  72 105 136 178 226 264
#
# _framework density 19.102345
#
# number of rings (size 3 to 8) (size 9 to 14) (size 15 to 20)
#    0.000    2.500    0.833    2.000    0.000   11.333 
#    0.000    0.000    0.000    0.000    0.000    0.000 
#    0.000    0.000    0.000    0.000    0.000    0.000 
#
# Total GULP energy -297486.246586 kJ/mol
# GULP energy per Si atom -12395.260274 kJ/mol
# Density = 1.905887 g / cm^3
# Si number density = 19.102345 Si / 1000 Ang^3
#
#
#
# Elastic Constant Matrix: (Units=GPa)
#
#
# Indices 1 2 3 4 5 6 
#
# 1 125.9021 13.6813 16.3306 0.0000 -16.5793 0.0000
# 2 13.6813 83.2942 2.8512 0.0000 -11.5467 0.0000
# 3 16.3306 2.8512 64.3354 0.0000 -23.4133 0.0000
# 4 0.0000 0.0000 0.0000 8.6067 0.0000 -4.4125
# 5 -16.5793 -11.5467 -23.4133 0.0000 41.4245 0.0000
# 6 0.0000 0.0000 0.0000 -4.4125 0.0000 4.4813
#
#
#
# Elastic Compliance Matrix: (Units=1/GPa)
#
#
# Indices 1 2 3 4 5 6 
#
# 1 0.008534 -0.001022 -0.001236 0.000000 0.002432 0.000000
# 2 -0.001022 0.012652 0.001049 0.000000 0.003710 0.000000
# 3 -0.001236 0.001049 0.019812 0.000000 0.010996 0.000000
# 4 0.000000 0.000000 0.000000 0.234637 0.000000 0.231034
# 5 0.002432 0.003710 0.010996 0.000000 0.032363 0.000000
# 6 0.000000 0.000000 0.000000 0.231034 0.000000 0.450636
#
#
# Mechanical properties :
#
#
# Convention : Reuss Voigt Hill
#
# Bulk Modulus (GPa) = 25.91974 37.69532 31.80753
# Shear Modulus (GPa) = 6.46068 26.94708 16.70388
#
# Velocity S-wave (km/s) = 1.84105 3.75996 2.96030
# Velocity P-wave (km/s) = 4.25648 6.21498 5.32652
#
# Compressibility (1/GPa) = 0.03858064
#
# Stress axis : x y z
#
# Youngs Moduli (GPa) = 117.17346 79.03884 50.47341
#
# Poissons Ratio (x) = 0.08080 0.06238
# Poissons Ratio (y) = 0.11979 -0.05295
# Poissons Ratio (z) = 0.14481 -0.08292
#
# Static dielectric constant tensor:
#      x y z
#    x 3.598150 0.000000 0.557710 
#    y 0.000000 7.024800 0.000000 
#    z 0.557710 0.000000 -0.655770 
# 
# 
# High freq. dielectric constant tensor:
#      x y z
#    x 1.750840 0.000000 -0.011630 
#    y 0.000000 1.654440 0.000000 
#    z -0.011630 0.000000 1.756500 
# 
# From -- ./inp_files/12166.got.cif
#   From: 2010.06.25/outbox.cif.g09.slc.cpg/sg10_7_cif.got.tgz:12166.got - 2010.06.27 22:07:45.
