data_PCOD8059366
_publ_section_title
;
Structure prediction by ZEFSAII (Michael W. Deem and Ramdas Pophale) SiO2 
 PCOD8059366
Probable space group: P 2/M
;
_chemical_formula_sum "Si O2"
_cell_formula_units_Z 28
_cell_length_a 8.923743
_cell_length_b 15.377257
_cell_length_c 18.509928
_cell_angle_alpha 90.000000
_cell_angle_beta 136.127127
_cell_angle_gamma 90.000000
_cell_volume 1760.361525
_symmetry_space_group_name_H-M "P 2/M"
_symmetry_group_IT_number 10
_symmetry_cell_setting 'monoclinic'
loop_
_space_group_symop_operation_xyz
x,y,z
-x,y,-z
-x,-y,-z
x,-y,z
loop_
_atom_site_type_symbol
_atom_site_label
_atom_site_fract_x
_atom_site_fract_y
_atom_site_fract_z
Si Si1 0.333013 0.601080 0.998726
Si Si2 0.452815 0.396480 0.196556
Si Si3 0.750998 0.000000 0.876704
Si Si4 0.741612 0.601197 0.610287
Si Si5 0.881002 0.325421 0.806498
Si Si6 0.687517 0.000000 0.004958
Si Si7 0.024277 0.146473 0.092185
Si Si8 0.068966 0.602998 0.601093
O O1 0.385518 0.500000 0.022115
O O2 0.375107 0.641056 0.092407
O O3 0.500000 0.644606 0.000000
O O4 0.089365 0.614261 0.888928
O O5 0.432776 0.500000 0.194900
O O6 0.304488 0.353956 0.204410
O O7 0.695393 0.363373 0.294474
O O8 0.752858 0.912337 0.829244
O O9 0.000000 0.000000 0.000000
O O10 0.584740 0.000000 0.886661
O O11 0.500000 0.616656 0.500000
O O12 0.779646 0.500000 0.644192
O O13 0.790568 0.662714 0.694861
O O14 0.898379 0.633182 0.601403
O O15 0.946581 0.226160 0.843511
O O16 0.827495 0.089255 0.057932
O O17 0.500000 0.000000 0.000000
O O18 0.000000 0.178992 0.000000
O O19 0.070797 0.500000 0.595907
O O20 0.000000 0.643405 0.500000
#
# Coordination Sequence:
#
# PCOD8059366 Si02
#       8
#     4   4   2   4   4   2   4   4
#     4  10  20  31  40  55  86 124 155 186 227 275
#     4  10  19  29  42  61  86 119 156 191 230 276
#     4   6  12  28  44  60  86 115 139 166 209 265
#     4  10  20  33  48  66  89 121 163 208 248 282
#     4  12  20  29  46  67  90 119 154 195 234 279
#     4   8  14  28  50  70  90 119 153 184 216 265
#     4   8  16  29  44  65  93 122 145 175 219 272
#     4   9  17  31  48  62  80 113 159 205 243 277
#
# _framework density 15.905824000000001
#
# number of rings (size 3 to 8) (size 9 to 14) (size 15 to 20)
#    0.000    3.000    0.000    4.500    0.000    6.286 
#    0.000    2.857    0.000    0.000    0.000    2.000 
#    0.000    0.000    0.000   18.000    0.000    0.000 
#
# Total GULP energy -346925.510581 kJ/mol
# GULP energy per Si atom -12390.196806 kJ/mol
# Density = 1.586962 g / cm^3
# Si number density = 15.905824 Si / 1000 Ang^3
#
#
#
# Elastic Constant Matrix: (Units=GPa)
#
#
# Indices 1 2 3 4 5 6 
#
# 1 153.5011 30.1801 54.1128 0.0000 -2.3064 0.0000
# 2 30.1801 54.0988 26.2503 0.0000 -8.4777 0.0000
# 3 54.1128 26.2503 94.2982 0.0000 -8.2080 0.0000
# 4 0.0000 0.0000 0.0000 13.9481 0.0000 -3.4309
# 5 -2.3064 -8.4777 -8.2080 0.0000 31.0576 0.0000
# 6 0.0000 0.0000 0.0000 -3.4309 0.0000 1.2981
#
#
#
# Elastic Compliance Matrix: (Units=1/GPa)
#
#
# Indices 1 2 3 4 5 6 
#
# 1 0.008554 -0.002932 -0.004203 0.000000 -0.001276 0.000000
# 2 -0.002932 0.022970 -0.004283 0.000000 0.004920 0.000000
# 3 -0.004203 -0.004283 0.014412 0.000000 0.002327 0.000000
# 4 0.000000 0.000000 0.000000 0.204923 0.000000 0.541627
# 5 -0.001276 0.004920 0.002327 0.000000 0.034062 0.000000
# 6 0.000000 0.000000 0.000000 0.541627 0.000000 2.201922
#
#
# Mechanical properties :
#
#
# Convention : Reuss Voigt Hill
#
# Bulk Modulus (GPa) = 43.29467 58.10938 50.70203
# Shear Modulus (GPa) = 1.98619 22.01775 12.00197
#
# Velocity S-wave (km/s) = 1.11867 3.72460 2.74991
# Velocity P-wave (km/s) = 5.38025 7.42358 6.48292
#
# Compressibility (1/GPa) = 0.02309753
#
# Stress axis : x y z
#
# Youngs Moduli (GPa) = 116.90802 43.53511 69.38811
#
# Poissons Ratio (x) = 0.12766 0.29166
# Poissons Ratio (y) = 0.34280 0.29721
# Poissons Ratio (z) = 0.49140 0.18648
#
# Static dielectric constant tensor:
#      x y z
#    x 3.265470 0.000000 -0.125480 
#    y 0.000000 2.872690 0.000000 
#    z -0.125480 0.000000 2.326940 
# 
# 
# High freq. dielectric constant tensor:
#      x y z
#    x 1.630540 0.000000 -0.006530 
#    y 0.000000 1.571980 0.000000 
#    z -0.006530 0.000000 1.587430 
# 
# From -- ./inp_files/75399.got.cif
#   From: 2010.06.25/outbox.cif.g09.slc.cpg/sg10_38_cif.got.tgz:75399.got - 2010.06.27 22:07:45.
