data_PCOD8059030
_publ_section_title
;
Structure prediction by ZEFSAII (Michael W. Deem and Ramdas Pophale) SiO2 
 PCOD8059030
Probable space group: P 2/M
;
_chemical_formula_sum "Si O2"
_cell_formula_units_Z 32
_cell_length_a 19.851780
_cell_length_b 9.119889
_cell_length_c 14.253086
_cell_angle_alpha 90.000000
_cell_angle_beta 40.863860
_cell_angle_gamma 90.000000
_cell_volume 1688.304908
_symmetry_space_group_name_H-M "P 2/M"
_symmetry_group_IT_number 10
_symmetry_cell_setting 'monoclinic'
loop_
_space_group_symop_operation_xyz
x,y,z
-x,y,-z
-x,-y,-z
x,-y,z
loop_
_atom_site_type_symbol
_atom_site_label
_atom_site_fract_x
_atom_site_fract_y
_atom_site_fract_z
Si Si1 0.295259 0.674763 0.315207
Si Si2 0.874078 0.672078 0.853747
Si Si3 0.892262 0.672564 0.161470
Si Si4 0.221361 0.828969 0.873270
Si Si5 0.458834 0.829505 0.643003
Si Si6 0.696421 0.325987 0.903815
Si Si7 0.102511 0.327760 0.632084
Si Si8 0.506898 0.673939 0.777061
O O1 0.290881 0.500000 0.315945
O O2 0.300420 0.739275 0.204438
O O3 0.193439 0.740343 0.472803
O O4 0.395712 0.727474 0.265352
O O5 0.859276 0.500000 0.889986
O O6 0.799281 0.726100 0.849467
O O7 0.991939 0.708130 0.701325
O O8 0.851258 0.756256 0.973174
O O9 0.870722 0.500000 0.179543
O O10 0.801157 0.756127 0.203474
O O11 0.892366 0.733593 0.267492
O O12 0.000000 0.712922 0.000000
O O13 0.338298 0.797210 0.777815
O O14 0.197301 0.000000 0.892630
O O15 0.500000 0.771584 0.500000
O O16 0.516870 0.741921 0.663478
O O17 0.484933 0.000000 0.627483
O O18 0.691079 0.500000 0.904948
O O19 0.595758 0.266202 0.063484
O O20 0.119112 0.500000 0.620276
O O21 0.504404 0.500000 0.769581
#
# Coordination Sequence:
#
# PCOD8059030 Si02
#       8
#     4   4   4   4   4   4   4   4
#     4   9  18  31  49  80 113 137 170 218 269 311
#     4  10  18  33  55  78 106 139 176 216 259 309
#     4  10  19  33  53  75 106 142 172 211 258 307
#     4  11  22  35  53  77 103 137 177 218 260 311
#     4  10  23  40  54  74 108 143 172 212 267 316
#     4   9  17  30  52  79 106 137 173 219 267 310
#     4   9  18  31  48  75 110 143 173 210 260 311
#     4  10  19  33  56  82 107 136 175 220 262 310
#
# _framework density 18.953921999999999
#
# number of rings (size 3 to 8) (size 9 to 14) (size 15 to 20)
#    0.000    2.250    2.500    0.750    1.750    3.000 
#    0.000    2.500    0.000    3.000    0.000    0.875 
#    0.000    0.000    0.000    0.000    0.000    0.000 
#
# Total GULP energy -396824.615875 kJ/mol
# GULP energy per Si atom -12400.769246 kJ/mol
# Density = 1.891078 g / cm^3
# Si number density = 18.953922 Si / 1000 Ang^3
#
#
#
# Elastic Constant Matrix: (Units=GPa)
#
#
# Indices 1 2 3 4 5 6 
#
# 1 165.1452 29.1379 75.6848 0.0000 5.4997 0.0000
# 2 29.1379 26.2185 18.8402 0.0000 -1.3047 0.0000
# 3 75.6848 18.8402 136.1654 0.0000 9.1714 0.0000
# 4 0.0000 0.0000 0.0000 11.8024 0.0000 -3.0908
# 5 5.4997 -1.3047 9.1714 0.0000 33.7264 0.0000
# 6 0.0000 0.0000 0.0000 -3.0908 0.0000 10.0985
#
#
#
# Elastic Compliance Matrix: (Units=1/GPa)
#
#
# Indices 1 2 3 4 5 6 
#
# 1 0.009247 -0.007385 -0.004072 0.000000 -0.000686 0.000000
# 2 -0.007385 0.048612 -0.002882 0.000000 0.003868 0.000000
# 3 -0.004072 -0.002882 0.010155 0.000000 -0.002209 0.000000
# 4 0.000000 0.000000 0.000000 0.092111 0.000000 0.028192
# 5 -0.000686 0.003868 -0.002209 0.000000 0.030513 0.000000
# 6 0.000000 0.000000 0.000000 0.028192 0.000000 0.107653
#
#
# Mechanical properties :
#
#
# Convention : Reuss Voigt Hill
#
# Bulk Modulus (GPa) = 25.42182 63.87277 44.64730
# Shear Modulus (GPa) = 14.70240 24.71654 19.70947
#
# Velocity S-wave (km/s) = 2.78815 3.61506 3.22819
# Velocity P-wave (km/s) = 4.87920 7.15521 6.12387
#
# Compressibility (1/GPa) = 0.03933629
#
# Stress axis : x y z
#
# Youngs Moduli (GPa) = 108.14034 20.57123 98.47592
#
# Poissons Ratio (x) = 0.15192 0.40098
# Poissons Ratio (y) = 0.79863 0.28378
# Poissons Ratio (z) = 0.44033 0.05928
#
# Static dielectric constant tensor:
#      x y z
#    x 3.659650 0.000000 0.010670 
#    y 0.000000 2.964050 0.000000 
#    z 0.010670 0.000000 3.660760 
# 
# 
# High freq. dielectric constant tensor:
#      x y z
#    x 1.752050 0.000000 -0.002270 
#    y 0.000000 1.683110 0.000000 
#    z -0.002270 0.000000 1.741200 
# 
# From -- ./inp_files/69961.got.cif
#   From: 2010.06.25/outbox.cif.g09.slc.cpg/sg10_35_cif.got.tgz:69961.got - 2010.06.27 22:07:45.
