data_PCOD8059921
_publ_section_title
;
Structure prediction by ZEFSAII (Michael W. Deem and Ramdas Pophale) SiO2 
 PCOD8059921
Probable space group: P 2/M
;
_chemical_formula_sum "Si O2"
_cell_formula_units_Z 28
_cell_length_a 20.572318
_cell_length_b 13.512699
_cell_length_c 8.222574
_cell_angle_alpha 90.000000
_cell_angle_beta 136.792060
_cell_angle_gamma 90.000000
_cell_volume 1564.950272
_symmetry_space_group_name_H-M "P 2/M"
_symmetry_group_IT_number 10
_symmetry_cell_setting 'monoclinic'
loop_
_space_group_symop_operation_xyz
x,y,z
-x,y,-z
-x,-y,-z
x,-y,z
loop_
_atom_site_type_symbol
_atom_site_label
_atom_site_fract_x
_atom_site_fract_y
_atom_site_fract_z
Si Si1 0.904475 0.885409 0.495395
Si Si2 0.109946 0.798919 0.853851
Si Si3 0.403511 0.616961 0.753346
Si Si4 0.598235 0.617182 0.610882
Si Si5 0.201603 0.386510 0.891750
Si Si6 0.794575 0.612707 0.475552
Si Si7 0.887952 0.793235 0.787489
O O1 0.846313 0.860298 0.221525
O O2 0.848554 0.857767 0.561083
O O3 0.997445 0.816932 0.656535
O O4 0.932523 0.000000 0.548823
O O5 0.130731 0.682387 0.865603
O O6 0.153042 0.829379 0.110670
O O7 0.416064 0.500000 0.769017
O O8 0.385517 0.659140 0.540385
O O9 0.314994 0.646277 0.705086
O O10 0.500000 0.664905 0.000000
O O11 0.500000 0.663505 0.500000
O O12 0.588297 0.500000 0.591963
O O13 0.689165 0.647976 0.884021
O O14 0.187512 0.500000 0.923975
O O15 0.175424 0.374154 0.655783
O O16 0.807418 0.500000 0.558326
O O17 0.861018 0.679075 0.710592
O O18 0.000000 0.805406 0.000000
#
# Coordination Sequence:
#
# PCOD8059921 Si02
#       7
#     4   4   4   4   4   4   4
#     4  10  21  38  56  75  98 122 158 211 268 310
#     4  10  19  33  53  74  98 129 164 203 251 299
#     4   9  16  26  42  64  91 128 170 207 244 283
#     4   9  16  26  41  64  93 130 172 205 239 283
#     4  10  19  31  48  69 101 141 173 206 244 286
#     4  10  19  32  47  67 101 141 174 206 245 288
#     4  10  21  34  52  74 100 131 166 209 249 301
#
# _framework density 17.891942
#
# number of rings (size 3 to 8) (size 9 to 14) (size 15 to 20)
#    0.000    2.286    1.429    2.571    0.000    8.571 
#    0.000    3.571    0.000    0.000    0.000    0.000 
#    0.000    2.857    1.714    0.000    0.000    0.000 
#
# Total GULP energy -346912.664094 kJ/mol
# GULP energy per Si atom -12389.738003 kJ/mol
# Density = 1.785122 g / cm^3
# Si number density = 17.891942 Si / 1000 Ang^3
#
#
#
# Elastic Constant Matrix: (Units=GPa)
#
#
# Indices 1 2 3 4 5 6 
#
# 1 81.6250 41.3556 31.5670 0.0000 -30.2139 0.0000
# 2 41.3556 68.3072 29.6494 0.0000 -6.6283 0.0000
# 3 31.5670 29.6494 70.9458 0.0000 -33.8033 0.0000
# 4 0.0000 0.0000 0.0000 9.1749 0.0000 -6.8664
# 5 -30.2139 -6.6283 -33.8033 0.0000 37.8796 0.0000
# 6 0.0000 0.0000 0.0000 -6.8664 0.0000 9.4893
#
#
#
# Elastic Compliance Matrix: (Units=1/GPa)
#
#
# Indices 1 2 3 4 5 6 
#
# 1 0.027698 -0.017340 0.006965 0.000000 0.025274 0.000000
# 2 -0.017340 0.029605 -0.015273 0.000000 -0.022280 0.000000
# 3 0.006965 -0.015273 0.032624 0.000000 0.031996 0.000000
# 4 0.000000 0.000000 0.000000 0.237734 0.000000 0.172023
# 5 0.025274 -0.022280 0.031996 0.000000 0.071213 0.000000
# 6 0.000000 0.000000 0.000000 0.172023 0.000000 0.229857
#
#
# Mechanical properties :
#
#
# Convention : Reuss Voigt Hill
#
# Bulk Modulus (GPa) = 25.88548 47.33577 36.61063
# Shear Modulus (GPa) = 7.21599 19.19584 13.20591
#
# Velocity S-wave (km/s) = 2.01043 3.27903 2.71973
# Velocity P-wave (km/s) = 4.45962 6.39140 5.51082
#
# Compressibility (1/GPa) = 0.03863169
#
# Stress axis : x y z
#
# Youngs Moduli (GPa) = 36.10308 33.77760 30.65212
#
# Poissons Ratio (x) = 0.58571 -0.21348
# Poissons Ratio (y) = 0.62603 0.46814
# Poissons Ratio (z) = -0.25145 0.51588
#
# Static dielectric constant tensor:
#      x y z
#    x 3.648290 0.000000 -0.552450 
#    y 0.000000 2.937270 0.000000 
#    z -0.552450 0.000000 3.670350 
# 
# 
# High freq. dielectric constant tensor:
#      x y z
#    x 1.690530 0.000000 -0.035310 
#    y 0.000000 1.637410 0.000000 
#    z -0.035310 0.000000 1.690470 
# 
# From -- ./inp_files/34672.got.cif
#   From: 2010.06.25/outbox.cif.g09.slc.cpg/sg10_18_cif.got.tgz:34672.got - 2010.06.27 22:07:45.
