data_PCOD8059460
_publ_section_title
;
Structure prediction by ZEFSAII (Michael W. Deem and Ramdas Pophale) SiO2 
 PCOD8059460
Probable space group: P 2/M
;
_chemical_formula_sum "Si O2"
_cell_formula_units_Z 32
_cell_length_a 9.258740
_cell_length_b 20.419231
_cell_length_c 15.622142
_cell_angle_alpha 90.000000
_cell_angle_beta 36.079436
_cell_angle_gamma 90.000000
_cell_volume 1739.314310
_symmetry_space_group_name_H-M "P 2/M"
_symmetry_group_IT_number 10
_symmetry_cell_setting 'monoclinic'
loop_
_space_group_symop_operation_xyz
x,y,z
-x,y,-z
-x,-y,-z
x,-y,z
loop_
_atom_site_type_symbol
_atom_site_label
_atom_site_fract_x
_atom_site_fract_y
_atom_site_fract_z
Si Si1 0.717462 0.925534 0.336418
Si Si2 0.387310 0.305132 0.830386
Si Si3 0.102643 0.427800 0.175248
Si Si4 0.459657 0.819650 0.157636
Si Si5 0.073307 0.304767 0.822351
Si Si6 0.720696 0.074556 0.140060
Si Si7 0.103468 0.182457 0.182969
Si Si8 0.566269 0.427571 0.829655
O O1 0.500000 0.897922 0.500000
O O2 0.628740 0.921314 0.281244
O O3 0.961950 0.884178 0.232031
O O4 0.782434 0.000000 0.330776
O O5 0.551415 0.241918 0.772997
O O6 0.313786 0.299322 0.766137
O O7 0.543232 0.371891 0.768171
O O8 0.157249 0.304896 0.004025
O O9 0.979604 0.500000 0.228331
O O10 0.192224 0.413841 0.229108
O O11 0.910380 0.372350 0.238932
O O12 0.333767 0.425033 0.002410
O O13 0.524385 0.885311 0.178732
O O14 0.194948 0.821808 0.237674
O O15 0.664497 0.810318 0.988485
O O16 0.066477 0.245458 0.756796
O O17 0.721688 0.000000 0.105096
O O18 0.000000 0.103229 0.000000
O O19 0.583137 0.500000 0.778737
#
# Coordination Sequence:
#
# PCOD8059460 Si02
#       8
#     4   4   4   4   4   4   4   4
#     4  10  21  37  55  74 100 132 162 196 243 297
#     4   9  16  23  35  57  83 117 154 197 244 284
#     4   8  13  21  32  47  73 112 153 194 238 284
#     4  10  19  29  48  72  98 124 159 206 246 288
#     4   9  16  24  37  56  84 116 155 199 239 288
#     4  10  19  33  53  75  98 125 160 199 239 287
#     4  10  19  31  47  71  97 126 161 202 246 290
#     4   8  13  21  31  45  73 114 157 193 232 286
#
# _framework density 18.398054999999999
#
# number of rings (size 3 to 8) (size 9 to 14) (size 15 to 20)
#    0.000    2.750    1.250    2.250    1.750    4.000 
#    0.000    4.375    0.000    2.250    0.000    0.000 
#    0.000    0.500    0.000    0.250    0.000   23.375 
#
# Total GULP energy -396626.203262 kJ/mol
# GULP energy per Si atom -12394.568852 kJ/mol
# Density = 1.835618 g / cm^3
# Si number density = 18.398055 Si / 1000 Ang^3
#
#
#
# Elastic Constant Matrix: (Units=GPa)
#
#
# Indices 1 2 3 4 5 6 
#
# 1 153.8281 88.1165 5.9233 0.0000 5.7257 0.0000
# 2 88.1165 137.8318 4.3162 0.0000 0.9303 0.0000
# 3 5.9233 4.3162 19.2436 0.0000 7.3796 0.0000
# 4 0.0000 0.0000 0.0000 2.6904 0.0000 6.3070
# 5 5.7257 0.9303 7.3796 0.0000 8.6261 0.0000
# 6 0.0000 0.0000 0.0000 6.3070 0.0000 36.0334
#
#
#
# Elastic Compliance Matrix: (Units=1/GPa)
#
#
# Indices 1 2 3 4 5 6 
#
# 1 0.010601 -0.006761 0.001000 0.000000 -0.007163 0.000000
# 2 -0.006761 0.011623 -0.002628 0.000000 0.005483 0.000000
# 3 0.001000 -0.002628 0.077974 0.000000 -0.067087 0.000000
# 4 0.000000 0.000000 0.000000 0.630317 0.000000 -0.110327
# 5 -0.007163 0.005483 -0.067087 0.000000 0.177483 0.000000
# 6 0.000000 0.000000 0.000000 -0.110327 0.000000 0.047063
#
#
# Mechanical properties :
#
#
# Convention : Reuss Voigt Hill
#
# Bulk Modulus (GPa) = 11.98748 56.40172 34.19460
# Shear Modulus (GPa) = 5.00177 23.63982 14.32080
#
# Velocity S-wave (km/s) = 1.65062 3.58845 2.79298
# Velocity P-wave (km/s) = 3.18787 6.92042 5.38770
#
# Compressibility (1/GPa) = 0.08342035
#
# Stress axis : x y z
#
# Youngs Moduli (GPa) = 94.32628 86.03940 12.82484
#
# Poissons Ratio (x) = 0.58167 -0.01283
# Poissons Ratio (y) = 0.63770 0.03371
# Poissons Ratio (z) = -0.09435 0.22615
#
# Static dielectric constant tensor:
#      x y z
#    x 3.602660 0.000000 0.113830 
#    y 0.000000 3.658880 0.000000 
#    z 0.113830 0.000000 2.694800 
# 
# 
# High freq. dielectric constant tensor:
#      x y z
#    x 1.717620 0.000000 0.011420 
#    y 0.000000 1.729990 0.000000 
#    z 0.011420 0.000000 1.628570 
# 
# From -- ./inp_files/62490.got.cif
#   From: 2010.06.25/outbox.cif.g09.slc.cpg/sg10_32_cif.got.tgz:62490.got - 2010.06.27 22:07:45.
