data_PCOD8059812
_publ_section_title
;
Structure prediction by ZEFSAII (Michael W. Deem and Ramdas Pophale) SiO2 
 PCOD8059812
Probable space group: P 2/M
;
_chemical_formula_sum "Si O2"
_cell_formula_units_Z 32
_cell_length_a 26.366283
_cell_length_b 14.076351
_cell_length_c 9.470565
_cell_angle_alpha 90.000000
_cell_angle_beta 30.226773
_cell_angle_gamma 90.000000
_cell_volume 1769.491921
_symmetry_space_group_name_H-M "P 2/M"
_symmetry_group_IT_number 10
_symmetry_cell_setting 'monoclinic'
loop_
_space_group_symop_operation_xyz
x,y,z
-x,y,-z
-x,-y,-z
x,-y,z
loop_
_atom_site_type_symbol
_atom_site_label
_atom_site_fract_x
_atom_site_fract_y
_atom_site_fract_z
Si Si1 0.754921 0.767983 0.446433
Si Si2 0.596366 0.392628 0.174897
Si Si3 0.600262 0.391312 0.834911
Si Si4 0.402320 0.102217 0.325188
Si Si5 0.472056 0.889120 0.725928
Si Si6 0.900854 0.890645 0.923913
Si Si7 0.867881 0.106657 0.681204
Si Si8 0.274510 0.223524 0.172653
O O1 0.702070 0.665338 0.543590
O O2 0.672597 0.841433 0.591911
O O3 0.787652 0.766697 0.532260
O O4 0.855363 0.803071 0.124109
O O5 0.500000 0.361707 0.500000
O O6 0.628192 0.500000 0.137425
O O7 0.573418 0.381899 0.064388
O O8 0.690052 0.323172 0.981970
O O9 0.620160 0.500000 0.742546
O O10 0.500000 0.350525 0.000000
O O11 0.437724 0.149405 0.389425
O O12 0.351026 0.000000 0.482108
O O13 0.500000 0.085114 0.000000
O O14 0.500000 0.866509 0.500000
O O15 0.454836 0.000000 0.797295
O O16 0.369261 0.835265 0.002873
O O17 0.852716 0.882209 0.884691
O O18 0.018991 0.868546 0.635248
O O19 0.883669 0.000000 0.021877
O O20 0.790311 0.174775 0.791109
O O21 0.841377 0.000000 0.698109
#
# Coordination Sequence:
#
# PCOD8059812 Si02
#       8
#     4   4   4   4   4   4   4   4
#     4  11  21  31  52  76 100 133 174 209 252 308
#     4   9  19  35  53  75 105 138 172 211 255 304
#     4   9  19  34  52  75 105 138 172 213 255 298
#     4  10  19  31  44  65 102 137 164 200 245 299
#     4  10  21  32  43  67 102 135 168 204 245 296
#     4   9  20  38  56  76 101 134 172 212 260 309
#     4   9  20  38  56  75 103 133 169 216 260 305
#     4  11  21  32  51  77 102 132 171 214 254 300
#
# _framework density 18.084287
#
# number of rings (size 3 to 8) (size 9 to 14) (size 15 to 20)
#    0.000    2.250    1.250    2.250    3.500    3.000 
#    0.000    1.250    0.000    0.750    0.000    5.250 
#    0.000    0.000    0.000    0.000    0.000    0.000 
#
# Total GULP energy -396449.386634 kJ/mol
# GULP energy per Si atom -12389.043332 kJ/mol
# Density = 1.804313 g / cm^3
# Si number density = 18.084287 Si / 1000 Ang^3
#
#
#
# Elastic Constant Matrix: (Units=GPa)
#
#
# Indices 1 2 3 4 5 6 
#
# 1 80.0558 38.8031 14.8681 0.0000 1.1086 0.0000
# 2 38.8031 88.5554 43.4052 0.0000 0.6627 0.0000
# 3 14.8681 43.4052 76.2062 0.0000 12.7174 0.0000
# 4 0.0000 0.0000 0.0000 30.5459 0.0000 -6.5868
# 5 1.1086 0.6627 12.7174 0.0000 20.4429 0.0000
# 6 0.0000 0.0000 0.0000 -6.5868 0.0000 51.9077
#
#
#
# Elastic Compliance Matrix: (Units=1/GPa)
#
#
# Indices 1 2 3 4 5 6 
#
# 1 0.015983 -0.007759 0.001566 0.000000 -0.001590 0.000000
# 2 -0.007759 0.020035 -0.011002 0.000000 0.006615 0.000000
# 3 0.001566 -0.011002 0.021243 0.000000 -0.012944 0.000000
# 4 0.000000 0.000000 0.000000 0.033659 0.000000 0.004271
# 5 -0.001590 0.006615 -0.012944 0.000000 0.056841 0.000000
# 6 0.000000 0.000000 0.000000 0.004271 0.000000 0.019807
#
#
# Mechanical properties :
#
#
# Convention : Reuss Voigt Hill
#
# Bulk Modulus (GPa) = 43.72102 48.77446 46.24774
# Shear Modulus (GPa) = 23.85706 30.42870 27.14288
#
# Velocity S-wave (km/s) = 3.63604 4.10641 3.87836
# Velocity P-wave (km/s) = 6.46966 7.03652 6.75903
#
# Compressibility (1/GPa) = 0.02287229
#
# Stress axis : x y z
#
# Youngs Moduli (GPa) = 62.56491 49.91172 47.07425
#
# Poissons Ratio (x) = 0.38729 -0.07374
# Poissons Ratio (y) = 0.48547 0.51790
# Poissons Ratio (z) = -0.09801 0.54912
#
# Static dielectric constant tensor:
#      x y z
#    x 2.149140 0.000000 1.091850 
#    y 0.000000 3.494470 0.000000 
#    z 1.091850 0.000000 2.643650 
# 
# 
# High freq. dielectric constant tensor:
#      x y z
#    x 1.700010 0.000000 0.014890 
#    y 0.000000 1.692020 0.000000 
#    z 0.014890 0.000000 1.685770 
# 
# From -- ./inp_files/37716.got.cif
#   From: 2010.06.25/outbox.cif.g09.slc.cpg/sg10_19_cif.got.tgz:37716.got - 2010.06.27 22:07:45.
