data_PCOD8059398
_publ_section_title
;
Structure prediction by ZEFSAII (Michael W. Deem and Ramdas Pophale) SiO2 
 PCOD8059398
Probable space group: P 2/M
;
_chemical_formula_sum "Si O2"
_cell_formula_units_Z 28
_cell_length_a 21.853904
_cell_length_b 12.609611
_cell_length_c 5.246078
_cell_angle_alpha 90.000000
_cell_angle_beta 82.410764
_cell_angle_gamma 90.000000
_cell_volume 1432.994239
_symmetry_space_group_name_H-M "P 2/M"
_symmetry_group_IT_number 10
_symmetry_cell_setting 'monoclinic'
loop_
_space_group_symop_operation_xyz
x,y,z
-x,y,-z
-x,-y,-z
x,-y,z
loop_
_atom_site_type_symbol
_atom_site_label
_atom_site_fract_x
_atom_site_fract_y
_atom_site_fract_z
Si Si1 0.569039 0.729987 0.490878
Si Si2 0.729828 0.231775 0.889766
Si Si3 0.613813 0.375848 0.967323
Si Si4 0.315411 0.124751 0.586364
Si Si5 0.020565 0.181731 0.238723
Si Si6 0.929023 0.617204 0.288986
Si Si7 0.132451 0.689296 0.177213
O O1 0.500000 0.775521 0.500000
O O2 0.582110 0.648027 0.255111
O O3 0.615612 0.828454 0.451098
O O4 0.573588 0.671130 0.758906
O O5 0.723270 0.165497 0.633912
O O6 0.796284 0.284042 0.865022
O O7 0.682191 0.328316 0.922315
O O8 0.720364 0.155259 0.136427
O O9 0.619594 0.500000 0.925927
O O10 0.322102 0.000000 0.565437
O O11 0.093582 0.200284 0.198620
O O12 0.000000 0.116373 0.500000
O O13 0.983904 0.296036 0.259072
O O14 0.000000 0.116436 0.000000
O O15 0.959660 0.500000 0.273041
O O16 0.884636 0.626039 0.558312
O O17 0.885080 0.625538 0.066925
#
# Coordination Sequence:
#
# PCOD8059398 Si02
#       7
#     4   4   4   4   4   4   4
#     4  10  21  36  56  82 107 135 175 215 253 307
#     4  10  21  37  54  78 108 137 178 216 253 313
#     4  10  21  35  51  75 111 150 181 212 246 286
#     4  10  21  39  61  81 105 132 161 215 278 319
#     4   8  16  27  41  61  91 126 170 212 257 298
#     4  10  19  29  43  67 100 137 180 222 256 295
#     4  10  19  31  46  66  97 135 172 212 256 299
#
# _framework density 19.539505999999999
#
# number of rings (size 3 to 8) (size 9 to 14) (size 15 to 20)
#    0.000    2.286    0.000    2.571    0.000    8.286 
#    0.000    0.000    0.000    5.143    0.000    0.000 
#    0.000  102.857    0.000    0.000    0.000    0.000 
#
# Total GULP energy -347095.603384 kJ/mol
# GULP energy per Si atom -12396.271549 kJ/mol
# Density = 1.949503 g / cm^3
# Si number density = 19.539506 Si / 1000 Ang^3
#
#
#
# Elastic Constant Matrix: (Units=GPa)
#
#
# Indices 1 2 3 4 5 6 
#
# 1 115.2302 18.0671 37.8786 0.0000 -1.1464 0.0000
# 2 18.0671 51.6142 -8.5480 0.0000 1.3089 0.0000
# 3 37.8786 -8.5480 120.9968 0.0000 28.5051 0.0000
# 4 0.0000 0.0000 0.0000 12.9284 0.0000 -0.1854
# 5 -1.1464 1.3089 28.5051 0.0000 29.2526 0.0000
# 6 0.0000 0.0000 0.0000 -0.1854 0.0000 9.7650
#
#
#
# Elastic Compliance Matrix: (Units=1/GPa)
#
#
# Indices 1 2 3 4 5 6 
#
# 1 0.011224 -0.004938 -0.005216 0.000000 0.005743 0.000000
# 2 -0.004938 0.021967 0.004381 0.000000 -0.005445 0.000000
# 3 -0.005216 0.004381 0.013371 0.000000 -0.013430 0.000000
# 4 0.000000 0.000000 0.000000 0.077370 0.000000 0.001469
# 5 0.005743 -0.005445 -0.013430 0.000000 0.047740 0.000000
# 6 0.000000 0.000000 0.000000 0.001469 0.000000 0.102434
#
#
# Mechanical properties :
#
#
# Convention : Reuss Voigt Hill
#
# Bulk Modulus (GPa) = 28.55929 42.51516 35.53723
# Shear Modulus (GPa) = 16.81667 26.41878 21.61773
#
# Velocity S-wave (km/s) = 2.93687 3.68104 3.32981
# Velocity P-wave (km/s) = 5.11353 6.31447 5.74546
#
# Compressibility (1/GPa) = 0.03501488
#
# Stress axis : x y z
#
# Youngs Moduli (GPa) = 89.09301 45.52338 74.79003
#
# Poissons Ratio (x) = 0.22481 0.39008
# Poissons Ratio (y) = 0.43997 -0.32763
# Poissons Ratio (z) = 0.46468 -0.19942
#
# Static dielectric constant tensor:
#      x y z
#    x 3.559370 0.000000 0.388650 
#    y 0.000000 3.109260 0.000000 
#    z 0.388650 0.000000 4.878910 
# 
# 
# High freq. dielectric constant tensor:
#      x y z
#    x 1.760550 0.000000 0.012480 
#    y 0.000000 1.725250 0.000000 
#    z 0.012480 0.000000 1.796100 
# 
# From -- ./inp_files/12387.got.cif
#   From: 2010.06.25/outbox.cif.g09.slc.cpg/sg10_7_cif.got.tgz:12387.got - 2010.06.27 22:07:45.
