data_PCOD8059650
_publ_section_title
;
Structure prediction by ZEFSAII (Michael W. Deem and Ramdas Pophale) SiO2 
 PCOD8059650
Probable space group: P 2/M
;
_chemical_formula_sum "Si O2"
_cell_formula_units_Z 24
_cell_length_a 12.591256
_cell_length_b 9.213880
_cell_length_c 28.151867
_cell_angle_alpha 90.000000
_cell_angle_beta 26.567033
_cell_angle_gamma 90.000000
_cell_volume 1460.709481
_symmetry_space_group_name_H-M "P 2/M"
_symmetry_group_IT_number 10
_symmetry_cell_setting 'monoclinic'
loop_
_space_group_symop_operation_xyz
x,y,z
-x,y,-z
-x,-y,-z
x,-y,z
loop_
_atom_site_type_symbol
_atom_site_label
_atom_site_fract_x
_atom_site_fract_y
_atom_site_fract_z
Si Si1 0.261242 0.659717 0.374207
Si Si2 0.428001 0.170668 0.392307
Si Si3 0.997563 0.670232 0.611909
Si Si4 0.945418 0.170232 0.221247
Si Si5 0.393846 0.840281 0.990186
Si Si6 0.817993 0.670661 0.787248
O O1 0.380970 0.500000 0.328620
O O2 0.417701 0.771446 0.342146
O O3 0.000000 0.651884 0.500000
O O4 0.224192 0.710411 0.334296
O O5 0.232702 0.241852 0.504338
O O6 0.681581 0.213610 0.312132
O O7 0.386110 0.000000 0.407778
O O8 0.056625 0.500000 0.583305
O O9 0.924598 0.713552 0.693897
O O10 0.012709 0.258126 0.241383
O O11 0.970176 0.000000 0.223163
O O12 0.120210 0.210424 0.107006
O O13 0.546631 0.728558 0.897802
O O14 0.405505 0.000000 0.961575
O O15 0.500000 0.848140 0.000000
O O16 0.811487 0.500000 0.798243
#
# Coordination Sequence:
#
# PCOD8059650 Si02
#       6
#     4   4   4   4   4   4
#     4   8  15  30  48  63  86 120 151 181 224 269
#     4  10  19  30  47  70  92 116 152 190 218 259
#     4   9  19  33  46  65  95 124 146 179 229 271
#     4   9  19  33  46  65  95 124 146 179 229 271
#     4   8  15  30  48  63  86 120 151 181 224 269
#     4  10  19  30  47  70  92 116 152 190 218 259
#
# _framework density 16.430371000000001
#
# number of rings (size 3 to 8) (size 9 to 14) (size 15 to 20)
#    0.000    3.000    0.000    3.000    0.000    9.333 
#    0.000    3.333    0.000    1.000    0.000    7.000 
#    0.000    0.000    0.000    0.000    0.000    0.000 
#
# Total GULP energy -297453.157031 kJ/mol
# GULP energy per Si atom -12393.881543 kJ/mol
# Density = 1.639297 g / cm^3
# Si number density = 16.430371 Si / 1000 Ang^3
#
#
#
# Elastic Constant Matrix: (Units=GPa)
#
#
# Indices 1 2 3 4 5 6 
#
# 1 106.7406 61.9613 70.6378 0.0000 2.0053 0.0000
# 2 61.9613 82.9157 61.9562 0.0000 -0.1196 0.0000
# 3 70.6378 61.9562 106.6961 0.0000 -2.3951 0.0000
# 4 0.0000 0.0000 0.0000 15.5930 0.0000 0.0044
# 5 2.0053 -0.1196 -2.3951 0.0000 1.0790 0.0000
# 6 0.0000 0.0000 0.0000 0.0044 0.0000 15.6100
#
#
#
# Elastic Compliance Matrix: (Units=1/GPa)
#
#
# Indices 1 2 3 4 5 6 
#
# 1 0.024153 -0.008781 -0.012547 0.000000 -0.073712 0.000000
# 2 -0.008781 0.025236 -0.008853 0.000000 -0.000537 0.000000
# 3 -0.012547 -0.008853 0.024544 0.000000 0.076819 0.000000
# 4 0.000000 0.000000 0.000000 0.064131 0.000000 -0.000018
# 5 -0.073712 -0.000537 0.076819 0.000000 1.234257 0.000000
# 6 0.000000 0.000000 0.000000 -0.000018 0.000000 0.064061
#
#
# Mechanical properties :
#
#
# Convention : Reuss Voigt Hill
#
# Bulk Modulus (GPa) = 73.67467 76.16258 74.91863
# Shear Modulus (GPa) = 3.33052 13.24287 8.28670
#
# Velocity S-wave (km/s) = 1.42529 2.84209 2.24822
# Velocity P-wave (km/s) = 6.90264 7.56475 7.24127
#
# Compressibility (1/GPa) = 0.01357319
#
# Stress axis : x y z
#
# Youngs Moduli (GPa) = 41.40243 39.62518 40.74296
#
# Poissons Ratio (x) = 0.34793 0.51118
# Poissons Ratio (y) = 0.36353 0.36071
# Poissons Ratio (z) = 0.51946 0.35081
#
# Static dielectric constant tensor:
#      x y z
#    x 3.259030 0.000000 -0.000400 
#    y 0.000000 3.143680 0.000000 
#    z -0.000400 0.000000 3.258620 
# 
# 
# High freq. dielectric constant tensor:
#      x y z
#    x 1.617600 0.000000 -0.000030 
#    y 0.000000 1.636490 0.000000 
#    z -0.000030 0.000000 1.617570 
# 
# From -- ./inp_files/52615.got.cif
#   From: 2010.06.25/outbox.cif.g09.slc.cpg/sg10_27_cif.got.tgz:52615.got - 2010.06.27 22:07:45.
