data_PCOD8059613
_publ_section_title
;
Structure prediction by ZEFSAII (Michael W. Deem and Ramdas Pophale) SiO2 
 PCOD8059613
Probable space group: P 2/M
;
_chemical_formula_sum "Si O2"
_cell_formula_units_Z 32
_cell_length_a 24.787987
_cell_length_b 9.640794
_cell_length_c 10.251688
_cell_angle_alpha 90.000000
_cell_angle_beta 48.535455
_cell_angle_gamma 90.000000
_cell_volume 1835.875399
_symmetry_space_group_name_H-M "P 2/M"
_symmetry_group_IT_number 10
_symmetry_cell_setting 'monoclinic'
loop_
_space_group_symop_operation_xyz
x,y,z
-x,y,-z
-x,-y,-z
x,-y,z
loop_
_atom_site_type_symbol
_atom_site_label
_atom_site_fract_x
_atom_site_fract_y
_atom_site_fract_z
Si Si1 0.949564 0.343591 0.771846
Si Si2 0.106444 0.343281 0.421315
Si Si3 0.661730 0.833456 0.364226
Si Si4 0.762353 0.835741 0.702180
Si Si5 0.507419 0.849306 0.641314
Si Si6 0.225839 0.836814 0.607644
Si Si7 0.352950 0.834053 0.904835
Si Si8 0.926703 0.163661 0.049329
O O1 0.944223 0.500000 0.835338
O O2 0.901472 0.328745 0.720631
O O3 0.917830 0.235686 0.924714
O O4 0.031924 0.306186 0.610415
O O5 0.130476 0.500000 0.418234
O O6 0.163054 0.232381 0.378898
O O7 0.584487 0.773742 0.542420
O O8 0.724181 0.771994 0.357869
O O9 0.674905 0.783898 0.193453
O O10 0.658729 0.000000 0.372240
O O11 0.744244 0.792669 0.582172
O O12 0.772134 0.000000 0.700067
O O13 0.700027 0.779139 0.897606
O O14 0.500000 0.871343 0.500000
O O15 0.433632 0.772783 0.806722
O O16 0.510438 0.000000 0.705530
O O17 0.229831 0.000000 0.617549
O O18 0.142535 0.790128 0.754694
O O19 0.357299 0.000000 0.898986
O O20 0.929103 0.000000 0.022295
O O21 0.000000 0.216274 0.000000
#
# Coordination Sequence:
#
# PCOD8059613 Si02
#       8
#     4   4   4   4   4   4   4   4
#     4   9  19  35  52  69  88 116 157 198 234 275
#     4   9  19  35  51  67  92 121 149 191 241 280
#     4   8  13  23  39  58  87 126 155 183 231 277
#     4  10  19  30  46  69  96 123 154 190 228 273
#     4   7  10  19  35  56  85 120 153 184 222 271
#     4   9  18  29  40  61  96 127 152 189 237 276
#     4   8  14  23  39  64  90 118 156 191 222 271
#     4  10  20  32  47  67  95 127 158 191 232 279
#
# _framework density 17.430378000000001
#
# number of rings (size 3 to 8) (size 9 to 14) (size 15 to 20)
#    0.000    3.250    0.000    3.000    1.750    2.250 
#    0.000    2.500    0.000    3.750    0.000    0.000 
#    0.000    7.500    0.000    0.000    0.000    0.000 
#
# Total GULP energy -396456.271392 kJ/mol
# GULP energy per Si atom -12389.258481 kJ/mol
# Density = 1.739071 g / cm^3
# Si number density = 17.430378 Si / 1000 Ang^3
#
#
#
# Elastic Constant Matrix: (Units=GPa)
#
#
# Indices 1 2 3 4 5 6 
#
# 1 114.1029 12.5399 65.5567 0.0000 -10.7204 0.0000
# 2 12.5399 17.7157 17.9940 0.0000 2.1574 0.0000
# 3 65.5567 17.9940 114.9617 0.0000 5.1804 0.0000
# 4 0.0000 0.0000 0.0000 12.5057 0.0000 3.6471
# 5 -10.7204 2.1574 5.1804 0.0000 20.6637 0.0000
# 6 0.0000 0.0000 0.0000 3.6471 0.0000 9.7489
#
#
#
# Elastic Compliance Matrix: (Units=1/GPa)
#
#
# Indices 1 2 3 4 5 6 
#
# 1 0.014951 -0.003210 -0.008484 0.000000 0.010219 0.000000
# 2 -0.003210 0.068209 -0.008546 0.000000 -0.006644 0.000000
# 3 -0.008484 -0.008546 0.015204 0.000000 -0.007321 0.000000
# 4 0.000000 0.000000 0.000000 0.089757 0.000000 -0.033579
# 5 0.010219 -0.006644 -0.007321 0.000000 0.056225 0.000000
# 6 0.000000 0.000000 0.000000 -0.033579 0.000000 0.115138
#
#
# Mechanical properties :
#
#
# Convention : Reuss Voigt Hill
#
# Bulk Modulus (GPa) = 17.27604 48.77351 33.02477
# Shear Modulus (GPa) = 11.92578 18.62961 15.27770
#
# Velocity S-wave (km/s) = 2.61855 3.27280 2.96378
# Velocity P-wave (km/s) = 4.36754 6.50571 5.54074
#
# Compressibility (1/GPa) = 0.05788363
#
# Stress axis : x y z
#
# Youngs Moduli (GPa) = 66.88361 14.66080 65.77186
#
# Poissons Ratio (x) = 0.04707 0.55801
# Poissons Ratio (y) = 0.21472 0.56209
# Poissons Ratio (z) = 0.56744 0.12529
#
# Static dielectric constant tensor:
#      x y z
#    x 3.445230 0.000000 -0.187370 
#    y 0.000000 2.666320 0.000000 
#    z -0.187370 0.000000 3.476470 
# 
# 
# High freq. dielectric constant tensor:
#      x y z
#    x 1.674050 0.000000 -0.010280 
#    y 0.000000 1.608000 0.000000 
#    z -0.010280 0.000000 1.677240 
# 
# From -- ./inp_files/36020.got.cif
#   From: 2010.06.25/outbox.cif.g09.slc.cpg/sg10_19_cif.got.tgz:36020.got - 2010.06.27 22:07:45.
