data_PCOD8059289
_publ_section_title
;
Structure prediction by ZEFSAII (Michael W. Deem and Ramdas Pophale) SiO2 
 PCOD8059289
Probable space group: P 2/M
;
_chemical_formula_sum "Si O2"
_cell_formula_units_Z 32
_cell_length_a 22.289298
_cell_length_b 9.718188
_cell_length_c 15.995023
_cell_angle_alpha 90.000000
_cell_angle_beta 147.979069
_cell_angle_gamma 90.000000
_cell_volume 1837.088423
_symmetry_space_group_name_H-M "P 2/M"
_symmetry_group_IT_number 10
_symmetry_cell_setting 'monoclinic'
loop_
_space_group_symop_operation_xyz
x,y,z
-x,y,-z
-x,-y,-z
x,-y,z
loop_
_atom_site_type_symbol
_atom_site_label
_atom_site_fract_x
_atom_site_fract_y
_atom_site_fract_z
Si Si1 0.764227 0.654303 0.232396
Si Si2 0.269505 0.654645 0.998395
Si Si3 0.432602 0.851897 0.001207
Si Si4 0.516422 0.656832 0.234279
Si Si5 0.093357 0.655784 0.441891
Si Si6 0.950766 0.158311 0.854067
Si Si7 0.909963 0.160117 0.144711
Si Si8 0.769837 0.655805 0.558990
O O1 0.715782 0.500000 0.189809
O O2 0.787108 0.673384 0.160553
O O3 0.676240 0.768296 0.156311
O O4 0.871543 0.676597 0.419714
O O5 0.246339 0.500000 0.003591
O O6 0.211819 0.765508 0.991510
O O7 0.405036 0.683586 0.159679
O O8 0.399642 0.000000 0.004404
O O9 0.500000 0.889479 0.000000
O O10 0.512681 0.761943 0.154169
O O11 0.511705 0.500000 0.194992
O O12 0.636903 0.683553 0.420901
O O13 0.046671 0.500000 0.374516
O O14 0.197766 0.681205 0.500521
O O15 0.995571 0.765391 0.309221
O O16 0.839393 0.244567 0.701392
O O17 0.048110 0.179704 0.900257
O O18 0.912880 0.000000 0.814455
O O19 0.000000 0.210595 0.000000
O O20 0.899868 0.000000 0.157262
O O21 0.800578 0.500000 0.620071
#
# Coordination Sequence:
#
# PCOD8059289 Si02
#       8
#     4   4   4   4   4   4   4   4
#     4   9  18  31  46  63  87 127 172 206 238 279
#     4   9  18  32  48  67  94 130 169 202 232 272
#     4  10  19  27  38  61  92 125 163 208 250 281
#     4   9  18  32  49  68  93 128 165 198 234 281
#     4   9  17  30  48  69  94 125 162 204 246 284
#     4   9  19  36  56  77 100 124 150 185 235 294
#     4  10  20  33  50  71  95 124 157 195 240 288
#     4   9  17  30  51  78 101 121 154 200 243 282
#
# _framework density 17.418868
#
# number of rings (size 3 to 8) (size 9 to 14) (size 15 to 20)
#    0.000    2.750    0.000    2.250    0.000    6.250 
#    0.000    5.000    0.000    0.750    0.000    5.250 
#    0.000    0.000    0.000    0.000    0.000    0.000 
#
# Total GULP energy -396561.712045 kJ/mol
# GULP energy per Si atom -12392.553501 kJ/mol
# Density = 1.737922 g / cm^3
# Si number density = 17.418868 Si / 1000 Ang^3
#
#
#
# Elastic Constant Matrix: (Units=GPa)
#
#
# Indices 1 2 3 4 5 6 
#
# 1 60.2227 46.7131 47.6743 0.0000 8.9178 0.0000
# 2 46.7131 123.1942 59.2666 0.0000 10.3230 0.0000
# 3 47.6743 59.2666 94.9225 0.0000 7.6474 0.0000
# 4 0.0000 0.0000 0.0000 36.4231 0.0000 4.8514
# 5 8.9178 10.3230 7.6474 0.0000 25.3520 0.0000
# 6 0.0000 0.0000 0.0000 4.8514 0.0000 24.3050
#
#
#
# Elastic Compliance Matrix: (Units=1/GPa)
#
#
# Indices 1 2 3 4 5 6 
#
# 1 0.030965 -0.005762 -0.011546 0.000000 -0.005063 0.000000
# 2 -0.005762 0.012845 -0.004989 0.000000 -0.001698 0.000000
# 3 -0.011546 -0.004989 0.019430 0.000000 0.000232 0.000000
# 4 0.000000 0.000000 0.000000 0.028205 0.000000 -0.005630
# 5 -0.005063 -0.001698 0.000232 0.000000 0.041847 0.000000
# 6 0.000000 0.000000 0.000000 -0.005630 0.000000 0.042268
#
#
# Mechanical properties :
#
#
# Convention : Reuss Voigt Hill
#
# Bulk Modulus (GPa) = 53.63436 65.07194 59.35315
# Shear Modulus (GPa) = 22.08786 25.52838 23.80812
#
# Velocity S-wave (km/s) = 3.56482 3.83242 3.70104
# Velocity P-wave (km/s) = 6.91388 7.55126 7.23959
#
# Compressibility (1/GPa) = 0.01864477
#
# Stress axis : x y z
#
# Youngs Moduli (GPa) = 32.29476 77.85364 51.46660
#
# Poissons Ratio (x) = 0.44862 0.59424
# Poissons Ratio (y) = 0.18610 0.25676
# Poissons Ratio (z) = 0.37288 0.38840
#
# Static dielectric constant tensor:
#      x y z
#    x 3.054620 0.000000 0.145480 
#    y 0.000000 3.383080 0.000000 
#    z 0.145480 0.000000 3.139770 
# 
# 
# High freq. dielectric constant tensor:
#      x y z
#    x 1.646190 0.000000 0.017290 
#    y 0.000000 1.685470 0.000000 
#    z 0.017290 0.000000 1.653040 
# 
# From -- ./inp_files/79955.got.cif
#   From: 2010.06.25/outbox.cif.g09.slc.cpg/sg10_40_cif.got.tgz:79955.got - 2010.06.27 22:07:45.
