data_PCOD8059254
_publ_section_title
;
Structure prediction by ZEFSAII (Michael W. Deem and Ramdas Pophale) SiO2 
 PCOD8059254
Probable space group: P 2/M
;
_chemical_formula_sum "Si O2"
_cell_formula_units_Z 30
_cell_length_a 25.854996
_cell_length_b 12.719342
_cell_length_c 14.709255
_cell_angle_alpha 90.000000
_cell_angle_beta 19.858436
_cell_angle_gamma 90.000000
_cell_volume 1643.205781
_symmetry_space_group_name_H-M "P 2/M"
_symmetry_group_IT_number 10
_symmetry_cell_setting 'monoclinic'
loop_
_space_group_symop_operation_xyz
x,y,z
-x,y,-z
-x,-y,-z
x,-y,z
loop_
_atom_site_type_symbol
_atom_site_label
_atom_site_fract_x
_atom_site_fract_y
_atom_site_fract_z
Si Si1 0.875901 0.381353 0.044282
Si Si2 0.500000 0.218935 0.500000
Si Si3 0.537953 0.878030 0.252825
Si Si4 0.235507 0.618724 0.966983
Si Si5 0.614977 0.295618 0.599696
Si Si6 0.782607 0.623612 0.491516
Si Si7 0.839013 0.751247 0.748102
Si Si8 0.701962 0.380960 0.827860
O O1 0.859251 0.500000 0.105671
O O2 0.041135 0.339400 0.801750
O O3 0.875801 0.373397 0.935389
O O4 0.732273 0.322589 0.325210
O O5 0.538544 0.145726 0.522899
O O6 0.635558 0.296078 0.255623
O O7 0.446591 0.820794 0.322107
O O8 0.532972 0.000000 0.238055
O O9 0.711475 0.839144 0.973698
O O10 0.300158 0.500000 0.869269
O O11 0.154088 0.651919 0.194250
O O12 0.699702 0.302008 0.555817
O O13 0.466795 0.371076 0.848855
O O14 0.767513 0.500000 0.490694
O O15 0.701366 0.645896 0.721860
O O16 0.818624 0.699431 0.682452
O O17 0.000000 0.809576 0.500000
O O18 0.759161 0.500000 0.747387
#
# Coordination Sequence:
#
# PCOD8059254 Si02
#       8
#     4   2   4   4   4   4   4   4
#     4  10  19  31  50  79 114 146 176 211 257 322
#     4  10  18  36  54  78 104 140 172 214 268 320
#     4  10  22  38  58  78  98 132 183 236 280 317
#     4  10  19  30  50  82 118 146 170 202 255 326
#     4  11  20  34  53  78 103 136 180 232 269 312
#     4  10  20  33  52  78 111 150 182 210 256 320
#     4  10  21  35  53  78 110 146 178 215 268 322
#     4  10  20  33  51  78 112 148 182 211 250 319
#
# _framework density 18.256995
#
# number of rings (size 3 to 8) (size 9 to 14) (size 15 to 20)
#    0.000    1.867    1.333    3.600    0.000    4.533 
#    0.000    0.000    0.000    8.000    0.000    0.000 
#    0.000    0.000    0.000    0.000    0.000    0.000 
#
# Total GULP energy -371833.558923 kJ/mol
# GULP energy per Si atom -12394.451964 kJ/mol
# Density = 1.821544 g / cm^3
# Si number density = 18.256995 Si / 1000 Ang^3
#
#
#
# Elastic Constant Matrix: (Units=GPa)
#
#
# Indices 1 2 3 4 5 6 
#
# 1 110.4110 45.2468 31.8164 0.0000 -0.1895 0.0000
# 2 45.2468 97.5245 30.7364 0.0000 -0.6537 0.0000
# 3 31.8164 30.7364 82.5688 0.0000 -6.3526 0.0000
# 4 0.0000 0.0000 0.0000 11.6406 0.0000 -2.4040
# 5 -0.1895 -0.6537 -6.3526 0.0000 32.8329 0.0000
# 6 0.0000 0.0000 0.0000 -2.4040 0.0000 22.6547
#
#
#
# Elastic Compliance Matrix: (Units=1/GPa)
#
#
# Indices 1 2 3 4 5 6 
#
# 1 0.011749 -0.004548 -0.002879 0.000000 -0.000580 0.000000
# 2 -0.004548 0.013389 -0.003262 0.000000 -0.000391 0.000000
# 3 -0.002879 -0.003262 0.014647 0.000000 0.002752 0.000000
# 4 0.000000 0.000000 0.000000 0.087831 0.000000 0.009320
# 5 -0.000580 -0.000391 0.002752 0.000000 0.030979 0.000000
# 6 0.000000 0.000000 0.000000 0.009320 0.000000 0.045130
#
#
# Mechanical properties :
#
#
# Convention : Reuss Voigt Hill
#
# Bulk Modulus (GPa) = 54.32493 56.23374 55.27933
# Shear Modulus (GPa) = 21.62275 25.60594 23.61435
#
# Velocity S-wave (km/s) = 3.44518 3.74910 3.60035
# Velocity P-wave (km/s) = 6.75618 7.04337 6.90127
#
# Compressibility (1/GPa) = 0.01840776
#
# Stress axis : x y z
#
# Youngs Moduli (GPa) = 85.11093 74.68748 68.27560
#
# Poissons Ratio (x) = 0.33965 0.19658
# Poissons Ratio (y) = 0.38705 0.22270
# Poissons Ratio (z) = 0.24505 0.24362
#
# Static dielectric constant tensor:
#      x y z
#    x 3.591990 0.000000 0.081370 
#    y 0.000000 2.987690 0.000000 
#    z 0.081370 0.000000 3.690270 
# 
# 
# High freq. dielectric constant tensor:
#      x y z
#    x 1.720070 0.000000 0.002100 
#    y 0.000000 1.658840 0.000000 
#    z 0.002100 0.000000 1.717230 
# 
# From -- ./inp_files/72374.got.cif
#   From: 2010.06.25/outbox.cif.g09.slc.cpg/sg10_37_cif.got.tgz:72374.got - 2010.06.27 22:07:45.
