data_PCOD8059488
_publ_section_title
;
Structure prediction by ZEFSAII (Michael W. Deem and Ramdas Pophale) SiO2 
 PCOD8059488
Probable space group: P 2/M
;
_chemical_formula_sum "Si O2"
_cell_formula_units_Z 26
_cell_length_a 12.915791
_cell_length_b 7.698064
_cell_length_c 32.366811
_cell_angle_alpha 90.000000
_cell_angle_beta 150.135748
_cell_angle_gamma 90.000000
_cell_volume 1602.453205
_symmetry_space_group_name_H-M "P 2/M"
_symmetry_group_IT_number 10
_symmetry_cell_setting 'monoclinic'
loop_
_space_group_symop_operation_xyz
x,y,z
-x,y,-z
-x,-y,-z
x,-y,z
loop_
_atom_site_type_symbol
_atom_site_label
_atom_site_fract_x
_atom_site_fract_y
_atom_site_fract_z
Si Si1 0.890576 0.802075 0.832090
Si Si2 0.510962 0.500000 0.194896
Si Si3 0.357907 0.800072 0.989208
Si Si4 0.366894 0.500000 0.056836
Si Si5 0.921962 0.696792 0.516672
Si Si6 0.106009 0.500000 0.103531
Si Si7 0.300288 0.196794 0.688353
Si Si8 0.537051 0.199144 0.344622
O O1 0.851334 0.674827 0.856344
O O2 0.710612 0.764645 0.735498
O O3 0.865656 0.000000 0.839916
O O4 0.118700 0.772856 0.891681
O O5 0.524323 0.500000 0.149766
O O6 0.266608 0.500000 0.121552
O O7 0.624127 0.325880 0.249771
O O8 0.409688 0.673429 0.044992
O O9 0.397128 0.000000 0.016455
O O10 0.500000 0.747190 0.000000
O O11 0.132501 0.500000 0.993587
O O12 0.991077 0.500000 0.546134
O O13 0.669393 0.711500 0.427610
O O14 0.000000 0.774325 0.500000
O O15 0.046409 0.798043 0.595926
O O16 0.399192 0.264258 0.679295
O O17 0.368911 0.000000 0.723140
O O18 0.593435 0.000000 0.367883
#
# Coordination Sequence:
#
# PCOD8059488 Si02
#       8
#     4   2   4   2   4   2   4   4
#     4   9  17  28  45  70  93 119 154 186 226 275
#     4  12  21  31  45  64  91 127 166 193 216 261
#     4   9  18  35  56  73  92 116 144 187 241 287
#     4  10  22  34  48  71  93 118 154 194 229 270
#     4   9  16  24  39  59  84 118 159 193 224 261
#     4  10  19  31  46  60  91 128 157 190 224 255
#     4  10  19  30  42  59  87 126 163 193 223 256
#     4   9  16  25  39  60  89 122 154 190 224 263
#
# _framework density 16.225123
#
# number of rings (size 3 to 8) (size 9 to 14) (size 15 to 20)
#    0.000    2.462    2.308    0.923    2.154    2.462 
#    0.000    0.000    0.000    4.615    0.000    0.000 
#    0.000    2.462    0.000    9.231    0.000    0.000 
#
# Total GULP energy -322143.809001 kJ/mol
# GULP energy per Si atom -12390.146500 kJ/mol
# Density = 1.618819 g / cm^3
# Si number density = 16.225123 Si / 1000 Ang^3
#
#
#
# Elastic Constant Matrix: (Units=GPa)
#
#
# Indices 1 2 3 4 5 6 
#
# 1 54.6874 30.6537 49.2337 0.0000 0.8062 0.0000
# 2 30.6537 87.5670 47.6909 0.0000 -5.5012 0.0000
# 3 49.2337 47.6909 114.3929 0.0000 -2.5165 0.0000
# 4 0.0000 0.0000 0.0000 23.7772 0.0000 2.0434
# 5 0.8062 -5.5012 -2.5165 0.0000 14.9427 0.0000
# 6 0.0000 0.0000 0.0000 2.0434 0.0000 11.7459
#
#
#
# Elastic Compliance Matrix: (Units=1/GPa)
#
#
# Indices 1 2 3 4 5 6 
#
# 1 0.031711 -0.005110 -0.011640 0.000000 -0.005553 0.000000
# 2 -0.005110 0.015894 -0.004308 0.000000 0.005402 0.000000
# 3 -0.011640 -0.004308 0.015584 0.000000 0.001667 0.000000
# 4 0.000000 0.000000 0.000000 0.042695 0.000000 -0.007428
# 5 -0.005553 0.005402 0.001667 0.000000 0.069491 0.000000
# 6 0.000000 0.000000 0.000000 -0.007428 0.000000 0.086428
#
#
# Mechanical properties :
#
#
# Convention : Reuss Voigt Hill
#
# Bulk Modulus (GPa) = 47.45377 56.86708 52.16043
# Shear Modulus (GPa) = 16.07997 18.69776 17.38886
#
# Velocity S-wave (km/s) = 3.15152 3.39838 3.27727
# Velocity P-wave (km/s) = 6.52329 7.10799 6.82191
#
# Compressibility (1/GPa) = 0.02107314
#
# Stress axis : x y z
#
# Youngs Moduli (GPa) = 31.53467 62.91516 64.16739
#
# Poissons Ratio (x) = 0.32152 0.74690
# Poissons Ratio (y) = 0.16115 0.27644
# Poissons Ratio (z) = 0.36706 0.27105
#
# Static dielectric constant tensor:
#      x y z
#    x 2.518380 0.000000 0.256220 
#    y 0.000000 3.163790 0.000000 
#    z 0.256220 0.000000 3.357300 
# 
# 
# High freq. dielectric constant tensor:
#      x y z
#    x 1.540150 0.000000 0.021160 
#    y 0.000000 1.642760 0.000000 
#    z 0.021160 0.000000 1.637470 
# 
# From -- ./inp_files/63241.got.cif
#   From: 2010.06.25/outbox.cif.g09.slc.cpg/sg10_32_cif.got.tgz:63241.got - 2010.06.27 22:07:45.
