data_PCOD8059405
_publ_section_title
;
Structure prediction by ZEFSAII (Michael W. Deem and Ramdas Pophale) SiO2 
 PCOD8059405
Probable space group: P 2/M
;
_chemical_formula_sum "Si O2"
_cell_formula_units_Z 32
_cell_length_a 14.297347
_cell_length_b 8.931537
_cell_length_c 15.743688
_cell_angle_alpha 90.000000
_cell_angle_beta 90.650303
_cell_angle_gamma 90.000000
_cell_volume 2010.296702
_symmetry_space_group_name_H-M "P 2/M"
_symmetry_group_IT_number 10
_symmetry_cell_setting 'monoclinic'
loop_
_space_group_symop_operation_xyz
x,y,z
-x,y,-z
-x,-y,-z
x,-y,z
loop_
_atom_site_type_symbol
_atom_site_label
_atom_site_fract_x
_atom_site_fract_y
_atom_site_fract_z
Si Si1 0.592874 0.324713 0.410348
Si Si2 0.793270 0.174034 0.650561
Si Si3 0.214876 0.325977 0.671453
Si Si4 0.893867 0.322672 0.494947
Si Si5 0.096023 0.178966 0.186370
Si Si6 0.407112 0.174602 0.409798
Si Si7 0.110651 0.163456 0.005056
Si Si8 0.885349 0.178592 0.177864
O O1 0.581886 0.500000 0.429427
O O2 0.676150 0.294340 0.345325
O O3 0.496714 0.258822 0.370205
O O4 0.615960 0.241565 0.498248
O O5 0.837123 0.259755 0.572767
O O6 0.836799 0.238138 0.738285
O O7 0.681811 0.201094 0.652002
O O8 0.817569 0.000000 0.639900
O O9 0.194934 0.500000 0.685448
O O10 0.152510 0.264758 0.592733
O O11 0.189154 0.239244 0.756337
O O12 0.888034 0.500000 0.500078
O O13 0.000000 0.264174 0.500000
O O14 0.133263 0.245813 0.095538
O O15 0.989947 0.232916 0.204283
O O16 0.097892 0.000000 0.179806
O O17 0.430088 0.000000 0.419917
O O18 0.158577 0.000000 0.007490
O O19 0.141982 0.243354 0.916952
O O20 0.000000 0.143153 0.000000
O O21 0.881484 0.000000 0.175975
#
# Coordination Sequence:
#
# PCOD8059405 Si02
#       8
#     4   4   4   4   4   4   4   4
#     4  10  19  32  48  61  79 113 149 178 217 263
#     4  10  19  29  44  66  89 115 143 176 219 258
#     4  10  20  31  42  61  87 116 146 176 215 257
#     4  10  20  32  43  57  85 123 154 177 204 245
#     4   8  14  26  43  65  92 117 143 174 211 258
#     4  10  19  30  45  66  87 106 138 186 228 253
#     4   7  11  22  41  64  87 111 142 178 211 247
#     4   9  16  26  45  68  87 114 149 180 209 246
#
# _framework density 15.918048000000001
#
# number of rings (size 3 to 8) (size 9 to 14) (size 15 to 20)
#    0.000    2.750    1.250    3.750    0.000    2.250 
#    0.000    0.000    0.000    4.125    0.000    0.875 
#    0.000    7.000    0.000    0.000    0.000    0.000 
#
# Total GULP energy -396530.822258 kJ/mol
# GULP energy per Si atom -12391.588196 kJ/mol
# Density = 1.588182 g / cm^3
# Si number density = 15.918048 Si / 1000 Ang^3
#
#
#
# Elastic Constant Matrix: (Units=GPa)
#
#
# Indices 1 2 3 4 5 6 
#
# 1 91.3178 24.1016 49.3804 0.0000 -10.0573 0.0000
# 2 24.1016 31.2290 21.1519 0.0000 -5.6776 0.0000
# 3 49.3804 21.1519 118.9136 0.0000 -16.1008 0.0000
# 4 0.0000 0.0000 0.0000 -72.0762 0.0000 -3.7678
# 5 -10.0573 -5.6776 -16.1008 0.0000 13.3435 0.0000
# 6 0.0000 0.0000 0.0000 -3.7678 0.0000 20.3356
#
#
#
# Elastic Compliance Matrix: (Units=1/GPa)
#
#
# Indices 1 2 3 4 5 6 
#
# 1 0.016137 -0.008725 -0.004787 0.000000 0.002674 0.000000
# 2 -0.008725 0.042091 -0.002784 0.000000 0.007973 0.000000
# 3 -0.004787 -0.002784 0.012244 0.000000 0.009982 0.000000
# 4 0.000000 0.000000 0.000000 -0.013741 0.000000 -0.002546
# 5 0.002674 0.007973 0.009982 0.000000 0.092395 0.000000
# 6 0.000000 0.000000 0.000000 -0.002546 0.000000 0.048703
#
#
# Mechanical properties :
#
#
# Convention : Reuss Voigt Hill
#
# Bulk Modulus (GPa) = 26.39996 47.85870 37.12933
# Shear Modulus (GPa) = 20.57210 2.10902 11.34056
#
# Velocity S-wave (km/s) = 3.59886 1.15230 2.67204
# Velocity P-wave (km/s) = 5.82151 5.64813 5.73548
#
# Compressibility (1/GPa) = 0.03787884
#
# Stress axis : x y z
#
# Youngs Moduli (GPa) = 61.97058 23.75819 81.67278
#
# Poissons Ratio (x) = 0.20730 0.39096
# Poissons Ratio (y) = 0.54072 0.22738
# Poissons Ratio (z) = 0.29664 0.06614
#
# Static dielectric constant tensor:
#      x y z
#    x 3.083840 0.000000 0.120110 
#    y 0.000000 2.803050 0.000000 
#    z 0.120110 0.000000 3.286220 
# 
# 
# High freq. dielectric constant tensor:
#      x y z
#    x 1.595850 0.000000 -0.000590 
#    y 0.000000 1.589620 0.000000 
#    z -0.000590 0.000000 1.605240 
# 
# From -- ./inp_files/66154.got.cif
#   From: 2010.06.25/outbox.cif.g09.slc.cpg/sg10_34_cif.got.tgz:66154.got - 2010.06.27 22:07:45.
