data_PCOD8059015
_publ_section_title
;
Structure prediction by ZEFSAII (Michael W. Deem and Ramdas Pophale) SiO2 
 PCOD8059015
Probable space group: P 2/M
;
_chemical_formula_sum "Si O2"
_cell_formula_units_Z 32
_cell_length_a 9.155429
_cell_length_b 19.391164
_cell_length_c 14.914130
_cell_angle_alpha 90.000000
_cell_angle_beta 140.283409
_cell_angle_gamma 90.000000
_cell_volume 1691.901055
_symmetry_space_group_name_H-M "P 2/M"
_symmetry_group_IT_number 10
_symmetry_cell_setting 'monoclinic'
loop_
_space_group_symop_operation_xyz
x,y,z
-x,y,-z
-x,-y,-z
x,-y,z
loop_
_atom_site_type_symbol
_atom_site_label
_atom_site_fract_x
_atom_site_fract_y
_atom_site_fract_z
Si Si1 0.084987 0.655213 0.715784
Si Si2 0.254661 0.922218 0.155915
Si Si3 0.569719 0.683998 0.436553
Si Si4 0.327292 0.171642 0.353153
Si Si5 0.527649 0.817123 0.866481
Si Si6 0.160861 0.204364 0.824877
Si Si7 0.723839 0.577684 0.045071
Si Si8 0.495349 0.337356 0.790999
O O1 0.218334 0.716627 0.829686
O O2 0.250470 0.633523 0.711201
O O3 0.844559 0.680099 0.562287
O O4 0.068267 0.598625 0.788610
O O5 0.241469 0.882999 0.242489
O O6 0.434647 0.881548 0.180292
O O7 0.345483 0.000000 0.210232
O O8 0.000000 0.922123 0.000000
O O9 0.500000 0.649698 0.500000
O O10 0.462896 0.760942 0.381255
O O11 0.480074 0.644677 0.304242
O O12 0.500000 0.131316 0.500000
O O13 0.109014 0.194048 0.308516
O O14 0.300589 0.837974 0.815284
O O15 0.504780 0.745738 0.801592
O O16 0.749330 0.812267 0.034178
O O17 0.765800 0.500000 0.031063
O O18 0.698322 0.625876 0.944014
O O19 0.500000 0.584333 0.000000
#
# Coordination Sequence:
#
# PCOD8059015 Si02
#       8
#     4   4   4   4   4   4   4   4
#     4  10  18  33  54  86 116 143 190 234 293 341
#     4  11  23  39  58  82 116 154 193 234 287 348
#     4  11  21  33  52  85 112 147 186 238 281 342
#     4  11  21  36  56  84 113 147 187 237 290 346
#     4  10  19  33  58  85 113 145 187 251 283 335
#     4  10  18  33  55  88 114 140 190 239 293 334
#     4   9  18  34  58  87 118 150 191 242 289 338
#     4  10  19  32  57  85 112 147 189 243 287 334
#
# _framework density 18.913636
#
# number of rings (size 3 to 8) (size 9 to 14) (size 15 to 20)
#    0.000    1.750    6.250    0.375    0.000    0.250 
#    0.000    5.000    0.000    6.000    0.000    0.000 
#    0.000    0.000    0.000    0.000    0.000    0.000 
#
# Total GULP energy -396441.252339 kJ/mol
# GULP energy per Si atom -12388.789136 kJ/mol
# Density = 1.887059 g / cm^3
# Si number density = 18.913636 Si / 1000 Ang^3
#
#
#
# Elastic Constant Matrix: (Units=GPa)
#
#
# Indices 1 2 3 4 5 6 
#
# 1 86.3560 30.0313 38.8882 0.0000 -16.1531 0.0000
# 2 30.0313 74.9230 28.2485 0.0000 -6.5248 0.0000
# 3 38.8882 28.2485 90.3340 0.0000 -7.7381 0.0000
# 4 0.0000 0.0000 0.0000 -835.5931 0.0000 962.2525
# 5 -16.1531 -6.5248 -7.7381 0.0000 38.0190 0.0000
# 6 0.0000 0.0000 0.0000 962.2525 0.0000-1073.7856
#
#
#
# Elastic Compliance Matrix: (Units=1/GPa)
#
#
# Indices 1 2 3 4 5 6 
#
# 1 0.016370 -0.004106 -0.005321 0.000000 0.005168 0.000000
# 2 -0.004106 0.016265 -0.003286 0.000000 0.000378 0.000000
# 3 -0.005321 -0.003286 0.014397 0.000000 0.000106 0.000000
# 4 0.000000 0.000000 0.000000 0.037438 0.000000 0.033549
# 5 0.005168 0.000378 0.000106 0.000000 0.028585 0.000000
# 6 0.000000 0.000000 0.000000 0.033549 0.000000 0.029133
#
#
# Mechanical properties :
#
#
# Convention : Reuss Voigt Hill
#
# Bulk Modulus (GPa) = 46.28138 49.54989 47.91564
# Shear Modulus (GPa) = 28.60155 -363.97561 -167.68703
#
# Velocity S-wave (km/s) = 3.89294 -13.88735 -9.42612
# Velocity P-wave (km/s) = 6.68802 15.19506 9.64781
#
# Compressibility (1/GPa) = 0.02160696
#
# Stress axis : x y z
#
# Youngs Moduli (GPa) = 61.08555 61.48305 69.45726
#
# Poissons Ratio (x) = 0.25242 0.36957
# Poissons Ratio (y) = 0.25079 0.22826
# Poissons Ratio (z) = 0.32503 0.20205
#
# Static dielectric constant tensor:
#      x y z
#    x 3.466900 0.000000 -0.185000 
#    y 0.000000 3.244080 0.000000 
#    z -0.185000 0.000000 3.551150 
# 
# 
# High freq. dielectric constant tensor:
#      x y z
#    x 1.730400 0.000000 -0.009430 
#    y 0.000000 1.695960 0.000000 
#    z -0.009430 0.000000 1.738350 
# 
# From -- ./inp_files/30301.got.cif
#   From: 2010.06.25/outbox.cif.g09.slc.cpg/sg10_16_cif.got.tgz:30301.got - 2010.06.27 22:07:45.
