data_PCOD8059516
_publ_section_title
;
Structure prediction by ZEFSAII (Michael W. Deem and Ramdas Pophale) SiO2 
 PCOD8059516
Probable space group: P 2/M
;
_chemical_formula_sum "Si O2"
_cell_formula_units_Z 28
_cell_length_a 12.317489
_cell_length_b 9.143943
_cell_length_c 20.528300
_cell_angle_alpha 90.000000
_cell_angle_beta 47.412869
_cell_angle_gamma 90.000000
_cell_volume 1702.289638
_symmetry_space_group_name_H-M "P 2/M"
_symmetry_group_IT_number 10
_symmetry_cell_setting 'monoclinic'
loop_
_space_group_symop_operation_xyz
x,y,z
-x,y,-z
-x,-y,-z
x,-y,z
loop_
_atom_site_type_symbol
_atom_site_label
_atom_site_fract_x
_atom_site_fract_y
_atom_site_fract_z
Si Si1 0.592671 0.172708 0.109214
Si Si2 0.183592 0.673816 0.077132
Si Si3 0.886299 0.828923 0.216863
Si Si4 0.361494 0.160820 0.103582
Si Si5 0.734621 0.665388 0.385367
Si Si6 0.406707 0.169655 0.743538
Si Si7 0.437571 0.336218 0.423969
O O1 0.428931 0.205495 0.146527
O O2 0.593598 0.229219 0.182808
O O3 0.630160 0.000000 0.088064
O O4 0.715738 0.263919 0.021227
O O5 0.179196 0.500000 0.075504
O O6 0.244061 0.722767 0.123915
O O7 0.021876 0.739440 0.132235
O O8 0.852332 0.773624 0.304222
O O9 0.750168 0.793212 0.224791
O O10 0.923169 0.000000 0.204202
O O11 0.285908 0.000000 0.137476
O O12 0.500000 0.152994 0.000000
O O13 0.798307 0.500000 0.360507
O O14 0.696197 0.718779 0.474744
O O15 0.586303 0.668660 0.404459
O O16 0.542965 0.239457 0.648453
O O17 0.439347 0.000000 0.729806
O O18 0.402919 0.500000 0.415028
#
# Coordination Sequence:
#
# PCOD8059516 Si02
#       7
#     4   4   4   4   4   4   4
#     4   9  18  33  49  65  88 117 147 181 221 260
#     4  11  21  31  45  65  89 116 148 186 222 259
#     4  10  19  30  44  64  91 121 151 181 215 258
#     4   8  15  30  50  66  82 108 143 183 224 262
#     4   8  14  26  42  61  86 116 148 180 216 255
#     4   9  18  30  45  66  91 119 150 181 212 256
#     4   8  14  25  42  62  87 117 145 178 218 257
#
# _framework density 16.448435
#
# number of rings (size 3 to 8) (size 9 to 14) (size 15 to 20)
#    0.000    3.000    0.000    3.429    0.000    4.857 
#    0.000    5.714    0.000    0.000    0.000    1.000 
#    0.000    8.000    0.000    0.000    0.000    0.000 
#
# Total GULP energy -347001.191244 kJ/mol
# GULP energy per Si atom -12392.899687 kJ/mol
# Density = 1.641100 g / cm^3
# Si number density = 16.448435 Si / 1000 Ang^3
#
#
#
# Elastic Constant Matrix: (Units=GPa)
#
#
# Indices 1 2 3 4 5 6 
#
# 1 59.9633 34.2943 44.8512 0.0000 20.5441 0.0000
# 2 34.2943 80.0194 45.4941 0.0000 16.3041 0.0000
# 3 44.8512 45.4941 90.8905 0.0000 29.0847 0.0000
# 4 0.0000 0.0000 0.0000 30.2575 0.0000 -1.3394
# 5 20.5441 16.3041 29.0847 0.0000 12.9934 0.0000
# 6 0.0000 0.0000 0.0000 -1.3394 0.0000 15.9967
#
#
#
# Elastic Compliance Matrix: (Units=1/GPa)
#
#
# Indices 1 2 3 4 5 6 
#
# 1 0.038427 -0.006070 0.003810 0.000000 -0.061670 0.000000
# 2 -0.006070 0.018683 -0.006787 0.000000 0.001345 0.000000
# 3 0.003810 -0.006787 0.041316 0.000000 -0.089990 0.000000
# 4 0.000000 0.000000 0.000000 0.033173 0.000000 0.002778
# 5 -0.061670 0.001345 -0.089990 0.000000 0.374217 0.000000
# 6 0.000000 0.000000 0.000000 0.002778 0.000000 0.062746
#
#
# Mechanical properties :
#
#
# Convention : Reuss Voigt Hill
#
# Bulk Modulus (GPa) = 12.44823 53.35025 32.89924
# Shear Modulus (GPa) = 8.15086 18.93176 13.54131
#
# Velocity S-wave (km/s) = 2.22849 3.39628 2.87236
# Velocity P-wave (km/s) = 3.76909 6.91989 5.57185
#
# Compressibility (1/GPa) = 0.08033273
#
# Stress axis : x y z
#
# Youngs Moduli (GPa) = 26.02309 53.52560 24.20371
#
# Poissons Ratio (x) = 0.32488 -0.09221
# Poissons Ratio (y) = 0.15795 0.16426
# Poissons Ratio (z) = -0.09914 0.36326
#
# Static dielectric constant tensor:
#      x y z
#    x 3.122390 0.000000 0.225940 
#    y 0.000000 3.113290 0.000000 
#    z 0.225940 0.000000 3.281510 
# 
# 
# High freq. dielectric constant tensor:
#      x y z
#    x 1.599430 0.000000 0.011130 
#    y 0.000000 1.631370 0.000000 
#    z 0.011130 0.000000 1.623740 
# 
# From -- ./inp_files/54991.got.cif
#   From: 2010.06.25/outbox.cif.g09.slc.cpg/sg10_28_cif.got.tgz:54991.got - 2010.06.27 22:07:45.
