data_PCOD8059296
_publ_section_title
;
Structure prediction by ZEFSAII (Michael W. Deem and Ramdas Pophale) SiO2 
 PCOD8059296
Probable space group: P 2/M
;
_chemical_formula_sum "Si O2"
_cell_formula_units_Z 32
_cell_length_a 15.008631
_cell_length_b 9.411251
_cell_length_c 13.791277
_cell_angle_alpha 90.000000
_cell_angle_beta 89.310361
_cell_angle_gamma 90.000000
_cell_volume 1947.876677
_symmetry_space_group_name_H-M "P 2/M"
_symmetry_group_IT_number 10
_symmetry_cell_setting 'monoclinic'
loop_
_space_group_symop_operation_xyz
x,y,z
-x,y,-z
-x,-y,-z
x,-y,z
loop_
_atom_site_type_symbol
_atom_site_label
_atom_site_fract_x
_atom_site_fract_y
_atom_site_fract_z
Si Si1 0.258166 0.833594 0.889864
Si Si2 0.901872 0.169357 0.985322
Si Si3 0.617091 0.842076 0.949629
Si Si4 0.369017 0.162687 0.713881
Si Si5 0.602821 0.836364 0.503755
Si Si6 0.480754 0.340989 0.189095
Si Si7 0.213634 0.841949 0.189587
Si Si8 0.311795 0.659072 0.328455
O O1 0.278765 0.801499 0.776469
O O2 0.254531 0.000000 0.913086
O O3 0.163723 0.770371 0.928303
O O4 0.342111 0.774302 0.951794
O O5 0.864616 0.216000 0.880341
O O6 0.906068 0.000000 0.990425
O O7 0.000000 0.235548 0.000000
O O8 0.536199 0.745041 0.910733
O O9 0.695595 0.849654 0.870973
O O10 0.578291 0.000000 0.967179
O O11 0.349941 0.185256 0.600923
O O12 0.447796 0.264340 0.744926
O O13 0.398711 0.000000 0.733302
O O14 0.500000 0.786423 0.500000
O O15 0.658099 0.741525 0.576408
O O16 0.606719 0.000000 0.538171
O O17 0.513279 0.500000 0.163339
O O18 0.390461 0.346850 0.250527
O O19 0.226524 0.737783 0.281266
O O20 0.189496 0.000000 0.228199
O O21 0.282713 0.500000 0.358482
#
# Coordination Sequence:
#
# PCOD8059296 Si02
#       8
#     4   4   4   4   4   4   4   4
#     4   8  15  27  42  62  86 113 142 171 207 256
#     4   8  13  24  46  75  99 114 133 168 214 261
#     4   8  14  26  42  57  79 112 146 173 201 246
#     4  10  19  30  43  58  81 113 148 182 215 253
#     4  10  19  30  44  61  80 110 153 194 226 255
#     4  10  19  28  39  58  82 111 147 183 218 249
#     4   8  14  25  43  66  90 114 140 171 208 256
#     4  10  19  29  43  61  85 115 147 188 226 254
#
# _framework density 16.428144
#
# number of rings (size 3 to 8) (size 9 to 14) (size 15 to 20)
#    0.000    3.000    1.250    2.250    0.000    2.250 
#    0.000    3.125    0.000    1.125    0.000    0.875 
#    0.000    7.000    0.000    0.000    0.000    0.000 
#
# Total GULP energy -396572.665510 kJ/mol
# GULP energy per Si atom -12392.895797 kJ/mol
# Density = 1.639075 g / cm^3
# Si number density = 16.428144 Si / 1000 Ang^3
#
#
#
# Elastic Constant Matrix: (Units=GPa)
#
#
# Indices 1 2 3 4 5 6 
#
# 1 78.6751 28.8513 40.4433 0.0000 15.6281 0.0000
# 2 28.8513 75.1180 42.9123 0.0000 13.2134 0.0000
# 3 40.4433 42.9123 102.5635 0.0000 10.5518 0.0000
# 4 0.0000 0.0000 0.0000 -4.6624 0.0000 -2.9822
# 5 15.6281 13.2134 10.5518 0.0000 20.6565 0.0000
# 6 0.0000 0.0000 0.0000 -2.9822 0.0000 5.4357
#
#
#
# Elastic Compliance Matrix: (Units=1/GPa)
#
#
# Indices 1 2 3 4 5 6 
#
# 1 0.018134 -0.002309 -0.005198 0.000000 -0.009587 0.000000
# 2 -0.002309 0.019088 -0.006332 0.000000 -0.007229 0.000000
# 3 -0.005198 -0.006332 0.014384 0.000000 0.000636 0.000000
# 4 0.000000 0.000000 0.000000 -0.158767 0.000000 -0.087105
# 5 -0.009587 -0.007229 0.000636 0.000000 0.059963 0.000000
# 6 0.000000 0.000000 0.000000 -0.087105 0.000000 0.136182
#
#
# Mechanical properties :
#
#
# Convention : Reuss Voigt Hill
#
# Bulk Modulus (GPa) = 41.79379 53.41894 47.60636
# Shear Modulus (GPa) = 40.11591 13.89593 27.00592
#
# Velocity S-wave (km/s) = 4.94692 2.91152 4.05888
# Velocity P-wave (km/s) = 7.62397 6.62495 7.14195
#
# Compressibility (1/GPa) = 0.02392700
#
# Stress axis : x y z
#
# Youngs Moduli (GPa) = 55.14571 52.38854 69.52230
#
# Poissons Ratio (x) = 0.12095 0.36140
# Poissons Ratio (y) = 0.12732 0.44024
# Poissons Ratio (z) = 0.28666 0.33174
#
# Static dielectric constant tensor:
#      x y z
#    x 3.000450 0.000000 0.058760 
#    y 0.000000 3.093700 0.000000 
#    z 0.058760 0.000000 3.153030 
# 
# 
# High freq. dielectric constant tensor:
#      x y z
#    x 1.592500 0.000000 0.007650 
#    y 0.000000 1.608540 0.000000 
#    z 0.007650 0.000000 1.628680 
# 
# From -- ./inp_files/66072.got.cif
#   From: 2010.06.25/outbox.cif.g09.slc.cpg/sg10_34_cif.got.tgz:66072.got - 2010.06.27 22:07:45.
