data_PCOD8059242
_publ_section_title
;
Structure prediction by ZEFSAII (Michael W. Deem and Ramdas Pophale) SiO2 
 PCOD8059242
Probable space group: P 2/M
;
_chemical_formula_sum "Si O2"
_cell_formula_units_Z 32
_cell_length_a 11.999990
_cell_length_b 14.377908
_cell_length_c 18.167264
_cell_angle_alpha 90.000000
_cell_angle_beta 151.626383
_cell_angle_gamma 90.000000
_cell_volume 1489.566873
_symmetry_space_group_name_H-M "P 2/M"
_symmetry_group_IT_number 10
_symmetry_cell_setting 'monoclinic'
loop_
_space_group_symop_operation_xyz
x,y,z
-x,y,-z
-x,-y,-z
x,-y,z
loop_
_atom_site_type_symbol
_atom_site_label
_atom_site_fract_x
_atom_site_fract_y
_atom_site_fract_z
Si Si1 0.484958 0.791846 0.291782
Si Si2 0.188309 0.397771 0.759950
Si Si3 0.319495 0.894808 0.333382
Si Si4 0.843672 0.842824 0.125941
Si Si5 0.289789 0.359803 0.977122
Si Si6 0.575653 0.105140 0.204479
Si Si7 0.254663 0.397305 0.120436
Si Si8 0.982415 0.207171 0.368070
O O1 0.326533 0.827923 0.266738
O O2 0.424274 0.848576 0.182588
O O3 0.440745 0.681365 0.253827
O O4 0.751359 0.820637 0.464502
O O5 0.141687 0.500000 0.697440
O O6 0.433946 0.354352 0.877457
O O7 0.007049 0.320238 0.626791
O O8 0.173954 0.411447 0.839989
O O9 0.500000 0.856643 0.500000
O O10 0.058157 0.895765 0.213034
O O11 0.388608 0.000000 0.351060
O O12 0.883595 0.837852 0.236130
O O13 0.823495 0.740734 0.080221
O O14 0.599182 0.895626 0.967421
O O15 0.243948 0.412093 0.026348
O O16 0.811479 0.166551 0.331432
O O17 0.651337 0.000000 0.266967
O O18 0.322407 0.500000 0.192337
O O19 0.000000 0.365821 0.000000
#
# Coordination Sequence:
#
# PCOD8059242 Si02
#       8
#     4   4   4   4   4   4   4   4
#     4  12  25  44  65  93 133 170 207 264 324 381
#     4  10  19  34  62  93 123 161 208 256 307 368
#     4  11  24  43  67  93 123 167 216 259 316 379
#     4  11  21  42  66  94 127 166 213 269 311 368
#     4  10  18  35  61  90 126 157 205 256 312 366
#     4  12  26  42  65  96 129 169 216 264 318 380
#     4  11  23  40  65  94 127 168 214 261 318 378
#     4  11  24  41  63  94 135 171 205 258 325 384
#
# _framework density 21.482755999999998
#
# number of rings (size 3 to 8) (size 9 to 14) (size 15 to 20)
#    0.000    1.000    3.750    3.750    0.000    3.500 
#    0.000    1.250    0.000    3.375    0.000    0.000 
#    0.000    0.000    0.000    0.000    0.000    0.000 
#
# Total GULP energy -396748.234625 kJ/mol
# GULP energy per Si atom -12398.382332 kJ/mol
# Density = 2.143386 g / cm^3
# Si number density = 21.482756 Si / 1000 Ang^3
#
#
#
# Elastic Constant Matrix: (Units=GPa)
#
#
# Indices 1 2 3 4 5 6 
#
# 1 100.2161 32.0508 12.9732 0.0000 -1.3800 0.0000
# 2 32.0508 126.6594 25.1230 0.0000 -6.9066 0.0000
# 3 12.9732 25.1230 63.3146 0.0000 7.0283 0.0000
# 4 0.0000 0.0000 0.0000 25.2010 0.0000 13.0571
# 5 -1.3800 -6.9066 7.0283 0.0000 28.5563 0.0000
# 6 0.0000 0.0000 0.0000 13.0571 0.0000 25.2705
#
#
#
# Elastic Compliance Matrix: (Units=1/GPa)
#
#
# Indices 1 2 3 4 5 6 
#
# 1 0.010948 -0.002504 -0.001276 0.000000 0.000237 0.000000
# 2 -0.002504 0.009398 -0.003552 0.000000 0.003026 0.000000
# 3 -0.001276 -0.003552 0.018061 0.000000 -0.005366 0.000000
# 4 0.000000 0.000000 0.000000 0.054187 0.000000 -0.027998
# 5 0.000237 0.003026 -0.005366 0.000000 0.037083 0.000000
# 6 0.000000 0.000000 0.000000 -0.027998 0.000000 0.054038
#
#
# Mechanical properties :
#
#
# Convention : Reuss Voigt Hill
#
# Bulk Modulus (GPa) = 42.11869 47.83159 44.97514
# Shear Modulus (GPa) = 24.23726 30.47508 27.35617
#
# Velocity S-wave (km/s) = 3.36254 3.77049 3.57235
# Velocity P-wave (km/s) = 5.89270 6.42409 6.16413
#
# Compressibility (1/GPa) = 0.02374243
#
# Stress axis : x y z
#
# Youngs Moduli (GPa) = 91.34261 106.40017 55.36888
#
# Poissons Ratio (x) = 0.26646 0.07064
# Poissons Ratio (y) = 0.22875 0.19668
# Poissons Ratio (z) = 0.11654 0.37794
#
# Static dielectric constant tensor:
#      x y z
#    x 3.933090 0.000000 -0.161540 
#    y 0.000000 4.080380 0.000000 
#    z -0.161540 0.000000 3.690530 
# 
# 
# High freq. dielectric constant tensor:
#      x y z
#    x 1.845570 0.000000 -0.003910 
#    y 0.000000 1.851030 0.000000 
#    z -0.003910 0.000000 1.822040 
# 
# From -- ./inp_files/77032.got.cif
#   From: 2010.06.25/outbox.cif.g09.slc.cpg/sg10_39_cif.got.tgz:77032.got - 2010.06.27 22:07:45.
