data_PCOD8059723
_publ_section_title
;
Structure prediction by ZEFSAII (Michael W. Deem and Ramdas Pophale) SiO2 
 PCOD8059723
Probable space group: P 2/M
;
_chemical_formula_sum "Si O2"
_cell_formula_units_Z 28
_cell_length_a 10.314941
_cell_length_b 9.601650
_cell_length_c 21.133845
_cell_angle_alpha 90.000000
_cell_angle_beta 47.939393
_cell_angle_gamma 90.000000
_cell_volume 1553.998215
_symmetry_space_group_name_H-M "P 2/M"
_symmetry_group_IT_number 10
_symmetry_cell_setting 'monoclinic'
loop_
_space_group_symop_operation_xyz
x,y,z
-x,y,-z
-x,-y,-z
x,-y,z
loop_
_atom_site_type_symbol
_atom_site_label
_atom_site_fract_x
_atom_site_fract_y
_atom_site_fract_z
Si Si1 0.892605 0.842670 0.439891
Si Si2 0.463293 0.334654 0.913396
Si Si3 0.313040 0.664344 0.586433
Si Si4 0.225258 0.665898 0.103731
Si Si5 0.433430 0.665305 0.781312
Si Si6 0.163923 0.664155 0.767144
Si Si7 0.263706 0.842318 0.374154
O O1 0.839736 0.735536 0.403175
O O2 0.789115 0.805715 0.537325
O O3 0.098271 0.825809 0.382637
O O4 0.848318 0.000000 0.433219
O O5 0.459616 0.500000 0.912934
O O6 0.653077 0.284447 0.877274
O O7 0.426253 0.276021 0.855286
O O8 0.311557 0.280449 0.009950
O O9 0.500000 0.717779 0.500000
O O10 0.295033 0.500000 0.583244
O O11 0.284684 0.710418 0.668532
O O12 0.218113 0.500000 0.105320
O O13 0.030639 0.730666 0.173347
O O14 0.459486 0.500000 0.771118
O O15 0.256848 0.709790 0.802143
O O16 0.594565 0.731488 0.692527
O O17 0.141830 0.500000 0.772671
O O18 0.336507 0.000000 0.345924
#
# Coordination Sequence:
#
# PCOD8059723 Si02
#       7
#     4   4   4   4   4   4   4
#     4   9  19  35  52  69  91 127 171 207 240 287
#     4   8  15  26  44  70  98 127 162 201 240 289
#     4  10  20  32  47  70 102 135 163 198 249 292
#     4   8  14  27  43  65 100 133 158 196 248 288
#     4  10  19  30  48  76 100 125 163 202 238 292
#     4   9  18  29  43  67 103 136 160 197 247 290
#     4   9  19  35  51  69  97 128 160 203 252 291
#
# _framework density 18.018039000000002
#
# number of rings (size 3 to 8) (size 9 to 14) (size 15 to 20)
#    0.000    3.000    0.000    2.571    2.000    3.143 
#    0.000    5.000    0.000    0.000    0.000    5.000 
#    0.000    0.000    0.000    0.000    0.000    0.000 
#
# Total GULP energy -347071.391972 kJ/mol
# GULP energy per Si atom -12395.406856 kJ/mol
# Density = 1.797703 g / cm^3
# Si number density = 18.018039 Si / 1000 Ang^3
#
#
#
# Elastic Constant Matrix: (Units=GPa)
#
#
# Indices 1 2 3 4 5 6 
#
# 1 140.9520 22.3043 73.7043 0.0000 7.2409 0.0000
# 2 22.3043 20.4276 13.8135 0.0000 0.8393 0.0000
# 3 73.7043 13.8135 108.3959 0.0000 -10.9120 0.0000
# 4 0.0000 0.0000 0.0000 10.6363 0.0000 0.0694
# 5 7.2409 0.8393 -10.9120 0.0000 28.1895 0.0000
# 6 0.0000 0.0000 0.0000 0.0694 0.0000 18.0263
#
#
#
# Elastic Compliance Matrix: (Units=1/GPa)
#
#
# Indices 1 2 3 4 5 6 
#
# 1 0.013247 -0.008389 -0.008590 0.000000 -0.006478 0.000000
# 2 -0.008389 0.059414 -0.001903 0.000000 -0.000351 0.000000
# 3 -0.008590 -0.001903 0.016167 0.000000 0.008521 0.000000
# 4 0.000000 0.000000 0.000000 0.094020 0.000000 -0.000362
# 5 -0.006478 -0.000351 0.008521 0.000000 0.040447 0.000000
# 6 0.000000 0.000000 0.000000 -0.000362 0.000000 0.055476
#
#
# Mechanical properties :
#
#
# Convention : Reuss Voigt Hill
#
# Bulk Modulus (GPa) = 19.58339 54.37997 36.98168
# Shear Modulus (GPa) = 14.99005 22.03400 18.51202
#
# Velocity S-wave (km/s) = 2.88748 3.50077 3.20881
# Velocity P-wave (km/s) = 4.69138 6.82546 5.85645
#
# Compressibility (1/GPa) = 0.05106368
#
# Stress axis : x y z
#
# Youngs Moduli (GPa) = 75.49039 16.83111 61.85536
#
# Poissons Ratio (x) = 0.14119 0.53136
# Poissons Ratio (y) = 0.63326 0.11770
# Poissons Ratio (z) = 0.64848 0.03203
#
# Static dielectric constant tensor:
#      x y z
#    x 3.590690 0.000000 0.036930 
#    y 0.000000 2.808580 0.000000 
#    z 0.036930 0.000000 3.481660 
# 
# 
# High freq. dielectric constant tensor:
#      x y z
#    x 1.708850 0.000000 0.001590 
#    y 0.000000 1.642000 0.000000 
#    z 0.001590 0.000000 1.699010 
# 
# From -- ./inp_files/34552.got.cif
#   From: 2010.06.25/outbox.cif.g09.slc.cpg/sg10_18_cif.got.tgz:34552.got - 2010.06.27 22:07:45.
