data_PCOD8059198
_publ_section_title
;
Structure prediction by ZEFSAII (Michael W. Deem and Ramdas Pophale) SiO2 
 PCOD8059198
Probable space group: P 2/M
;
_chemical_formula_sum "Si O2"
_cell_formula_units_Z 24
_cell_length_a 11.097332
_cell_length_b 11.765714
_cell_length_c 16.239013
_cell_angle_alpha 90.000000
_cell_angle_beta 34.572020
_cell_angle_gamma 90.000000
_cell_volume 1203.144381
_symmetry_space_group_name_H-M "P 2/M"
_symmetry_group_IT_number 10
_symmetry_cell_setting 'monoclinic'
loop_
_space_group_symop_operation_xyz
x,y,z
-x,y,-z
-x,-y,-z
x,-y,z
loop_
_atom_site_type_symbol
_atom_site_label
_atom_site_fract_x
_atom_site_fract_y
_atom_site_fract_z
Si Si1 0.246004 0.000000 0.880784
Si Si2 0.202400 0.869143 0.329784
Si Si3 0.311208 0.000000 0.035333
Si Si4 0.901539 0.368375 0.920253
Si Si5 0.248688 0.227841 0.135763
Si Si6 0.582073 0.768708 0.216011
Si Si7 0.399449 0.631864 0.641318
O O1 0.333944 0.885216 0.789823
O O2 0.000000 0.000000 0.000000
O O3 0.344273 0.000000 0.918257
O O4 0.143674 0.793866 0.283457
O O5 0.389872 0.797864 0.264323
O O6 0.000000 0.875370 0.500000
O O7 0.271323 0.000000 0.267477
O O8 0.183222 0.116302 0.119953
O O9 0.500000 0.000000 0.000000
O O10 0.847708 0.500000 0.966044
O O11 0.845728 0.337382 0.856993
O O12 0.149678 0.343854 0.790767
O O13 0.767218 0.294675 0.060540
O O14 0.500000 0.243022 0.000000
O O15 0.493091 0.692447 0.340762
O O16 0.500000 0.680902 0.500000
O O17 0.454746 0.500000 0.615928
#
# Coordination Sequence:
#
# PCOD8059198 Si02
#       7
#     2   4   2   4   4   4   4
#     4  12  22  34  59 100 131 154 199 272 326 363
#     4  11  24  41  61  92 130 168 203 249 312 384
#     4  10  18  34  60  86 117 170 211 243 318 385
#     4  11  23  39  64  93 121 160 211 260 304 360
#     4  11  20  37  63  88 119 160 210 253 305 368
#     4  12  22  41  64  92 124 160 209 255 313 372
#     4  10  24  45  65  86 121 168 210 251 309 377
#
# _framework density 19.947731000000001
#
# number of rings (size 3 to 8) (size 9 to 14) (size 15 to 20)
#    0.000    1.000    5.000    3.000    2.333    1.667 
#    0.000    0.417    0.000    2.500    0.000    0.000 
#    0.000    0.000    0.000    0.000    0.000    0.000 
#
# Total GULP energy -297383.660505 kJ/mol
# GULP energy per Si atom -12390.985854 kJ/mol
# Density = 1.990233 g / cm^3
# Si number density = 19.947731 Si / 1000 Ang^3
#
#
#
# Elastic Constant Matrix: (Units=GPa)
#
#
# Indices 1 2 3 4 5 6 
#
# 1 76.4622 34.4286 23.6429 0.0000 23.0596 0.0000
# 2 34.4286 94.5355 37.7530 0.0000 6.4067 0.0000
# 3 23.6429 37.7530 78.9442 0.0000 20.0689 0.0000
# 4 0.0000 0.0000 0.0000 28.6162 0.0000 9.5458
# 5 23.0596 6.4067 20.0689 0.0000 33.5161 0.0000
# 6 0.0000 0.0000 0.0000 9.5458 0.0000 38.0636
#
#
#
# Elastic Compliance Matrix: (Units=1/GPa)
#
#
# Indices 1 2 3 4 5 6 
#
# 1 0.019640 -0.006459 0.000387 0.000000 -0.012510 0.000000
# 2 -0.006459 0.015261 -0.006785 0.000000 0.005589 0.000000
# 3 0.000387 -0.006785 0.018323 0.000000 -0.009941 0.000000
# 4 0.000000 0.000000 0.000000 0.038136 0.000000 -0.009564
# 5 -0.012510 0.005589 -0.009941 0.000000 0.043327 0.000000
# 6 0.000000 0.000000 0.000000 -0.009564 0.000000 0.028670
#
#
# Mechanical properties :
#
#
# Convention : Reuss Voigt Hill
#
# Bulk Modulus (GPa) = 36.35004 49.06565 42.70784
# Shear Modulus (GPa) = 25.22187 30.31366 27.76777
#
# Velocity S-wave (km/s) = 3.55970 3.90250 3.73503
# Velocity P-wave (km/s) = 5.92937 6.70496 6.32906
#
# Compressibility (1/GPa) = 0.02751029
#
# Stress axis : x y z
#
# Youngs Moduli (GPa) = 50.91709 65.52597 54.57647
#
# Poissons Ratio (x) = 0.42326 -0.02114
# Poissons Ratio (y) = 0.32890 0.37028
# Poissons Ratio (z) = -0.01972 0.44457
#
# Static dielectric constant tensor:
#      x y z
#    x 3.736780 0.000000 0.126250 
#    y 0.000000 3.989060 0.000000 
#    z 0.126250 0.000000 4.060770 
# 
# 
# High freq. dielectric constant tensor:
#      x y z
#    x 1.782390 0.000000 0.010780 
#    y 0.000000 1.783150 0.000000 
#    z 0.010780 0.000000 1.763980 
# 
# From -- ./inp_files/76622.got.cif
#   From: 2010.06.25/outbox.cif.g09.slc.cpg/sg10_39_cif.got.tgz:76622.got - 2010.06.27 22:07:45.
