data_PCOD8059518
_publ_section_title
;
Structure prediction by ZEFSAII (Michael W. Deem and Ramdas Pophale) SiO2 
 PCOD8059518
Probable space group: P 2/M
;
_chemical_formula_sum "Si O2"
_cell_formula_units_Z 32
_cell_length_a 18.110313
_cell_length_b 8.872361
_cell_length_c 13.707793
_cell_angle_alpha 90.000000
_cell_angle_beta 96.524256
_cell_angle_gamma 90.000000
_cell_volume 2188.320817
_symmetry_space_group_name_H-M "P 2/M"
_symmetry_group_IT_number 10
_symmetry_cell_setting 'monoclinic'
loop_
_space_group_symop_operation_xyz
x,y,z
-x,y,-z
-x,-y,-z
x,-y,z
loop_
_atom_site_type_symbol
_atom_site_label
_atom_site_fract_x
_atom_site_fract_y
_atom_site_fract_z
Si Si1 0.943249 0.328815 0.197076
Si Si2 0.517117 0.168125 0.116890
Si Si3 0.806231 0.821925 0.078493
Si Si4 0.787244 0.679647 0.867954
Si Si5 0.020367 0.329160 0.397651
Si Si6 0.340594 0.667604 0.898249
Si Si7 0.375768 0.666282 0.130242
Si Si8 0.910047 0.178457 0.759590
O O1 0.936075 0.500000 0.155623
O O2 0.875381 0.225996 0.154647
O O3 0.947296 0.329437 0.316464
O O4 0.020643 0.253332 0.170369
O O5 0.590552 0.264696 0.152682
O O6 0.445800 0.228622 0.166320
O O7 0.532571 0.000000 0.155285
O O8 0.500000 0.172804 0.000000
O O9 0.731947 0.771384 0.124236
O O10 0.805075 0.000000 0.063275
O O11 0.814446 0.742472 0.975552
O O12 0.796550 0.500000 0.870736
O O13 0.701267 0.725879 0.834538
O O14 0.833837 0.754643 0.789005
O O15 0.050779 0.500000 0.414664
O O16 0.083471 0.226752 0.354011
O O17 0.000000 0.259761 0.500000
O O18 0.322808 0.500000 0.856150
O O19 0.364048 0.659809 0.013375
O O20 0.394432 0.500000 0.172741
O O21 0.911553 0.000000 0.771781
#
# Coordination Sequence:
#
# PCOD8059518 Si02
#       8
#     4   4   4   4   4   4   4   4
#     4   9  18  32  46  61  81 107 138 166 200 247
#     4   9  15  22  34  52  72  94 127 170 208 238
#     4  11  20  29  41  59  82 107 139 177 211 241
#     4  10  19  31  43  56  79 113 145 172 204 244
#     4   8  16  32  51  66  81 104 132 162 200 248
#     4   9  16  26  38  51  71 102 136 167 202 242
#     4   8  15  25  37  51  69  98 135 169 202 239
#     4  10  19  30  44  65  85 104 134 171 208 241
#
# _framework density 14.623085
#
# number of rings (size 3 to 8) (size 9 to 14) (size 15 to 20)
#    0.750    2.000    0.000    4.125    0.000    5.750 
#    0.000    2.500    0.000    0.000    0.000    0.000 
#    0.000    0.000    0.000    1.125    0.000   22.625 
#
# Total GULP energy -396510.679266 kJ/mol
# GULP energy per Si atom -12390.958727 kJ/mol
# Density = 1.458980 g / cm^3
# Si number density = 14.623085 Si / 1000 Ang^3
#
#
#
# Elastic Constant Matrix: (Units=GPa)
#
#
# Indices 1 2 3 4 5 6 
#
# 1 121.9796 52.4085 30.5457 0.0000 -9.9296 0.0000
# 2 52.4085 105.2947 19.0147 0.0000 -6.6334 0.0000
# 3 30.5457 19.0147 30.9493 0.0000 -11.7393 0.0000
# 4 0.0000 0.0000 0.0000 12.4930 0.0000 1.6373
# 5 -9.9296 -6.6334 -11.7393 0.0000 5.4083 0.0000
# 6 0.0000 0.0000 0.0000 1.6373 0.0000 27.4496
#
#
#
# Elastic Compliance Matrix: (Units=1/GPa)
#
#
# Indices 1 2 3 4 5 6 
#
# 1 0.012897 -0.004513 -0.017401 0.000000 -0.019627 0.000000
# 2 -0.004513 0.012302 -0.002963 0.000000 0.000370 0.000000
# 3 -0.017401 -0.002963 0.214021 0.000000 0.428978 0.000000
# 4 0.000000 0.000000 0.000000 0.080675 0.000000 -0.004812
# 5 -0.019627 0.000370 0.428978 0.000000 1.080475 0.000000
# 6 0.000000 0.000000 0.000000 -0.004812 0.000000 0.036717
#
#
# Mechanical properties :
#
#
# Convention : Reuss Voigt Hill
#
# Bulk Modulus (GPa) = 5.27802 51.35126 28.31464
# Shear Modulus (GPa) = 3.22581 19.48715 11.35648
#
# Velocity S-wave (km/s) = 1.48686 3.65448 2.78980
# Velocity P-wave (km/s) = 2.56220 7.28009 5.45732
#
# Compressibility (1/GPa) = 0.18946493
#
# Stress axis : x y z
#
# Youngs Moduli (GPa) = 77.53778 81.28722 4.67245
#
# Poissons Ratio (x) = 0.36688 0.08130
# Poissons Ratio (y) = 0.34996 0.01385
# Poissons Ratio (z) = 1.34921 0.24088
#
# Static dielectric constant tensor:
#      x y z
#    x 3.005880 0.000000 -0.020240 
#    y 0.000000 2.972390 0.000000 
#    z -0.020240 0.000000 2.325010 
# 
# 
# High freq. dielectric constant tensor:
#      x y z
#    x 1.564040 0.000000 0.000200 
#    y 0.000000 1.575630 0.000000 
#    z 0.000200 0.000000 1.484200 
# 
# From -- ./inp_files/68231.got.cif
#   From: 2010.06.25/outbox.cif.g09.slc.cpg/sg10_35_cif.got.tgz:68231.got - 2010.06.27 22:07:45.
