data_PCOD8059087
_publ_section_title
;
Structure prediction by ZEFSAII (Michael W. Deem and Ramdas Pophale) SiO2 
 PCOD8059087
Probable space group: P 2/M
;
_chemical_formula_sum "Si O2"
_cell_formula_units_Z 32
_cell_length_a 19.890480
_cell_length_b 9.343214
_cell_length_c 12.117880
_cell_angle_alpha 90.000000
_cell_angle_beta 125.725234
_cell_angle_gamma 90.000000
_cell_volume 1828.232406
_symmetry_space_group_name_H-M "P 2/M"
_symmetry_group_IT_number 10
_symmetry_cell_setting 'monoclinic'
loop_
_space_group_symop_operation_xyz
x,y,z
-x,y,-z
-x,-y,-z
x,-y,z
loop_
_atom_site_type_symbol
_atom_site_label
_atom_site_fract_x
_atom_site_fract_y
_atom_site_fract_z
Si Si1 0.524872 0.331643 0.645986
Si Si2 0.791238 0.331898 0.162602
Si Si3 0.235321 0.167639 0.302956
Si Si4 0.876170 0.831624 0.612477
Si Si5 0.040127 0.165130 0.657109
Si Si6 0.617497 0.164064 0.391626
Si Si7 0.260981 0.833180 0.684560
Si Si8 0.287665 0.333387 0.147334
O O1 0.500000 0.280583 0.500000
O O2 0.515086 0.500000 0.650475
O O3 0.464295 0.259249 0.676495
O O4 0.617675 0.279797 0.760152
O O5 0.796466 0.500000 0.190457
O O6 0.882826 0.267420 0.251922
O O7 0.732795 0.258516 0.197999
O O8 0.750487 0.296882 0.006852
O O9 0.155737 0.221437 0.298381
O O10 0.317333 0.205885 0.450831
O O11 0.234024 0.251456 0.187247
O O12 0.230097 0.000000 0.272055
O O13 0.818633 0.772203 0.458490
O O14 0.971846 0.791749 0.684210
O O15 0.860906 0.000000 0.594067
O O16 0.000000 0.190235 0.500000
O O17 0.067712 0.000000 0.696685
O O18 0.656765 0.191613 0.308930
O O19 0.591364 0.000000 0.379537
O O20 0.250118 0.000000 0.704638
O O21 0.283177 0.500000 0.171657
#
# Coordination Sequence:
#
# PCOD8059087 Si02
#       8
#     4   4   4   4   4   4   4   4
#     4  10  19  33  54  76 101 138 181 215 252 311
#     4  11  23  36  51  75 109 141 173 215 257 304
#     4   9  17  31  53  79 104 131 168 213 259 307
#     4   8  15  30  53  80 104 128 165 214 258 301
#     4  10  18  33  58  80 102 136 174 212 258 309
#     4   9  18  31  53  83 108 128 163 222 270 300
#     4   9  17  34  55  76 105 138 170 207 260 317
#     4  10  22  38  51  71 107 145 175 209 258 311
#
# _framework density 17.503245
#
# number of rings (size 3 to 8) (size 9 to 14) (size 15 to 20)
#    0.000    2.500    2.500    1.875    0.000    2.500 
#    0.000    3.750    0.000    7.500    0.000    0.000 
#    0.000    0.000    0.000    0.000    0.000    0.000 
#
# Total GULP energy -396768.932882 kJ/mol
# GULP energy per Si atom -12399.029153 kJ/mol
# Density = 1.746341 g / cm^3
# Si number density = 17.503245 Si / 1000 Ang^3
#
#
#
# Elastic Constant Matrix: (Units=GPa)
#
#
# Indices 1 2 3 4 5 6 
#
# 1 137.0025 56.0992 58.3596 0.0000 -14.7753 0.0000
# 2 56.0992 58.8115 46.6197 0.0000 -11.8643 0.0000
# 3 58.3596 46.6197 86.4123 0.0000 -12.0004 0.0000
# 4 0.0000 0.0000 0.0000 21.0107 0.0000 3.9716
# 5 -14.7753 -11.8643 -12.0004 0.0000 25.1851 0.0000
# 6 0.0000 0.0000 0.0000 3.9716 0.0000 15.3101
#
#
#
# Elastic Compliance Matrix: (Units=1/GPa)
#
#
# Indices 1 2 3 4 5 6 
#
# 1 0.012617 -0.008983 -0.003464 0.000000 0.001520 0.000000
# 2 -0.008983 0.037236 -0.013191 0.000000 0.005986 0.000000
# 3 -0.003464 -0.013191 0.021292 0.000000 0.001899 0.000000
# 4 0.000000 0.000000 0.000000 0.050049 0.000000 -0.012983
# 5 0.001520 0.005986 0.001899 0.000000 0.044323 0.000000
# 6 0.000000 0.000000 0.000000 -0.012983 0.000000 0.068684
#
#
# Mechanical properties :
#
#
# Convention : Reuss Voigt Hill
#
# Bulk Modulus (GPa) = 50.32704 67.15369 58.74036
# Shear Modulus (GPa) = 17.11753 20.37770 18.74761
#
# Velocity S-wave (km/s) = 3.13063 3.41577 3.27631
# Velocity P-wave (km/s) = 6.47172 7.34890 6.92422
#
# Compressibility (1/GPa) = 0.01987004
#
# Stress axis : x y z
#
# Youngs Moduli (GPa) = 79.26079 26.85580 46.96601
#
# Poissons Ratio (x) = 0.24123 0.16267
# Poissons Ratio (y) = 0.71196 0.61953
# Poissons Ratio (z) = 0.27453 0.35426
#
# Static dielectric constant tensor:
#      x y z
#    x 3.518000 0.000000 -0.044480 
#    y 0.000000 3.044070 0.000000 
#    z -0.044480 0.000000 3.044950 
# 
# 
# High freq. dielectric constant tensor:
#      x y z
#    x 1.692640 0.000000 -0.007300 
#    y 0.000000 1.659260 0.000000 
#    z -0.007300 0.000000 1.650120 
# 
# From -- ./inp_files/55375.got.cif
#   From: 2010.06.25/outbox.cif.g09.slc.cpg/sg10_28_cif.got.tgz:55375.got - 2010.06.27 22:07:45.
