data_PCOD8059954
_publ_section_title
;
Structure prediction by ZEFSAII (Michael W. Deem and Ramdas Pophale) SiO2 
 PCOD8059954
Probable space group: P 2/M
;
_chemical_formula_sum "Si O2"
_cell_formula_units_Z 28
_cell_length_a 20.663174
_cell_length_b 9.029329
_cell_length_c 16.279484
_cell_angle_alpha 90.000000
_cell_angle_beta 151.483253
_cell_angle_gamma 90.000000
_cell_volume 1450.072646
_symmetry_space_group_name_H-M "P 2/M"
_symmetry_group_IT_number 10
_symmetry_cell_setting 'monoclinic'
loop_
_space_group_symop_operation_xyz
x,y,z
-x,y,-z
-x,-y,-z
x,-y,z
loop_
_atom_site_type_symbol
_atom_site_label
_atom_site_fract_x
_atom_site_fract_y
_atom_site_fract_z
Si Si1 0.827221 0.330580 0.398012
Si Si2 0.488268 0.172992 0.396622
Si Si3 0.453680 0.330405 0.825509
Si Si4 0.721504 0.824577 0.132751
Si Si5 0.948024 0.171813 0.683770
Si Si6 0.752925 0.173639 0.982446
Si Si7 0.677973 0.829094 0.466683
O O1 0.869754 0.500000 0.432798
O O2 0.674351 0.313559 0.258855
O O3 0.835654 0.246055 0.320037
O O4 0.927379 0.259805 0.576334
O O5 0.500000 0.247310 0.500000
O O6 0.361665 0.244528 0.204853
O O7 0.630923 0.199453 0.507953
O O8 0.458479 0.000000 0.374390
O O9 0.501579 0.500000 0.872880
O O10 0.418138 0.271755 0.695548
O O11 0.574428 0.232894 0.997670
O O12 0.730581 0.000000 0.150329
O O13 0.745020 0.764848 0.066479
O O14 0.836152 0.212877 0.628639
O O15 0.938634 0.000000 0.649554
O O16 0.096932 0.209897 0.885706
O O17 0.725063 0.000000 0.956220
O O18 0.651986 0.000000 0.413272
#
# Coordination Sequence:
#
# PCOD8059954 Si02
#       7
#     4   4   4   4   4   4   4
#     4  10  21  34  47  70 103 135 171 213 254 293
#     4   9  16  29  52  80 106 129 158 204 257 301
#     4  10  19  31  48  71 101 134 167 211 258 295
#     4  11  20  31  49  71 100 136 175 211 249 296
#     4   9  18  33  52  71  99 137 174 207 242 293
#     4   9  18  32  49  73 103 133 165 207 255 298
#     4   9  16  30  52  76  98 130 172 205 241 301
#
# _framework density 19.309377000000001
#
# number of rings (size 3 to 8) (size 9 to 14) (size 15 to 20)
#    0.000    2.429    1.429    1.714    0.000    4.000 
#    0.000    5.000    0.000    4.714    0.000    0.000 
#    0.000    4.571    0.000    0.000    0.000    0.000 
#
# Total GULP energy -347078.088474 kJ/mol
# GULP energy per Si atom -12395.646017 kJ/mol
# Density = 1.926543 g / cm^3
# Si number density = 19.309377 Si / 1000 Ang^3
#
#
#
# Elastic Constant Matrix: (Units=GPa)
#
#
# Indices 1 2 3 4 5 6 
#
# 1 94.0070 17.8389 65.3068 0.0000 -19.6631 0.0000
# 2 17.8389 53.4287 23.3559 0.0000 -7.2398 0.0000
# 3 65.3068 23.3559 107.9690 0.0000 -5.7884 0.0000
# 4 0.0000 0.0000 0.0000 11.5607 0.0000 1.8871
# 5 -19.6631 -7.2398 -5.7884 0.0000 31.2336 0.0000
# 6 0.0000 0.0000 0.0000 1.8871 0.0000 8.8415
#
#
#
# Elastic Compliance Matrix: (Units=1/GPa)
#
#
# Indices 1 2 3 4 5 6 
#
# 1 0.021715 -0.000268 -0.012471 0.000000 0.011297 0.000000
# 2 -0.000268 0.021182 -0.004208 0.000000 0.003962 0.000000
# 3 -0.012471 -0.004208 0.017415 0.000000 -0.005599 0.000000
# 4 0.000000 0.000000 0.000000 0.089623 0.000000 -0.019129
# 5 0.011297 0.003962 -0.005599 0.000000 0.039010 0.000000
# 6 0.000000 0.000000 0.000000 -0.019129 0.000000 0.117185
#
#
# Mechanical properties :
#
#
# Convention : Reuss Voigt Hill
#
# Bulk Modulus (GPa) = 37.85126 52.04531 44.94828
# Shear Modulus (GPa) = 14.33363 20.25403 17.29383
#
# Velocity S-wave (km/s) = 2.72750 3.24222 2.99593
# Velocity P-wave (km/s) = 5.43729 6.40530 5.94104
#
# Compressibility (1/GPa) = 0.02641920
#
# Stress axis : x y z
#
# Youngs Moduli (GPa) = 46.05103 47.20954 57.42076
#
# Poissons Ratio (x) = 0.01264 0.71610
# Poissons Ratio (y) = 0.01233 0.24161
# Poissons Ratio (z) = 0.57431 0.19865
#
# Static dielectric constant tensor:
#      x y z
#    x 3.617030 0.000000 0.037850 
#    y 0.000000 3.278490 0.000000 
#    z 0.037850 0.000000 3.621540 
# 
# 
# High freq. dielectric constant tensor:
#      x y z
#    x 1.748950 0.000000 0.013080 
#    y 0.000000 1.717160 0.000000 
#    z 0.013080 0.000000 1.740180 
# 
# From -- ./inp_files/54658.got.cif
#   From: 2010.06.25/outbox.cif.g09.slc.cpg/sg10_28_cif.got.tgz:54658.got - 2010.06.27 22:07:45.
