data_PCOD8059867
_publ_section_title
;
Structure prediction by ZEFSAII (Michael W. Deem and Ramdas Pophale) SiO2 
 PCOD8059867
Probable space group: P 2/M
;
_chemical_formula_sum "Si O2"
_cell_formula_units_Z 32
_cell_length_a 8.276006
_cell_length_b 13.481383
_cell_length_c 27.944178
_cell_angle_alpha 90.000000
_cell_angle_beta 142.771941
_cell_angle_gamma 90.000000
_cell_volume 1886.227827
_symmetry_space_group_name_H-M "P 2/M"
_symmetry_group_IT_number 10
_symmetry_cell_setting 'monoclinic'
loop_
_space_group_symop_operation_xyz
x,y,z
-x,y,-z
-x,-y,-z
x,-y,z
loop_
_atom_site_type_symbol
_atom_site_label
_atom_site_fract_x
_atom_site_fract_y
_atom_site_fract_z
Si Si1 0.727652 0.117501 0.331918
Si Si2 0.909466 0.701082 0.909397
Si Si3 0.745321 0.712272 0.094174
Si Si4 0.387310 0.615363 0.080830
Si Si5 0.169654 0.113629 0.819499
Si Si6 0.597976 0.116991 0.656202
Si Si7 0.304346 0.118292 0.494736
Si Si8 0.576319 0.114317 0.832948
O O1 0.514462 0.156898 0.320094
O O2 0.628848 0.151347 0.256464
O O3 0.014284 0.163289 0.413889
O O4 0.752794 0.000000 0.338634
O O5 0.652361 0.640925 0.871429
O O6 0.841015 0.818307 0.894380
O O7 0.995335 0.671748 0.874794
O O8 0.165714 0.681361 0.002496
O O9 0.673299 0.644613 0.124198
O O10 0.807768 0.822654 0.127081
O O11 0.500000 0.715090 0.000000
O O12 0.334745 0.500000 0.059745
O O13 0.431616 0.129026 0.849436
O O14 0.910113 0.146165 0.727145
O O15 0.136851 0.000000 0.828291
O O16 0.422740 0.163430 0.571920
O O17 0.564456 0.000000 0.644602
O O18 0.500000 0.155430 0.500000
O O19 0.290252 0.000000 0.493940
O O20 0.662086 0.000000 0.845176
#
# Coordination Sequence:
#
# PCOD8059867 Si02
#       8
#     4   4   4   4   4   4   4   4
#     4   9  16  25  38  58  83 117 159 197 233 270
#     4  10  19  33  53  73  95 122 156 190 237 283
#     4  10  21  34  52  73  96 122 158 198 238 290
#     4  10  21  38  56  75  95 116 150 196 248 298
#     4  10  19  32  46  64  94 131 167 200 237 277
#     4   9  16  25  39  57  81 117 159 200 235 269
#     4   9  15  23  35  54  80 112 155 199 233 268
#     4  10  19  31  47  66  95 132 165 197 233 277
#
# _framework density 16.965076
#
# number of rings (size 3 to 8) (size 9 to 14) (size 15 to 20)
#    0.000    2.375    1.250    2.625    0.000    9.000 
#    0.000    3.125    0.000    0.000    0.000    0.000 
#    0.000    0.000    0.000    3.375    0.000   30.875 
#
# Total GULP energy -396456.467567 kJ/mol
# GULP energy per Si atom -12389.264611 kJ/mol
# Density = 1.692646 g / cm^3
# Si number density = 16.965076 Si / 1000 Ang^3
#
#
#
# Elastic Constant Matrix: (Units=GPa)
#
#
# Indices 1 2 3 4 5 6 
#
# 1 135.2211 38.8517 22.5111 0.0000 -7.7994 0.0000
# 2 38.8517 52.5801 29.1001 0.0000 4.0858 0.0000
# 3 22.5111 29.1001 41.7983 0.0000 -2.2241 0.0000
# 4 0.0000 0.0000 0.0000 1.4360 0.0000 -1.1517
# 5 -7.7994 4.0858 -2.2241 0.0000 25.9680 0.0000
# 6 0.0000 0.0000 0.0000 -1.1517 0.0000 14.3842
#
#
#
# Elastic Compliance Matrix: (Units=1/GPa)
#
#
# Indices 1 2 3 4 5 6 
#
# 1 0.009812 -0.007769 0.000348 0.000000 0.004199 0.000000
# 2 -0.007769 0.038313 -0.023040 0.000000 -0.010335 0.000000
# 3 0.000348 -0.023040 0.040159 0.000000 0.007169 0.000000
# 4 0.000000 0.000000 0.000000 0.744188 0.000000 0.059587
# 5 0.004199 -0.010335 0.007169 0.000000 0.042010 0.000000
# 6 0.000000 0.000000 0.000000 0.059587 0.000000 0.074292
#
#
# Mechanical properties :
#
#
# Convention : Reuss Voigt Hill
#
# Bulk Modulus (GPa) = 36.54635 45.61392 41.08013
# Shear Modulus (GPa) = 4.90765 17.63339 11.27052
#
# Velocity S-wave (km/s) = 1.70267 3.22746 2.58027
# Velocity P-wave (km/s) = 5.04523 6.39015 5.75710
#
# Compressibility (1/GPa) = 0.02736252
#
# Stress axis : x y z
#
# Youngs Moduli (GPa) = 101.91934 26.10060 24.90100
#
# Poissons Ratio (x) = 0.20277 -0.00866
# Poissons Ratio (y) = 0.79178 0.57372
# Poissons Ratio (z) = -0.03545 0.60135
#
# Static dielectric constant tensor:
#      x y z
#    x 3.888550 0.000000 -0.096000 
#    y 0.000000 2.702170 0.000000 
#    z -0.096000 0.000000 3.130330 
# 
# 
# High freq. dielectric constant tensor:
#      x y z
#    x 1.684490 0.000000 -0.005620 
#    y 0.000000 1.583940 0.000000 
#    z -0.005620 0.000000 1.632620 
# 
# From -- ./inp_files/92333.got.cif
#   From: 2010.06.25/outbox.cif.g09.slc.cpg/sg10_47_cif.got.tgz:92333.got - 2010.06.27 22:07:45.
