data_PCOD8059587
_publ_section_title
;
Structure prediction by ZEFSAII (Michael W. Deem and Ramdas Pophale) SiO2 
 PCOD8059587
Probable space group: P 2/M
;
_chemical_formula_sum "Si O2"
_cell_formula_units_Z 28
_cell_length_a 15.208202
_cell_length_b 9.051490
_cell_length_c 19.258973
_cell_angle_alpha 90.000000
_cell_angle_beta 142.776207
_cell_angle_gamma 90.000000
_cell_volume 1603.747811
_symmetry_space_group_name_H-M "P 2/M"
_symmetry_group_IT_number 10
_symmetry_cell_setting 'monoclinic'
loop_
_space_group_symop_operation_xyz
x,y,z
-x,y,-z
-x,-y,-z
x,-y,z
loop_
_atom_site_type_symbol
_atom_site_label
_atom_site_fract_x
_atom_site_fract_y
_atom_site_fract_z
Si Si1 0.558502 0.829186 0.428538
Si Si2 0.998776 0.675302 0.167789
Si Si3 0.881403 0.825865 0.629659
Si Si4 0.427748 0.667086 0.702437
Si Si5 0.275996 0.673968 0.253543
Si Si6 0.890401 0.670542 0.488540
Si Si7 0.260550 0.330584 0.086534
O O1 0.719540 0.788032 0.557810
O O2 0.564037 0.789863 0.351166
O O3 0.424466 0.742233 0.380125
O O4 0.524844 0.000000 0.417822
O O5 0.992546 0.500000 0.175306
O O6 0.003804 0.753595 0.245609
O O7 0.138127 0.724536 0.210900
O O8 0.856711 0.741502 0.039096
O O9 0.908624 0.759190 0.570948
O O10 0.905771 0.000000 0.639902
O O11 0.433318 0.500000 0.673536
O O12 0.274608 0.687168 0.646146
O O13 0.574585 0.688181 0.840951
O O14 0.295936 0.500000 0.266713
O O15 0.253990 0.734187 0.160804
O O16 0.927469 0.500000 0.527203
O O17 0.000000 0.735827 0.500000
O O18 0.213111 0.500000 0.062111
#
# Coordination Sequence:
#
# PCOD8059587 Si02
#       7
#     4   4   4   4   4   4   4
#     4   9  17  29  44  62  88 121 154 189 227 268
#     4  10  19  30  46  66  90 123 160 195 228 265
#     4  10  21  34  46  65  95 126 153 183 226 277
#     4   8  14  27  48  71  93 116 144 182 227 271
#     4   9  17  29  46  67  89 117 157 201 237 266
#     4   9  17  31  54  80  98 112 139 183 230 277
#     4   8  14  27  47  68  90 119 156 193 227 264
#
# _framework density 17.459102999999999
#
# number of rings (size 3 to 8) (size 9 to 14) (size 15 to 20)
#    0.000    3.000    0.000    2.143    0.000    4.857 
#    0.000    5.714    0.000    5.143    0.000    6.000 
#    0.000    0.000    0.000    0.000    0.000    0.000 
#
# Total GULP energy -346886.251724 kJ/mol
# GULP energy per Si atom -12388.794704 kJ/mol
# Density = 1.741937 g / cm^3
# Si number density = 17.459103 Si / 1000 Ang^3
#
#
#
# Elastic Constant Matrix: (Units=GPa)
#
#
# Indices 1 2 3 4 5 6 
#
# 1 95.9494 20.4141 45.0915 0.0000 12.6837 0.0000
# 2 20.4141 34.9178 27.3314 0.0000 -0.9438 0.0000
# 3 45.0915 27.3314 100.0684 0.0000 3.2856 0.0000
# 4 0.0000 0.0000 0.0000 10.4176 0.0000 2.1578
# 5 12.6837 -0.9438 3.2856 0.0000 19.2848 0.0000
# 6 0.0000 0.0000 0.0000 2.1578 0.0000 14.0803
#
#
#
# Elastic Compliance Matrix: (Units=1/GPa)
#
#
# Indices 1 2 3 4 5 6 
#
# 1 0.015151 -0.005096 -0.005129 0.000000 -0.009341 0.000000
# 2 -0.005096 0.038376 -0.008404 0.000000 0.006662 0.000000
# 3 -0.005129 -0.008404 0.014584 0.000000 0.000477 0.000000
# 4 0.000000 0.000000 0.000000 0.099139 0.000000 -0.015193
# 5 -0.009341 0.006662 0.000477 0.000000 0.058242 0.000000
# 6 0.000000 0.000000 0.000000 -0.015193 0.000000 0.073350
#
#
# Mechanical properties :
#
#
# Convention : Reuss Voigt Hill
#
# Bulk Modulus (GPa) = 32.41078 46.28994 39.35036
# Shear Modulus (GPa) = 14.43484 17.96312 16.19898
#
# Velocity S-wave (km/s) = 2.87850 3.21108 3.04933
# Velocity P-wave (km/s) = 5.44535 6.34972 5.91484
#
# Compressibility (1/GPa) = 0.03085393
#
# Stress axis : x y z
#
# Youngs Moduli (GPa) = 66.00040 26.05785 68.56867
#
# Poissons Ratio (x) = 0.13279 0.35167
# Poissons Ratio (y) = 0.33634 0.57625
# Poissons Ratio (z) = 0.33850 0.21899
#
# Static dielectric constant tensor:
#      x y z
#    x 3.137960 0.000000 0.342920 
#    y 0.000000 3.018690 0.000000 
#    z 0.342920 0.000000 3.474180 
# 
# 
# High freq. dielectric constant tensor:
#      x y z
#    x 1.645940 0.000000 0.023970 
#    y 0.000000 1.654890 0.000000 
#    z 0.023970 0.000000 1.672660 
# 
# From -- ./inp_files/54538.got.cif
#   From: 2010.06.25/outbox.cif.g09.slc.cpg/sg10_28_cif.got.tgz:54538.got - 2010.06.27 22:07:45.
