data_PCOD8059807
_publ_section_title
;
Structure prediction by ZEFSAII (Michael W. Deem and Ramdas Pophale) SiO2 
 PCOD8059807
Probable space group: P 2/M
;
_chemical_formula_sum "Si O2"
_cell_formula_units_Z 26
_cell_length_a 21.216273
_cell_length_b 18.252174
_cell_length_c 21.195741
_cell_angle_alpha 90.000000
_cell_angle_beta 166.010078
_cell_angle_gamma 90.000000
_cell_volume 1984.270967
_symmetry_space_group_name_H-M "P 2/M"
_symmetry_group_IT_number 10
_symmetry_cell_setting 'monoclinic'
loop_
_space_group_symop_operation_xyz
x,y,z
-x,y,-z
-x,-y,-z
x,-y,z
loop_
_atom_site_type_symbol
_atom_site_label
_atom_site_fract_x
_atom_site_fract_y
_atom_site_fract_z
Si Si1 0.228704 0.762898 0.772927
Si Si2 0.788526 0.631553 0.151061
Si Si3 0.968076 0.587483 0.039982
Si Si4 0.319937 0.587554 0.609486
Si Si5 0.770824 0.922849 0.227838
Si Si6 0.228908 0.500000 0.771418
Si Si7 0.432834 0.586928 0.577254
O O1 0.200148 0.710004 0.804745
O O2 0.211899 0.843963 0.789929
O O3 0.000000 0.749815 0.500000
O O4 0.500000 0.749767 0.000000
O O5 0.798707 0.572043 0.215057
O O6 0.033707 0.619892 0.343376
O O7 0.522664 0.624277 0.853978
O O8 0.967356 0.500000 0.039311
O O9 0.701894 0.618476 0.811100
O O10 0.000000 0.617291 0.000000
O O11 0.201687 0.618667 0.309521
O O12 0.321487 0.500000 0.619833
O O13 0.398154 0.612001 0.615348
O O14 0.000000 0.924289 0.500000
O O15 0.790515 0.000000 0.206121
O O16 0.500000 0.924020 0.000000
O O17 0.000000 0.500000 0.500000
O O18 0.500000 0.500000 0.000000
O O19 0.431845 0.500000 0.572415
#
# Coordination Sequence:
#
# PCOD8059807 Si02
#       7
#     4   4   4   4   4   2   4
#     4  10  19  31  43  58  76  92 115 150 194 238
#     4  12  21  32  43  54  70  94 124 160 194 228
#     4   9  15  24  37  56  74  88 106 137 183 227
#     4  11  20  33  42  53  69  95 131 160 186 219
#     4   8  14  25  42  60  76  92 108 131 173 231
#     4  12  22  32  42  52  66  86 117 156 199 234
#     4   9  17  26  39  52  68  91 115 145 179 216
#
# _framework density 13.103049
#
# number of rings (size 3 to 8) (size 9 to 14) (size 15 to 20)
#    0.000    2.000    1.538    4.154    0.000    4.308 
#    0.000    0.000    0.000    0.000    0.000    0.000 
#    0.000    0.000    0.000    0.000    0.000    0.000 
#
# Total GULP energy -322192.086481 kJ/mol
# GULP energy per Si atom -12392.003326 kJ/mol
# Density = 1.307323 g / cm^3
# Si number density = 13.103049 Si / 1000 Ang^3
#
#
#
# Elastic Constant Matrix: (Units=GPa)
#
#
# Indices 1 2 3 4 5 6 
#
# 1 73.8000 26.2306 25.6428 0.0000 5.1284 0.0000
# 2 26.2306 76.4056 8.5794 0.0000 -0.6647 0.0000
# 3 25.6428 8.5794 92.3925 0.0000 5.0454 0.0000
# 4 0.0000 0.0000 0.0000 11.7371 0.0000 0.1488
# 5 5.1284 -0.6647 5.0454 0.0000 27.9576 0.0000
# 6 0.0000 0.0000 0.0000 0.1488 0.0000 5.4592
#
#
#
# Elastic Compliance Matrix: (Units=1/GPa)
#
#
# Indices 1 2 3 4 5 6 
#
# 1 0.017077 -0.005425 -0.004098 0.000000 -0.002522 0.000000
# 2 -0.005425 0.014957 0.000043 0.000000 0.001343 0.000000
# 3 -0.004098 0.000043 0.012034 0.000000 -0.001419 0.000000
# 4 0.000000 0.000000 0.000000 0.085229 0.000000 -0.002324
# 5 -0.002522 0.001343 -0.001419 0.000000 0.036519 0.000000
# 6 0.000000 0.000000 0.000000 -0.002324 0.000000 0.183239
#
#
# Mechanical properties :
#
#
# Convention : Reuss Voigt Hill
#
# Bulk Modulus (GPa) = 39.82500 40.38930 40.10715
# Shear Modulus (GPa) = 13.28425 21.17380 17.22902
#
# Velocity S-wave (km/s) = 3.18752 4.02424 3.63007
# Velocity P-wave (km/s) = 6.63376 7.24458 6.94589
#
# Compressibility (1/GPa) = 0.02510986
#
# Stress axis : x y z
#
# Youngs Moduli (GPa) = 58.55678 66.85762 83.09583
#
# Poissons Ratio (x) = 0.36267 0.34055
# Poissons Ratio (y) = 0.31765 -0.00360
# Poissons Ratio (z) = 0.23998 -0.00290
#
# Static dielectric constant tensor:
#      x y z
#    x 2.579530 0.000000 0.040070 
#    y 0.000000 2.719570 0.000000 
#    z 0.040070 0.000000 3.055910 
# 
# 
# High freq. dielectric constant tensor:
#      x y z
#    x 1.477440 0.000000 0.005190 
#    y 0.000000 1.455310 0.000000 
#    z 0.005190 0.000000 1.528810 
# 
# From -- ./inp_files/11535.got.cif
#   From: 2010.06.25/outbox.cif.g09.slc.cpg/sg10_6_cif.got.tgz:11535.got - 2010.06.27 22:07:45.
