data_PCOD8059203
_publ_section_title
;
Structure prediction by ZEFSAII (Michael W. Deem and Ramdas Pophale) SiO2 
 PCOD8059203
Probable space group: P 2/M
;
_chemical_formula_sum "Si O2"
_cell_formula_units_Z 32
_cell_length_a 8.661199
_cell_length_b 22.378401
_cell_length_c 15.288019
_cell_angle_alpha 90.000000
_cell_angle_beta 30.809665
_cell_angle_gamma 90.000000
_cell_volume 1517.705373
_symmetry_space_group_name_H-M "P 2/M"
_symmetry_group_IT_number 10
_symmetry_cell_setting 'monoclinic'
loop_
_space_group_symop_operation_xyz
x,y,z
-x,y,-z
-x,-y,-z
x,-y,z
loop_
_atom_site_type_symbol
_atom_site_label
_atom_site_fract_x
_atom_site_fract_y
_atom_site_fract_z
Si Si1 0.658633 0.629379 0.674534
Si Si2 0.152365 0.931043 0.014269
Si Si3 0.781380 0.879613 0.674056
Si Si4 0.857707 0.848613 0.823736
Si Si5 0.488340 0.760861 0.759228
Si Si6 0.995893 0.255889 0.863713
Si Si7 0.722116 0.385099 0.973336
Si Si8 0.355365 0.567549 0.661629
O O1 0.677047 0.700414 0.683435
O O2 0.473675 0.612493 0.678135
O O3 0.000000 0.604512 0.500000
O O4 0.477409 0.600689 0.844037
O O5 0.025191 0.895278 0.159934
O O6 0.073238 0.000000 0.068221
O O7 0.508467 0.923104 0.830087
O O8 0.000000 0.906110 0.000000
O O9 0.962803 0.866450 0.675584
O O10 0.696723 0.818881 0.662603
O O11 0.000000 0.914157 0.500000
O O12 0.993510 0.783045 0.776439
O O13 0.500000 0.844481 0.000000
O O14 0.325536 0.750424 0.745553
O O15 0.247402 0.772747 0.952728
O O16 0.904401 0.323127 0.887782
O O17 0.990431 0.433020 0.834112
O O18 0.500000 0.387713 0.000000
O O19 0.500000 0.589190 0.500000
O O20 0.460102 0.500000 0.631975
#
# Coordination Sequence:
#
# PCOD8059203 Si02
#       8
#     4   4   4   4   4   4   4   4
#     4  11  23  41  64  94 129 168 214 263 325 389
#     4  10  21  40  65  87 115 166 220 262 307 374
#     4  11  23  37  56  89 130 160 202 259 325 372
#     4  10  19  34  58  87 120 162 207 254 303 380
#     4  10  19  35  58  86 127 161 199 255 315 377
#     4  10  18  34  60  88 120 161 206 254 310 368
#     4  11  23  39  65  97 128 167 214 264 322 391
#     4  11  25  47  68  93 129 168 217 271 324 384
#
# _framework density 21.084463
#
# number of rings (size 3 to 8) (size 9 to 14) (size 15 to 20)
#    0.000    1.500    3.750    2.625    1.750    4.000 
#    2.250    2.500    0.000    1.500    0.000    0.000 
#    0.000    0.000    0.000    0.000    0.000    0.000 
#
# Total GULP energy -396777.685743 kJ/mol
# GULP energy per Si atom -12399.302679 kJ/mol
# Density = 2.103647 g / cm^3
# Si number density = 21.084463 Si / 1000 Ang^3
#
#
#
# Elastic Constant Matrix: (Units=GPa)
#
#
# Indices 1 2 3 4 5 6 
#
# 1 143.6138 22.8854 41.4026 0.0000 13.6934 0.0000
# 2 22.8854 57.6942 7.0418 0.0000 7.3905 0.0000
# 3 41.4026 7.0418 108.5497 0.0000 13.3916 0.0000
# 4 0.0000 0.0000 0.0000 14.1377 0.0000 -3.6644
# 5 13.6934 7.3905 13.3916 0.0000 34.0794 0.0000
# 6 0.0000 0.0000 0.0000 -3.6644 0.0000 23.0718
#
#
#
# Elastic Compliance Matrix: (Units=1/GPa)
#
#
# Indices 1 2 3 4 5 6 
#
# 1 0.008372 -0.002765 -0.002809 0.000000 -0.001660 0.000000
# 2 -0.002765 0.018794 0.000212 0.000000 -0.003048 0.000000
# 3 -0.002809 0.000212 0.010653 0.000000 -0.003103 0.000000
# 4 0.000000 0.000000 0.000000 0.073770 0.000000 0.011716
# 5 -0.001660 -0.003048 -0.003103 0.000000 0.031891 0.000000
# 6 0.000000 0.000000 0.000000 0.011716 0.000000 0.045204
#
#
# Mechanical properties :
#
#
# Convention : Reuss Voigt Hill
#
# Bulk Modulus (GPa) = 36.90918 50.27973 43.59446
# Shear Modulus (GPa) = 23.98770 30.15963 27.07367
#
# Velocity S-wave (km/s) = 3.37663 3.78619 3.58726
# Velocity P-wave (km/s) = 5.72238 6.55837 6.15459
#
# Compressibility (1/GPa) = 0.02709353
#
# Stress axis : x y z
#
# Youngs Moduli (GPa) = 119.44722 53.20771 93.87143
#
# Poissons Ratio (x) = 0.14714 0.26368
# Poissons Ratio (y) = 0.33031 -0.01985
# Poissons Ratio (z) = 0.33552 -0.01125
#
# Static dielectric constant tensor:
#      x y z
#    x 4.053130 0.000000 0.138910 
#    y 0.000000 3.586300 0.000000 
#    z 0.138910 0.000000 3.712680 
# 
# 
# High freq. dielectric constant tensor:
#      x y z
#    x 1.837000 0.000000 0.003650 
#    y 0.000000 1.815270 0.000000 
#    z 0.003650 0.000000 1.808320 
# 
# From -- ./inp_files/62682.got.cif
#   From: 2010.06.25/outbox.cif.g09.slc.cpg/sg10_32_cif.got.tgz:62682.got - 2010.06.27 22:07:45.
