data_PCOD8059853
_publ_section_title
;
Structure prediction by ZEFSAII (Michael W. Deem and Ramdas Pophale) SiO2 
 PCOD8059853
Probable space group: P 2/M
;
_chemical_formula_sum "Si O2"
_cell_formula_units_Z 32
_cell_length_a 15.141678
_cell_length_b 13.382929
_cell_length_c 11.926620
_cell_angle_alpha 90.000000
_cell_angle_beta 42.561186
_cell_angle_gamma 90.000000
_cell_volume 1634.675281
_symmetry_space_group_name_H-M "P 2/M"
_symmetry_group_IT_number 10
_symmetry_cell_setting 'monoclinic'
loop_
_space_group_symop_operation_xyz
x,y,z
-x,y,-z
-x,-y,-z
x,-y,z
loop_
_atom_site_type_symbol
_atom_site_label
_atom_site_fract_x
_atom_site_fract_y
_atom_site_fract_z
Si Si1 0.347946 0.887644 0.638059
Si Si2 0.028859 0.614977 0.177309
Si Si3 0.320325 0.612612 0.192631
Si Si4 0.283195 0.696789 0.828815
Si Si5 0.469242 0.303855 0.859280
Si Si6 0.090807 0.726966 0.509354
Si Si7 0.312314 0.199430 0.438372
Si Si8 0.257268 0.609779 0.624296
O O1 0.500000 0.864101 0.500000
O O2 0.278055 0.811636 0.788585
O O3 0.304229 0.877926 0.548281
O O4 0.314836 0.000000 0.708242
O O5 0.070805 0.500000 0.158358
O O6 0.004483 0.670077 0.317031
O O7 0.899616 0.621850 0.221933
O O8 0.142454 0.675375 0.010729
O O9 0.314364 0.500000 0.148999
O O10 0.425460 0.614296 0.196021
O O11 0.179451 0.641549 0.370622
O O12 0.359657 0.695242 0.060145
O O13 0.397394 0.672827 0.809880
O O14 0.313793 0.625459 0.695538
O O15 0.552753 0.198870 0.762134
O O16 0.182525 0.811467 0.482764
O O17 0.000000 0.779396 0.500000
O O18 0.318311 0.312167 0.481500
O O19 0.295294 0.500000 0.545388
#
# Coordination Sequence:
#
# PCOD8059853 Si02
#       8
#     4   4   4   4   4   4   4   4
#     4  10  20  38  63  85 106 133 168 217 280 343
#     4  10  20  33  49  73 109 152 193 224 252 296
#     4  10  21  33  46  71 110 150 189 230 262 299
#     4  11  20  31  53  78 107 133 177 224 266 324
#     4  10  19  31  46  71 104 138 172 221 273 313
#     4  10  20  34  53  74 102 150 198 226 254 297
#     4   9  19  35  53  77 112 137 176 226 267 319
#     4   9  19  32  47  70 105 150 186 213 252 308
#
# _framework density 19.575752999999999
#
# number of rings (size 3 to 8) (size 9 to 14) (size 15 to 20)
#    0.000    2.125    1.250    2.625    0.000    8.500 
#    0.000    0.625    0.000   13.875    0.000   21.875 
#    0.000    0.000    0.000    0.000    0.000    0.000 
#
# Total GULP energy -396481.484229 kJ/mol
# GULP energy per Si atom -12390.046382 kJ/mol
# Density = 1.953120 g / cm^3
# Si number density = 19.575753 Si / 1000 Ang^3
#
#
#
# Elastic Constant Matrix: (Units=GPa)
#
#
# Indices 1 2 3 4 5 6 
#
# 1 137.0938 10.9173 0.2565 0.0000 17.1874 0.0000
# 2 10.9173 58.5773 19.3588 0.0000 0.2118 0.0000
# 3 0.2565 19.3588 69.4355 0.0000 13.7695 0.0000
# 4 0.0000 0.0000 0.0000 14.0503 0.0000 1.1984
# 5 17.1874 0.2118 13.7695 0.0000 19.9936 0.0000
# 6 0.0000 0.0000 0.0000 1.1984 0.0000 14.3889
#
#
#
# Elastic Compliance Matrix: (Units=1/GPa)
#
#
# Indices 1 2 3 4 5 6 
#
# 1 0.008613 -0.002374 0.002424 0.000000 -0.009049 0.000000
# 2 -0.002374 0.019732 -0.006782 0.000000 0.006502 0.000000
# 3 0.002424 -0.006782 0.019322 0.000000 -0.015319 0.000000
# 4 0.000000 0.000000 0.000000 0.071682 0.000000 -0.005970
# 5 -0.009049 0.006502 -0.015319 0.000000 0.068276 0.000000
# 6 0.000000 0.000000 0.000000 -0.005970 0.000000 0.069995
#
#
# Mechanical properties :
#
#
# Convention : Reuss Voigt Hill
#
# Bulk Modulus (GPa) = 29.23639 36.24130 32.73885
# Shear Modulus (GPa) = 17.70017 25.32484 21.51250
#
# Velocity S-wave (km/s) = 3.01023 3.60068 3.31862
# Velocity P-wave (km/s) = 5.20091 5.98666 5.60756
#
# Compressibility (1/GPa) = 0.03420395
#
# Stress axis : x y z
#
# Youngs Moduli (GPa) = 116.10059 50.67996 51.75571
#
# Poissons Ratio (x) = 0.12030 -0.12548
# Poissons Ratio (y) = 0.27560 0.35100
# Poissons Ratio (z) = -0.28148 0.34371
#
# Static dielectric constant tensor:
#      x y z
#    x 3.892750 0.000000 0.069090 
#    y 0.000000 3.089590 0.000000 
#    z 0.069090 0.000000 3.698380 
# 
# 
# High freq. dielectric constant tensor:
#      x y z
#    x 1.780950 0.000000 0.002020 
#    y 0.000000 1.697530 0.000000 
#    z 0.002020 0.000000 1.770410 
# 
# From -- ./inp_files/51601.got.cif
#   From: 2010.06.25/outbox.cif.g09.slc.cpg/sg10_26_cif.got.tgz:51601.got - 2010.06.27 22:07:45.
