data_PCOD8059297
_publ_section_title
;
Structure prediction by ZEFSAII (Michael W. Deem and Ramdas Pophale) SiO2 
 PCOD8059297
Probable space group: P 2/M
;
_chemical_formula_sum "Si O2"
_cell_formula_units_Z 28
_cell_length_a 5.256474
_cell_length_b 12.943866
_cell_length_c 23.050024
_cell_angle_alpha 90.000000
_cell_angle_beta 70.073956
_cell_angle_gamma 90.000000
_cell_volume 1474.413677
_symmetry_space_group_name_H-M "P 2/M"
_symmetry_group_IT_number 10
_symmetry_cell_setting 'monoclinic'
loop_
_space_group_symop_operation_xyz
x,y,z
-x,y,-z
-x,-y,-z
x,-y,z
loop_
_atom_site_type_symbol
_atom_site_label
_atom_site_fract_x
_atom_site_fract_y
_atom_site_fract_z
Si Si1 0.334571 0.701626 0.275574
Si Si2 0.719950 0.810045 0.020105
Si Si3 0.142578 0.385648 0.071887
Si Si4 0.448102 0.314670 0.867439
Si Si5 0.196276 0.882099 0.369266
Si Si6 0.391306 0.202429 0.572076
Si Si7 0.252810 0.617570 0.665903
O O1 0.447109 0.719727 0.202958
O O2 0.287811 0.813351 0.307717
O O3 0.553824 0.636954 0.294425
O O4 0.056120 0.639069 0.292827
O O5 0.775445 0.698985 0.982965
O O6 0.500000 0.873745 0.000000
O O7 0.611064 0.791602 0.092960
O O8 0.000000 0.873740 0.000000
O O9 0.188074 0.500000 0.041434
O O10 0.322651 0.377381 0.115957
O O11 0.830796 0.377366 0.115957
O O12 0.386096 0.861643 0.409752
O O13 0.886221 0.861182 0.410194
O O14 0.228412 0.000000 0.347175
O O15 0.500000 0.223922 0.500000
O O16 0.342501 0.313471 0.604690
O O17 0.282593 0.500000 0.643418
#
# Coordination Sequence:
#
# PCOD8059297 Si02
#       7
#     4   4   4   4   4   4   4
#     4  10  21  35  50  72  99 130 173 209 240 292
#     4   8  16  27  38  54  80 112 150 192 240 281
#     4  10  19  28  39  59  87 119 158 201 242 282
#     4  10  19  29  42  59  84 118 156 196 236 280
#     4  10  21  37  56  78 106 132 155 201 259 299
#     4  10  21  36  56  82 105 129 165 200 237 295
#     4  10  21  36  51  70 102 138 168 203 239 274
#
# _framework density 18.990601000000002
#
# number of rings (size 3 to 8) (size 9 to 14) (size 15 to 20)
#    0.000    2.286    0.000    2.571    0.000   10.571 
#    0.000    0.000    0.000    5.143    0.000    0.000 
#    0.000   10.286    0.000    0.000    0.000   15.714 
#
# Total GULP energy -347095.231899 kJ/mol
# GULP energy per Si atom -12396.258282 kJ/mol
# Density = 1.894738 g / cm^3
# Si number density = 18.990601 Si / 1000 Ang^3
#
#
#
# Elastic Constant Matrix: (Units=GPa)
#
#
# Indices 1 2 3 4 5 6 
#
# 1 183.3494 29.2829 40.2516 0.0000 -0.9587 0.0000
# 2 29.2829 85.2260 31.5206 0.0000 -1.5716 0.0000
# 3 40.2516 31.5206 129.3648 0.0000 -5.4073 0.0000
# 4 0.0000 0.0000 0.0000 8.6278 0.0000 -0.0536
# 5 -0.9587 -1.5716 -5.4073 0.0000 7.6987 0.0000
# 6 0.0000 0.0000 0.0000 -0.0536 0.0000 -7.2579
#
#
#
# Elastic Compliance Matrix: (Units=1/GPa)
#
#
# Indices 1 2 3 4 5 6 
#
# 1 0.006030 -0.001516 -0.001533 0.000000 -0.000636 0.000000
# 2 -0.001516 0.013278 -0.002739 0.000000 0.000598 0.000000
# 3 -0.001533 -0.002739 0.009111 0.000000 0.005649 0.000000
# 4 0.000000 0.000000 0.000000 0.115899 0.000000 -0.000856
# 5 -0.000636 0.000598 0.005649 0.000000 0.133902 0.000000
# 6 0.000000 0.000000 0.000000 -0.000856 0.000000 -0.137774
#
#
# Mechanical properties :
#
#
# Convention : Reuss Voigt Hill
#
# Bulk Modulus (GPa) = 59.37449 66.67227 63.02338
# Shear Modulus (GPa) = 31.71855 21.60605 26.66230
#
# Velocity S-wave (km/s) = 4.09127 3.37667 3.75103
# Velocity P-wave (km/s) = 7.32469 7.09837 7.21242
#
# Compressibility (1/GPa) = 0.01684225
#
# Stress axis : x y z
#
# Youngs Moduli (GPa) = 165.85106 75.31028 109.76345
#
# Poissons Ratio (x) = 0.11420 0.16829
# Poissons Ratio (y) = 0.25149 0.30059
# Poissons Ratio (z) = 0.25428 0.20624
#
# Static dielectric constant tensor:
#      x y z
#    x 4.756950 0.000000 0.078530 
#    y 0.000000 3.028170 0.000000 
#    z 0.078530 0.000000 3.286160 
# 
# 
# High freq. dielectric constant tensor:
#      x y z
#    x 1.778020 0.000000 0.001710 
#    y 0.000000 1.700300 0.000000 
#    z 0.001710 0.000000 1.729170 
# 
# From -- ./inp_files/81174.got.cif
#   From: 2010.06.25/outbox.cif.g09.slc.cpg/sg10_41_cif.got.tgz:81174.got - 2010.06.27 22:07:45.
