data_PCOD8059440
_publ_section_title
;
Structure prediction by ZEFSAII (Michael W. Deem and Ramdas Pophale) SiO2 
 PCOD8059440
Probable space group: P 2/M
;
_chemical_formula_sum "Si O2"
_cell_formula_units_Z 32
_cell_length_a 23.855483
_cell_length_b 8.894258
_cell_length_c 12.331485
_cell_angle_alpha 90.000000
_cell_angle_beta 45.705943
_cell_angle_gamma 90.000000
_cell_volume 1872.767566
_symmetry_space_group_name_H-M "P 2/M"
_symmetry_group_IT_number 10
_symmetry_cell_setting 'monoclinic'
loop_
_space_group_symop_operation_xyz
x,y,z
-x,y,-z
-x,-y,-z
x,-y,z
loop_
_atom_site_type_symbol
_atom_site_label
_atom_site_fract_x
_atom_site_fract_y
_atom_site_fract_z
Si Si1 0.414873 0.824256 0.943054
Si Si2 0.320845 0.173658 0.287310
Si Si3 0.583734 0.824423 0.439803
Si Si4 0.839727 0.823841 0.593298
Si Si5 0.008306 0.166643 0.359902
Si Si6 0.326499 0.674184 0.865335
Si Si7 0.426211 0.677273 0.313924
Si Si8 0.160365 0.671749 0.179340
O O1 0.371395 0.769860 0.894576
O O2 0.495449 0.734774 0.850946
O O3 0.433938 0.000000 0.904212
O O4 0.361610 0.790259 0.118224
O O5 0.228627 0.211556 0.400170
O O6 0.353108 0.282066 0.336438
O O7 0.334548 0.000000 0.301127
O O8 0.500000 0.792396 0.500000
O O9 0.649901 0.735846 0.283930
O O10 0.584154 0.761592 0.559532
O O11 0.604047 0.000000 0.413778
O O12 0.924125 0.770107 0.430395
O O13 0.819452 0.749925 0.735053
O O14 0.844779 0.000000 0.611852
O O15 0.000000 0.165255 0.500000
O O16 0.082249 0.266897 0.225170
O O17 0.023904 0.000000 0.293110
O O18 0.350512 0.500000 0.845533
O O19 0.233281 0.695872 0.000659
O O20 0.429961 0.500000 0.327936
O O21 0.145081 0.500000 0.227114
#
# Coordination Sequence:
#
# PCOD8059440 Si02
#       8
#     4   4   4   4   4   4   4   4
#     4  11  21  35  55  76 101 138 178 213 252 301
#     4  10  21  36  54  75 104 139 178 216 250 300
#     4  11  23  39  59  77  96 130 176 218 257 307
#     4   9  17  31  49  71 100 138 175 209 248 294
#     4   8  15  27  45  68  98 135 173 206 244 297
#     4  11  22  34  52  78 106 136 170 213 262 307
#     4  12  25  38  54  75 104 136 170 216 263 308
#     4  10  19  29  45  73 107 136 166 206 254 307
#
# _framework density 17.087009999999999
#
# number of rings (size 3 to 8) (size 9 to 14) (size 15 to 20)
#    0.000    1.750    2.500    3.750    0.000    7.250 
#    0.000    0.000    0.000    0.000    0.000    0.875 
#    0.000    7.000    0.000    0.000    0.000    0.000 
#
# Total GULP energy -396811.562558 kJ/mol
# GULP energy per Si atom -12400.361330 kJ/mol
# Density = 1.704812 g / cm^3
# Si number density = 17.087010 Si / 1000 Ang^3
#
#
#
# Elastic Constant Matrix: (Units=GPa)
#
#
# Indices 1 2 3 4 5 6 
#
# 1 95.4989 27.0952 41.5109 0.0000 -20.7225 0.0000
# 2 27.0952 55.4520 32.5141 0.0000 -11.8764 0.0000
# 3 41.5109 32.5141 60.1555 0.0000 -13.4314 0.0000
# 4 0.0000 0.0000 0.0000 26.3447 0.0000 -3.3199
# 5 -20.7225 -11.8764 -13.4314 0.0000 27.7069 0.0000
# 6 0.0000 0.0000 0.0000 -3.3199 0.0000 18.3935
#
#
#
# Elastic Compliance Matrix: (Units=1/GPa)
#
#
# Indices 1 2 3 4 5 6 
#
# 1 0.016294 -0.001109 -0.009004 0.000000 0.007346 0.000000
# 2 -0.001109 0.027091 -0.012862 0.000000 0.004548 0.000000
# 3 -0.009004 -0.012862 0.030338 0.000000 0.002459 0.000000
# 4 0.000000 0.000000 0.000000 0.038842 0.000000 0.007011
# 5 0.007346 0.004548 0.002459 0.000000 0.044728 0.000000
# 6 0.000000 0.000000 0.000000 0.007011 0.000000 0.055633
#
#
# Mechanical properties :
#
#
# Convention : Reuss Voigt Hill
#
# Bulk Modulus (GPa) = 36.00628 45.92741 40.96685
# Shear Modulus (GPa) = 18.64740 21.82142 20.23441
#
# Velocity S-wave (km/s) = 3.30710 3.57750 3.44495
# Velocity P-wave (km/s) = 5.97500 6.63337 6.31277
#
# Compressibility (1/GPa) = 0.02777293
#
# Stress axis : x y z
#
# Youngs Moduli (GPa) = 61.37279 36.91243 32.96164
#
# Poissons Ratio (x) = 0.04092 0.29680
# Poissons Ratio (y) = 0.06803 0.42396
# Poissons Ratio (z) = 0.55262 0.47478
#
# Static dielectric constant tensor:
#      x y z
#    x 3.397850 0.000000 -0.350140 
#    y 0.000000 3.290970 0.000000 
#    z -0.350140 0.000000 3.222510 
# 
# 
# High freq. dielectric constant tensor:
#      x y z
#    x 1.648860 0.000000 -0.025570 
#    y 0.000000 1.668190 0.000000 
#    z -0.025570 0.000000 1.639680 
# 
# From -- ./inp_files/56409.got.cif
#   From: 2010.06.25/outbox.cif.g09.slc.cpg/sg10_29_cif.got.tgz:56409.got - 2010.06.27 22:07:45.
