data_PCOD8059889
_publ_section_title
;
Structure prediction by ZEFSAII (Michael W. Deem and Ramdas Pophale) SiO2 
 PCOD8059889
Probable space group: P 2/M
;
_chemical_formula_sum "Si O2"
_cell_formula_units_Z 28
_cell_length_a 19.245324
_cell_length_b 8.807523
_cell_length_c 11.411188
_cell_angle_alpha 90.000000
_cell_angle_beta 126.426918
_cell_angle_gamma 90.000000
_cell_volume 1556.316610
_symmetry_space_group_name_H-M "P 2/M"
_symmetry_group_IT_number 10
_symmetry_cell_setting 'monoclinic'
loop_
_space_group_symop_operation_xyz
x,y,z
-x,y,-z
-x,-y,-z
x,-y,z
loop_
_atom_site_type_symbol
_atom_site_label
_atom_site_fract_x
_atom_site_fract_y
_atom_site_fract_z
Si Si1 0.162632 0.324496 0.889718
Si Si2 0.005876 0.677549 0.142260
Si Si3 0.832883 0.168557 0.571766
Si Si4 0.320478 0.820397 0.956853
Si Si5 0.094531 0.832251 0.610159
Si Si6 0.318084 0.677993 0.697566
Si Si7 0.490158 0.833002 0.852438
O O1 0.176738 0.500000 0.931986
O O2 0.083187 0.258890 0.888411
O O3 0.255085 0.239390 0.993613
O O4 0.141625 0.294909 0.733015
O O5 0.013539 0.500000 0.177619
O O6 0.092626 0.754941 0.276121
O O7 0.000000 0.713215 0.000000
O O8 0.863426 0.152040 0.471567
O O9 0.745678 0.267446 0.471555
O O10 0.813416 0.000000 0.603741
O O11 0.300917 0.755282 0.806845
O O12 0.310114 0.000000 0.933440
O O13 0.416133 0.775113 0.099205
O O14 0.000000 0.766806 0.500000
O O15 0.094465 0.000000 0.671524
O O16 0.307929 0.500000 0.704802
O O17 0.414100 0.716159 0.745332
O O18 0.468009 0.000000 0.777925
O O19 0.500000 0.849021 0.000000
#
# Coordination Sequence:
#
# PCOD8059889 Si02
#       7
#     4   4   4   4   4   4   4
#     4  11  21  31  50  75  99 131 170 208 249 301
#     4  10  23  41  55  71 100 134 169 213 260 302
#     4  11  21  33  52  75 101 134 171 209 249 299
#     4  10  19  31  47  69 102 139 170 204 247 295
#     4  10  19  31  47  69  99 131 161 201 252 297
#     4  11  20  29  46  73 104 136 169 205 246 296
#     4   8  16  30  45  64  97 139 172 199 240 293
#
# _framework density 17.991199000000002
#
# number of rings (size 3 to 8) (size 9 to 14) (size 15 to 20)
#    0.000    1.857    2.857    3.429    0.000    4.857 
#    0.000    0.000    0.000    0.000    0.000    1.000 
#    0.000    8.000    0.000    0.000    0.000    0.000 
#
# Total GULP energy -346878.837883 kJ/mol
# GULP energy per Si atom -12388.529924 kJ/mol
# Density = 1.795025 g / cm^3
# Si number density = 17.991199 Si / 1000 Ang^3
#
#
#
# Elastic Constant Matrix: (Units=GPa)
#
#
# Indices 1 2 3 4 5 6 
#
# 1 83.3909 41.9249 60.4520 0.0000 33.6289 0.0000
# 2 41.9249 94.3646 43.9943 0.0000 14.6480 0.0000
# 3 60.4520 43.9943 72.2414 0.0000 21.4892 0.0000
# 4 0.0000 0.0000 0.0000 32.3679 0.0000 -1.4889
# 5 33.6289 14.6480 21.4892 0.0000 32.9987 0.0000
# 6 0.0000 0.0000 0.0000 -1.4889 0.0000 37.1905
#
#
#
# Elastic Compliance Matrix: (Units=1/GPa)
#
#
# Indices 1 2 3 4 5 6 
#
# 1 0.042840 -0.002661 -0.026781 0.000000 -0.025037 0.000000
# 2 -0.002661 0.014984 -0.007102 0.000000 0.000686 0.000000
# 3 -0.026781 -0.007102 0.039095 0.000000 0.004986 0.000000
# 4 0.000000 0.000000 0.000000 0.030952 0.000000 0.001239
# 5 -0.025037 0.000686 0.004986 0.000000 0.052268 0.000000
# 6 0.000000 0.000000 0.000000 0.001239 0.000000 0.026938
#
#
# Mechanical properties :
#
#
# Convention : Reuss Voigt Hill
#
# Bulk Modulus (GPa) = 41.96217 60.30435 51.13326
# Shear Modulus (GPa) = 17.35450 27.41980 22.38715
#
# Velocity S-wave (km/s) = 3.10919 3.90817 3.53135
# Velocity P-wave (km/s) = 6.02194 7.34551 6.71641
#
# Compressibility (1/GPa) = 0.02383099
#
# Stress axis : x y z
#
# Youngs Moduli (GPa) = 23.34252 66.73632 25.57892
#
# Poissons Ratio (x) = 0.17761 0.68502
# Poissons Ratio (y) = 0.06212 0.18167
# Poissons Ratio (z) = 0.62512 0.47398
#
# Static dielectric constant tensor:
#      x y z
#    x 3.706580 0.000000 0.573050 
#    y 0.000000 3.448270 0.000000 
#    z 0.573050 0.000000 3.161000 
# 
# 
# High freq. dielectric constant tensor:
#      x y z
#    x 1.689450 0.000000 0.046830 
#    y 0.000000 1.698830 0.000000 
#    z 0.046830 0.000000 1.657550 
# 
# From -- ./inp_files/55017.got.cif
#   From: 2010.06.25/outbox.cif.g09.slc.cpg/sg10_28_cif.got.tgz:55017.got - 2010.06.27 22:07:45.
