data_PCOD8059295
_publ_section_title
;
Structure prediction by ZEFSAII (Michael W. Deem and Ramdas Pophale) SiO2 
 PCOD8059295
Probable space group: P 2/M
;
_chemical_formula_sum "Si O2"
_cell_formula_units_Z 24
_cell_length_a 16.133863
_cell_length_b 14.155795
_cell_length_c 20.976212
_cell_angle_alpha 90.000000
_cell_angle_beta 18.890597
_cell_angle_gamma 90.000000
_cell_volume 1551.049888
_symmetry_space_group_name_H-M "P 2/M"
_symmetry_group_IT_number 10
_symmetry_cell_setting 'monoclinic'
loop_
_space_group_symop_operation_xyz
x,y,z
-x,y,-z
-x,-y,-z
x,-y,z
loop_
_atom_site_type_symbol
_atom_site_label
_atom_site_fract_x
_atom_site_fract_y
_atom_site_fract_z
Si Si1 0.583866 0.394715 0.804080
Si Si2 0.026486 0.887798 0.736718
Si Si3 0.968004 0.605289 0.419982
Si Si4 0.018436 0.112055 0.086835
Si Si5 0.402611 0.112051 0.702712
Si Si6 0.724404 0.263213 0.887802
O O1 0.464215 0.500000 0.884749
O O2 0.709682 0.363238 0.645148
O O3 0.799141 0.398033 0.700843
O O4 0.369693 0.320401 0.981432
O O5 0.973586 0.851123 0.846860
O O6 0.308252 0.851127 0.512112
O O7 0.821691 0.839137 0.839159
O O8 0.994424 0.000000 0.752781
O O9 0.931706 0.500000 0.417287
O O10 0.034868 0.679578 0.316269
O O11 0.766191 0.150992 0.233779
O O12 0.002938 0.000000 0.098994
O O13 0.273417 0.145179 0.863337
O O14 0.404638 0.000000 0.697305
O O15 0.500000 0.247211 0.000000
#
# Coordination Sequence:
#
# PCOD8059295 Si02
#       6
#     4   4   4   4   4   4
#     4   8  14  26  44  62  77  96 128 174 224 260
#     4  10  19  28  39  57  84 118 149 171 192 227
#     4   8  14  26  44  62  77  96 128 174 224 260
#     4   8  14  26  44  62  77  96 128 174 224 260
#     4   8  14  26  44  62  77  96 128 174 224 260
#     4  10  19  28  39  57  84 118 149 171 192 227
#
# _framework density 15.47339
#
# number of rings (size 3 to 8) (size 9 to 14) (size 15 to 20)
#    0.000    3.333    0.000    3.000    0.000    5.667 
#    0.000    0.000    0.000    0.000    0.000    9.333 
#    0.000   10.667    0.000   29.333    0.000    2.667 
#
# Total GULP energy -297386.869739 kJ/mol
# GULP energy per Si atom -12391.119572 kJ/mol
# Density = 1.543817 g / cm^3
# Si number density = 15.473390 Si / 1000 Ang^3
#
#
#
# Elastic Constant Matrix: (Units=GPa)
#
#
# Indices 1 2 3 4 5 6 
#
# 1 67.7325 37.0697 56.0969 0.0000 13.0492 0.0000
# 2 37.0697 54.7920 41.8650 0.0000 5.9241 0.0000
# 3 56.0969 41.8650 95.3827 0.0000 21.2528 0.0000
# 4 0.0000 0.0000 0.0000 8.9750 0.0000 3.0970
# 5 13.0492 5.9241 21.2528 0.0000 21.3189 0.0000
# 6 0.0000 0.0000 0.0000 3.0970 0.0000 6.4969
#
#
#
# Elastic Compliance Matrix: (Units=1/GPa)
#
#
# Indices 1 2 3 4 5 6 
#
# 1 0.032998 -0.011604 -0.013539 0.000000 -0.003476 0.000000
# 2 -0.011604 0.032078 -0.008808 0.000000 0.006969 0.000000
# 3 -0.013539 -0.008808 0.025609 0.000000 -0.014795 0.000000
# 4 0.000000 0.000000 0.000000 0.133356 0.000000 -0.063569
# 5 -0.003476 0.006969 -0.014795 0.000000 0.061847 0.000000
# 6 0.000000 0.000000 0.000000 -0.063569 0.000000 0.184220
#
#
# Mechanical properties :
#
#
# Convention : Reuss Voigt Hill
#
# Bulk Modulus (GPa) = 43.89225 54.21891 49.05558
# Shear Modulus (GPa) = 9.16416 12.88320 11.02368
#
# Velocity S-wave (km/s) = 2.43626 2.88862 2.67203
# Velocity P-wave (km/s) = 6.02841 6.80012 6.42586
#
# Compressibility (1/GPa) = 0.02278306
#
# Stress axis : x y z
#
# Youngs Moduli (GPa) = 30.30517 31.17423 39.04872
#
# Poissons Ratio (x) = 0.36175 0.52868
# Poissons Ratio (y) = 0.35166 0.34393
# Poissons Ratio (z) = 0.41030 0.27457
#
# Static dielectric constant tensor:
#      x y z
#    x 2.900520 0.000000 0.389460 
#    y 0.000000 2.636940 0.000000 
#    z 0.389460 0.000000 3.212050 
# 
# 
# High freq. dielectric constant tensor:
#      x y z
#    x 1.572160 0.000000 0.030220 
#    y 0.000000 1.551630 0.000000 
#    z 0.030220 0.000000 1.596320 
# 
# From -- ./inp_files/27992.got.cif
#   From: 2010.06.25/outbox.cif.g09.slc.cpg/sg10_14_cif.got.tgz:27992.got - 2010.06.27 22:07:45.
