data_PCOD8059409
_publ_section_title
;
Structure prediction by ZEFSAII (Michael W. Deem and Ramdas Pophale) SiO2 
 PCOD8059409
Probable space group: P 2/M
;
_chemical_formula_sum "Si O2"
_cell_formula_units_Z 28
_cell_length_a 22.248859
_cell_length_b 9.206857
_cell_length_c 10.339105
_cell_angle_alpha 90.000000
_cell_angle_beta 51.549367
_cell_angle_gamma 90.000000
_cell_volume 1658.608332
_symmetry_space_group_name_H-M "P 2/M"
_symmetry_group_IT_number 10
_symmetry_cell_setting 'monoclinic'
loop_
_space_group_symop_operation_xyz
x,y,z
-x,y,-z
-x,-y,-z
x,-y,z
loop_
_atom_site_type_symbol
_atom_site_label
_atom_site_fract_x
_atom_site_fract_y
_atom_site_fract_z
Si Si1 0.538903 0.170868 0.317467
Si Si2 0.150233 0.333400 0.192232
Si Si3 0.846090 0.829342 0.545621
Si Si4 0.319275 0.664058 0.964948
Si Si5 0.986834 0.837833 0.670719
Si Si6 0.699222 0.328896 0.710478
Si Si7 0.444902 0.830176 0.191786
O O1 0.500000 0.230625 0.500000
O O2 0.623732 0.235515 0.191424
O O3 0.486509 0.217734 0.267372
O O4 0.549463 0.000000 0.308927
O O5 0.133511 0.500000 0.254713
O O6 0.152935 0.230406 0.311377
O O7 0.080739 0.273595 0.194430
O O8 0.234373 0.322469 0.013826
O O9 0.931127 0.801239 0.370481
O O10 0.779479 0.744456 0.556847
O O11 0.827241 0.000000 0.573967
O O12 0.349570 0.500000 0.914945
O O13 0.316649 0.711130 0.118823
O O14 0.000000 0.826064 0.500000
O O15 0.960690 0.000000 0.743886
O O16 0.705214 0.500000 0.680169
O O17 0.632298 0.262928 0.712377
O O18 0.423988 0.000000 0.217999
O O19 0.500000 0.788696 0.000000
#
# Coordination Sequence:
#
# PCOD8059409 Si02
#       7
#     4   4   4   4   4   4   4
#     4  10  21  35  50  69  92 118 153 195 233 272
#     4   9  16  24  36  57  83 114 151 189 226 268
#     4   9  16  25  37  55  84 118 151 186 226 272
#     4   9  18  30  43  63  90 119 152 189 230 274
#     4   8  14  23  34  52  79 115 152 183 221 270
#     4  10  19  29  44  67  91 117 153 193 230 268
#     4  10  19  32  50  70  90 119 155 188 231 279
#
# _framework density 16.881622
#
# number of rings (size 3 to 8) (size 9 to 14) (size 15 to 20)
#    0.000    2.714    1.429    3.000    0.000    7.143 
#    0.000    0.000    0.000    0.000    0.000    0.000 
#    0.000    1.143    0.000   12.857    0.000    9.286 
#
# Total GULP energy -346998.340068 kJ/mol
# GULP energy per Si atom -12392.797860 kJ/mol
# Density = 1.684320 g / cm^3
# Si number density = 16.881622 Si / 1000 Ang^3
#
#
#
# Elastic Constant Matrix: (Units=GPa)
#
#
# Indices 1 2 3 4 5 6 
#
# 1 100.1719 55.2299 56.6939 0.0000 -32.9396 0.0000
# 2 55.2299 79.6914 37.9824 0.0000 -23.9355 0.0000
# 3 56.6939 37.9824 64.1830 0.0000 -16.0698 0.0000
# 4 0.0000 0.0000 0.0000 18.9464 0.0000 -12.3753
# 5 -32.9396 -23.9355 -16.0698 0.0000 31.9705 0.0000
# 6 0.0000 0.0000 0.0000 -12.3753 0.0000 23.5397
#
#
#
# Elastic Compliance Matrix: (Units=1/GPa)
#
#
# Indices 1 2 3 4 5 6 
#
# 1 0.028881 -0.006966 -0.017439 0.000000 0.015775 0.000000
# 2 -0.006966 0.021773 -0.005088 0.000000 0.006567 0.000000
# 3 -0.017439 -0.005088 0.032652 0.000000 -0.005364 0.000000
# 4 0.000000 0.000000 0.000000 0.080383 0.000000 0.042259
# 5 0.015775 0.006567 -0.005364 0.000000 0.049753 0.000000
# 6 0.000000 0.000000 0.000000 0.042259 0.000000 0.064698
#
#
# Mechanical properties :
#
#
# Convention : Reuss Voigt Hill
#
# Bulk Modulus (GPa) = 41.11609 60.42874 50.77242
# Shear Modulus (GPa) = 14.48299 21.16731 17.82515
#
# Velocity S-wave (km/s) = 2.93220 3.54484 3.25297
# Velocity P-wave (km/s) = 5.98933 7.25450 6.65206
#
# Compressibility (1/GPa) = 0.02432138
#
# Stress axis : x y z
#
# Youngs Moduli (GPa) = 34.62529 45.92761 30.62568
#
# Poissons Ratio (x) = 0.31992 0.53407
# Poissons Ratio (y) = 0.24119 0.15582
# Poissons Ratio (z) = 0.60382 0.23368
#
# Static dielectric constant tensor:
#      x y z
#    x 3.466230 0.000000 -0.592500 
#    y 0.000000 3.210260 0.000000 
#    z -0.592500 0.000000 2.984370 
# 
# 
# High freq. dielectric constant tensor:
#      x y z
#    x 1.641700 0.000000 -0.051890 
#    y 0.000000 1.659000 0.000000 
#    z -0.051890 0.000000 1.599860 
# 
# From -- ./inp_files/56276.got.cif
#   From: 2010.06.25/outbox.cif.g09.slc.cpg/sg10_29_cif.got.tgz:56276.got - 2010.06.27 22:07:45.
