data_PCOD8059082
_publ_section_title
;
Structure prediction by ZEFSAII (Michael W. Deem and Ramdas Pophale) SiO2 
 PCOD8059082
Probable space group: P 2/M
;
_chemical_formula_sum "Si O2"
_cell_formula_units_Z 24
_cell_length_a 12.597721
_cell_length_b 8.914380
_cell_length_c 24.207817
_cell_angle_alpha 90.000000
_cell_angle_beta 28.944971
_cell_angle_gamma 90.000000
_cell_volume 1315.699294
_symmetry_space_group_name_H-M "P 2/M"
_symmetry_group_IT_number 10
_symmetry_cell_setting 'monoclinic'
loop_
_space_group_symop_operation_xyz
x,y,z
-x,y,-z
-x,-y,-z
x,-y,z
loop_
_atom_site_type_symbol
_atom_site_label
_atom_site_fract_x
_atom_site_fract_y
_atom_site_fract_z
Si Si1 0.256076 0.678613 0.621151
Si Si2 0.186353 0.677680 0.774575
Si Si3 0.368210 0.676209 0.374166
Si Si4 0.842937 0.326443 0.019864
Si Si5 0.999629 0.323986 0.368928
Si Si6 0.388325 0.176709 0.249321
O O1 0.500000 0.742893 0.500000
O O2 0.266533 0.500000 0.615377
O O3 0.168383 0.738779 0.720147
O O4 0.094087 0.734653 0.646894
O O5 0.210600 0.500000 0.762747
O O6 0.404441 0.741113 0.704846
O O7 0.970663 0.725754 0.906512
O O8 0.385895 0.500000 0.354257
O O9 0.175870 0.714236 0.504045
O O10 0.314725 0.755914 0.341229
O O11 0.771209 0.500000 0.049349
O O12 0.631420 0.224441 0.121719
O O13 0.000000 0.299477 0.000000
O O14 0.050713 0.500000 0.343986
O O15 0.223189 0.235490 0.277754
O O16 0.376064 0.000000 0.258395
#
# Coordination Sequence:
#
# PCOD8059082 Si02
#       6
#     4   4   4   4   4   4
#     4   9  15  28  54  88 115 133 167 222 274 319
#     4   9  16  29  54  87 113 133 167 222 277 319
#     4  10  18  33  57  84 111 139 175 221 274 326
#     4  10  19  35  59  81 106 140 181 226 270 321
#     4  10  20  34  57  84 112 144 178 219 270 327
#     4  12  25  37  51  75 113 151 185 224 267 319
#
# _framework density 18.241250999999998
#
# number of rings (size 3 to 8) (size 9 to 14) (size 15 to 20)
#    0.000    2.000    3.333    2.000    0.000    3.000 
#    0.000    0.833    0.000    7.500    0.000    0.000 
#    0.000    0.000    0.000    0.000    0.000    0.000 
#
# Total GULP energy -297621.940129 kJ/mol
# GULP energy per Si atom -12400.914172 kJ/mol
# Density = 1.819973 g / cm^3
# Si number density = 18.241251 Si / 1000 Ang^3
#
#
#
# Elastic Constant Matrix: (Units=GPa)
#
#
# Indices 1 2 3 4 5 6 
#
# 1 136.7265 31.3489 50.9698 0.0000 9.5375 0.0000
# 2 31.3489 43.0804 30.6487 0.0000 -2.1158 0.0000
# 3 50.9698 30.6487 86.2048 0.0000 11.2847 0.0000
# 4 0.0000 0.0000 0.0000 6.4196 0.0000 -0.3989
# 5 9.5375 -2.1158 11.2847 0.0000 34.7358 0.0000
# 6 0.0000 0.0000 0.0000 -0.3989 0.0000 -1.2540
#
#
#
# Elastic Compliance Matrix: (Units=1/GPa)
#
#
# Indices 1 2 3 4 5 6 
#
# 1 0.009975 -0.004418 -0.004108 0.000000 -0.001673 0.000000
# 2 -0.004418 0.034158 -0.010406 0.000000 0.006674 0.000000
# 3 -0.004108 -0.010406 0.018449 0.000000 -0.005499 0.000000
# 4 0.000000 0.000000 0.000000 0.152753 0.000000 -0.048587
# 5 -0.001673 0.006674 -0.005499 0.000000 0.031441 0.000000
# 6 0.000000 0.000000 0.000000 -0.048587 0.000000 -0.782013
#
#
# Mechanical properties :
#
#
# Convention : Reuss Voigt Hill
#
# Bulk Modulus (GPa) = 40.45639 54.66069 47.55854
# Shear Modulus (GPa) = -10.22217 18.18325 3.98054
#
# Velocity S-wave (km/s) = -2.36982 3.16067 1.47882
# Velocity P-wave (km/s) = 3.83909 6.58409 5.38929
#
# Compressibility (1/GPa) = 0.02471797
#
# Stress axis : x y z
#
# Youngs Moduli (GPa) = 100.25032 29.27548 54.20457
#
# Poissons Ratio (x) = 0.12935 0.22267
# Poissons Ratio (y) = 0.44294 0.56404
# Poissons Ratio (z) = 0.41182 0.30463
#
# Static dielectric constant tensor:
#      x y z
#    x 3.616600 0.000000 0.123160 
#    y 0.000000 2.893160 0.000000 
#    z 0.123160 0.000000 3.472510 
# 
# 
# High freq. dielectric constant tensor:
#      x y z
#    x 1.714610 0.000000 0.002340 
#    y 0.000000 1.658140 0.000000 
#    z 0.002340 0.000000 1.711050 
# 
# From -- ./inp_files/45046.got.cif
#   From: 2010.06.25/outbox.cif.g09.slc.cpg/sg10_23_cif.got.tgz:45046.got - 2010.06.27 22:07:45.
