data_PCOD8059641
_publ_section_title
;
Structure prediction by ZEFSAII (Michael W. Deem and Ramdas Pophale) SiO2 
 PCOD8059641
Probable space group: P 2/M
;
_chemical_formula_sum "Si O2"
_cell_formula_units_Z 24
_cell_length_a 30.286707
_cell_length_b 8.710066
_cell_length_c 11.578868
_cell_angle_alpha 90.000000
_cell_angle_beta 30.105479
_cell_angle_gamma 90.000000
_cell_volume 1532.115393
_symmetry_space_group_name_H-M "P 2/M"
_symmetry_group_IT_number 10
_symmetry_cell_setting 'monoclinic'
loop_
_space_group_symop_operation_xyz
x,y,z
-x,y,-z
-x,-y,-z
x,-y,z
loop_
_atom_site_type_symbol
_atom_site_label
_atom_site_fract_x
_atom_site_fract_y
_atom_site_fract_z
Si Si1 0.375968 0.180500 0.834879
Si Si2 0.097604 0.819633 0.754527
Si Si3 0.454079 0.317985 0.441101
Si Si4 0.231084 0.672107 0.303308
Si Si5 0.747913 0.327108 0.490837
Si Si6 0.420764 0.317214 0.256786
O O1 0.384774 0.235519 0.682785
O O2 0.447155 0.268529 0.751726
O O3 0.392214 0.000000 0.806515
O O4 0.279264 0.223445 0.099382
O O5 0.134665 0.742494 0.552224
O O6 0.161896 0.773238 0.716634
O O7 0.097039 0.000000 0.738683
O O8 0.000000 0.756360 0.000000
O O9 0.445572 0.500000 0.473792
O O10 0.431782 0.261892 0.362867
O O11 0.220147 0.500000 0.278910
O O12 0.287112 0.670734 0.296624
O O13 0.770647 0.500000 0.398896
O O14 0.672193 0.253521 0.581892
O O15 0.420554 0.500000 0.247432
O O16 0.500000 0.249512 0.000000
#
# Coordination Sequence:
#
# PCOD8059641 Si02
#       6
#     4   4   4   4   4   4
#     4  11  20  31  44  62  92 121 155 197 234 268
#     4   9  17  29  45  69  99 124 147 182 232 280
#     4  10  19  30  47  64  87 122 162 193 225 269
#     4   9  17  29  48  67  89 117 151 188 226 271
#     4   8  16  28  45  67  92 120 152 187 223 267
#     4   9  16  28  45  67  92 121 156 192 226 263
#
# _framework density 15.664616000000001
#
# number of rings (size 3 to 8) (size 9 to 14) (size 15 to 20)
#    1.000    1.667    0.000    4.500    0.000    4.000 
#    0.000    1.667    0.000    3.500    0.000    1.167 
#    0.000    9.333    0.000    0.000    0.000    0.000 
#
# Total GULP energy -297389.278068 kJ/mol
# GULP energy per Si atom -12391.219919 kJ/mol
# Density = 1.562896 g / cm^3
# Si number density = 15.664616 Si / 1000 Ang^3
#
#
#
# Elastic Constant Matrix: (Units=GPa)
#
#
# Indices 1 2 3 4 5 6 
#
# 1 79.8419 15.0028 49.0601 0.0000 1.5608 0.0000
# 2 15.0028 51.5573 25.4928 0.0000 4.3697 0.0000
# 3 49.0601 25.4928 126.2426 0.0000 2.4831 0.0000
# 4 0.0000 0.0000 0.0000 25.1914 0.0000 0.6982
# 5 1.5608 4.3697 2.4831 0.0000 21.6713 0.0000
# 6 0.0000 0.0000 0.0000 0.6982 0.0000 8.6160
#
#
#
# Elastic Compliance Matrix: (Units=1/GPa)
#
#
# Indices 1 2 3 4 5 6 
#
# 1 0.016607 -0.001812 -0.006085 0.000000 -0.000133 0.000000
# 2 -0.001812 0.022071 -0.003676 0.000000 -0.003899 0.000000
# 3 -0.006085 -0.003676 0.011030 0.000000 -0.000084 0.000000
# 4 0.000000 0.000000 0.000000 0.039785 0.000000 -0.003224
# 5 -0.000133 -0.003899 -0.000084 0.000000 0.046949 0.000000
# 6 0.000000 0.000000 0.000000 -0.003224 0.000000 0.116325
#
#
# Mechanical properties :
#
#
# Convention : Reuss Voigt Hill
#
# Bulk Modulus (GPa) = 37.64866 48.52812 43.08839
# Shear Modulus (GPa) = 17.55810 22.30147 19.92979
#
# Velocity S-wave (km/s) = 3.35158 3.77727 3.57077
# Velocity P-wave (km/s) = 6.25011 7.07604 6.67586
#
# Compressibility (1/GPa) = 0.02656137
#
# Stress axis : x y z
#
# Youngs Moduli (GPa) = 60.21538 45.30763 90.66149
#
# Poissons Ratio (x) = 0.08211 0.55169
# Poissons Ratio (y) = 0.10913 0.33327
# Poissons Ratio (z) = 0.36642 0.16655
#
# Static dielectric constant tensor:
#      x y z
#    x 2.838670 0.000000 0.040080 
#    y 0.000000 2.844620 0.000000 
#    z 0.040080 0.000000 2.944190 
# 
# 
# High freq. dielectric constant tensor:
#      x y z
#    x 1.568040 0.000000 0.007040 
#    y 0.000000 1.598730 0.000000 
#    z 0.007040 0.000000 1.590340 
# 
# From -- ./inp_files/57231.got.cif
#   From: 2010.06.25/outbox.cif.g09.slc.cpg/sg10_29_cif.got.tgz:57231.got - 2010.06.27 22:07:45.
