data_PCOD8059540
_publ_section_title
;
Structure prediction by ZEFSAII (Michael W. Deem and Ramdas Pophale) SiO2 
 PCOD8059540
Probable space group: P 2/M
;
_chemical_formula_sum "Si O2"
_cell_formula_units_Z 32
_cell_length_a 14.453712
_cell_length_b 9.203578
_cell_length_c 14.053649
_cell_angle_alpha 90.000000
_cell_angle_beta 87.855049
_cell_angle_gamma 90.000000
_cell_volume 1868.188938
_symmetry_space_group_name_H-M "P 2/M"
_symmetry_group_IT_number 10
_symmetry_cell_setting 'monoclinic'
loop_
_space_group_symop_operation_xyz
x,y,z
-x,y,-z
-x,-y,-z
x,-y,z
loop_
_atom_site_type_symbol
_atom_site_label
_atom_site_fract_x
_atom_site_fract_y
_atom_site_fract_z
Si Si1 0.642914 0.165598 0.801056
Si Si2 0.727397 0.169151 0.611683
Si Si3 0.391296 0.168970 0.993593
Si Si4 0.498193 0.341115 0.309991
Si Si5 0.317691 0.661512 0.816435
Si Si6 0.618467 0.329593 0.473006
Si Si7 0.100392 0.832069 0.510835
Si Si8 0.234849 0.168588 0.664080
O O1 0.730769 0.186161 0.727069
O O2 0.656973 0.229005 0.906524
O O3 0.554026 0.223971 0.749551
O O4 0.616796 0.000000 0.819834
O O5 0.636454 0.263089 0.579309
O O6 0.822892 0.233132 0.565378
O O7 0.712839 0.000000 0.583374
O O8 0.371032 0.000000 0.974200
O O9 0.500000 0.199882 0.000000
O O10 0.347274 0.261251 0.911781
O O11 0.450242 0.500000 0.303664
O O12 0.600158 0.347746 0.262080
O O13 0.516974 0.308522 0.423653
O O14 0.281947 0.500000 0.842937
O O15 0.235991 0.751088 0.766333
O O16 0.643795 0.500000 0.471462
O O17 0.692382 0.235225 0.412069
O O18 0.133839 0.812221 0.618744
O O19 0.000000 0.755645 0.500000
O O20 0.090774 0.000000 0.483779
O O21 0.259036 0.000000 0.678888
#
# Coordination Sequence:
#
# PCOD8059540 Si02
#       8
#     4   4   4   4   4   4   4   4
#     4  10  20  31  43  61  86 115 152 192 227 262
#     4   9  18  31  45  64  89 117 146 181 223 267
#     4  10  19  31  46  64  85 117 159 199 233 265
#     4   9  18  29  41  59  83 116 153 186 222 259
#     4  10  19  30  45  65  91 121 154 194 231 263
#     4   9  17  29  43  61  87 119 153 186 218 258
#     4   8  14  27  49  74  95 115 141 174 218 273
#     4   9  16  27  46  70  94 119 147 182 224 270
#
# _framework density 17.128889999999998
#
# number of rings (size 3 to 8) (size 9 to 14) (size 15 to 20)
#    0.000    2.750    1.250    2.625    0.000    4.250 
#    0.000    2.500    0.000    9.375    0.000    0.875 
#    0.000    7.000    0.000    0.000    0.000    0.000 
#
# Total GULP energy -396456.984405 kJ/mol
# GULP energy per Si atom -12389.280763 kJ/mol
# Density = 1.708990 g / cm^3
# Si number density = 17.128890 Si / 1000 Ang^3
#
#
#
# Elastic Constant Matrix: (Units=GPa)
#
#
# Indices 1 2 3 4 5 6 
#
# 1 44.4310 17.7481 21.3421 0.0000 5.7793 0.0000
# 2 17.7481 72.2902 48.2822 0.0000 7.0452 0.0000
# 3 21.3421 48.2822 133.9146 0.0000 6.2903 0.0000
# 4 0.0000 0.0000 0.0000 20.5946 0.0000 0.0043
# 5 5.7793 7.0452 6.2903 0.0000 16.6743 0.0000
# 6 0.0000 0.0000 0.0000 0.0043 0.0000 4.2024
#
#
#
# Elastic Compliance Matrix: (Units=1/GPa)
#
#
# Indices 1 2 3 4 5 6 
#
# 1 0.026154 -0.004234 -0.002341 0.000000 -0.006393 0.000000
# 2 -0.004234 0.019381 -0.006105 0.000000 -0.004418 0.000000
# 3 -0.002341 -0.006105 0.010061 0.000000 -0.000404 0.000000
# 4 0.000000 0.000000 0.000000 0.048556 0.000000 -0.000050
# 5 -0.006393 -0.004418 -0.000404 0.000000 0.064207 0.000000
# 6 0.000000 0.000000 0.000000 -0.000050 0.000000 0.237958
#
#
# Mechanical properties :
#
#
# Convention : Reuss Voigt Hill
#
# Bulk Modulus (GPa) = 33.07524 47.26448 40.16986
# Shear Modulus (GPa) = 11.31840 19.17850 15.24845
#
# Velocity S-wave (km/s) = 2.57335 3.34976 2.98689
# Velocity P-wave (km/s) = 5.30858 6.52798 5.94960
#
# Compressibility (1/GPa) = 0.03023409
#
# Stress axis : x y z
#
# Youngs Moduli (GPa) = 38.23452 51.59678 99.39549
#
# Poissons Ratio (x) = 0.21849 0.23271
# Poissons Ratio (y) = 0.16190 0.60685
# Poissons Ratio (z) = 0.08952 0.31502
#
# Static dielectric constant tensor:
#      x y z
#    x 3.091730 0.000000 -0.001850 
#    y 0.000000 3.242720 0.000000 
#    z -0.001850 0.000000 3.541060 
# 
# 
# High freq. dielectric constant tensor:
#      x y z
#    x 1.613130 0.000000 -0.000680 
#    y 0.000000 1.654830 0.000000 
#    z -0.000680 0.000000 1.675340 
# 
# From -- ./inp_files/66169.got.cif
#   From: 2010.06.25/outbox.cif.g09.slc.cpg/sg10_34_cif.got.tgz:66169.got - 2010.06.27 22:07:45.
