data_PCOD8059482
_publ_section_title
;
Structure prediction by ZEFSAII (Michael W. Deem and Ramdas Pophale) SiO2 
 PCOD8059482
Probable space group: P 2/M
;
_chemical_formula_sum "Si O2"
_cell_formula_units_Z 28
_cell_length_a 22.375018
_cell_length_b 22.727832
_cell_length_c 5.215835
_cell_angle_alpha 90.000000
_cell_angle_beta 54.354090
_cell_angle_gamma 90.000000
_cell_volume 2155.461485
_symmetry_space_group_name_H-M "P 2/M"
_symmetry_group_IT_number 10
_symmetry_cell_setting 'monoclinic'
loop_
_space_group_symop_operation_xyz
x,y,z
-x,y,-z
-x,-y,-z
x,-y,z
loop_
_atom_site_type_symbol
_atom_site_label
_atom_site_fract_x
_atom_site_fract_y
_atom_site_fract_z
Si Si1 0.912345 0.066437 0.219138
Si Si2 0.912989 0.734227 0.717527
Si Si3 0.087793 0.133666 0.280517
Si Si4 0.204995 0.430427 0.487512
Si Si5 0.913033 0.335998 0.217417
Si Si6 0.707221 0.569613 0.231948
Si Si7 0.457874 0.570210 0.355315
O O1 0.882290 0.099971 0.544362
O O2 0.881778 0.000000 0.295555
O O3 0.882290 0.099971 0.044189
O O4 0.000000 0.065956 0.000000
O O5 0.880217 0.800121 0.799458
O O6 0.886351 0.700229 0.531620
O O7 0.000000 0.738567 0.500000
O O8 0.886351 0.700229 0.036626
O O9 0.000000 0.134574 0.500000
O O10 0.190486 0.500000 0.523785
O O11 0.125730 0.399410 0.685675
O O12 0.250271 0.409080 0.621827
O O13 0.250271 0.409080 0.126819
O O14 0.000000 0.347594 0.000000
O O15 0.701799 0.500000 0.245504
O O16 0.624870 0.595871 0.437826
O O17 0.500000 0.594045 0.500000
O O18 0.456543 0.500000 0.358643
O O19 0.500000 0.594045 0.000000
#
# Coordination Sequence:
#
# PCOD8059482 Si02
#       7
#     4   4   4   4   4   4   4
#     4   9  15  21  30  46  66  85 103 121 145 188
#     4   9  17  28  40  52  64  80 106 142 180 213
#     4   9  15  23  34  46  62  83 103 126 160 198
#     4  10  19  30  42  54  70  91 111 138 181 227
#     4  10  19  30  42  54  66  82 112 152 187 222
#     4   9  17  28  40  55  74  93 111 129 158 206
#     4   9  15  23  37  56  75  93 111 129 147 176
#
# _framework density 12.990258000000001
#
# number of rings (size 3 to 8) (size 9 to 14) (size 15 to 20)
#    0.000    2.714    0.000    3.000    0.000    8.857 
#    0.000    0.000    0.000    5.143    0.000    0.000 
#    0.000    0.000    0.000    0.000    0.000    0.000 
#
# Total GULP energy -347151.218483 kJ/mol
# GULP energy per Si atom -12398.257803 kJ/mol
# Density = 1.296069 g / cm^3
# Si number density = 12.990258 Si / 1000 Ang^3
#
#
#
# Elastic Constant Matrix: (Units=GPa)
#
#
# Indices 1 2 3 4 5 6 
#
# 1 71.3055 37.0805 53.7129 0.0000 20.8597 0.0000
# 2 37.0805 69.9882 38.3307 0.0000 6.6715 0.0000
# 3 53.7129 38.3307 79.7949 0.0000 24.4426 0.0000
# 4 0.0000 0.0000 0.0000 8.2914 0.0000 6.4468
# 5 20.8597 6.6715 24.4426 0.0000 29.8706 0.0000
# 6 0.0000 0.0000 0.0000 6.4468 0.0000 7.0833
#
#
#
# Elastic Compliance Matrix: (Units=1/GPa)
#
#
# Indices 1 2 3 4 5 6 
#
# 1 0.031956 -0.007780 -0.015307 0.000000 -0.008053 0.000000
# 2 -0.007780 0.021725 -0.007175 0.000000 0.006452 0.000000
# 3 -0.015307 -0.007175 0.030049 0.000000 -0.012297 0.000000
# 4 0.000000 0.000000 0.000000 0.412578 0.000000 -0.375508
# 5 -0.008053 0.006452 -0.012297 0.000000 0.047723 0.000000
# 6 0.000000 0.000000 0.000000 -0.375508 0.000000 0.482946
#
#
# Mechanical properties :
#
#
# Convention : Reuss Voigt Hill
#
# Bulk Modulus (GPa) = 43.09225 53.25965 48.17595
# Shear Modulus (GPa) = 4.56523 15.18001 9.87262
#
# Velocity S-wave (km/s) = 1.87669 3.42214 2.75980
# Velocity P-wave (km/s) = 6.15960 7.53017 6.87910
#
# Compressibility (1/GPa) = 0.02320603
#
# Stress axis : x y z
#
# Youngs Moduli (GPa) = 31.29313 46.03070 33.27882
#
# Poissons Ratio (x) = 0.35811 0.50939
# Poissons Ratio (y) = 0.24346 0.23879
# Poissons Ratio (z) = 0.47899 0.33028
#
# Static dielectric constant tensor:
#      x y z
#    x 2.577650 0.000000 0.318290 
#    y 0.000000 2.479970 0.000000 
#    z 0.318290 0.000000 2.637300 
# 
# 
# High freq. dielectric constant tensor:
#      x y z
#    x 1.475930 0.000000 0.040830 
#    y 0.000000 1.465670 0.000000 
#    z 0.040830 0.000000 1.483580 
# 
# From -- ./inp_files/9911.got.cif
#   From: 2010.06.25/outbox.cif.g09.slc.cpg/sg10_5_cif.got.tgz:9911.got - 2010.06.27 22:07:45.
