data_PCOD8059971
_publ_section_title
;
Structure prediction by ZEFSAII (Michael W. Deem and Ramdas Pophale) SiO2 
 PCOD8059971
Probable space group: P 2/M
;
_chemical_formula_sum "Si O2"
_cell_formula_units_Z 24
_cell_length_a 12.444926
_cell_length_b 13.626986
_cell_length_c 11.761083
_cell_angle_alpha 90.000000
_cell_angle_beta 47.564647
_cell_angle_gamma 90.000000
_cell_volume 1472.037372
_symmetry_space_group_name_H-M "P 2/M"
_symmetry_group_IT_number 10
_symmetry_cell_setting 'monoclinic'
loop_
_space_group_symop_operation_xyz
x,y,z
-x,y,-z
-x,-y,-z
x,-y,z
loop_
_atom_site_type_symbol
_atom_site_label
_atom_site_fract_x
_atom_site_fract_y
_atom_site_fract_z
Si Si1 0.857774 0.761287 0.670151
Si Si2 0.265397 0.113500 0.626198
Si Si3 0.067589 0.887266 0.167257
Si Si4 0.628764 0.612834 0.817906
Si Si5 0.666190 0.114119 0.170258
Si Si6 0.620100 0.213649 0.674110
O O1 0.908506 0.825035 0.738167
O O2 0.774571 0.661435 0.768798
O O3 0.745469 0.825532 0.671578
O O4 0.000000 0.728950 0.500000
O O5 0.341773 0.140303 0.690662
O O6 0.327298 0.190521 0.490953
O O7 0.093634 0.128455 0.765719
O O8 0.299882 0.000000 0.566211
O O9 0.094311 0.000000 0.180590
O O10 0.179743 0.851060 0.990797
O O11 0.656148 0.500000 0.768666
O O12 0.597055 0.670264 0.720681
O O13 0.500000 0.626627 0.000000
O O14 0.535447 0.163664 0.193886
O O15 0.647285 0.000000 0.165971
#
# Coordination Sequence:
#
# PCOD8059971 Si02
#       6
#     4   4   4   4   4   4
#     4  10  20  34  49  75 102 129 163 199 251 297
#     4  10  19  33  50  70 101 138 172 200 233 282
#     4  10  19  31  48  72 103 136 168 203 238 282
#     4   9  19  35  54  75  98 124 156 199 252 304
#     4  10  20  32  49  72  99 136 175 204 233 276
#     4  10  20  32  51  74  98 127 164 204 244 294
#
# _framework density 16.303934000000002
#
# number of rings (size 3 to 8) (size 9 to 14) (size 15 to 20)
#    1.000    1.167    1.667    2.500    0.000    5.333 
#    0.000    1.667    0.000    2.000    0.000    0.000 
#    0.000    8.000    0.000    0.000    0.000    0.000 
#
# Total GULP energy -297375.288017 kJ/mol
# GULP energy per Si atom -12390.637001 kJ/mol
# Density = 1.626683 g / cm^3
# Si number density = 16.303934 Si / 1000 Ang^3
#
#
#
# Elastic Constant Matrix: (Units=GPa)
#
#
# Indices 1 2 3 4 5 6 
#
# 1 69.0327 24.8067 11.4095 0.0000 -8.7013 0.0000
# 2 24.8067 47.9231 41.2101 0.0000 -0.0556 0.0000
# 3 11.4095 41.2101 81.2945 0.0000 -8.7057 0.0000
# 4 0.0000 0.0000 0.0000 26.3108 0.0000 0.5202
# 5 -8.7013 -0.0556 -8.7057 0.0000 27.2383 0.0000
# 6 0.0000 0.0000 0.0000 0.5202 0.0000 -1.8410
#
#
#
# Elastic Compliance Matrix: (Units=1/GPa)
#
#
# Indices 1 2 3 4 5 6 
#
# 1 0.020120 -0.015494 0.005918 0.000000 0.008287 0.000000
# 2 -0.015494 0.049939 -0.024498 0.000000 -0.012678 0.000000
# 3 0.005918 -0.024498 0.024940 0.000000 0.009812 0.000000
# 4 0.000000 0.000000 0.000000 0.037796 0.000000 0.010680
# 5 0.008287 -0.012678 0.009812 0.000000 0.042471 0.000000
# 6 0.000000 0.000000 0.000000 0.010680 0.000000 -0.540152
#
#
# Mechanical properties :
#
#
# Convention : Reuss Voigt Hill
#
# Bulk Modulus (GPa) = 37.24406 39.23364 38.23885
# Shear Modulus (GPa) = -17.37396 18.39655 0.51129
#
# Velocity S-wave (km/s) = -3.26794 3.36274 0.56061
# Velocity P-wave (km/s) = 2.94176 6.26047 4.89119
#
# Compressibility (1/GPa) = 0.02684992
#
# Stress axis : x y z
#
# Youngs Moduli (GPa) = 49.70127 20.02436 40.09645
#
# Poissons Ratio (x) = 0.31027 -0.23730
# Poissons Ratio (y) = 0.77009 0.98230
# Poissons Ratio (z) = -0.29414 0.49056
#
# Static dielectric constant tensor:
#      x y z
#    x 3.103970 0.000000 -0.190520 
#    y 0.000000 2.799020 0.000000 
#    z -0.190520 0.000000 3.411050 
# 
# 
# High freq. dielectric constant tensor:
#      x y z
#    x 1.628560 0.000000 -0.016830 
#    y 0.000000 1.587820 0.000000 
#    z -0.016830 0.000000 1.643990 
# 
# From -- ./inp_files/47109.got.cif
#   From: 2010.06.25/outbox.cif.g09.slc.cpg/sg10_24_cif.got.tgz:47109.got - 2010.06.27 22:07:45.
