data_PCOD8059771
_publ_section_title
;
Structure prediction by ZEFSAII (Michael W. Deem and Ramdas Pophale) SiO2 
 PCOD8059771
Probable space group: P 2/M
;
_chemical_formula_sum "Si O2"
_cell_formula_units_Z 32
_cell_length_a 10.226574
_cell_length_b 13.196549
_cell_length_c 25.686913
_cell_angle_alpha 90.000000
_cell_angle_beta 151.851465
_cell_angle_gamma 90.000000
_cell_volume 1635.394791
_symmetry_space_group_name_H-M "P 2/M"
_symmetry_group_IT_number 10
_symmetry_cell_setting 'monoclinic'
loop_
_space_group_symop_operation_xyz
x,y,z
-x,y,-z
-x,-y,-z
x,-y,z
loop_
_atom_site_type_symbol
_atom_site_label
_atom_site_fract_x
_atom_site_fract_y
_atom_site_fract_z
Si Si1 0.563733 0.621205 0.642403
Si Si2 0.853420 0.749271 0.820158
Si Si3 0.790573 0.879834 0.128813
Si Si4 0.826081 0.115884 0.261823
Si Si5 0.073098 0.615761 0.749703
Si Si6 0.231720 0.277402 0.440269
Si Si7 0.266588 0.884156 0.126580
Si Si8 0.377081 0.615690 0.014295
O O1 0.508889 0.500000 0.626411
O O2 0.608724 0.673870 0.714004
O O3 0.310220 0.678674 0.524463
O O4 0.849856 0.649772 0.714051
O O5 0.711300 0.811345 0.816349
O O6 0.955937 0.828344 0.812412
O O7 0.107235 0.682189 0.929697
O O8 0.814971 0.845553 0.197956
O O9 0.819447 0.000000 0.134113
O O10 0.500000 0.844905 0.000000
O O11 0.526450 0.132368 0.180705
O O12 0.051002 0.175078 0.376144
O O13 0.919647 0.000000 0.296559
O O14 0.129818 0.500000 0.779276
O O15 0.377184 0.664851 0.863983
O O16 0.957023 0.635400 0.651703
O O17 0.500000 0.256295 0.500000
O O18 0.246138 0.000000 0.139065
O O19 0.000000 0.853926 0.000000
O O20 0.296964 0.500000 0.000192
O O21 0.500000 0.622206 0.000000
#
# Coordination Sequence:
#
# PCOD8059771 Si02
#       8
#     4   4   4   4   4   4   4   4
#     4  10  20  35  55  83 117 151 192 244 294 345
#     4  12  21  33  60  88 118 154 197 243 291 350
#     4  10  20  32  53  87 121 149 187 243 298 349
#     4  10  22  40  59  83 119 157 196 243 297 355
#     4   9  17  30  50  81 119 153 189 238 293 352
#     4  10  20  34  57  86 115 155 202 245 292 346
#     4  10  23  42  61  85 121 162 198 234 288 362
#     4  10  19  30  49  84 123 154 190 242 304 357
#
# _framework density 19.567139999999998
#
# number of rings (size 3 to 8) (size 9 to 14) (size 15 to 20)
#    0.000    1.875    1.250    3.750    3.500    3.750 
#    0.000    1.875    0.000    6.750    0.000    0.000 
#    0.000    0.000    0.000    0.000    0.000    0.000 
#
# Total GULP energy -396650.350465 kJ/mol
# GULP energy per Si atom -12395.323452 kJ/mol
# Density = 1.952260 g / cm^3
# Si number density = 19.567140 Si / 1000 Ang^3
#
#
#
# Elastic Constant Matrix: (Units=GPa)
#
#
# Indices 1 2 3 4 5 6 
#
# 1 66.5427 32.6016 25.2387 0.0000 -13.0973 0.0000
# 2 32.6016 80.9955 39.1673 0.0000 -12.7954 0.0000
# 3 25.2387 39.1673 130.8611 0.0000 -20.8674 0.0000
# 4 0.0000 0.0000 0.0000 41.4320 0.0000 -4.8658
# 5 -13.0973 -12.7954 -20.8674 0.0000 18.7872 0.0000
# 6 0.0000 0.0000 0.0000 -4.8658 0.0000 23.2378
#
#
#
# Elastic Compliance Matrix: (Units=1/GPa)
#
#
# Indices 1 2 3 4 5 6 
#
# 1 0.020166 -0.006430 -0.000512 0.000000 0.009110 0.000000
# 2 -0.006430 0.017088 -0.003322 0.000000 0.003466 0.000000
# 3 -0.000512 -0.003322 0.010107 0.000000 0.008607 0.000000
# 4 0.000000 0.000000 0.000000 0.024744 0.000000 0.005181
# 5 0.009110 0.003466 0.008607 0.000000 0.071499 0.000000
# 6 0.000000 0.000000 0.000000 0.005181 0.000000 0.044118
#
#
# Mechanical properties :
#
#
# Convention : Reuss Voigt Hill
#
# Bulk Modulus (GPa) = 37.26684 52.49051 44.87867
# Shear Modulus (GPa) = 23.02074 28.78420 25.90247
#
# Velocity S-wave (km/s) = 3.43374 3.83958 3.64232
# Velocity P-wave (km/s) = 5.89980 6.82207 6.37763
#
# Compressibility (1/GPa) = 0.02683351
#
# Stress axis : x y z
#
# Youngs Moduli (GPa) = 49.58941 58.51904 98.93988
#
# Poissons Ratio (x) = 0.37628 0.05065
# Poissons Ratio (y) = 0.31886 0.32866
# Poissons Ratio (z) = 0.02539 0.19439
#
# Static dielectric constant tensor:
#      x y z
#    x 3.163410 0.000000 -0.172050 
#    y 0.000000 3.758160 0.000000 
#    z -0.172050 0.000000 4.180310 
# 
# 
# High freq. dielectric constant tensor:
#      x y z
#    x 1.714410 0.000000 -0.011420 
#    y 0.000000 1.783900 0.000000 
#    z -0.011420 0.000000 1.766980 
# 
# From -- ./inp_files/65103.got.cif
#   From: 2010.06.25/outbox.cif.g09.slc.cpg/sg10_33_cif.got.tgz:65103.got - 2010.06.27 22:07:45.
