data_PCOD8059924
_publ_section_title
;
Structure prediction by ZEFSAII (Michael W. Deem and Ramdas Pophale) SiO2 
 PCOD8059924
Probable space group: P 2/M
;
_chemical_formula_sum "Si O2"
_cell_formula_units_Z 28
_cell_length_a 32.526451
_cell_length_b 8.983546
_cell_length_c 31.676389
_cell_angle_alpha 90.000000
_cell_angle_beta 170.789891
_cell_angle_gamma 90.000000
_cell_volume 1481.461402
_symmetry_space_group_name_H-M "P 2/M"
_symmetry_group_IT_number 10
_symmetry_cell_setting 'monoclinic'
loop_
_space_group_symop_operation_xyz
x,y,z
-x,y,-z
-x,-y,-z
x,-y,z
loop_
_atom_site_type_symbol
_atom_site_label
_atom_site_fract_x
_atom_site_fract_y
_atom_site_fract_z
Si Si1 0.332321 0.822803 0.996930
Si Si2 0.095856 0.822543 0.287576
Si Si3 0.952001 0.822455 0.856003
Si Si4 0.763201 0.673082 0.289603
Si Si5 0.619895 0.177454 0.859694
Si Si6 0.476063 0.822433 0.428189
Si Si7 0.191822 0.823189 0.575499
O O1 0.356201 0.760301 0.068593
O O2 0.570606 0.761663 0.211178
O O3 0.332636 0.000000 0.997878
O O4 0.070010 0.761661 0.710578
O O5 0.071927 0.761084 0.215786
O O6 0.357881 0.761236 0.573632
O O7 0.095778 0.000000 0.287343
O O8 0.857861 0.761236 0.073611
O O9 0.714033 0.761436 0.642098
O O10 0.951946 0.000000 0.855836
O O11 0.214032 0.761436 0.142096
O O12 0.769128 0.500000 0.307387
O O13 0.784384 0.767267 0.353156
O O14 0.000000 0.718057 0.500000
O O15 0.500000 0.718058 0.000000
O O16 0.619971 0.000000 0.859922
O O17 0.500000 0.761233 0.500000
O O18 0.476132 0.000000 0.428397
O O19 0.192174 0.000000 0.576569
#
# Coordination Sequence:
#
# PCOD8059924 Si02
#       7
#     4   4   4   4   4   4   4
#     4   9  17  28  42  62  86 109 134 166 202 243
#     4   9  15  21  30  43  59  82 109 138 175 224
#     4   9  15  21  27  36  49  65  93 131 169 218
#     4  10  21  36  52  70  93 120 148 178 213 252
#     4   9  15  23  34  48  68  92 115 140 178 227
#     4   9  15  21  27  33  43  62  89 127 177 226
#     4  10  19  31  48  69  91 115 144 177 211 247
#
# _framework density 18.900255999999999
#
# number of rings (size 3 to 8) (size 9 to 14) (size 15 to 20)
#    0.000    2.714    0.000    3.000    0.000    9.143 
#    0.000    0.000    0.000    0.000    0.000    0.000 
#    0.000    0.000    0.000    0.000    0.000    0.000 
#
# Total GULP energy -347206.945881 kJ/mol
# GULP energy per Si atom -12400.248067 kJ/mol
# Density = 1.885724 g / cm^3
# Si number density = 18.900256 Si / 1000 Ang^3
#
#
#
# Elastic Constant Matrix: (Units=GPa)
#
#
# Indices 1 2 3 4 5 6 
#
# 1 193.9888 10.7499 113.2360 0.0000 1.3261 0.0000
# 2 10.7499 3.5475 9.9499 0.0000 -0.1429 0.0000
# 3 113.2360 9.9499 218.0769 0.0000 2.9924 0.0000
# 4 0.0000 0.0000 0.0000 -49.3904 0.0000 -8.2696
# 5 1.3261 -0.1429 2.9924 0.0000 44.3732 0.0000
# 6 0.0000 0.0000 0.0000 -8.2696 0.0000 -3.2929
#
#
#
# Elastic Compliance Matrix: (Units=1/GPa)
#
#
# Indices 1 2 3 4 5 6 
#
# 1 0.007993 -0.014431 -0.003491 0.000000 -0.000050 0.000000
# 2 -0.014431 0.349495 -0.008482 0.000000 0.002129 0.000000
# 3 -0.003491 -0.008482 0.006791 0.000000 -0.000381 0.000000
# 4 0.000000 0.000000 0.000000 -0.034938 0.000000 0.087741
# 5 -0.000050 0.002129 -0.000381 0.000000 0.022570 0.000000
# 6 0.000000 0.000000 0.000000 0.087741 0.000000 -0.524034
#
#
# Mechanical properties :
#
#
# Convention : Reuss Voigt Hill
#
# Bulk Modulus (GPa) = 3.21058 75.94276 39.57667
# Shear Modulus (GPa) = -322.73518 17.11649 -152.80935
#
# Velocity S-wave (km/s) = -13.08158 3.01262 -9.00144
# Velocity P-wave (km/s) = 15.04885 7.23666 9.33002
#
# Compressibility (1/GPa) = 0.31147032
#
# Stress axis : x y z
#
# Youngs Moduli (GPa) = 125.11202 2.86127 147.26364
#
# Poissons Ratio (x) = 0.04129 0.51412
# Poissons Ratio (y) = 1.80546 1.24909
# Poissons Ratio (z) = 0.43679 0.02427
#
# Static dielectric constant tensor:
#      x y z
#    x 3.656490 0.000000 0.008890 
#    y 0.000000 2.566070 0.000000 
#    z 0.008890 0.000000 3.706120 
# 
# 
# High freq. dielectric constant tensor:
#      x y z
#    x 1.755410 0.000000 0.000600 
#    y 0.000000 1.638860 0.000000 
#    z 0.000600 0.000000 1.758740 
# 
# From -- ./inp_files/13074.got.cif
#   From: 2010.06.25/outbox.cif.g09.slc.cpg/sg10_7_cif.got.tgz:13074.got - 2010.06.27 22:07:45.
