data_PCOD8059692
_publ_section_title
;
Structure prediction by ZEFSAII (Michael W. Deem and Ramdas Pophale) SiO2 
 PCOD8059692
Probable space group: P 2/M
;
_chemical_formula_sum "Si O2"
_cell_formula_units_Z 32
_cell_length_a 33.498586
_cell_length_b 9.519948
_cell_length_c 13.004689
_cell_angle_alpha 90.000000
_cell_angle_beta 154.947940
_cell_angle_gamma 90.000000
_cell_volume 1756.121334
_symmetry_space_group_name_H-M "P 2/M"
_symmetry_group_IT_number 10
_symmetry_cell_setting 'monoclinic'
loop_
_space_group_symop_operation_xyz
x,y,z
-x,y,-z
-x,-y,-z
x,-y,z
loop_
_atom_site_type_symbol
_atom_site_label
_atom_site_fract_x
_atom_site_fract_y
_atom_site_fract_z
Si Si1 0.718666 0.336634 0.455172
Si Si2 0.979356 0.165307 0.568934
Si Si3 0.415116 0.166475 0.229842
Si Si4 0.274425 0.348885 0.199907
Si Si5 0.402663 0.832882 0.965331
Si Si6 0.232651 0.164511 0.918239
Si Si7 0.124102 0.344098 0.027652
Si Si8 0.430711 0.341673 0.716919
O O1 0.716768 0.500000 0.418631
O O2 0.822970 0.297788 0.743095
O O3 0.640132 0.303425 0.357383
O O4 0.695482 0.238047 0.302444
O O5 0.873963 0.206374 0.360088
O O6 0.000000 0.219766 0.500000
O O7 0.997952 0.000000 0.616049
O O8 0.044385 0.235986 0.806720
O O9 0.500000 0.227732 0.500000
O O10 0.424616 0.212730 0.133854
O O11 0.416801 0.000000 0.242492
O O12 0.312799 0.224453 0.028819
O O13 0.266713 0.500000 0.123779
O O14 0.203996 0.350152 0.129536
O O15 0.379360 0.329640 0.487563
O O16 0.251714 0.219395 0.075934
O O17 0.484677 0.769676 0.084904
O O18 0.396273 0.000000 0.938046
O O19 0.241919 0.000000 0.948183
O O20 0.079520 0.500000 0.936825
O O21 0.471098 0.500000 0.825593
#
# Coordination Sequence:
#
# PCOD8059692 Si02
#       8
#     4   4   4   4   4   4   4   4
#     4   9  19  35  52  71  99 135 168 199 250 309
#     4  10  19  30  47  77 108 131 161 203 254 304
#     4   9  19  35  52  71  98 134 172 205 242 291
#     4   9  17  29  46  71 100 129 165 203 238 290
#     4  11  21  32  50  75  97 124 171 217 249 290
#     4  10  19  32  50  70 100 138 167 200 251 301
#     4   9  18  32  50  72 100 135 165 194 243 304
#     4   9  18  32  49  70 100 135 165 198 249 305
#
# _framework density 18.221976000000002
#
# number of rings (size 3 to 8) (size 9 to 14) (size 15 to 20)
#    0.000    2.500    1.250    3.000    0.000    4.750 
#    0.000    3.750    0.000    4.125    0.000    5.250 
#    0.000    0.000    0.000    0.000    0.000    0.000 
#
# Total GULP energy -396535.090068 kJ/mol
# GULP energy per Si atom -12391.721565 kJ/mol
# Density = 1.818050 g / cm^3
# Si number density = 18.221976 Si / 1000 Ang^3
#
#
#
# Elastic Constant Matrix: (Units=GPa)
#
#
# Indices 1 2 3 4 5 6 
#
# 1 37.3514 26.0880 46.5395 0.0000 -6.5354 0.0000
# 2 26.0880 41.4319 54.6910 0.0000 -1.8422 0.0000
# 3 46.5395 54.6910 145.0554 0.0000 -9.4302 0.0000
# 4 0.0000 0.0000 0.0000 320.6942 0.0000 -138.7449
# 5 -6.5354 -1.8422 -9.4302 0.0000 28.6474 0.0000
# 6 0.0000 0.0000 0.0000 -138.7449 0.0000 74.5221
#
#
#
# Elastic Compliance Matrix: (Units=1/GPa)
#
#
# Indices 1 2 3 4 5 6 
#
# 1 0.054710 -0.023133 -0.008294 0.000000 0.008263 0.000000
# 2 -0.023133 0.058075 -0.014893 0.000000 -0.006445 0.000000
# 3 -0.008294 -0.014893 0.015313 0.000000 0.002191 0.000000
# 4 0.000000 0.000000 0.000000 0.016031 0.000000 0.029846
# 5 0.008263 -0.006445 0.002191 0.000000 0.037099 0.000000
# 6 0.000000 0.000000 0.000000 0.029846 0.000000 0.068987
#
#
# Mechanical properties :
#
#
# Convention : Reuss Voigt Hill
#
# Bulk Modulus (GPa) = 28.20324 53.16394 40.68359
# Shear Modulus (GPa) = 14.09748 91.20742 52.65245
#
# Velocity S-wave (km/s) = 2.78448 7.08253 5.38124
# Velocity P-wave (km/s) = 5.08419 9.80418 7.80932
#
# Compressibility (1/GPa) = 0.03545692
#
# Stress axis : x y z
#
# Youngs Moduli (GPa) = 18.27818 17.21919 65.30558
#
# Poissons Ratio (x) = 0.39833 0.54164
# Poissons Ratio (y) = 0.42283 0.97261
# Poissons Ratio (z) = 0.15160 0.25645
#
# Static dielectric constant tensor:
#      x y z
#    x 3.207070 0.000000 -0.075140 
#    y 0.000000 3.322520 0.000000 
#    z -0.075140 0.000000 3.805610 
# 
# 
# High freq. dielectric constant tensor:
#      x y z
#    x 1.668420 0.000000 -0.008670 
#    y 0.000000 1.691060 0.000000 
#    z -0.008670 0.000000 1.719600 
# 
# From -- ./inp_files/58374.got.cif
#   From: 2010.06.25/outbox.cif.g09.slc.cpg/sg10_30_cif.got.tgz:58374.got - 2010.06.27 22:07:45.
