data_PCOD8059031
_publ_section_title
;
Structure prediction by ZEFSAII (Michael W. Deem and Ramdas Pophale) SiO2 
 PCOD8059031
Probable space group: P 2/M
;
_chemical_formula_sum "Si O2"
_cell_formula_units_Z 20
_cell_length_a 14.703342
_cell_length_b 8.423874
_cell_length_c 7.843448
_cell_angle_alpha 90.000000
_cell_angle_beta 89.742544
_cell_angle_gamma 90.000000
_cell_volume 971.472606
_symmetry_space_group_name_H-M "P 2/M"
_symmetry_group_IT_number 10
_symmetry_cell_setting 'monoclinic'
loop_
_space_group_symop_operation_xyz
x,y,z
-x,y,-z
-x,-y,-z
x,-y,z
loop_
_atom_site_type_symbol
_atom_site_label
_atom_site_fract_x
_atom_site_fract_y
_atom_site_fract_z
Si Si1 0.725328 0.686356 0.194225
Si Si2 0.280937 0.686506 0.183520
Si Si3 0.096464 0.817068 0.670418
Si Si4 0.601923 0.310786 0.506210
Si Si5 0.089250 0.684315 0.302785
O O1 0.743463 0.500000 0.214610
O O2 0.821170 0.776285 0.204887
O O3 0.655704 0.748720 0.338096
O O4 0.683865 0.725480 0.007506
O O5 0.276864 0.500000 0.217426
O O6 0.349275 0.758989 0.324486
O O7 0.178524 0.753048 0.207144
O O8 0.105054 0.707646 0.503933
O O9 0.999914 0.778606 0.761982
O O10 0.099280 0.000000 0.616194
O O11 0.500000 0.241200 0.500000
O O12 0.598791 0.500000 0.509719
O O13 0.074477 0.500000 0.262908
#
# Coordination Sequence:
#
# PCOD8059031 Si02
#       5
#     4   4   4   4   4
#     4  10  19  34  55  78 109 143 177 217 262 316
#     4   9  18  31  52  82 108 138 178 215 263 320
#     4  11  21  33  51  79 110 142 183 220 261 312
#     4   9  17  31  53  82 111 135 169 222 274 314
#     4  10  18  33  55  78 108 144 181 217 261 315
#
# _framework density 20.587302000000001
#
# number of rings (size 3 to 8) (size 9 to 14) (size 15 to 20)
#    0.000    2.200    2.000    3.600    0.000    1.600 
#    0.000   10.000    0.000    0.600    0.000    1.400 
#    0.000    0.000    0.000    0.000    0.000    0.000 
#
# Total GULP energy -247957.370584 kJ/mol
# GULP energy per Si atom -12397.868529 kJ/mol
# Density = 2.054044 g / cm^3
# Si number density = 20.587302 Si / 1000 Ang^3
#
#
#
# Elastic Constant Matrix: (Units=GPa)
#
#
# Indices 1 2 3 4 5 6 
#
# 1 173.7923 19.5267 87.9430 0.0000 5.2034 0.0000
# 2 19.5267 35.4405 11.7397 0.0000 1.2349 0.0000
# 3 87.9430 11.7397 143.3753 0.0000 2.3065 0.0000
# 4 0.0000 0.0000 0.0000 3.5773 0.0000 2.2231
# 5 5.2034 1.2349 2.3065 0.0000 17.0323 0.0000
# 6 0.0000 0.0000 0.0000 2.2231 0.0000 1.9475
#
#
#
# Elastic Compliance Matrix: (Units=1/GPa)
#
#
# Indices 1 2 3 4 5 6 
#
# 1 0.008714 -0.003062 -0.005066 0.000000 -0.001754 0.000000
# 2 -0.003062 0.030133 -0.000570 0.000000 -0.001172 0.000000
# 3 -0.005066 -0.000570 0.010125 0.000000 0.000218 0.000000
# 4 0.000000 0.000000 0.000000 0.961870 0.000000 -1.097978
# 5 -0.001754 -0.001172 0.000218 0.000000 0.059303 0.000000
# 6 0.000000 0.000000 0.000000 -1.097978 0.000000 1.766826
#
#
# Mechanical properties :
#
#
# Convention : Reuss Voigt Hill
#
# Bulk Modulus (GPa) = 31.66990 65.66967 48.66978
# Shear Modulus (GPa) = 1.74527 20.07133 10.90830
#
# Velocity S-wave (km/s) = 0.92173 3.12579 2.30436
# Velocity P-wave (km/s) = 4.06809 6.70781 5.54726
#
# Compressibility (1/GPa) = 0.03157572
#
# Stress axis : x y z
#
# Youngs Moduli (GPa) = 114.75642 33.18612 98.76227
#
# Poissons Ratio (x) = 0.10161 0.50034
# Poissons Ratio (y) = 0.35138 0.05633
# Poissons Ratio (z) = 0.58137 0.01893
#
# Static dielectric constant tensor:
#      x y z
#    x 4.022350 0.000000 -0.009480 
#    y 0.000000 3.151870 0.000000 
#    z -0.009480 0.000000 3.664720 
# 
# 
# High freq. dielectric constant tensor:
#      x y z
#    x 1.807920 0.000000 0.001240 
#    y 0.000000 1.754560 0.000000 
#    z 0.001240 0.000000 1.799260 
# 
# From -- ./inp_files/26854.got.cif
#   From: 2010.06.25/outbox.cif.g09.slc.cpg/sg10_14_cif.got.tgz:26854.got - 2010.06.27 22:07:45.
