data_PCOD8059294
_publ_section_title
;
Structure prediction by ZEFSAII (Michael W. Deem and Ramdas Pophale) SiO2 
 PCOD8059294
Probable space group: P 2/M
;
_chemical_formula_sum "Si O2"
_cell_formula_units_Z 32
_cell_length_a 21.954882
_cell_length_b 9.132005
_cell_length_c 13.758888
_cell_angle_alpha 90.000000
_cell_angle_beta 131.622932
_cell_angle_gamma 90.000000
_cell_volume 2062.103916
_symmetry_space_group_name_H-M "P 2/M"
_symmetry_group_IT_number 10
_symmetry_cell_setting 'monoclinic'
loop_
_space_group_symop_operation_xyz
x,y,z
-x,y,-z
-x,-y,-z
x,-y,z
loop_
_atom_site_type_symbol
_atom_site_label
_atom_site_fract_x
_atom_site_fract_y
_atom_site_fract_z
Si Si1 0.355903 0.670444 0.211332
Si Si2 0.738689 0.830782 0.245705
Si Si3 0.943394 0.336829 0.304510
Si Si4 0.468782 0.671224 0.686592
Si Si5 0.590197 0.165356 0.553326
Si Si6 0.437011 0.167991 0.850267
Si Si7 0.772591 0.674895 0.083712
Si Si8 0.112670 0.665700 0.533763
O O1 0.352323 0.500000 0.233292
O O2 0.438011 0.708677 0.240241
O O3 0.349720 0.758237 0.305737
O O4 0.280241 0.720813 0.065102
O O5 0.653606 0.807550 0.208122
O O6 0.734526 0.748094 0.138779
O O7 0.807717 0.766691 0.391958
O O8 0.757981 0.000000 0.246305
O O9 0.957770 0.500000 0.281479
O O10 0.866388 0.267948 0.164013
O O11 0.912656 0.339303 0.381684
O O12 0.033859 0.263512 0.392189
O O13 0.451221 0.500000 0.662463
O O14 0.407492 0.749594 0.546307
O O15 0.451192 0.727488 0.774879
O O16 0.500000 0.171760 0.500000
O O17 0.619815 0.000000 0.567337
O O18 0.452161 0.000000 0.835190
O O19 0.500000 0.215538 0.000000
O O20 0.771277 0.500000 0.098908
O O21 0.132190 0.500000 0.518702
#
# Coordination Sequence:
#
# PCOD8059294 Si02
#       8
#     4   4   4   4   4   4   4   4
#     4   9  17  28  43  64  86 106 132 170 209 240
#     4  10  19  28  39  57  80 107 141 177 207 237
#     4   7  11  21  38  57  75 102 136 163 193 239
#     4  10  19  30  45  63  82 105 138 178 210 236
#     4   9  17  29  45  62  81 108 137 164 201 249
#     4  10  21  34  44  56  80 113 144 173 206 244
#     4   9  16  27  42  59  83 112 138 165 201 244
#     4   8  13  24  40  54  73 103 137 168 198 237
#
# _framework density 15.518129999999999
#
# number of rings (size 3 to 8) (size 9 to 14) (size 15 to 20)
#    0.000    3.000    0.000    3.375    0.000    3.750 
#    0.000    5.000    0.000    0.000    0.000    0.000 
#    0.000    1.000    0.000   11.500    0.000    3.125 
#
# Total GULP energy -396499.509748 kJ/mol
# GULP energy per Si atom -12390.609680 kJ/mol
# Density = 1.548281 g / cm^3
# Si number density = 15.518130 Si / 1000 Ang^3
#
#
#
# Elastic Constant Matrix: (Units=GPa)
#
#
# Indices 1 2 3 4 5 6 
#
# 1 48.8628 31.5009 50.1690 0.0000 12.6318 0.0000
# 2 31.5009 69.6467 53.9611 0.0000 2.9540 0.0000
# 3 50.1690 53.9611 133.3981 0.0000 15.1580 0.0000
# 4 0.0000 0.0000 0.0000 22.2313 0.0000 -2.5909
# 5 12.6318 2.9540 15.1580 0.0000 24.6041 0.0000
# 6 0.0000 0.0000 0.0000 -2.5909 0.0000 19.4412
#
#
#
# Elastic Compliance Matrix: (Units=1/GPa)
#
#
# Indices 1 2 3 4 5 6 
#
# 1 0.040372 -0.010370 -0.009435 0.000000 -0.013669 0.000000
# 2 -0.010370 0.023771 -0.006448 0.000000 0.006442 0.000000
# 3 -0.009435 -0.006448 0.013994 0.000000 -0.003003 0.000000
# 4 0.000000 0.000000 0.000000 0.045691 0.000000 0.006089
# 5 -0.013669 0.006442 -0.003003 0.000000 0.048738 0.000000
# 6 0.000000 0.000000 0.000000 0.006089 0.000000 0.052249
#
#
# Mechanical properties :
#
#
# Convention : Reuss Voigt Hill
#
# Bulk Modulus (GPa) = 39.01492 58.12995 48.57244
# Shear Modulus (GPa) = 17.49080 21.00710 19.24895
#
# Velocity S-wave (km/s) = 3.36090 3.68328 3.52578
# Velocity P-wave (km/s) = 6.34484 7.45851 6.92410
#
# Compressibility (1/GPa) = 0.02563122
#
# Stress axis : x y z
#
# Youngs Moduli (GPa) = 24.76963 42.06850 71.45814
#
# Poissons Ratio (x) = 0.43625 0.67423
# Poissons Ratio (y) = 0.25686 0.46073
# Poissons Ratio (z) = 0.23371 0.27124
#
# Static dielectric constant tensor:
#      x y z
#    x 2.793570 0.000000 0.424390 
#    y 0.000000 2.958780 0.000000 
#    z 0.424390 0.000000 3.291110 
# 
# 
# High freq. dielectric constant tensor:
#      x y z
#    x 1.553500 0.000000 0.026090 
#    y 0.000000 1.588980 0.000000 
#    z 0.026090 0.000000 1.594880 
# 
# From -- ./inp_files/52698.got.cif
#   From: 2010.06.25/outbox.cif.g09.slc.cpg/sg10_27_cif.got.tgz:52698.got - 2010.06.27 22:07:45.
