data_PCOD8059101
_publ_section_title
;
Structure prediction by ZEFSAII (Michael W. Deem and Ramdas Pophale) SiO2 
 PCOD8059101
Probable space group: P 2/M
;
_chemical_formula_sum "Si O2"
_cell_formula_units_Z 24
_cell_length_a 12.293300
_cell_length_b 8.613519
_cell_length_c 11.801085
_cell_angle_alpha 90.000000
_cell_angle_beta 110.597744
_cell_angle_gamma 90.000000
_cell_volume 1169.717355
_symmetry_space_group_name_H-M "P 2/M"
_symmetry_group_IT_number 10
_symmetry_cell_setting 'monoclinic'
loop_
_space_group_symop_operation_xyz
x,y,z
-x,y,-z
-x,-y,-z
x,-y,z
loop_
_atom_site_type_symbol
_atom_site_label
_atom_site_fract_x
_atom_site_fract_y
_atom_site_fract_z
Si Si1 0.717687 0.315691 0.388527
Si Si2 0.624204 0.326946 0.989816
Si Si3 0.455777 0.315748 0.279724
Si Si4 0.817563 0.820038 0.202862
Si Si5 0.246404 0.315927 0.346623
Si Si6 0.022875 0.683697 0.134901
O O1 0.718174 0.500000 0.369914
O O2 0.586021 0.247796 0.334852
O O3 0.798519 0.238731 0.323590
O O4 0.771334 0.266887 0.529407
O O5 0.681554 0.500000 0.010363
O O6 0.609073 0.261480 0.858062
O O7 0.500000 0.339056 0.000000
O O8 0.701993 0.208150 0.087927
O O9 0.467856 0.500000 0.285885
O O10 0.373148 0.255805 0.351270
O O11 0.922147 0.728184 0.184291
O O12 0.848166 0.000000 0.216026
O O13 0.245614 0.500000 0.336296
O O14 0.143323 0.247805 0.230107
O O15 0.030394 0.500000 0.129999
O O16 0.000000 0.752384 0.000000
#
# Coordination Sequence:
#
# PCOD8059101 Si02
#       6
#     4   4   4   4   4   4
#     4  10  19  35  58  85 116 148 189 235 284 341
#     4  10  18  33  58  86 113 145 186 232 285 335
#     4   9  16  30  56  89 118 142 178 235 294 341
#     4  12  25  38  55  82 119 156 192 233 282 340
#     4   9  18  32  57  89 113 143 189 241 288 333
#     4  10  21  40  64  86 112 146 190 242 289 338
#
# _framework density 20.517776000000001
#
# number of rings (size 3 to 8) (size 9 to 14) (size 15 to 20)
#    0.000    2.000    1.667    3.000    0.000    6.000 
#    0.000    4.167    0.000    4.000    0.000    0.000 
#    0.000    0.000    0.000    0.000    0.000    0.000 
#
# Total GULP energy -297548.582285 kJ/mol
# GULP energy per Si atom -12397.857595 kJ/mol
# Density = 2.047108 g / cm^3
# Si number density = 20.517776 Si / 1000 Ang^3
#
#
#
# Elastic Constant Matrix: (Units=GPa)
#
#
# Indices 1 2 3 4 5 6 
#
# 1 114.1430 -2.0444 56.4769 0.0000 -13.1863 0.0000
# 2 -2.0444 13.7353 13.2594 0.0000 0.8429 0.0000
# 3 56.4769 13.2594 140.0712 0.0000 -12.5034 0.0000
# 4 0.0000 0.0000 0.0000 8.0422 0.0000 4.7246
# 5 -13.1863 0.8429 -12.5034 0.0000 35.2456 0.0000
# 6 0.0000 0.0000 0.0000 4.7246 0.0000 11.3419
#
#
#
# Elastic Compliance Matrix: (Units=1/GPa)
#
#
# Indices 1 2 3 4 5 6 
#
# 1 0.011687 0.006531 -0.005116 0.000000 0.002401 0.000000
# 2 0.006531 0.084557 -0.010947 0.000000 -0.003462 0.000000
# 3 -0.005116 -0.010947 0.010421 0.000000 0.002045 0.000000
# 4 0.000000 0.000000 0.000000 0.164635 0.000000 -0.068581
# 5 0.002401 -0.003462 0.002045 0.000000 0.030079 0.000000
# 6 0.000000 0.000000 0.000000 -0.068581 0.000000 0.116737
#
#
# Mechanical properties :
#
#
# Convention : Reuss Voigt Hill
#
# Bulk Modulus (GPa) = 11.41541 44.81481 28.11511
# Shear Modulus (GPa) = 10.72090 24.27643 17.49867
#
# Velocity S-wave (km/s) = 2.28834 3.44348 2.92353
# Velocity P-wave (km/s) = 3.54369 6.13999 5.01285
#
# Compressibility (1/GPa) = 0.08760091
#
# Stress axis : x y z
#
# Youngs Moduli (GPa) = 85.56789 11.82634 95.96283
#
# Poissons Ratio (x) = -0.07724 0.49094
# Poissons Ratio (y) = -0.55883 1.05046
# Poissons Ratio (z) = 0.43776 0.12946
#
# Static dielectric constant tensor:
#      x y z
#    x 3.839920 0.000000 -0.000530 
#    y 0.000000 3.157970 0.000000 
#    z -0.000530 0.000000 4.295850 
# 
# 
# High freq. dielectric constant tensor:
#      x y z
#    x 1.810630 0.000000 -0.008300 
#    y 0.000000 1.739250 0.000000 
#    z -0.008300 0.000000 1.817570 
# 
# From -- ./inp_files/45267.got.cif
#   From: 2010.06.25/outbox.cif.g09.slc.cpg/sg10_23_cif.got.tgz:45267.got - 2010.06.27 22:07:45.
