data_PCOD8059379
_publ_section_title
;
Structure prediction by ZEFSAII (Michael W. Deem and Ramdas Pophale) SiO2 
 PCOD8059379
Probable space group: P 2/M
;
_chemical_formula_sum "Si O2"
_cell_formula_units_Z 28
_cell_length_a 22.897714
_cell_length_b 14.102056
_cell_length_c 18.474996
_cell_angle_alpha 90.000000
_cell_angle_beta 161.994394
_cell_angle_gamma 90.000000
_cell_volume 1844.047213
_symmetry_space_group_name_H-M "P 2/M"
_symmetry_group_IT_number 10
_symmetry_cell_setting 'monoclinic'
loop_
_space_group_symop_operation_xyz
x,y,z
-x,y,-z
-x,-y,-z
x,-y,z
loop_
_atom_site_type_symbol
_atom_site_label
_atom_site_fract_x
_atom_site_fract_y
_atom_site_fract_z
Si Si1 0.277919 0.887470 0.555866
Si Si2 0.594899 0.735305 0.189800
Si Si3 0.480485 0.887657 0.649595
Si Si4 0.715013 0.605899 0.120281
Si Si5 0.142291 0.112341 0.973171
Si Si6 0.095539 0.605900 0.500824
Si Si7 0.806165 0.112855 0.806172
O O1 0.364330 0.838253 0.728662
O O2 0.396595 0.851235 0.626392
O O3 0.062958 0.851230 0.292769
O O4 0.291861 0.000000 0.583732
O O5 0.792806 0.678539 0.418723
O O6 0.500000 0.750772 0.000000
O O7 0.459020 0.678549 0.084942
O O8 0.363452 0.846533 0.443203
O O9 0.460464 0.000000 0.625051
O O10 0.699353 0.856261 0.898732
O O11 0.643848 0.500000 0.016012
O O12 0.800823 0.602575 0.300817
O O13 0.877707 0.638986 0.255406
O O14 0.131323 0.000000 0.966732
O O15 0.203947 0.153470 0.124186
O O16 0.100489 0.500000 0.472664
O O17 0.796902 0.000000 0.796904
O O18 0.000000 0.148552 0.000000
#
# Coordination Sequence:
#
# PCOD8059379 Si02
#       7
#     4   4   4   4   4   4   4
#     4  10  20  31  39  52  79 115 154 188 206 223
#     4  10  19  29  43  60  79 109 147 181 211 243
#     4   9  16  26  40  56  75 102 135 171 212 252
#     4   8  14  26  45  67  85  97 116 157 216 276
#     4   9  16  26  40  56  75 102 135 171 212 252
#     4   8  14  26  45  67  85  97 116 157 216 276
#     4   9  13  21  39  60  79  95 120 165 214 260
#
# _framework density 15.183994
#
# number of rings (size 3 to 8) (size 9 to 14) (size 15 to 20)
#    0.000    3.000    1.429    1.714    0.000    4.857 
#    0.000    0.000    0.000    0.000    0.000    8.000 
#    0.000    0.000    0.000   10.286    0.000   40.000 
#
# Total GULP energy -346962.735349 kJ/mol
# GULP energy per Si atom -12391.526262 kJ/mol
# Density = 1.514943 g / cm^3
# Si number density = 15.183994 Si / 1000 Ang^3
#
#
#
# Elastic Constant Matrix: (Units=GPa)
#
#
# Indices 1 2 3 4 5 6 
#
# 1 72.0582 32.2808 58.4944 0.0000 15.0091 0.0000
# 2 32.2808 44.1031 33.4327 0.0000 2.6793 0.0000
# 3 58.4944 33.4327 87.9493 0.0000 22.2424 0.0000
# 4 0.0000 0.0000 0.0000 6.6771 0.0000 3.0952
# 5 15.0091 2.6793 22.2424 0.0000 26.9734 0.0000
# 6 0.0000 0.0000 0.0000 3.0952 0.0000 5.3669
#
#
#
# Elastic Compliance Matrix: (Units=1/GPa)
#
#
# Indices 1 2 3 4 5 6 
#
# 1 0.033636 -0.011392 -0.017175 0.000000 -0.003422 0.000000
# 2 -0.011392 0.037380 -0.009220 0.000000 0.010228 0.000000
# 3 -0.017175 -0.009220 0.029881 0.000000 -0.014167 0.000000
# 4 0.000000 0.000000 0.000000 0.204413 0.000000 -0.117890
# 5 -0.003422 0.010228 -0.014167 0.000000 0.049644 0.000000
# 6 0.000000 0.000000 0.000000 -0.117890 0.000000 0.254318
#
#
# Mechanical properties :
#
#
# Convention : Reuss Voigt Hill
#
# Bulk Modulus (GPa) = 39.48891 50.28070 44.88481
# Shear Modulus (GPa) = 7.21203 13.13033 10.17118
#
# Velocity S-wave (km/s) = 2.18176 2.94385 2.59098
# Velocity P-wave (km/s) = 5.69299 6.68888 6.21093
#
# Compressibility (1/GPa) = 0.02532356
#
# Stress axis : x y z
#
# Youngs Moduli (GPa) = 29.72997 26.75231 33.46634
#
# Poissons Ratio (x) = 0.30476 0.57479
# Poissons Ratio (y) = 0.33868 0.30854
# Poissons Ratio (z) = 0.51062 0.24664
#
# Static dielectric constant tensor:
#      x y z
#    x 2.934610 0.000000 0.326420 
#    y 0.000000 2.480830 0.000000 
#    z 0.326420 0.000000 3.073370 
# 
# 
# High freq. dielectric constant tensor:
#      x y z
#    x 1.573220 0.000000 0.027320 
#    y 0.000000 1.520350 0.000000 
#    z 0.027320 0.000000 1.584840 
# 
# From -- ./inp_files/67537.got.cif
#   From: 2010.06.25/outbox.cif.g09.slc.cpg/sg10_34_cif.got.tgz:67537.got - 2010.06.27 22:07:45.
