data_PCOD8059726
_publ_section_title
;
Structure prediction by ZEFSAII (Michael W. Deem and Ramdas Pophale) SiO2 
 PCOD8059726
Probable space group: P 2/M
;
_chemical_formula_sum "Si O2"
_cell_formula_units_Z 32
_cell_length_a 20.004260
_cell_length_b 8.923901
_cell_length_c 25.029536
_cell_angle_alpha 90.000000
_cell_angle_beta 22.118080
_cell_angle_gamma 90.000000
_cell_volume 1682.341581
_symmetry_space_group_name_H-M "P 2/M"
_symmetry_group_IT_number 10
_symmetry_cell_setting 'monoclinic'
loop_
_space_group_symop_operation_xyz
x,y,z
-x,y,-z
-x,-y,-z
x,-y,z
loop_
_atom_site_type_symbol
_atom_site_label
_atom_site_fract_x
_atom_site_fract_y
_atom_site_fract_z
Si Si1 0.378795 0.173563 0.918294
Si Si2 0.730053 0.324065 0.402591
Si Si3 0.570820 0.331501 0.863866
Si Si4 0.384496 0.822697 0.698098
Si Si5 0.782546 0.668471 0.805359
Si Si6 0.695842 0.323883 0.134838
Si Si7 0.970197 0.826484 0.754969
Si Si8 0.106798 0.325411 0.832011
O O1 0.544459 0.221141 0.833188
O O2 0.391465 0.269860 0.855403
O O3 0.396357 0.000000 0.891149
O O4 0.193507 0.209602 0.084731
O O5 0.699504 0.500000 0.431501
O O6 0.542758 0.241183 0.544833
O O7 0.811147 0.281771 0.285512
O O8 0.861213 0.268792 0.351696
O O9 0.605472 0.500000 0.817195
O O10 0.735888 0.278621 0.779232
O O11 0.395840 0.329281 0.028786
O O12 0.404014 0.759408 0.743306
O O13 0.198849 0.769513 0.810368
O O14 0.393408 0.000000 0.692717
O O15 0.860542 0.500000 0.746672
O O16 0.924148 0.778852 0.728217
O O17 0.667178 0.500000 0.162072
O O18 0.902048 0.279486 0.982767
O O19 0.021141 0.000000 0.717967
O O20 0.132894 0.500000 0.825797
#
# Coordination Sequence:
#
# PCOD8059726 Si02
#       8
#     4   4   4   4   4   4   4   4
#     4  10  19  30  48  76 109 141 176 222 274 323
#     4  11  22  39  60  81 107 144 186 225 266 321
#     4   8  14  25  42  66  99 139 180 219 261 313
#     4  12  26  40  56  82 113 142 175 224 280 328
#     4   8  14  25  42  66  99 139 180 219 261 313
#     4  11  22  39  60  81 107 144 186 225 266 321
#     4  10  19  30  48  76 109 141 176 222 274 323
#     4  10  22  40  62  84 105 138 183 226 268 323
#
# _framework density 19.021107000000001
#
# number of rings (size 3 to 8) (size 9 to 14) (size 15 to 20)
#    0.000    2.000    1.250    4.125    0.000    6.500 
#    0.000    2.500    0.000    0.000    0.000    0.875 
#    0.000    7.000    0.000    0.000    0.000    0.000 
#
# Total GULP energy -396841.575761 kJ/mol
# GULP energy per Si atom -12401.299243 kJ/mol
# Density = 1.897781 g / cm^3
# Si number density = 19.021107 Si / 1000 Ang^3
#
#
#
# Elastic Constant Matrix: (Units=GPa)
#
#
# Indices 1 2 3 4 5 6 
#
# 1 108.3661 39.3604 11.4667 0.0000 -9.9460 0.0000
# 2 39.3604 85.0753 15.5442 0.0000 3.4686 0.0000
# 3 11.4667 15.5442 27.4087 0.0000 10.4106 0.0000
# 4 0.0000 0.0000 0.0000 17.6588 0.0000 3.4700
# 5 -9.9460 3.4686 10.4106 0.0000 17.6416 0.0000
# 6 0.0000 0.0000 0.0000 3.4700 0.0000 28.5447
#
#
#
# Elastic Compliance Matrix: (Units=1/GPa)
#
#
# Indices 1 2 3 4 5 6 
#
# 1 0.013070 -0.005225 -0.007339 0.000000 0.012727 0.000000
# 2 -0.005225 0.015277 -0.005437 0.000000 -0.002741 0.000000
# 3 -0.007339 -0.005437 0.056459 0.000000 -0.036386 0.000000
# 4 0.000000 0.000000 0.000000 0.058015 0.000000 -0.007053
# 5 0.012727 -0.002741 -0.036386 0.000000 0.085870 0.000000
# 6 0.000000 0.000000 0.000000 -0.007053 0.000000 0.035890
#
#
# Mechanical properties :
#
#
# Convention : Reuss Voigt Hill
#
# Bulk Modulus (GPa) = 20.48997 39.28809 29.88903
# Shear Modulus (GPa) = 15.78027 23.06759 19.42393
#
# Velocity S-wave (km/s) = 2.88344 3.48621 3.19905
# Velocity P-wave (km/s) = 4.67774 6.07493 5.42153
#
# Compressibility (1/GPa) = 0.04880437
#
# Stress axis : x y z
#
# Youngs Moduli (GPa) = 76.50827 65.45858 17.71206
#
# Poissons Ratio (x) = 0.34203 0.12999
# Poissons Ratio (y) = 0.39976 0.09630
# Poissons Ratio (z) = 0.56149 0.35589
#
# Static dielectric constant tensor:
#      x y z
#    x 3.792930 0.000000 -0.138620 
#    y 0.000000 3.464720 0.000000 
#    z -0.138620 0.000000 3.156200 
# 
# 
# High freq. dielectric constant tensor:
#      x y z
#    x 1.754530 0.000000 -0.011740 
#    y 0.000000 1.741100 0.000000 
#    z -0.011740 0.000000 1.694130 
# 
# From -- ./inp_files/93624.got.cif
#   From: 2010.06.25/outbox.cif.g09.slc.cpg/sg10_47_cif.got.tgz:93624.got - 2010.06.27 22:07:45.
