data_PCOD8059574
_publ_section_title
;
Structure prediction by ZEFSAII (Michael W. Deem and Ramdas Pophale) SiO2 
 PCOD8059574
Probable space group: P 2/M
;
_chemical_formula_sum "Si O2"
_cell_formula_units_Z 32
_cell_length_a 27.241171
_cell_length_b 10.006399
_cell_length_c 18.102871
_cell_angle_alpha 90.000000
_cell_angle_beta 157.905480
_cell_angle_gamma 90.000000
_cell_volume 1856.075066
_symmetry_space_group_name_H-M "P 2/M"
_symmetry_group_IT_number 10
_symmetry_cell_setting 'monoclinic'
loop_
_space_group_symop_operation_xyz
x,y,z
-x,y,-z
-x,-y,-z
x,-y,z
loop_
_atom_site_type_symbol
_atom_site_label
_atom_site_fract_x
_atom_site_fract_y
_atom_site_fract_z
Si Si1 0.511774 0.148392 0.686937
Si Si2 0.922274 0.343486 0.283558
Si Si3 0.536705 0.656156 0.971217
Si Si4 0.275648 0.847581 0.258119
Si Si5 0.613101 0.652721 0.378813
Si Si6 0.149274 0.348060 0.192357
Si Si7 0.199532 0.655489 0.734364
Si Si8 0.781687 0.150912 0.987692
O O1 0.423793 0.174176 0.491620
O O2 0.485359 0.256371 0.712632
O O3 0.660615 0.161801 0.873289
O O4 0.481665 0.000000 0.676332
O O5 0.895953 0.500000 0.231747
O O6 0.836307 0.290525 0.233533
O O7 0.075607 0.317763 0.509554
O O8 0.888606 0.256336 0.164587
O O9 0.562708 0.500000 0.019605
O O10 0.413014 0.681951 0.744245
O O11 0.500000 0.720749 0.000000
O O12 0.669490 0.719691 0.120061
O O13 0.181537 0.750768 0.171536
O O14 0.265984 0.807312 0.159636
O O15 0.230157 0.000000 0.207655
O O16 0.575478 0.500000 0.344185
O O17 0.762766 0.682578 0.611724
O O18 0.173736 0.500000 0.200481
O O19 0.000000 0.321414 0.000000
O O20 0.224806 0.500000 0.779477
O O21 0.838921 0.000000 0.068059
#
# Coordination Sequence:
#
# PCOD8059574 Si02
#       8
#     4   4   4   4   4   4   4   4
#     4   9  17  30  49  69  92 125 158 190 230 276
#     4   9  17  30  48  68  92 124 158 191 235 286
#     4   9  16  27  45  70  95 119 154 199 240 277
#     4   9  18  32  48  67  93 125 159 192 228 276
#     4   9  17  30  49  72  94 120 156 196 235 275
#     4   9  18  33  49  69  98 126 154 194 239 279
#     4   8  15  29  46  65  91 121 156 198 235 278
#     4  10  19  30  45  70 100 123 152 192 234 278
#
# _framework density 17.240682
#
# number of rings (size 3 to 8) (size 9 to 14) (size 15 to 20)
#    0.000    3.000    0.000    1.875    0.000    3.750 
#    2.250    1.250    0.000    4.875    0.000    0.000 
#    0.000    0.000    0.000    0.000    0.000    0.000 
#
# Total GULP energy -396578.661151 kJ/mol
# GULP energy per Si atom -12393.083161 kJ/mol
# Density = 1.720144 g / cm^3
# Si number density = 17.240682 Si / 1000 Ang^3
#
#
#
# Elastic Constant Matrix: (Units=GPa)
#
#
# Indices 1 2 3 4 5 6 
#
# 1 78.1723 28.8942 41.9689 0.0000 -11.1364 0.0000
# 2 28.8942 53.1727 32.3578 0.0000 -10.8803 0.0000
# 3 41.9689 32.3578 78.4581 0.0000 -4.9078 0.0000
# 4 0.0000 0.0000 0.0000 10.0249 0.0000 -0.1356
# 5 -11.1364 -10.8803 -4.9078 0.0000 28.1965 0.0000
# 6 0.0000 0.0000 0.0000 -0.1356 0.0000 21.6822
#
#
#
# Elastic Compliance Matrix: (Units=1/GPa)
#
#
# Indices 1 2 3 4 5 6 
#
# 1 0.019610 -0.004706 -0.008268 0.000000 0.004490 0.000000
# 2 -0.004706 0.028145 -0.008621 0.000000 0.007501 0.000000
# 3 -0.008268 -0.008621 0.020535 0.000000 -0.003018 0.000000
# 4 0.000000 0.000000 0.000000 0.099760 0.000000 0.000624
# 5 0.004490 0.007501 -0.003018 0.000000 0.039608 0.000000
# 6 0.000000 0.000000 0.000000 0.000624 0.000000 0.046125
#
#
# Mechanical properties :
#
#
# Convention : Reuss Voigt Hill
#
# Bulk Modulus (GPa) = 39.84052 46.24944 43.04498
# Shear Modulus (GPa) = 16.37516 19.08621 17.73069
#
# Velocity S-wave (km/s) = 3.08522 3.33084 3.21038
# Velocity P-wave (km/s) = 5.98749 6.45574 6.22602
#
# Compressibility (1/GPa) = 0.02510008
#
# Stress axis : x y z
#
# Youngs Moduli (GPa) = 50.99331 35.53022 48.69666
#
# Poissons Ratio (x) = 0.16720 0.40264
# Poissons Ratio (y) = 0.23997 0.41982
# Poissons Ratio (z) = 0.42163 0.30631
#
# Static dielectric constant tensor:
#      x y z
#    x 3.213700 0.000000 -0.018670 
#    y 0.000000 3.066290 0.000000 
#    z -0.018670 0.000000 3.320570 
# 
# 
# High freq. dielectric constant tensor:
#      x y z
#    x 1.647190 0.000000 -0.010510 
#    y 0.000000 1.640430 0.000000 
#    z -0.010510 0.000000 1.672730 
# 
# From -- ./inp_files/80551.got.cif
#   From: 2010.06.25/outbox.cif.g09.slc.cpg/sg10_41_cif.got.tgz:80551.got - 2010.06.27 22:07:45.
