data_PCOD8059849
_publ_section_title
;
Structure prediction by ZEFSAII (Michael W. Deem and Ramdas Pophale) SiO2 
 PCOD8059849
Probable space group: P 2/M
;
_chemical_formula_sum "Si O2"
_cell_formula_units_Z 32
_cell_length_a 15.079995
_cell_length_b 8.955468
_cell_length_c 15.090327
_cell_angle_alpha 90.000000
_cell_angle_beta 78.497535
_cell_angle_gamma 90.000000
_cell_volume 1996.995286
_symmetry_space_group_name_H-M "P 2/M"
_symmetry_group_IT_number 10
_symmetry_cell_setting 'monoclinic'
loop_
_space_group_symop_operation_xyz
x,y,z
-x,y,-z
-x,-y,-z
x,-y,z
loop_
_atom_site_type_symbol
_atom_site_label
_atom_site_fract_x
_atom_site_fract_y
_atom_site_fract_z
Si Si1 0.111498 0.676667 0.560358
Si Si2 0.615734 0.823390 0.615884
Si Si3 0.248749 0.825703 0.259723
Si Si4 0.434972 0.325902 0.902315
Si Si5 0.694242 0.674877 0.429819
Si Si6 0.084005 0.323565 0.367192
Si Si7 0.567438 0.328393 0.296819
Si Si8 0.619154 0.175997 0.919873
O O1 0.107045 0.500000 0.558514
O O2 0.201778 0.733657 0.592064
O O3 0.113916 0.733536 0.458595
O O4 0.019850 0.731603 0.628232
O O5 0.686819 0.763158 0.674744
O O6 0.636773 0.756457 0.516141
O O7 0.515863 0.776751 0.664077
O O8 0.619013 0.000000 0.609194
O O9 0.150543 0.749130 0.282051
O O10 0.292435 0.788205 0.155846
O O11 0.235071 0.000000 0.274989
O O12 0.440241 0.500000 0.925277
O O13 0.398952 0.300121 0.810108
O O14 0.534085 0.254735 0.890704
O O15 0.367024 0.243451 0.984344
O O16 0.691375 0.500000 0.452071
O O17 0.651627 0.712025 0.343132
O O18 0.092224 0.500000 0.356588
O O19 0.536953 0.500000 0.316147
O O20 0.600159 0.000000 0.928505
#
# Coordination Sequence:
#
# PCOD8059849 Si02
#       8
#     4   4   4   4   4   4   4   4
#     4   8  15  28  46  68  90 114 151 190 224 265
#     4  11  21  32  44  64  95 127 159 191 219 257
#     4  10  20  31  44  67  95 122 150 182 226 273
#     4  10  19  31  46  68  91 114 150 194 228 263
#     4  10  19  33  49  65  90 126 159 189 223 267
#     4   9  16  28  48  69  88 116 151 187 226 270
#     4  10  21  33  47  66  91 124 159 189 226 266
#     4  10  19  32  48  65  89 121 151 182 228 279
#
# _framework density 16.024073999999999
#
# number of rings (size 3 to 8) (size 9 to 14) (size 15 to 20)
#    0.000    2.250    2.500    3.000    0.000    4.000 
#    0.000    1.875    0.000    0.000    0.000    0.875 
#    0.000    7.000    0.000    0.000    0.000    0.000 
#
# Total GULP energy -396712.757272 kJ/mol
# GULP energy per Si atom -12397.273665 kJ/mol
# Density = 1.598760 g / cm^3
# Si number density = 16.024074 Si / 1000 Ang^3
#
#
#
# Elastic Constant Matrix: (Units=GPa)
#
#
# Indices 1 2 3 4 5 6 
#
# 1 89.8434 25.6685 56.5083 0.0000 -11.9410 0.0000
# 2 25.6685 50.1844 38.7933 0.0000 -6.6260 0.0000
# 3 56.5083 38.7933 118.1925 0.0000 -7.9707 0.0000
# 4 0.0000 0.0000 0.0000 21.6861 0.0000 -2.3035
# 5 -11.9410 -6.6260 -7.9707 0.0000 26.0848 0.0000
# 6 0.0000 0.0000 0.0000 -2.3035 0.0000 9.6871
#
#
#
# Elastic Compliance Matrix: (Units=1/GPa)
#
#
# Indices 1 2 3 4 5 6 
#
# 1 0.016860 -0.002676 -0.006849 0.000000 0.004946 0.000000
# 2 -0.002676 0.027582 -0.007539 0.000000 0.003478 0.000000
# 3 -0.006849 -0.007539 0.014161 0.000000 -0.000723 0.000000
# 4 0.000000 0.000000 0.000000 0.047307 0.000000 0.011249
# 5 0.004946 0.003478 -0.000723 0.000000 0.041263 0.000000
# 6 0.000000 0.000000 0.000000 0.011249 0.000000 0.105905
#
#
# Mechanical properties :
#
#
# Convention : Reuss Voigt Hill
#
# Bulk Modulus (GPa) = 40.85833 55.57339 48.21586
# Shear Modulus (GPa) = 16.92814 20.64159 18.78487
#
# Velocity S-wave (km/s) = 3.25379 3.59299 3.42759
# Velocity P-wave (km/s) = 6.29838 7.20897 6.76901
#
# Compressibility (1/GPa) = 0.02447481
#
# Stress axis : x y z
#
# Youngs Moduli (GPa) = 59.31130 36.25507 70.61657
#
# Poissons Ratio (x) = 0.09703 0.48365
# Poissons Ratio (y) = 0.15874 0.53238
# Poissons Ratio (z) = 0.40622 0.27333
#
# Static dielectric constant tensor:
#      x y z
#    x 3.161430 0.000000 -0.057840 
#    y 0.000000 2.945090 0.000000 
#    z -0.057840 0.000000 3.102520 
# 
# 
# High freq. dielectric constant tensor:
#      x y z
#    x 1.597840 0.000000 -0.011070 
#    y 0.000000 1.610690 0.000000 
#    z -0.011070 0.000000 1.605100 
# 
# From -- ./inp_files/66005.got.cif
#   From: 2010.06.25/outbox.cif.g09.slc.cpg/sg10_34_cif.got.tgz:66005.got - 2010.06.27 22:07:45.
