data_PCOD8059503
_publ_section_title
;
Structure prediction by ZEFSAII (Michael W. Deem and Ramdas Pophale) SiO2 
 PCOD8059503
Probable space group: P 2/M
;
_chemical_formula_sum "Si O2"
_cell_formula_units_Z 28
_cell_length_a 12.475712
_cell_length_b 8.952265
_cell_length_c 20.535607
_cell_angle_alpha 90.000000
_cell_angle_beta 47.578796
_cell_angle_gamma 90.000000
_cell_volume 1693.102437
_symmetry_space_group_name_H-M "P 2/M"
_symmetry_group_IT_number 10
_symmetry_cell_setting 'monoclinic'
loop_
_space_group_symop_operation_xyz
x,y,z
-x,y,-z
-x,-y,-z
x,-y,z
loop_
_atom_site_type_symbol
_atom_site_label
_atom_site_fract_x
_atom_site_fract_y
_atom_site_fract_z
Si Si1 0.560641 0.831161 0.078133
Si Si2 0.276177 0.833599 0.107293
Si Si3 0.632349 0.831982 0.396129
Si Si4 0.611656 0.675171 0.748103
Si Si5 0.879210 0.179160 0.707727
Si Si6 0.819959 0.324928 0.418581
Si Si7 0.439575 0.673092 0.379727
O O1 0.416649 0.837809 0.094784
O O2 0.530571 0.727188 0.152806
O O3 0.601013 0.000000 0.084078
O O4 0.686486 0.759065 0.978702
O O5 0.151902 0.761631 0.204698
O O6 0.227914 0.000000 0.108937
O O7 0.500000 0.827634 0.500000
O O8 0.763711 0.735518 0.372060
O O9 0.578135 0.762986 0.350293
O O10 0.687941 0.000000 0.361419
O O11 0.636117 0.500000 0.748362
O O12 0.756736 0.761320 0.709079
O O13 0.581118 0.717187 0.686328
O O14 0.032297 0.242817 0.621889
O O15 0.877845 0.000000 0.705843
O O16 0.848275 0.500000 0.401114
O O17 0.706911 0.284747 0.521787
O O18 0.475171 0.500000 0.374748
#
# Coordination Sequence:
#
# PCOD8059503 Si02
#       7
#     4   4   4   4   4   4   4
#     4   8  13  25  43  61  82 112 147 180 217 259
#     4   7  12  24  42  60  82 113 145 178 218 262
#     4   9  17  30  49  70  87 106 143 192 228 255
#     4  10  19  30  43  64  93 122 151 181 217 262
#     4  10  19  31  45  64  91 121 152 184 219 261
#     4  10  19  32  48  65  88 119 151 182 220 264
#     4   9  19  33  47  63  89 123 151 178 218 266
#
# _framework density 16.537687999999999
#
# number of rings (size 3 to 8) (size 9 to 14) (size 15 to 20)
#    0.000    3.000    0.000    3.429    0.000    4.000 
#    0.000    9.286    0.000    0.000    0.000    1.000 
#    0.000    8.000    0.000    0.000    0.000    0.000 
#
# Total GULP energy -346898.804917 kJ/mol
# GULP energy per Si atom -12389.243033 kJ/mol
# Density = 1.650005 g / cm^3
# Si number density = 16.537688 Si / 1000 Ang^3
#
#
#
# Elastic Constant Matrix: (Units=GPa)
#
#
# Indices 1 2 3 4 5 6 
#
# 1 65.4448 33.9237 36.1673 0.0000 23.3131 0.0000
# 2 33.9237 70.6061 30.7857 0.0000 14.8425 0.0000
# 3 36.1673 30.7857 75.8376 0.0000 27.1524 0.0000
# 4 0.0000 0.0000 0.0000 22.2644 0.0000 4.7702
# 5 23.3131 14.8425 27.1524 0.0000 13.8926 0.0000
# 6 0.0000 0.0000 0.0000 4.7702 0.0000 16.9581
#
#
#
# Elastic Compliance Matrix: (Units=1/GPa)
#
#
# Indices 1 2 3 4 5 6 
#
# 1 0.048299 -0.008623 0.020606 0.000000 -0.112112 0.000000
# 2 -0.008623 0.019851 -0.005108 0.000000 0.003244 0.000000
# 3 0.020606 -0.005108 0.052821 0.000000 -0.132358 0.000000
# 4 0.000000 0.000000 0.000000 0.047795 0.000000 -0.013444
# 5 -0.112112 0.003244 -0.132358 0.000000 0.515337 0.000000
# 6 0.000000 0.000000 0.000000 -0.013444 0.000000 0.062751
#
#
# Mechanical properties :
#
#
# Convention : Reuss Voigt Hill
#
# Bulk Modulus (GPa) = 7.42268 45.96020 26.69144
# Shear Modulus (GPa) = 6.42664 18.02382 12.22523
#
# Velocity S-wave (km/s) = 1.97345 3.30489 2.72184
# Velocity P-wave (km/s) = 3.11300 6.51265 5.10418
#
# Compressibility (1/GPa) = 0.13472226
#
# Stress axis : x y z
#
# Youngs Moduli (GPa) = 20.70420 50.37496 18.93189
#
# Poissons Ratio (x) = 0.43438 -0.39011
# Poissons Ratio (y) = 0.17853 0.09670
# Poissons Ratio (z) = -0.42663 0.25730
#
# Static dielectric constant tensor:
#      x y z
#    x 2.846130 0.000000 0.092820 
#    y 0.000000 3.091350 0.000000 
#    z 0.092820 0.000000 3.525160 
# 
# 
# High freq. dielectric constant tensor:
#      x y z
#    x 1.600430 0.000000 0.010900 
#    y 0.000000 1.631700 0.000000 
#    z 0.010900 0.000000 1.632380 
# 
# From -- ./inp_files/77814.got.cif
#   From: 2010.06.25/outbox.cif.g09.slc.cpg/sg10_39_cif.got.tgz:77814.got - 2010.06.27 22:07:45.
