data_PCOD8059470
_publ_section_title
;
Structure prediction by ZEFSAII (Michael W. Deem and Ramdas Pophale) SiO2 
 PCOD8059470
Probable space group: P 2/M
;
_chemical_formula_sum "Si O2"
_cell_formula_units_Z 32
_cell_length_a 9.565339
_cell_length_b 14.276959
_cell_length_c 26.191508
_cell_angle_alpha 90.000000
_cell_angle_beta 152.715627
_cell_angle_gamma 90.000000
_cell_volume 1639.638049
_symmetry_space_group_name_H-M "P 2/M"
_symmetry_group_IT_number 10
_symmetry_cell_setting 'monoclinic'
loop_
_space_group_symop_operation_xyz
x,y,z
-x,y,-z
-x,-y,-z
x,-y,z
loop_
_atom_site_type_symbol
_atom_site_label
_atom_site_fract_x
_atom_site_fract_y
_atom_site_fract_z
Si Si1 0.052540 0.785827 0.193667
Si Si2 0.488346 0.396500 0.759779
Si Si3 0.417258 0.892124 0.760285
Si Si4 0.116007 0.396060 0.910784
Si Si5 0.271815 0.196991 0.813361
Si Si6 0.292001 0.764506 0.629891
Si Si7 0.092476 0.109459 0.953601
Si Si8 0.625912 0.398499 0.161443
O O1 0.411293 0.760473 0.310547
O O2 0.857795 0.688302 0.121978
O O3 0.944181 0.837942 0.210661
O O4 0.985384 0.863630 0.129452
O O5 0.374669 0.500000 0.707682
O O6 0.262883 0.323605 0.659239
O O7 0.526802 0.385733 0.832711
O O8 0.820234 0.373210 0.847129
O O9 0.210398 0.848521 0.738432
O O10 0.302695 0.855882 0.668681
O O11 0.783228 0.872862 0.886714
O O12 0.346946 0.000000 0.738107
O O13 0.102013 0.500000 0.879567
O O14 0.388077 0.396330 0.038628
O O15 0.169929 0.306535 0.778242
O O16 0.630144 0.176470 0.939837
O O17 0.000000 0.767525 0.500000
O O18 0.189852 0.000000 0.988844
O O19 0.800062 0.500000 0.216536
#
# Coordination Sequence:
#
# PCOD8059470 Si02
#       8
#     4   4   4   4   4   4   4   4
#     4  10  22  35  52  82 113 144 184 222 269 317
#     4   9  17  31  53  82 109 138 183 229 264 311
#     4  10  22  39  59  82 107 141 184 224 267 322
#     4   9  17  30  49  76 114 153 184 213 254 315
#     4  12  21  33  54  82 116 149 175 217 263 321
#     4  10  21  40  62  80 102 138 183 234 282 323
#     4  10  21  36  55  80 113 150 182 213 256 318
#     4  10  19  29  49  80 115 151 180 210 259 319
#
# _framework density 19.516501999999999
#
# number of rings (size 3 to 8) (size 9 to 14) (size 15 to 20)
#    0.000    2.000    2.500    1.500    0.000    6.000 
#    0.000    1.875    0.000    0.750    0.000    1.750 
#    0.000    0.000    0.000    0.000    0.000    0.000 
#
# Total GULP energy -396433.372701 kJ/mol
# GULP energy per Si atom -12388.542897 kJ/mol
# Density = 1.947208 g / cm^3
# Si number density = 19.516502 Si / 1000 Ang^3
#
#
#
# Elastic Constant Matrix: (Units=GPa)
#
#
# Indices 1 2 3 4 5 6 
#
# 1 119.1627 45.3217 50.6295 0.0000 -19.3575 0.0000
# 2 45.3217 136.3916 66.7327 0.0000 -24.6846 0.0000
# 3 50.6295 66.7327 163.9025 0.0000 -46.4654 0.0000
# 4 0.0000 0.0000 0.0000 12.7531 0.0000 0.0309
# 5 -19.3575 -24.6846 -46.4654 0.0000 30.5330 0.0000
# 6 0.0000 0.0000 0.0000 0.0309 0.0000 12.7748
#
#
#
# Elastic Compliance Matrix: (Units=1/GPa)
#
#
# Indices 1 2 3 4 5 6 
#
# 1 0.010295 -0.002211 -0.001647 0.000000 0.002233 0.000000
# 2 -0.002211 0.009794 -0.002563 0.000000 0.002616 0.000000
# 3 -0.001647 -0.002563 0.011907 0.000000 0.015004 0.000000
# 4 0.000000 0.000000 0.000000 0.078413 0.000000 -0.000190
# 5 0.002233 0.002616 0.015004 0.000000 0.059115 0.000000
# 6 0.000000 0.000000 0.000000 -0.000190 0.000000 0.078280
#
#
# Mechanical properties :
#
#
# Convention : Reuss Voigt Hill
#
# Bulk Modulus (GPa) = 52.20758 82.75831 67.48295
# Shear Modulus (GPa) = 18.72443 28.33036 23.52739
#
# Velocity S-wave (km/s) = 3.10080 3.81413 3.47582
# Velocity P-wave (km/s) = 6.29512 7.86722 7.12466
#
# Compressibility (1/GPa) = 0.01915431
#
# Stress axis : x y z
#
# Youngs Moduli (GPa) = 97.13120 102.10332 83.98439
#
# Poissons Ratio (x) = 0.22576 0.13831
# Poissons Ratio (y) = 0.21477 0.21526
# Poissons Ratio (z) = 0.15996 0.26170
#
# Static dielectric constant tensor:
#      x y z
#    x 3.706680 0.000000 -0.146680 
#    y 0.000000 3.892020 0.000000 
#    z -0.146680 0.000000 3.040810 
# 
# 
# High freq. dielectric constant tensor:
#      x y z
#    x 1.769900 0.000000 -0.018400 
#    y 0.000000 1.779040 0.000000 
#    z -0.018400 0.000000 1.693570 
# 
# From -- ./inp_files/25335.got.cif
#   From: 2010.06.25/outbox.cif.g09.slc.cpg/sg10_13_cif.got.tgz:25335.got - 2010.06.27 22:07:45.
