data_PCOD8059209
_publ_section_title
;
Structure prediction by ZEFSAII (Michael W. Deem and Ramdas Pophale) SiO2 
 PCOD8059209
Probable space group: P 2/M
;
_chemical_formula_sum "Si O2"
_cell_formula_units_Z 32
_cell_length_a 23.875638
_cell_length_b 13.685384
_cell_length_c 9.323241
_cell_angle_alpha 90.000000
_cell_angle_beta 150.702700
_cell_angle_gamma 90.000000
_cell_volume 1490.701900
_symmetry_space_group_name_H-M "P 2/M"
_symmetry_group_IT_number 10
_symmetry_cell_setting 'monoclinic'
loop_
_space_group_symop_operation_xyz
x,y,z
-x,y,-z
-x,-y,-z
x,-y,z
loop_
_atom_site_type_symbol
_atom_site_label
_atom_site_fract_x
_atom_site_fract_y
_atom_site_fract_z
Si Si1 0.810575 0.748511 0.825912
Si Si2 0.299788 0.813103 0.908031
Si Si3 0.735983 0.394104 0.220584
Si Si4 0.999695 0.390694 0.838806
Si Si5 0.864755 0.886329 0.690511
Si Si6 0.276111 0.891467 0.162307
Si Si7 0.367766 0.611702 0.697239
Si Si8 0.505330 0.110685 0.851800
O O1 0.807032 0.827941 0.691022
O O2 0.812055 0.809077 0.978974
O O3 0.697876 0.680258 0.562987
O O4 0.923581 0.681575 0.084702
O O5 0.307559 0.698020 0.968080
O O6 0.181489 0.841198 0.562716
O O7 0.312448 0.875539 0.079534
O O8 0.404736 0.828645 0.037302
O O9 0.686918 0.500000 0.058496
O O10 0.700975 0.377697 0.307378
O O11 0.871289 0.394789 0.497500
O O12 0.054224 0.500000 0.958431
O O13 0.000000 0.348025 0.000000
O O14 0.829167 0.000000 0.622681
O O15 0.000000 0.873344 0.000000
O O16 0.383941 0.882137 0.506161
O O17 0.222244 0.000000 0.054072
O O18 0.363340 0.500000 0.632766
O O19 0.500000 0.645750 0.000000
O O20 0.550496 0.000000 0.959923
O O21 0.500000 0.155087 0.000000
#
# Coordination Sequence:
#
# PCOD8059209 Si02
#       8
#     4   4   4   4   4   4   4   4
#     4  12  21  36  61  90 123 163 214 263 314 377
#     4  12  22  41  66  88 127 175 214 254 326 391
#     4  10  21  37  61  91 123 160 207 264 319 378
#     4  10  18  34  61  92 120 155 210 270 321 371
#     4  11  23  38  60  90 121 158 214 273 318 368
#     4  11  26  42  59  91 133 173 212 259 319 389
#     4  10  21  36  58  94 131 160 201 259 322 384
#     4  10  22  40  66  96 123 161 218 274 316 373
#
# _framework density 21.466397000000001
#
# number of rings (size 3 to 8) (size 9 to 14) (size 15 to 20)
#    0.000    1.250    2.500    4.125    1.750    2.000 
#    0.000    3.750    0.000    7.875    0.000    0.000 
#    0.000    0.000    0.000    0.000    0.000    0.000 
#
# Total GULP energy -396793.506536 kJ/mol
# GULP energy per Si atom -12399.797079 kJ/mol
# Density = 2.141754 g / cm^3
# Si number density = 21.466397 Si / 1000 Ang^3
#
#
#
# Elastic Constant Matrix: (Units=GPa)
#
#
# Indices 1 2 3 4 5 6 
#
# 1 111.6674 52.9359 43.2435 0.0000 5.8226 0.0000
# 2 52.9359 154.8450 25.3851 0.0000 10.7241 0.0000
# 3 43.2435 25.3851 37.3733 0.0000 6.5894 0.0000
# 4 0.0000 0.0000 0.0000 27.8946 0.0000 3.3317
# 5 5.8226 10.7241 6.5894 0.0000 35.5768 0.0000
# 6 0.0000 0.0000 0.0000 3.3317 0.0000 33.2964
#
#
#
# Elastic Compliance Matrix: (Units=1/GPa)
#
#
# Indices 1 2 3 4 5 6 
#
# 1 0.017435 -0.003052 -0.018359 0.000000 0.001467 0.000000
# 2 -0.003052 0.007862 -0.001529 0.000000 -0.001587 0.000000
# 3 -0.018359 -0.001529 0.050062 0.000000 -0.005807 0.000000
# 4 0.000000 0.000000 0.000000 0.036283 0.000000 -0.003631
# 5 0.001467 -0.001587 -0.005807 0.000000 0.029422 0.000000
# 6 0.000000 0.000000 0.000000 -0.003631 0.000000 0.030397
#
#
# Mechanical properties :
#
#
# Convention : Reuss Voigt Hill
#
# Bulk Modulus (GPa) = 33.92230 60.77942 47.35086
# Shear Modulus (GPa) = 22.01017 31.50831 26.75924
#
# Velocity S-wave (km/s) = 3.20555 3.83534 3.53450
# Velocity P-wave (km/s) = 5.43485 6.92736 6.22599
#
# Compressibility (1/GPa) = 0.02947914
#
# Stress axis : x y z
#
# Youngs Moduli (GPa) = 57.35489 127.19311 19.97517
#
# Poissons Ratio (x) = 0.38823 0.36673
# Poissons Ratio (y) = 0.17506 0.03053
# Poissons Ratio (z) = 1.05300 0.19443
#
# Static dielectric constant tensor:
#      x y z
#    x 3.685730 0.000000 0.191260 
#    y 0.000000 4.456380 0.000000 
#    z 0.191260 0.000000 3.643150 
# 
# 
# High freq. dielectric constant tensor:
#      x y z
#    x 1.822620 0.000000 0.025590 
#    y 0.000000 1.876050 0.000000 
#    z 0.025590 0.000000 1.813310 
# 
# From -- ./inp_files/36412.got.cif
#   From: 2010.06.25/outbox.cif.g09.slc.cpg/sg10_19_cif.got.tgz:36412.got - 2010.06.27 22:07:45.
