data_PCOD8059965
_publ_section_title
;
Structure prediction by ZEFSAII (Michael W. Deem and Ramdas Pophale) SiO2 
 PCOD8059965
Probable space group: P 2/M
;
_chemical_formula_sum "Si O2"
_cell_formula_units_Z 32
_cell_length_a 31.329714
_cell_length_b 9.469100
_cell_length_c 11.995516
_cell_angle_alpha 90.000000
_cell_angle_beta 30.235407
_cell_angle_gamma 90.000000
_cell_volume 1791.967260
_symmetry_space_group_name_H-M "P 2/M"
_symmetry_group_IT_number 10
_symmetry_cell_setting 'monoclinic'
loop_
_space_group_symop_operation_xyz
x,y,z
-x,y,-z
-x,-y,-z
x,-y,z
loop_
_atom_site_type_symbol
_atom_site_label
_atom_site_fract_x
_atom_site_fract_y
_atom_site_fract_z
Si Si1 0.633761 0.340172 0.952672
Si Si2 0.919290 0.832484 0.319120
Si Si3 0.264539 0.163462 0.649487
Si Si4 0.894901 0.167858 0.125879
Si Si5 0.762422 0.832976 0.809038
Si Si6 0.302019 0.161453 0.809231
Si Si7 0.465647 0.338741 0.460531
Si Si8 0.402646 0.335149 0.215751
O O1 0.664237 0.500000 0.908209
O O2 0.536046 0.322864 0.207052
O O3 0.690413 0.234099 0.895040
O O4 0.638874 0.304379 0.810826
O O5 0.885842 0.779738 0.273936
O O6 0.854738 0.778436 0.559950
O O7 0.922468 0.000000 0.309467
O O8 0.014727 0.775934 0.126578
O O9 0.182721 0.229156 0.771330
O O10 0.246597 0.179303 0.822297
O O11 0.348864 0.248330 0.426901
O O12 0.278784 0.000000 0.584929
O O13 0.893065 0.000000 0.123146
O O14 0.754922 0.000000 0.810576
O O15 0.751257 0.786281 0.962892
O O16 0.386161 0.249855 0.601499
O O17 0.329291 0.000000 0.765914
O O18 0.500000 0.278664 0.500000
O O19 0.436244 0.500000 0.542496
O O20 0.397972 0.500000 0.257532
O O21 0.500000 0.283639 0.000000
#
# Coordination Sequence:
#
# PCOD8059965 Si02
#       8
#     4   4   4   4   4   4   4   4
#     4  10  20  33  50  73  97 122 160 206 247 289
#     4   8  14  26  47  73  96 121 157 201 245 289
#     4  10  20  34  51  72 100 133 168 201 239 289
#     4   8  14  27  48  72  96 123 159 201 242 286
#     4  10  19  31  48  72 100 128 160 198 244 291
#     4  10  21  33  46  70 103 133 162 203 246 284
#     4  10  19  33  52  70  91 127 171 203 235 288
#     4  10  21  36  52  71  98 129 161 202 248 289
#
# _framework density 17.857469999999999
#
# number of rings (size 3 to 8) (size 9 to 14) (size 15 to 20)
#    0.000    2.500    1.250    2.250    0.000    4.000 
#    0.000    0.625    0.000    4.500    0.000    3.500 
#    0.000    3.000    0.000    0.000    0.000    0.000 
#
# Total GULP energy -396727.033095 kJ/mol
# GULP energy per Si atom -12397.719784 kJ/mol
# Density = 1.781683 g / cm^3
# Si number density = 17.857470 Si / 1000 Ang^3
#
#
#
# Elastic Constant Matrix: (Units=GPa)
#
#
# Indices 1 2 3 4 5 6 
#
# 1 98.5483 26.5775 60.4264 0.0000 -4.1985 0.0000
# 2 26.5775 30.0357 31.5521 0.0000 -0.6616 0.0000
# 3 60.4264 31.5521 125.8546 0.0000 1.1959 0.0000
# 4 0.0000 0.0000 0.0000 -1.8254 0.0000 15.4089
# 5 -4.1985 -0.6616 1.1959 0.0000 30.7656 0.0000
# 6 0.0000 0.0000 0.0000 15.4089 0.0000 7.7694
#
#
#
# Elastic Compliance Matrix: (Units=1/GPa)
#
#
# Indices 1 2 3 4 5 6 
#
# 1 0.015864 -0.008098 -0.005607 0.000000 0.002209 0.000000
# 2 -0.008098 0.049392 -0.008497 0.000000 0.000287 0.000000
# 3 -0.005607 -0.008497 0.012782 0.000000 -0.001445 0.000000
# 4 0.000000 0.000000 0.000000 -0.030878 0.000000 0.061240
# 5 0.002209 0.000287 -0.001445 0.000000 0.032868 0.000000
# 6 0.000000 0.000000 0.000000 0.061240 0.000000 0.007255
#
#
# Mechanical properties :
#
#
# Convention : Reuss Voigt Hill
#
# Bulk Modulus (GPa) = 29.73342 54.61673 42.17508
# Shear Modulus (GPa) = 34.98984 16.40075 25.69530
#
# Velocity S-wave (km/s) = 4.43131 3.03384 3.79741
# Velocity P-wave (km/s) = 6.54741 6.55160 6.54950
#
# Compressibility (1/GPa) = 0.03363219
#
# Stress axis : x y z
#
# Youngs Moduli (GPa) = 63.03737 20.24613 78.23505
#
# Poissons Ratio (x) = 0.16395 0.43869
# Poissons Ratio (y) = 0.51048 0.66480
# Poissons Ratio (z) = 0.35347 0.17204
#
# Static dielectric constant tensor:
#      x y z
#    x 3.393900 0.000000 0.064410 
#    y 0.000000 3.005280 0.000000 
#    z 0.064410 0.000000 3.532600 
# 
# 
# High freq. dielectric constant tensor:
#      x y z
#    x 1.692360 0.000000 0.008010 
#    y 0.000000 1.656530 0.000000 
#    z 0.008010 0.000000 1.692730 
# 
# From -- ./inp_files/58089.got.cif
#   From: 2010.06.25/outbox.cif.g09.slc.cpg/sg10_30_cif.got.tgz:58089.got - 2010.06.27 22:07:45.
