data_PCOD8059347
_publ_section_title
;
Structure prediction by ZEFSAII (Michael W. Deem and Ramdas Pophale) SiO2 
 PCOD8059347
Probable space group: P 2/M
;
_chemical_formula_sum "Si O2"
_cell_formula_units_Z 28
_cell_length_a 28.389523
_cell_length_b 13.198667
_cell_length_c 30.682092
_cell_angle_alpha 90.000000
_cell_angle_beta 8.895961
_cell_angle_gamma 90.000000
_cell_volume 1777.857945
_symmetry_space_group_name_H-M "P 2/M"
_symmetry_group_IT_number 10
_symmetry_cell_setting 'monoclinic'
loop_
_space_group_symop_operation_xyz
x,y,z
-x,y,-z
-x,-y,-z
x,-y,z
loop_
_atom_site_type_symbol
_atom_site_label
_atom_site_fract_x
_atom_site_fract_y
_atom_site_fract_z
Si Si1 0.814636 0.120795 0.628122
Si Si2 0.330789 0.201794 0.569926
Si Si3 0.115837 0.119226 0.090368
Si Si4 0.349876 0.614300 0.684046
Si Si5 0.960144 0.116493 0.987553
Si Si6 0.799227 0.117925 0.470103
Si Si7 0.130494 0.120997 0.252177
O O1 0.000000 0.163955 0.500000
O O2 0.962872 0.161452 0.448277
O O3 0.819544 0.000000 0.624762
O O4 0.472778 0.162867 0.941676
O O5 0.467445 0.315050 0.448675
O O6 0.603057 0.129952 0.303202
O O7 0.065460 0.190839 0.777187
O O8 0.194975 0.172845 0.741223
O O9 0.003255 0.140505 0.241830
O O10 0.083364 0.000000 0.107104
O O11 0.460142 0.160339 0.773005
O O12 0.500000 0.622126 0.500000
O O13 0.368225 0.500000 0.685808
O O14 0.000000 0.649835 0.000000
O O15 0.051901 0.000000 0.900554
O O16 0.000000 0.159594 0.000000
O O17 0.961916 0.166590 0.363693
O O18 0.763949 0.000000 0.511535
O O19 0.133510 0.000000 0.247542
#
# Coordination Sequence:
#
# PCOD8059347 Si02
#       7
#     4   4   4   4   4   4   4
#     4   9  15  21  30  46  65  85 116 161 209 247
#     4  12  21  33  50  67  88 113 138 170 212 246
#     4  10  19  29  41  58  80 104 132 165 199 239
#     4  10  21  37  55  72  88 108 137 171 208 254
#     4  11  22  33  46  66  91 116 139 161 194 251
#     4   9  17  28  39  52  72 101 135 165 196 238
#     4   9  15  23  34  45  62  91 123 157 200 242
#
# _framework density 15.74929
#
# number of rings (size 3 to 8) (size 9 to 14) (size 15 to 20)
#    0.000    2.000    0.000    6.000    0.000    7.429 
#    0.000    0.000    0.000    0.000    0.000    0.000 
#    0.000    0.000    0.000    0.000    0.000    0.000 
#
# Total GULP energy -347163.748083 kJ/mol
# GULP energy per Si atom -12398.705289 kJ/mol
# Density = 1.571344 g / cm^3
# Si number density = 15.749290 Si / 1000 Ang^3
#
#
#
# Elastic Constant Matrix: (Units=GPa)
#
#
# Indices 1 2 3 4 5 6 
#
# 1 68.3508 23.6449 21.6017 0.0000 -12.9414 0.0000
# 2 23.6449 41.3921 20.3730 0.0000 -6.3547 0.0000
# 3 21.6017 20.3730 103.8356 0.0000 -3.9742 0.0000
# 4 0.0000 0.0000 0.0000 11.7496 0.0000 0.9691
# 5 -12.9414 -6.3547 -3.9742 0.0000 36.8020 0.0000
# 6 0.0000 0.0000 0.0000 0.9691 0.0000 6.2168
#
#
#
# Elastic Compliance Matrix: (Units=1/GPa)
#
#
# Indices 1 2 3 4 5 6 
#
# 1 0.019451 -0.009348 -0.002021 0.000000 0.005008 0.000000
# 2 -0.009348 0.031854 -0.004238 0.000000 0.001756 0.000000
# 3 -0.002021 -0.004238 0.010872 0.000000 -0.000268 0.000000
# 4 0.000000 0.000000 0.000000 0.086218 0.000000 -0.013440
# 5 0.005008 0.001756 -0.000268 0.000000 0.029207 0.000000
# 6 0.000000 0.000000 0.000000 -0.013440 0.000000 0.162949
#
#
# Mechanical properties :
#
#
# Convention : Reuss Voigt Hill
#
# Bulk Modulus (GPa) = 32.29519 38.31309 35.30414
# Shear Modulus (GPa) = 13.08605 20.81763 16.95184
#
# Velocity S-wave (km/s) = 2.88566 3.63962 3.28435
# Velocity P-wave (km/s) = 5.62610 6.48399 6.07022
#
# Compressibility (1/GPa) = 0.03096437
#
# Stress axis : x y z
#
# Youngs Moduli (GPa) = 51.41153 31.39274 91.97713
#
# Poissons Ratio (x) = 0.29345 0.18587
# Poissons Ratio (y) = 0.48058 0.38981
# Poissons Ratio (z) = 0.10389 0.13305
#
# Static dielectric constant tensor:
#      x y z
#    x 3.063760 0.000000 0.028540 
#    y 0.000000 2.508330 0.000000 
#    z 0.028540 0.000000 3.281420 
# 
# 
# High freq. dielectric constant tensor:
#      x y z
#    x 1.608570 0.000000 0.009630 
#    y 0.000000 1.522980 0.000000 
#    z 0.009630 0.000000 1.631270 
# 
# From -- ./inp_files/13082.got.cif
#   From: 2010.06.25/outbox.cif.g09.slc.cpg/sg10_7_cif.got.tgz:13082.got - 2010.06.27 22:07:45.
