data_PCOD8059223
_publ_section_title
;
Structure prediction by ZEFSAII (Michael W. Deem and Ramdas Pophale) SiO2 
 PCOD8059223
Probable space group: P 2/M
;
_chemical_formula_sum "Si O2"
_cell_formula_units_Z 32
_cell_length_a 25.038877
_cell_length_b 9.087313
_cell_length_c 20.064658
_cell_angle_alpha 90.000000
_cell_angle_beta 23.052541
_cell_angle_gamma 90.000000
_cell_volume 1787.710290
_symmetry_space_group_name_H-M "P 2/M"
_symmetry_group_IT_number 10
_symmetry_cell_setting 'monoclinic'
loop_
_space_group_symop_operation_xyz
x,y,z
-x,y,-z
-x,-y,-z
x,-y,z
loop_
_atom_site_type_symbol
_atom_site_label
_atom_site_fract_x
_atom_site_fract_y
_atom_site_fract_z
Si Si1 0.659203 0.666466 0.332585
Si Si2 0.125366 0.825747 0.170574
Si Si3 0.400840 0.168642 0.473643
Si Si4 0.816978 0.173807 0.534525
Si Si5 0.292027 0.829245 0.850715
Si Si6 0.394150 0.172244 0.331590
Si Si7 0.347822 0.830181 0.148519
Si Si8 0.666197 0.675033 0.973521
O O1 0.500000 0.683105 0.500000
O O2 0.708709 0.500000 0.279300
O O3 0.688104 0.739178 0.371319
O O4 0.743532 0.744415 0.176761
O O5 0.970276 0.768131 0.350931
O O6 0.139065 0.000000 0.168601
O O7 0.182826 0.784649 0.031920
O O8 0.203801 0.737900 0.137319
O O9 0.559448 0.215682 0.292252
O O10 0.343722 0.197178 0.465161
O O11 0.385940 0.000000 0.511937
O O12 0.723498 0.234461 0.581650
O O13 0.755729 0.224197 0.675446
O O14 0.815196 0.000000 0.531529
O O15 0.284696 0.000000 0.842074
O O16 0.530564 0.262599 0.162717
O O17 0.426902 0.000000 0.280897
O O18 0.321538 0.000000 0.158626
O O19 0.500000 0.810037 0.000000
O O20 0.321947 0.725474 0.116151
O O21 0.665129 0.500000 0.978654
#
# Coordination Sequence:
#
# PCOD8059223 Si02
#       8
#     4   4   4   4   4   4   4   4
#     4   9  17  27  42  69 105 137 169 213 257 307
#     4  10  20  37  57  80 108 140 180 223 267 317
#     4   9  16  27  48  75 102 132 169 217 265 310
#     4   9  19  35  60  85 103 133 180 227 270 318
#     4   9  16  28  48  72 101 136 171 213 263 312
#     4  10  18  35  58  82 107 137 180 226 270 315
#     4  10  19  36  61  82 105 138 178 225 270 316
#     4  12  24  35  53  81 111 145 179 217 265 320
#
# _framework density 17.899992000000001
#
# number of rings (size 3 to 8) (size 9 to 14) (size 15 to 20)
#    0.000    2.250    2.500    1.500    0.000    3.250 
#    0.000    3.750    0.000    0.750    0.000    5.250 
#    0.000    0.000    0.000    0.000    0.000    0.000 
#
# Total GULP energy -396814.665132 kJ/mol
# GULP energy per Si atom -12400.458285 kJ/mol
# Density = 1.785925 g / cm^3
# Si number density = 17.899992 Si / 1000 Ang^3
#
#
#
# Elastic Constant Matrix: (Units=GPa)
#
#
# Indices 1 2 3 4 5 6 
#
# 1 106.5775 46.4957 49.9106 0.0000 15.8688 0.0000
# 2 46.4957 70.5735 34.7916 0.0000 9.0825 0.0000
# 3 49.9106 34.7916 88.1431 0.0000 10.5211 0.0000
# 4 0.0000 0.0000 0.0000 6.6623 0.0000 2.7078
# 5 15.8688 9.0825 10.5211 0.0000 31.4259 0.0000
# 6 0.0000 0.0000 0.0000 2.7078 0.0000 7.6013
#
#
#
# Elastic Compliance Matrix: (Units=1/GPa)
#
#
# Indices 1 2 3 4 5 6 
#
# 1 0.015687 -0.007048 -0.005623 0.000000 -0.004002 0.000000
# 2 -0.007048 0.021012 -0.004170 0.000000 -0.001118 0.000000
# 3 -0.005623 -0.004170 0.016345 0.000000 -0.001428 0.000000
# 4 0.000000 0.000000 0.000000 0.175509 0.000000 -0.062522
# 5 -0.004002 -0.001118 -0.001428 0.000000 0.034643 0.000000
# 6 0.000000 0.000000 0.000000 -0.062522 0.000000 0.153829
#
#
# Mechanical properties :
#
#
# Convention : Reuss Voigt Hill
#
# Bulk Modulus (GPa) = 51.64333 58.63221 55.13777
# Shear Modulus (GPa) = 10.93709 18.07765 14.50737
#
# Velocity S-wave (km/s) = 2.47454 3.18138 2.84996
# Velocity P-wave (km/s) = 6.08918 6.80599 6.45754
#
# Compressibility (1/GPa) = 0.01936358
#
# Stress axis : x y z
#
# Youngs Moduli (GPa) = 63.74887 47.59101 61.17909
#
# Poissons Ratio (x) = 0.33541 0.34400
# Poissons Ratio (y) = 0.44928 0.25510
# Poissons Ratio (z) = 0.35845 0.19844
#
# Static dielectric constant tensor:
#      x y z
#    x 3.498430 0.000000 0.157080 
#    y 0.000000 3.115270 0.000000 
#    z 0.157080 0.000000 3.290560 
# 
# 
# High freq. dielectric constant tensor:
#      x y z
#    x 1.696930 0.000000 0.023650 
#    y 0.000000 1.671140 0.000000 
#    z 0.023650 0.000000 1.674710 
# 
# From -- ./inp_files/86913.got.cif
#   From: 2010.06.25/outbox.cif.g09.slc.cpg/sg10_44_cif.got.tgz:86913.got - 2010.06.27 22:07:45.
