data_PCOD8059898
_publ_section_title
;
Structure prediction by ZEFSAII (Michael W. Deem and Ramdas Pophale) SiO2 
 PCOD8059898
Probable space group: P 2/M
;
_chemical_formula_sum "Si O2"
_cell_formula_units_Z 28
_cell_length_a 9.388843
_cell_length_b 9.507350
_cell_length_c 28.084757
_cell_angle_alpha 90.000000
_cell_angle_beta 139.798256
_cell_angle_gamma 90.000000
_cell_volume 1618.175606
_symmetry_space_group_name_H-M "P 2/M"
_symmetry_group_IT_number 10
_symmetry_cell_setting 'monoclinic'
loop_
_space_group_symop_operation_xyz
x,y,z
-x,y,-z
-x,-y,-z
x,-y,z
loop_
_atom_site_type_symbol
_atom_site_label
_atom_site_fract_x
_atom_site_fract_y
_atom_site_fract_z
Si Si1 0.360247 0.164359 0.418197
Si Si2 0.336222 0.164547 0.001310
Si Si3 0.876346 0.658956 0.395650
Si Si4 0.931787 0.660629 0.928012
Si Si5 0.864622 0.161924 0.305653
Si Si6 0.541920 0.161395 0.860797
Si Si7 0.671802 0.659154 0.442725
O O1 0.500000 0.209296 0.500000
O O2 0.463801 0.243000 0.399765
O O3 0.109491 0.217048 0.356961
O O4 0.374344 0.000000 0.412172
O O5 0.453432 0.197330 0.081822
O O6 0.273292 0.000000 0.980909
O O7 0.500000 0.208553 0.000000
O O8 0.112530 0.257576 0.941797
O O9 0.899192 0.500000 0.382978
O O10 0.775544 0.753637 0.328272
O O11 0.705952 0.666784 0.395253
O O12 0.114100 0.715378 0.474042
O O13 0.906187 0.500000 0.902715
O O14 0.699113 0.742556 0.867784
O O15 0.000000 0.661443 0.000000
O O16 0.707993 0.187695 0.220303
O O17 0.871063 0.000000 0.322183
O O18 0.615452 0.000000 0.871527
O O19 0.621748 0.500000 0.445774
#
# Coordination Sequence:
#
# PCOD8059898 Si02
#       7
#     4   4   4   4   4   4   4
#     4  10  19  31  47  70  98 128 164 208 251 296
#     4   9  17  31  53  78 102 132 167 200 237 287
#     4   9  18  32  49  69  93 122 159 203 247 294
#     4   9  17  30  50  75 101 129 162 199 239 286
#     4  10  20  33  49  71  98 128 164 205 252 297
#     4   9  18  33  51  71  98 131 166 204 243 291
#     4   9  18  32  49  69  92 121 161 205 247 294
#
# _framework density 17.303436000000001
#
# number of rings (size 3 to 8) (size 9 to 14) (size 15 to 20)
#    0.000    2.714    1.429    1.286    0.000    4.000 
#    0.000    2.857    0.000    3.429    0.000    0.000 
#    0.000    0.000    0.000    0.000    0.000    0.000 
#
# Total GULP energy -347134.759987 kJ/mol
# GULP energy per Si atom -12397.670000 kJ/mol
# Density = 1.726405 g / cm^3
# Si number density = 17.303436 Si / 1000 Ang^3
#
#
#
# Elastic Constant Matrix: (Units=GPa)
#
#
# Indices 1 2 3 4 5 6 
#
# 1 110.6676 56.8633 43.7531 0.0000 12.6307 0.0000
# 2 56.8633 71.0036 36.9092 0.0000 7.9253 0.0000
# 3 43.7531 36.9092 84.9756 0.0000 10.1172 0.0000
# 4 0.0000 0.0000 0.0000 19.5038 0.0000 0.8022
# 5 12.6307 7.9253 10.1172 0.0000 23.7826 0.0000
# 6 0.0000 0.0000 0.0000 0.8022 0.0000 32.7000
#
#
#
# Elastic Compliance Matrix: (Units=1/GPa)
#
#
# Indices 1 2 3 4 5 6 
#
# 1 0.016406 -0.011064 -0.003206 0.000000 -0.003663 0.000000
# 2 -0.011064 0.025837 -0.005477 0.000000 -0.000404 0.000000
# 3 -0.003206 -0.005477 0.016198 0.000000 -0.003363 0.000000
# 4 0.000000 0.000000 0.000000 0.051324 0.000000 -0.001259
# 5 -0.003663 -0.000404 -0.003363 0.000000 0.045558 0.000000
# 6 0.000000 0.000000 0.000000 -0.001259 0.000000 0.030612
#
#
# Mechanical properties :
#
#
# Convention : Reuss Voigt Hill
#
# Bulk Modulus (GPa) = 52.77856 60.18868 56.48362
# Shear Modulus (GPa) = 21.57548 23.80535 22.69041
#
# Velocity S-wave (km/s) = 3.53496 3.71315 3.62515
# Velocity P-wave (km/s) = 6.87236 7.29678 7.08775
#
# Compressibility (1/GPa) = 0.01894709
#
# Stress axis : x y z
#
# Youngs Moduli (GPa) = 60.95209 38.70485 61.73508
#
# Poissons Ratio (x) = 0.42822 0.19791
# Poissons Ratio (y) = 0.67436 0.33815
# Poissons Ratio (z) = 0.19540 0.21200
#
# Static dielectric constant tensor:
#      x y z
#    x 3.167250 0.000000 0.101910 
#    y 0.000000 3.256290 0.000000 
#    z 0.101910 0.000000 3.053100 
# 
# 
# High freq. dielectric constant tensor:
#      x y z
#    x 1.661240 0.000000 0.008970 
#    y 0.000000 1.668640 0.000000 
#    z 0.008970 0.000000 1.644680 
# 
# From -- ./inp_files/38063.got.cif
#   From: 2010.06.25/outbox.cif.g09.slc.cpg/sg10_20_cif.got.tgz:38063.got - 2010.06.27 22:07:45.
