data_PCOD8059363
_publ_section_title
;
Structure prediction by ZEFSAII (Michael W. Deem and Ramdas Pophale) SiO2 
 PCOD8059363
Probable space group: P 2/M
;
_chemical_formula_sum "Si O2"
_cell_formula_units_Z 22
_cell_length_a 17.195876
_cell_length_b 16.118728
_cell_length_c 17.787091
_cell_angle_alpha 90.000000
_cell_angle_beta 16.638613
_cell_angle_gamma 90.000000
_cell_volume 1411.669818
_symmetry_space_group_name_H-M "P 2/M"
_symmetry_group_IT_number 10
_symmetry_cell_setting 'monoclinic'
loop_
_space_group_symop_operation_xyz
x,y,z
-x,y,-z
-x,-y,-z
x,-y,z
loop_
_atom_site_type_symbol
_atom_site_label
_atom_site_fract_x
_atom_site_fract_y
_atom_site_fract_z
Si Si1 0.701299 0.679594 0.743607
Si Si2 0.056568 0.097221 0.029444
Si Si3 0.302426 0.095224 0.118766
Si Si4 0.298095 0.500000 0.254811
Si Si5 0.345112 0.098064 0.470917
Si Si6 0.279146 0.164343 0.371694
O O1 0.656902 0.588440 0.744778
O O2 0.647993 0.743729 0.724996
O O3 0.000000 0.689127 0.500000
O O4 0.500000 0.694587 0.000000
O O5 0.353887 0.119014 0.782174
O O6 0.010052 0.000000 0.065107
O O7 0.000000 0.138046 0.000000
O O8 0.845283 0.131125 0.286063
O O9 0.015350 0.141149 0.388537
O O10 0.235780 0.000000 0.195937
O O11 0.500000 0.133025 0.000000
O O12 0.472362 0.104740 0.884356
O O13 0.000000 0.500000 0.500000
O O14 0.500000 0.500000 0.000000
O O15 0.267453 0.154866 0.471927
O O16 0.301908 0.000000 0.492861
#
# Coordination Sequence:
#
# PCOD8059363 Si02
#       6
#     4   4   4   2   4   4
#     4  10  19  32  48  65  85 112 147 183 220 261
#     4   9  17  30  46  61  78 105 141 175 209 254
#     4  11  22  33  43  56  80 118 159 189 211 240
#     4   8  16  30  48  66  82 104 139 182 223 262
#     4  10  19  29  42  61  84 110 139 174 215 252
#     4  12  21  31  45  63  87 114 145 185 223 260
#
# _framework density 15.584381
#
# number of rings (size 3 to 8) (size 9 to 14) (size 15 to 20)
#    0.000    1.818    0.000    6.545    0.000    5.091 
#    0.000    0.000    0.000    0.000    0.000    0.000 
#    0.000    0.000    0.000    4.909    0.000    0.000 
#
# Total GULP energy -272653.746455 kJ/mol
# GULP energy per Si atom -12393.352112 kJ/mol
# Density = 1.554891 g / cm^3
# Si number density = 15.584381 Si / 1000 Ang^3
#
#
#
# Elastic Constant Matrix: (Units=GPa)
#
#
# Indices 1 2 3 4 5 6 
#
# 1 88.4530 49.0742 28.1591 0.0000 17.8915 0.0000
# 2 49.0742 82.5329 32.4512 0.0000 7.7348 0.0000
# 3 28.1591 32.4512 115.6354 0.0000 11.2158 0.0000
# 4 0.0000 0.0000 0.0000 2.7977 0.0000 7.1922
# 5 17.8915 7.7348 11.2158 0.0000 21.2541 0.0000
# 6 0.0000 0.0000 0.0000 7.1922 0.0000 9.4072
#
#
#
# Elastic Compliance Matrix: (Units=1/GPa)
#
#
# Indices 1 2 3 4 5 6 
#
# 1 0.019787 -0.010312 -0.000709 0.000000 -0.012529 0.000000
# 2 -0.010312 0.019190 -0.003203 0.000000 0.003387 0.000000
# 3 -0.000709 -0.003203 0.010063 0.000000 -0.003548 0.000000
# 4 0.000000 0.000000 0.000000 -0.370230 0.000000 0.283056
# 5 -0.012529 0.003387 -0.003548 0.000000 0.058236 0.000000
# 6 0.000000 0.000000 0.000000 0.283056 0.000000 -0.110105
#
#
# Mechanical properties :
#
#
# Convention : Reuss Voigt Hill
#
# Bulk Modulus (GPa) = 48.56257 56.22115 52.39186
# Shear Modulus (GPa) = -14.80398 18.48757 1.84180
#
# Velocity S-wave (km/s) = -3.08543 3.44799 1.08830
# Velocity P-wave (km/s) = 4.30529 7.21146 5.93888
#
# Compressibility (1/GPa) = 0.02059199
#
# Stress axis : x y z
#
# Youngs Moduli (GPa) = 50.53873 52.11085 99.36917
#
# Poissons Ratio (x) = 0.53738 0.07047
# Poissons Ratio (y) = 0.52117 0.31825
# Poissons Ratio (z) = 0.03584 0.16689
#
# Static dielectric constant tensor:
#      x y z
#    x 2.855030 0.000000 0.063750 
#    y 0.000000 3.132340 0.000000 
#    z 0.063750 0.000000 3.161280 
# 
# 
# High freq. dielectric constant tensor:
#      x y z
#    x 1.569170 0.000000 -0.001000 
#    y 0.000000 1.559310 0.000000 
#    z -0.001000 0.000000 1.631440 
# 
# From -- ./inp_files/67691.got.cif
#   From: 2010.06.25/outbox.cif.g09.slc.cpg/sg10_34_cif.got.tgz:67691.got - 2010.06.27 22:07:45.
