data_PCOD8059568
_publ_section_title
;
Structure prediction by ZEFSAII (Michael W. Deem and Ramdas Pophale) SiO2 
 PCOD8059568
Probable space group: P 2/M
;
_chemical_formula_sum "Si O2"
_cell_formula_units_Z 28
_cell_length_a 23.908967
_cell_length_b 13.753681
_cell_length_c 22.752329
_cell_angle_alpha 90.000000
_cell_angle_beta 12.467211
_cell_angle_gamma 90.000000
_cell_volume 1615.175707
_symmetry_space_group_name_H-M "P 2/M"
_symmetry_group_IT_number 10
_symmetry_cell_setting 'monoclinic'
loop_
_space_group_symop_operation_xyz
x,y,z
-x,y,-z
-x,-y,-z
x,-y,z
loop_
_atom_site_type_symbol
_atom_site_label
_atom_site_fract_x
_atom_site_fract_y
_atom_site_fract_z
Si Si1 0.685146 0.391546 0.944793
Si Si2 0.884638 0.725316 0.345742
Si Si3 0.814669 0.724687 0.555740
Si Si4 0.768734 0.112359 0.693783
Si Si5 0.384863 0.608678 0.845094
Si Si6 0.068359 0.114960 0.794328
Si Si7 0.532749 0.114945 0.401371
O O1 0.698846 0.500000 0.903595
O O2 0.948598 0.335433 0.659292
O O3 0.443809 0.335395 0.164069
O O4 0.650092 0.398417 0.049858
O O5 0.849632 0.743460 0.450777
O O6 0.647713 0.665743 0.560691
O O7 0.899726 0.831376 0.300679
O O8 0.143402 0.665662 0.065016
O O9 0.799349 0.829121 0.601867
O O10 0.000000 0.140482 0.500000
O O11 0.777999 0.000000 0.666065
O O12 0.500000 0.140464 0.000000
O O13 0.398595 0.500000 0.804042
O O14 0.297431 0.149543 0.602060
O O15 0.074860 0.000000 0.774661
O O16 0.802280 0.149677 0.097068
O O17 0.500000 0.160892 0.500000
O O18 0.530642 0.000000 0.408590
#
# Coordination Sequence:
#
# PCOD8059568 Si02
#       7
#     4   4   4   4   4   4   4
#     4   9  17  30  50  74  97 124 155 187 234 292
#     4  10  19  30  47  74 102 126 154 189 241 297
#     4  10  19  32  52  73  96 127 157 193 240 288
#     4  10  21  37  55  72  91 122 167 210 237 265
#     4   9  17  30  47  68  96 127 160 197 232 274
#     4  10  19  30  45  69 103 132 153 190 236 279
#     4   9  17  30  47  65  90 130 171 197 223 266
#
# _framework density 17.335576
#
# number of rings (size 3 to 8) (size 9 to 14) (size 15 to 20)
#    0.000    2.429    0.000    3.000    0.000    5.714 
#    0.000    0.000    0.000   18.857    0.000    0.000 
#    0.000   40.000    0.000    0.000    0.000    0.000 
#
# Total GULP energy -347253.095332 kJ/mol
# GULP energy per Si atom -12401.896262 kJ/mol
# Density = 1.729612 g / cm^3
# Si number density = 17.335576 Si / 1000 Ang^3
#
#
#
# Elastic Constant Matrix: (Units=GPa)
#
#
# Indices 1 2 3 4 5 6 
#
# 1 66.8644 55.3337 47.5423 0.0000 0.5144 0.0000
# 2 55.3337 106.1736 56.8007 0.0000 -0.2260 0.0000
# 3 47.5423 56.8007 167.4105 0.0000 -19.6021 0.0000
# 4 0.0000 0.0000 0.0000 -38.1380 0.0000 9.3382
# 5 0.5144 -0.2260 -19.6021 0.0000 12.7663 0.0000
# 6 0.0000 0.0000 0.0000 9.3382 0.0000 9.3741
#
#
#
# Elastic Compliance Matrix: (Units=1/GPa)
#
#
# Indices 1 2 3 4 5 6 
#
# 1 0.028848 -0.012335 -0.005083 0.000000 -0.009185 0.000000
# 2 -0.012335 0.017328 -0.002782 0.000000 -0.003469 0.000000
# 3 -0.005083 -0.002782 0.010216 0.000000 0.015841 0.000000
# 4 0.000000 0.000000 0.000000 -0.021079 0.000000 0.020998
# 5 -0.009185 -0.003469 0.015841 0.000000 0.102963 0.000000
# 6 0.000000 0.000000 0.000000 0.020998 0.000000 0.085759
#
#
# Mechanical properties :
#
#
# Convention : Reuss Voigt Hill
#
# Bulk Modulus (GPa) = 62.53292 73.31129 67.92210
# Shear Modulus (GPa) = 18.53456 8.85193 13.69325
#
# Velocity S-wave (km/s) = 3.27335 2.26215 2.81355
# Velocity P-wave (km/s) = 7.10189 7.01458 7.05837
#
# Compressibility (1/GPa) = 0.01599158
#
# Stress axis : x y z
#
# Youngs Moduli (GPa) = 34.66441 57.70947 97.88824
#
# Poissons Ratio (x) = 0.71184 0.49755
# Poissons Ratio (y) = 0.42758 0.27237
# Poissons Ratio (z) = 0.17619 0.16058
#
# Static dielectric constant tensor:
#      x y z
#    x 2.953140 0.000000 -0.118600 
#    y 0.000000 3.154970 0.000000 
#    z -0.118600 0.000000 3.561560 
# 
# 
# High freq. dielectric constant tensor:
#      x y z
#    x 1.640420 0.000000 -0.010290 
#    y 0.000000 1.658850 0.000000 
#    z -0.010290 0.000000 1.693110 
# 
# From -- ./inp_files/12454.got.cif
#   From: 2010.06.25/outbox.cif.g09.slc.cpg/sg10_7_cif.got.tgz:12454.got - 2010.06.27 22:07:45.
