data_PCOD8059208
_publ_section_title
;
Structure prediction by ZEFSAII (Michael W. Deem and Ramdas Pophale) SiO2 
 PCOD8059208
Probable space group: P 2/M
;
_chemical_formula_sum "Si O2"
_cell_formula_units_Z 32
_cell_length_a 15.350325
_cell_length_b 8.887867
_cell_length_c 11.827680
_cell_angle_alpha 90.000000
_cell_angle_beta 88.978779
_cell_angle_gamma 90.000000
_cell_volume 1613.413552
_symmetry_space_group_name_H-M "P 2/M"
_symmetry_group_IT_number 10
_symmetry_cell_setting 'monoclinic'
loop_
_space_group_symop_operation_xyz
x,y,z
-x,y,-z
-x,-y,-z
x,-y,z
loop_
_atom_site_type_symbol
_atom_site_label
_atom_site_fract_x
_atom_site_fract_y
_atom_site_fract_z
Si Si1 0.904886 0.326998 0.211436
Si Si2 0.670309 0.327237 0.999110
Si Si3 0.753643 0.675877 0.595244
Si Si4 0.399340 0.678101 0.236418
Si Si5 0.850040 0.823588 0.997348
Si Si6 0.100063 0.328999 0.231664
Si Si7 0.751856 0.177039 0.354689
Si Si8 0.407710 0.672515 0.761646
O O1 0.876648 0.500000 0.201765
O O2 0.833451 0.244173 0.287048
O O3 0.999115 0.309226 0.268315
O O4 0.913401 0.256849 0.085950
O O5 0.700524 0.500000 0.980254
O O6 0.602305 0.314961 0.102927
O O7 0.627551 0.259822 0.886365
O O8 0.752643 0.226625 0.030077
O O9 0.746130 0.500000 0.565100
O O10 0.670586 0.731336 0.669622
O O11 0.841968 0.711038 0.661271
O O12 0.756467 0.773155 0.483451
O O13 0.402114 0.500000 0.227277
O O14 0.495569 0.735010 0.269152
O O15 0.874509 0.780390 0.870077
O O16 0.859860 0.000000 0.012952
O O17 0.119309 0.500000 0.191945
O O18 0.660929 0.227879 0.303563
O O19 0.758435 0.000000 0.346307
O O20 0.395877 0.500000 0.722308
#
# Coordination Sequence:
#
# PCOD8059208 Si02
#       8
#     4   4   4   4   4   4   4   4
#     4  11  23  41  65  90 117 155 202 250 296 350
#     4  10  18  34  61  90 123 158 197 243 293 352
#     4  10  21  41  65  87 116 154 203 254 295 349
#     4   9  18  35  63  95 120 150 200 250 293 345
#     4  12  23  35  58  92 130 163 192 234 296 361
#     4  10  22  41  66  92 118 153 201 249 295 350
#     4  12  26  42  59  84 121 160 200 248 303 361
#     4  10  20  36  63  93 120 156 199 246 295 351
#
# _framework density 19.833724
#
# number of rings (size 3 to 8) (size 9 to 14) (size 15 to 20)
#    0.000    1.500    2.500    3.375    0.000    5.500 
#    0.000    6.250    0.000    1.500    0.000    0.000 
#    0.000    0.000    0.000    0.000    0.000    0.000 
#
# Total GULP energy -396909.799306 kJ/mol
# GULP energy per Si atom -12403.431228 kJ/mol
# Density = 1.978858 g / cm^3
# Si number density = 19.833724 Si / 1000 Ang^3
#
#
#
# Elastic Constant Matrix: (Units=GPa)
#
#
# Indices 1 2 3 4 5 6 
#
# 1 130.1571 49.9072 47.2272 0.0000 13.0290 0.0000
# 2 49.9072 115.7880 52.6114 0.0000 4.3926 0.0000
# 3 47.2272 52.6114 108.8964 0.0000 10.2725 0.0000
# 4 0.0000 0.0000 0.0000 14.8679 0.0000 -7.1761
# 5 13.0290 4.3926 10.2725 0.0000 14.5142 0.0000
# 6 0.0000 0.0000 0.0000 -7.1761 0.0000 0.5802
#
#
#
# Elastic Compliance Matrix: (Units=1/GPa)
#
#
# Indices 1 2 3 4 5 6 
#
# 1 0.010427 -0.003168 -0.002356 0.000000 -0.006733 0.000000
# 2 -0.003168 0.012031 -0.004676 0.000000 0.002512 0.000000
# 3 -0.002356 -0.004676 0.012999 0.000000 -0.005670 0.000000
# 4 0.000000 0.000000 0.000000 -0.013533 0.000000 -0.167390
# 5 -0.006733 0.002512 -0.005670 0.000000 0.078195 0.000000
# 6 0.000000 0.000000 0.000000 -0.167390 0.000000 -0.346811
#
#
# Mechanical properties :
#
#
# Convention : Reuss Voigt Hill
#
# Bulk Modulus (GPa) = 66.41530 72.70368 69.55949
# Shear Modulus (GPa) = -22.59652 19.66549 -1.46551
#
# Velocity S-wave (km/s) = -3.37901 3.15225 -0.86053
# Velocity P-wave (km/s) = 4.28195 7.07001 5.84467
#
# Compressibility (1/GPa) = 0.01505677
#
# Stress axis : x y z
#
# Youngs Moduli (GPa) = 95.90707 83.11700 76.93079
#
# Poissons Ratio (x) = 0.26333 0.18126
# Poissons Ratio (y) = 0.30385 0.35970
# Poissons Ratio (z) = 0.22597 0.38863
#
# Static dielectric constant tensor:
#      x y z
#    x 3.858910 0.000000 0.047930 
#    y 0.000000 3.389450 0.000000 
#    z 0.047930 0.000000 3.589960 
# 
# 
# High freq. dielectric constant tensor:
#      x y z
#    x 1.788860 0.000000 0.003070 
#    y 0.000000 1.749150 0.000000 
#    z 0.003070 0.000000 1.772170 
# 
# From -- ./inp_files/49868.got.cif
#   From: 2010.06.25/outbox.cif.g09.slc.cpg/sg10_25_cif.got.tgz:49868.got - 2010.06.27 22:07:45.
