data_PCOD8059143
_publ_section_title
;
Structure prediction by ZEFSAII (Michael W. Deem and Ramdas Pophale) SiO2 
 PCOD8059143
Probable space group: P 2/M
;
_chemical_formula_sum "Si O2"
_cell_formula_units_Z 32
_cell_length_a 23.430194
_cell_length_b 17.192068
_cell_length_c 11.934063
_cell_angle_alpha 90.000000
_cell_angle_beta 21.328831
_cell_angle_gamma 90.000000
_cell_volume 1748.475384
_symmetry_space_group_name_H-M "P 2/M"
_symmetry_group_IT_number 10
_symmetry_cell_setting 'monoclinic'
loop_
_space_group_symop_operation_xyz
x,y,z
-x,y,-z
-x,-y,-z
x,-y,z
loop_
_atom_site_type_symbol
_atom_site_label
_atom_site_fract_x
_atom_site_fract_y
_atom_site_fract_z
Si Si1 0.330725 0.169431 0.783053
Si Si2 0.061865 0.913753 0.173050
Si Si3 0.173800 0.290804 0.217303
Si Si4 0.167891 0.086149 0.734434
Si Si5 0.096945 0.240690 0.589955
Si Si6 0.668770 0.231705 0.638881
Si Si7 0.320076 0.588551 0.796418
Si Si8 0.742933 0.712471 0.266410
O O1 0.500000 0.130155 0.500000
O O2 0.339073 0.217842 0.652012
O O3 0.188893 0.106908 0.037529
O O4 0.297396 0.228712 0.944842
O O5 0.922505 0.849925 0.415329
O O6 0.989906 0.000000 0.328366
O O7 0.166754 0.915863 0.869704
O O8 0.181864 0.290574 0.337129
O O9 0.000000 0.264743 0.500000
O O10 0.215411 0.374290 0.087515
O O11 0.307445 0.141749 0.439367
O O12 0.195552 0.000000 0.632667
O O13 0.000000 0.119594 0.000000
O O14 0.200771 0.252836 0.509040
O O15 0.928632 0.275471 0.925262
O O16 0.683919 0.287248 0.502541
O O17 0.500000 0.243653 0.000000
O O18 0.500000 0.595139 0.500000
O O19 0.265184 0.500000 0.882904
O O20 0.295129 0.630468 0.722411
#
# Coordination Sequence:
#
# PCOD8059143 Si02
#       8
#     4   4   4   4   4   4   4   4
#     4  10  20  33  56  77 112 147 189 243 292 338
#     4  10  19  33  56  76 104 153 199 236 290 346
#     4  11  19  35  58  91 111 150 187 237 277 323
#     4  10  18  34  56  75 104 147 195 244 290 338
#     4  11  21  36  56  83 116 150 197 237 280 336
#     4  12  24  33  56  87 113 147 192 245 286 335
#     4  10  22  39  65  93 122 150 177 223 280 339
#     4  10  19  39  57  82 114 151 189 227 279 339
#
# _framework density 18.301659999999998
#
# number of rings (size 3 to 8) (size 9 to 14) (size 15 to 20)
#    0.000    1.500    7.500    1.875    3.500    0.750 
#    0.000    1.250    0.000    2.625    0.000    0.000 
#    0.000    0.000    0.000    0.000    0.000    0.000 
#
# Total GULP energy -396696.343542 kJ/mol
# GULP energy per Si atom -12396.760736 kJ/mol
# Density = 1.826000 g / cm^3
# Si number density = 18.301660 Si / 1000 Ang^3
#
#
#
# Elastic Constant Matrix: (Units=GPa)
#
#
# Indices 1 2 3 4 5 6 
#
# 1 107.6343 41.8349 48.6419 0.0000 8.2517 0.0000
# 2 41.8349 107.5331 37.4253 0.0000 8.6839 0.0000
# 3 48.6419 37.4253 82.6020 0.0000 6.7429 0.0000
# 4 0.0000 0.0000 0.0000 28.4513 0.0000 4.6659
# 5 8.2517 8.6839 6.7429 0.0000 34.8860 0.0000
# 6 0.0000 0.0000 0.0000 4.6659 0.0000 20.2967
#
#
#
# Elastic Compliance Matrix: (Units=1/GPa)
#
#
# Indices 1 2 3 4 5 6 
#
# 1 0.013443 -0.002863 -0.006520 0.000000 -0.001207 0.000000
# 2 -0.002863 0.011764 -0.003516 0.000000 -0.001572 0.000000
# 3 -0.006520 -0.003516 0.017619 0.000000 -0.000988 0.000000
# 4 0.000000 0.000000 0.000000 0.036525 0.000000 -0.008396
# 5 -0.001207 -0.001572 -0.000988 0.000000 0.029532 0.000000
# 6 0.000000 0.000000 0.000000 -0.008396 0.000000 0.051199
#
#
# Mechanical properties :
#
#
# Convention : Reuss Voigt Hill
#
# Bulk Modulus (GPa) = 58.72742 61.50817 60.11780
# Shear Modulus (GPa) = 26.10198 28.05128 27.07663
#
# Velocity S-wave (km/s) = 3.78061 3.91924 3.85055
# Velocity P-wave (km/s) = 7.15651 7.35945 7.25869
#
# Compressibility (1/GPa) = 0.01702782
#
# Stress axis : x y z
#
# Youngs Moduli (GPa) = 74.39002 85.00663 56.75552
#
# Poissons Ratio (x) = 0.24337 0.37006
# Poissons Ratio (y) = 0.21298 0.19954
# Poissons Ratio (z) = 0.48505 0.29886
#
# Static dielectric constant tensor:
#      x y z
#    x 3.683400 0.000000 0.067470 
#    y 0.000000 3.388310 0.000000 
#    z 0.067470 0.000000 3.293820 
# 
# 
# High freq. dielectric constant tensor:
#      x y z
#    x 1.715650 0.000000 -0.001140 
#    y 0.000000 1.679430 0.000000 
#    z -0.001140 0.000000 1.696360 
# 
# From -- ./inp_files/57089.got.cif
#   From: 2010.06.25/outbox.cif.g09.slc.cpg/sg10_29_cif.got.tgz:57089.got - 2010.06.27 22:07:45.
