data_PCOD8059851
_publ_section_title
;
Structure prediction by ZEFSAII (Michael W. Deem and Ramdas Pophale) SiO2 
 PCOD8059851
Probable space group: P 2/M
;
_chemical_formula_sum "Si O2"
_cell_formula_units_Z 28
_cell_length_a 25.458205
_cell_length_b 15.831887
_cell_length_c 22.823926
_cell_angle_alpha 90.000000
_cell_angle_beta 10.400427
_cell_angle_gamma 90.000000
_cell_volume 1660.702021
_symmetry_space_group_name_H-M "P 2/M"
_symmetry_group_IT_number 10
_symmetry_cell_setting 'monoclinic'
loop_
_space_group_symop_operation_xyz
x,y,z
-x,y,-z
-x,-y,-z
x,-y,z
loop_
_atom_site_type_symbol
_atom_site_label
_atom_site_fract_x
_atom_site_fract_y
_atom_site_fract_z
Si Si1 0.758111 0.154482 0.594079
Si Si2 0.055192 0.245296 0.173298
Si Si3 0.972796 0.000000 0.284378
Si Si4 0.644029 0.000000 0.524761
Si Si5 0.809946 0.655283 0.265585
Si Si6 0.171791 0.404444 0.975622
Si Si7 0.697453 0.184203 0.457005
Si Si8 0.885438 0.901772 0.691104
O O1 0.867220 0.238678 0.439903
O O2 0.888386 0.081248 0.412591
O O3 0.880914 0.145967 0.524919
O O4 0.411781 0.149882 0.977031
O O5 0.907767 0.194290 0.281890
O O6 0.078605 0.344431 0.131759
O O7 0.373393 0.205972 0.834349
O O8 0.815637 0.000000 0.395978
O O9 0.311072 0.000000 0.904886
O O10 0.721186 0.087611 0.406391
O O11 0.490506 0.619927 0.602602
O O12 0.795215 0.754863 0.296976
O O13 0.000000 0.641336 0.000000
O O14 0.946345 0.604148 0.169795
O O15 0.164865 0.500000 0.006675
O O16 0.000000 0.896827 0.500000
O O17 0.843177 0.000000 0.756122
#
# Coordination Sequence:
#
# PCOD8059851 Si02
#       8
#     4   4   2   2   4   4   4   4
#     4  12  19  31  47  67  93 125 165 196 235 276
#     4  10  20  32  49  72  96 121 154 203 248 282
#     4  12  20  26  47  72  91 120 170 210 226 284
#     4  12  18  30  45  68  95 124 164 204 242 278
#     4  10  21  35  51  72  99 130 161 192 232 289
#     4  10  21  36  54  76 100 122 150 196 250 298
#     4  10  19  31  46  69  97 123 158 205 243 272
#     4  11  22  32  43  64  98 135 166 196 225 261
#
# _framework density 16.860339
#
# number of rings (size 3 to 8) (size 9 to 14) (size 15 to 20)
#    0.000    1.286    4.286    3.000    0.000    2.857 
#    0.000    0.357    0.000    0.000    0.000    7.000 
#    0.000    3.429    0.000    0.000    0.000    0.000 
#
# Total GULP energy -347169.508986 kJ/mol
# GULP energy per Si atom -12398.911035 kJ/mol
# Density = 1.682196 g / cm^3
# Si number density = 16.860339 Si / 1000 Ang^3
#
#
#
# Elastic Constant Matrix: (Units=GPa)
#
#
# Indices 1 2 3 4 5 6 
#
# 1 47.9005 20.9810 9.0416 0.0000 -0.3390 0.0000
# 2 20.9810 120.0154 16.6174 0.0000 11.7081 0.0000
# 3 9.0416 16.6174 67.0709 0.0000 -3.8023 0.0000
# 4 0.0000 0.0000 0.0000 15.2244 0.0000 -0.0930
# 5 -0.3390 11.7081 -3.8023 0.0000 31.6925 0.0000
# 6 0.0000 0.0000 0.0000 -0.0930 0.0000 13.2108
#
#
#
# Elastic Compliance Matrix: (Units=1/GPa)
#
#
# Indices 1 2 3 4 5 6 
#
# 1 0.022970 -0.003870 -0.002057 0.000000 0.001429 0.000000
# 2 -0.003870 0.009676 -0.002095 0.000000 -0.003867 0.000000
# 3 -0.002057 -0.002095 0.015856 0.000000 0.002654 0.000000
# 4 0.000000 0.000000 0.000000 0.065687 0.000000 0.000463
# 5 0.001429 -0.003867 0.002654 0.000000 0.033316 0.000000
# 6 0.000000 0.000000 0.000000 0.000463 0.000000 0.075699
#
#
# Mechanical properties :
#
#
# Convention : Reuss Voigt Hill
#
# Bulk Modulus (GPa) = 30.80794 36.47410 33.64102
# Shear Modulus (GPa) = 19.99462 24.58200 22.28831
#
# Velocity S-wave (km/s) = 3.44742 3.82249 3.63979
# Velocity P-wave (km/s) = 5.84452 6.41576 6.13679
#
# Compressibility (1/GPa) = 0.03245917
#
# Stress axis : x y z
#
# Youngs Moduli (GPa) = 43.53476 103.34641 63.06621
#
# Poissons Ratio (x) = 0.39998 0.12970
# Poissons Ratio (y) = 0.16849 0.13212
# Poissons Ratio (z) = 0.08954 0.21650
#
# Static dielectric constant tensor:
#      x y z
#    x 3.152300 0.000000 -0.206240 
#    y 0.000000 3.275940 0.000000 
#    z -0.206240 0.000000 3.361230 
# 
# 
# High freq. dielectric constant tensor:
#      x y z
#    x 1.640500 0.000000 -0.027210 
#    y 0.000000 1.631650 0.000000 
#    z -0.027210 0.000000 1.659280 
# 
# From -- ./inp_files/91282.got.cif
#   From: 2010.06.25/outbox.cif.g09.slc.cpg/sg10_46_cif.got.tgz:91282.got - 2010.06.27 22:07:45.
