data_PCOD8059406
_publ_section_title
;
Structure prediction by ZEFSAII (Michael W. Deem and Ramdas Pophale) SiO2 
 PCOD8059406
Probable space group: P 2/M
;
_chemical_formula_sum "Si O2"
_cell_formula_units_Z 32
_cell_length_a 13.393639
_cell_length_b 8.980006
_cell_length_c 19.614412
_cell_angle_alpha 90.000000
_cell_angle_beta 59.557691
_cell_angle_gamma 90.000000
_cell_volume 2033.893391
_symmetry_space_group_name_H-M "P 2/M"
_symmetry_group_IT_number 10
_symmetry_cell_setting 'monoclinic'
loop_
_space_group_symop_operation_xyz
x,y,z
-x,y,-z
-x,-y,-z
x,-y,z
loop_
_atom_site_type_symbol
_atom_site_label
_atom_site_fract_x
_atom_site_fract_y
_atom_site_fract_z
Si Si1 0.328184 0.171557 0.939816
Si Si2 0.331419 0.166993 0.094446
Si Si3 0.012437 0.678132 0.328274
Si Si4 0.939475 0.828310 0.822481
Si Si5 0.912586 0.327942 0.968774
Si Si6 0.881974 0.336659 0.499228
Si Si7 0.450095 0.674882 0.172702
Si Si8 0.764328 0.677594 0.667841
O O1 0.428320 0.241507 0.857744
O O2 0.308835 0.000000 0.927458
O O3 0.371184 0.189527 0.002803
O O4 0.208690 0.255481 0.967850
O O5 0.195154 0.193194 0.146301
O O6 0.395300 0.287471 0.118428
O O7 0.363883 0.000000 0.107906
O O8 0.007307 0.500000 0.323743
O O9 0.988380 0.752254 0.263499
O O10 0.137932 0.731665 0.312567
O O11 0.912809 0.739169 0.415603
O O12 0.969711 0.749283 0.883131
O O13 0.974900 0.000000 0.816134
O O14 0.890816 0.500000 0.959387
O O15 0.000000 0.304655 0.000000
O O16 0.832662 0.500000 0.499284
O O17 0.789909 0.255483 0.582390
O O18 0.000000 0.352655 0.500000
O O19 0.472035 0.500000 0.168700
O O20 0.361474 0.729497 0.262444
O O21 0.771833 0.500000 0.660828
#
# Coordination Sequence:
#
# PCOD8059406 Si02
#       8
#     4   4   4   4   4   4   4   4
#     4  10  21  34  46  62  86 116 145 175 216 266
#     4   9  18  30  40  54  82 118 150 180 214 253
#     4   9  14  24  42  61  83 115 155 192 219 251
#     4  10  19  29  44  66  92 120 146 177 219 267
#     4  10  21  37  55  71  86 105 137 183 225 261
#     4   7  11  20  36  56  80 112 151 190 223 253
#     4  11  19  26  41  63  87 116 152 190 218 249
#     4   8  14  23  36  59  86 116 153 190 225 252
#
# _framework density 15.733371
#
# number of rings (size 3 to 8) (size 9 to 14) (size 15 to 20)
#    0.000    2.750    1.250    4.125    0.000    5.000 
#    0.000    0.000    0.000    4.875    0.000    0.000 
#    0.000    1.000    0.000   11.500    0.000    3.250 
#
# Total GULP energy -396535.808290 kJ/mol
# GULP energy per Si atom -12391.744009 kJ/mol
# Density = 1.569756 g / cm^3
# Si number density = 15.733371 Si / 1000 Ang^3
#
#
#
# Elastic Constant Matrix: (Units=GPa)
#
#
# Indices 1 2 3 4 5 6 
#
# 1 41.3408 30.8554 40.9592 0.0000 1.4556 0.0000
# 2 30.8554 73.3912 49.0186 0.0000 2.5332 0.0000
# 3 40.9592 49.0186 140.9325 0.0000 -3.0922 0.0000
# 4 0.0000 0.0000 0.0000 9.3753 0.0000 -3.1232
# 5 1.4556 2.5332 -3.0922 0.0000 13.6610 0.0000
# 6 0.0000 0.0000 0.0000 -3.1232 0.0000 14.6826
#
#
#
# Elastic Compliance Matrix: (Units=1/GPa)
#
#
# Indices 1 2 3 4 5 6 
#
# 1 0.040957 -0.011820 -0.007879 0.000000 -0.003955 0.000000
# 2 -0.011820 0.021467 -0.004111 0.000000 -0.003652 0.000000
# 3 -0.007879 -0.004111 0.010905 0.000000 0.004070 0.000000
# 4 0.000000 0.000000 0.000000 0.114798 0.000000 0.024419
# 5 -0.003955 -0.003652 0.004070 0.000000 0.075221 0.000000
# 6 0.000000 0.000000 0.000000 0.024419 0.000000 0.073302
#
#
# Mechanical properties :
#
#
# Convention : Reuss Voigt Hill
#
# Bulk Modulus (GPa) = 38.89889 55.25899 47.07894
# Shear Modulus (GPa) = 12.72779 16.53252 14.63016
#
# Velocity S-wave (km/s) = 2.84732 3.24511 3.05270
# Velocity P-wave (km/s) = 5.96550 7.01708 6.51255
#
# Compressibility (1/GPa) = 0.02570767
#
# Stress axis : x y z
#
# Youngs Moduli (GPa) = 24.41595 46.58246 91.70336
#
# Poissons Ratio (x) = 0.55062 0.72251
# Poissons Ratio (y) = 0.28861 0.37703
# Poissons Ratio (z) = 0.19237 0.19152
#
# Static dielectric constant tensor:
#      x y z
#    x 2.523880 0.000000 -0.066290 
#    y 0.000000 2.857940 0.000000 
#    z -0.066290 0.000000 3.458120 
# 
# 
# High freq. dielectric constant tensor:
#      x y z
#    x 1.543150 0.000000 -0.006430 
#    y 0.000000 1.590970 0.000000 
#    z -0.006430 0.000000 1.617360 
# 
# From -- ./inp_files/83365.got.cif
#   From: 2010.06.25/outbox.cif.g09.slc.cpg/sg10_42_cif.got.tgz:83365.got - 2010.06.27 22:07:45.
