data_PCOD8059669
_publ_section_title
;
Structure prediction by ZEFSAII (Michael W. Deem and Ramdas Pophale) SiO2 
 PCOD8059669
Probable space group: P 2/M
;
_chemical_formula_sum "Si O2"
_cell_formula_units_Z 28
_cell_length_a 14.329810
_cell_length_b 8.967330
_cell_length_c 19.240737
_cell_angle_alpha 90.000000
_cell_angle_beta 42.051183
_cell_angle_gamma 90.000000
_cell_volume 1656.024165
_symmetry_space_group_name_H-M "P 2/M"
_symmetry_group_IT_number 10
_symmetry_cell_setting 'monoclinic'
loop_
_space_group_symop_operation_xyz
x,y,z
-x,y,-z
-x,-y,-z
x,-y,z
loop_
_atom_site_type_symbol
_atom_site_label
_atom_site_fract_x
_atom_site_fract_y
_atom_site_fract_z
Si Si1 0.005294 0.173484 0.208843
Si Si2 0.721730 0.676422 0.389922
Si Si3 0.391386 0.326379 0.817084
Si Si4 0.482276 0.674202 0.109633
Si Si5 0.900284 0.176668 0.993484
Si Si6 0.297024 0.824855 0.110166
Si Si7 0.522449 0.676800 0.379730
O O1 0.873231 0.254186 0.314826
O O2 0.037497 0.235248 0.113797
O O3 0.134545 0.207076 0.188217
O O4 0.971837 0.000000 0.223218
O O5 0.736904 0.500000 0.382896
O O6 0.650969 0.730414 0.356867
O O7 0.624296 0.733447 0.507407
O O8 0.354708 0.500000 0.829809
O O9 0.504400 0.299449 0.815282
O O10 0.456610 0.261325 0.709723
O O11 0.251466 0.241413 0.912015
O O12 0.474463 0.500000 0.095665
O O13 0.342775 0.756427 0.159272
O O14 0.616530 0.744394 0.998143
O O15 0.886120 0.000000 0.000361
O O16 0.000000 0.232954 0.000000
O O17 0.330071 0.000000 0.089266
O O18 0.519069 0.500000 0.381888
#
# Coordination Sequence:
#
# PCOD8059669 Si02
#       7
#     4   4   4   4   4   4   4
#     4  10  20  32  46  69  99 126 156 195 238 282
#     4   9  17  31  53  72  92 126 165 199 230 278
#     4  10  19  31  49  71  98 126 154 196 242 284
#     4  10  19  30  47  72  96 120 157 202 235 278
#     4  10  20  32  45  66  99 132 158 189 232 284
#     4  10  19  32  49  66  93 131 158 190 238 287
#     4   8  16  32  50  72  97 124 160 198 238 279
#
# _framework density 16.907965999999998
#
# number of rings (size 3 to 8) (size 9 to 14) (size 15 to 20)
#    0.000    2.429    1.429    3.429    0.000    2.571 
#    0.000    2.143    0.000    0.857    0.000    6.000 
#    0.000    0.000    0.000    0.000    0.000    0.000 
#
# Total GULP energy -347141.650066 kJ/mol
# GULP energy per Si atom -12397.916074 kJ/mol
# Density = 1.686948 g / cm^3
# Si number density = 16.907966 Si / 1000 Ang^3
#
#
#
# Elastic Constant Matrix: (Units=GPa)
#
#
# Indices 1 2 3 4 5 6 
#
# 1 115.4656 34.9540 54.9197 0.0000 -9.1160 0.0000
# 2 34.9540 45.1054 24.2679 0.0000 -7.5786 0.0000
# 3 54.9197 24.2679 95.8783 0.0000 -12.0143 0.0000
# 4 0.0000 0.0000 0.0000 39.3223 0.0000 -4.0412
# 5 -9.1160 -7.5786 -12.0143 0.0000 25.7568 0.0000
# 6 0.0000 0.0000 0.0000 -4.0412 0.0000 26.2828
#
#
#
# Elastic Compliance Matrix: (Units=1/GPa)
#
#
# Indices 1 2 3 4 5 6 
#
# 1 0.013769 -0.007454 -0.006016 0.000000 -0.000126 0.000000
# 2 -0.007454 0.030273 -0.002769 0.000000 0.004978 0.000000
# 3 -0.006016 -0.002769 0.015090 0.000000 0.004095 0.000000
# 4 0.000000 0.000000 0.000000 0.025839 0.000000 0.003973
# 5 -0.000126 0.004978 0.004095 0.000000 0.042155 0.000000
# 6 0.000000 0.000000 0.000000 0.003973 0.000000 0.038659
#
#
# Mechanical properties :
#
#
# Convention : Reuss Voigt Hill
#
# Bulk Modulus (GPa) = 37.51868 53.85917 45.68893
# Shear Modulus (GPa) = 24.13755 27.75955 25.94855
#
# Velocity S-wave (km/s) = 3.78244 4.05631 3.92177
# Velocity P-wave (km/s) = 6.42759 7.33905 6.89839
#
# Compressibility (1/GPa) = 0.02665339
#
# Stress axis : x y z
#
# Youngs Moduli (GPa) = 72.62925 33.03265 66.27048
#
# Poissons Ratio (x) = 0.24624 0.39867
# Poissons Ratio (y) = 0.54141 0.18349
# Poissons Ratio (z) = 0.43692 0.09146
#
# Static dielectric constant tensor:
#      x y z
#    x 3.419050 0.000000 0.195160 
#    y 0.000000 3.028960 0.000000 
#    z 0.195160 0.000000 3.246580 
# 
# 
# High freq. dielectric constant tensor:
#      x y z
#    x 1.657670 0.000000 0.002370 
#    y 0.000000 1.641200 0.000000 
#    z 0.002370 0.000000 1.634250 
# 
# From -- ./inp_files/77715.got.cif
#   From: 2010.06.25/outbox.cif.g09.slc.cpg/sg10_39_cif.got.tgz:77715.got - 2010.06.27 22:07:45.
