data_PCOD8059624
_publ_section_title
;
Structure prediction by ZEFSAII (Michael W. Deem and Ramdas Pophale) SiO2 
 PCOD8059624
Probable space group: P 2/M
;
_chemical_formula_sum "Si O2"
_cell_formula_units_Z 32
_cell_length_a 12.240095
_cell_length_b 9.165320
_cell_length_c 21.552364
_cell_angle_alpha 90.000000
_cell_angle_beta 50.743570
_cell_angle_gamma 90.000000
_cell_volume 1872.184855
_symmetry_space_group_name_H-M "P 2/M"
_symmetry_group_IT_number 10
_symmetry_cell_setting 'monoclinic'
loop_
_space_group_symop_operation_xyz
x,y,z
-x,y,-z
-x,-y,-z
x,-y,z
loop_
_atom_site_type_symbol
_atom_site_label
_atom_site_fract_x
_atom_site_fract_y
_atom_site_fract_z
Si Si1 0.526557 0.172789 0.894125
Si Si2 0.657187 0.828083 0.722054
Si Si3 0.967470 0.330302 0.794481
Si Si4 0.260777 0.168361 0.549474
Si Si5 0.288765 0.670566 0.665847
Si Si6 0.943326 0.832013 0.677271
Si Si7 0.540582 0.827114 0.634571
Si Si8 0.724292 0.828019 0.934705
O O1 0.565993 0.237582 0.812342
O O2 0.639890 0.225954 0.904085
O O3 0.536092 0.000000 0.889248
O O4 0.368135 0.218625 0.971721
O O5 0.822877 0.789180 0.670868
O O6 0.601690 0.763637 0.677186
O O7 0.636710 0.000000 0.727267
O O8 0.934403 0.500000 0.805907
O O9 0.921449 0.265708 0.745237
O O10 0.874828 0.254205 0.881799
O O11 0.131917 0.298405 0.747643
O O12 0.310251 0.263924 0.589694
O O13 0.349377 0.217650 0.458274
O O14 0.096453 0.194952 0.591951
O O15 0.288969 0.000000 0.556578
O O16 0.322213 0.500000 0.650231
O O17 0.392293 0.748787 0.676611
O O18 0.925309 0.000000 0.704717
O O19 0.516959 0.000000 0.644867
O O20 0.751836 0.000000 0.924296
#
# Coordination Sequence:
#
# PCOD8059624 Si02
#       8
#     4   4   4   4   4   4   4   4
#     4   8  14  25  45  73  99 123 153 185 220 275
#     4   9  16  28  48  71  98 128 155 185 226 279
#     4  10  19  30  46  70  97 120 152 200 240 273
#     4   9  18  31  49  74  97 117 152 201 241 274
#     4  10  21  35  50  67  90 124 163 200 237 277
#     4   9  16  29  49  69  94 128 156 182 229 287
#     4  10  20  32  48  71  96 123 157 198 236 272
#     4   9  15  26  48  73  96 123 154 186 227 278
#
# _framework density 17.09233
#
# number of rings (size 3 to 8) (size 9 to 14) (size 15 to 20)
#    0.000    2.750    1.250    1.875    0.000    4.000 
#    0.000    4.375    0.000    0.750    0.000    9.625 
#    0.000    0.000    0.000    0.000    0.000    0.000 
#
# Total GULP energy -396686.547912 kJ/mol
# GULP energy per Si atom -12396.454622 kJ/mol
# Density = 1.705343 g / cm^3
# Si number density = 17.092330 Si / 1000 Ang^3
#
#
#
# Elastic Constant Matrix: (Units=GPa)
#
#
# Indices 1 2 3 4 5 6 
#
# 1 119.3027 34.8664 51.9450 0.0000 -6.0642 0.0000
# 2 34.8664 45.5615 28.9791 0.0000 -10.1526 0.0000
# 3 51.9450 28.9791 91.3180 0.0000 -16.9146 0.0000
# 4 0.0000 0.0000 0.0000 13.7028 0.0000 -7.8539
# 5 -6.0642 -10.1526 -16.9146 0.0000 20.7211 0.0000
# 6 0.0000 0.0000 0.0000 -7.8539 0.0000 11.3941
#
#
#
# Elastic Compliance Matrix: (Units=1/GPa)
#
#
# Indices 1 2 3 4 5 6 
#
# 1 0.012762 -0.007043 -0.005858 0.000000 -0.004497 0.000000
# 2 -0.007043 0.032406 -0.004381 0.000000 0.010241 0.000000
# 3 -0.005858 -0.004381 0.017622 0.000000 0.010524 0.000000
# 4 0.000000 0.000000 0.000000 0.120640 0.000000 0.083157
# 5 -0.004497 0.010241 0.010524 0.000000 0.060553 0.000000
# 6 0.000000 0.000000 0.000000 0.083157 0.000000 0.145084
#
#
# Mechanical properties :
#
#
# Convention : Reuss Voigt Hill
#
# Bulk Modulus (GPa) = 35.42542 54.19591 44.81066
# Shear Modulus (GPa) = 11.54628 18.52304 15.03466
#
# Velocity S-wave (km/s) = 2.60190 3.29554 2.96905
# Velocity P-wave (km/s) = 5.45870 6.80127 6.16664
#
# Compressibility (1/GPa) = 0.02822832
#
# Stress axis : x y z
#
# Youngs Moduli (GPa) = 78.35662 30.85822 56.74592
#
# Poissons Ratio (x) = 0.21733 0.33240
# Poissons Ratio (y) = 0.55185 0.24859
# Poissons Ratio (z) = 0.45898 0.13518
#
# Static dielectric constant tensor:
#      x y z
#    x 3.174720 0.000000 -0.120560 
#    y 0.000000 2.947430 0.000000 
#    z -0.120560 0.000000 3.492270 
# 
# 
# High freq. dielectric constant tensor:
#      x y z
#    x 1.640650 0.000000 -0.021300 
#    y 0.000000 1.630970 0.000000 
#    z -0.021300 0.000000 1.663470 
# 
# From -- ./inp_files/52703.got.cif
#   From: 2010.06.25/outbox.cif.g09.slc.cpg/sg10_27_cif.got.tgz:52703.got - 2010.06.27 22:07:45.
