data_PCOD8059018
_publ_section_title
;
Structure prediction by ZEFSAII (Michael W. Deem and Ramdas Pophale) SiO2 
 PCOD8059018
Probable space group: P 2/M
;
_chemical_formula_sum "Si O2"
_cell_formula_units_Z 24
_cell_length_a 20.427566
_cell_length_b 8.546225
_cell_length_c 9.644245
_cell_angle_alpha 90.000000
_cell_angle_beta 130.684623
_cell_angle_gamma 90.000000
_cell_volume 1276.749135
_symmetry_space_group_name_H-M "P 2/M"
_symmetry_group_IT_number 10
_symmetry_cell_setting 'monoclinic'
loop_
_space_group_symop_operation_xyz
x,y,z
-x,y,-z
-x,-y,-z
x,-y,z
loop_
_atom_site_type_symbol
_atom_site_label
_atom_site_fract_x
_atom_site_fract_y
_atom_site_fract_z
Si Si1 0.528142 0.314980 0.390916
Si Si2 0.761292 0.183364 0.373202
Si Si3 0.904842 0.183861 0.360759
Si Si4 0.769878 0.817135 0.953203
Si Si5 0.280098 0.316174 0.394392
Si Si6 0.641400 0.317599 0.988107
O O1 0.500000 0.241382 0.500000
O O2 0.532751 0.500000 0.412983
O O3 0.621718 0.250635 0.474924
O O4 0.458165 0.270040 0.176702
O O5 0.843863 0.245991 0.400661
O O6 0.761963 0.275937 0.517257
O O7 0.675318 0.219206 0.165601
O O8 0.765707 0.000000 0.409416
O O9 0.860998 0.224377 0.152579
O O10 0.000000 0.262325 0.500000
O O11 0.913695 0.000000 0.392507
O O12 0.693649 0.719410 0.919853
O O13 0.749440 0.000000 0.943019
O O14 0.776110 0.768867 0.801625
O O15 0.276475 0.500000 0.363724
O O16 0.650473 0.500000 0.035920
#
# Coordination Sequence:
#
# PCOD8059018 Si02
#       6
#     4   4   4   4   4   4
#     4   9  17  31  51  75 100 136 186 221 240 294
#     4  10  21  36  53  78 110 134 168 220 268 308
#     4   8  16  34  59  80  99 131 172 209 251 315
#     4  10  19  32  53  81 108 133 170 218 264 304
#     4  11  21  35  54  75 105 144 180 212 256 309
#     4  10  18  33  55  75 101 140 184 217 251 303
#
# _framework density 18.797742
#
# number of rings (size 3 to 8) (size 9 to 14) (size 15 to 20)
#    0.000    2.333    1.667    3.000    0.000    0.667 
#    0.000    8.333    0.000   23.000    0.000    0.000 
#    0.000    0.000    0.000    0.000    0.000    0.000 
#
# Total GULP energy -297578.209022 kJ/mol
# GULP energy per Si atom -12399.092043 kJ/mol
# Density = 1.875496 g / cm^3
# Si number density = 18.797742 Si / 1000 Ang^3
#
#
#
# Elastic Constant Matrix: (Units=GPa)
#
#
# Indices 1 2 3 4 5 6 
#
# 1 98.2285 12.9008 75.8967 0.0000 4.0424 0.0000
# 2 12.9008 31.6845 17.3328 0.0000 9.5787 0.0000
# 3 75.8967 17.3328 134.8294 0.0000 3.7824 0.0000
# 4 0.0000 0.0000 0.0000 17.5107 0.0000 -6.2673
# 5 4.0424 9.5787 3.7824 0.0000 34.9018 0.0000
# 6 0.0000 0.0000 0.0000 -6.2673 0.0000 22.7344
#
#
#
# Elastic Compliance Matrix: (Units=1/GPa)
#
#
# Indices 1 2 3 4 5 6 
#
# 1 0.018135 -0.001771 -0.009966 0.000000 -0.000534 0.000000
# 2 -0.001771 0.037100 -0.003503 0.000000 -0.009597 0.000000
# 3 -0.009966 -0.003503 0.013459 0.000000 0.000657 0.000000
# 4 0.000000 0.000000 0.000000 0.063359 0.000000 0.017467
# 5 -0.000534 -0.009597 0.000657 0.000000 0.031276 0.000000
# 6 0.000000 0.000000 0.000000 0.017467 0.000000 0.048801
#
#
# Mechanical properties :
#
#
# Convention : Reuss Voigt Hill
#
# Bulk Modulus (GPa) = 26.16844 53.00033 39.58439
# Shear Modulus (GPa) = 19.58111 25.60352 22.59232
#
# Velocity S-wave (km/s) = 3.23100 3.69460 3.47055
# Velocity P-wave (km/s) = 5.27924 6.81589 6.09618
#
# Compressibility (1/GPa) = 0.03821397
#
# Stress axis : x y z
#
# Youngs Moduli (GPa) = 55.14215 26.95417 74.30245
#
# Poissons Ratio (x) = 0.04773 0.74048
# Poissons Ratio (y) = 0.09764 0.26031
# Poissons Ratio (z) = 0.54953 0.09443
#
# Static dielectric constant tensor:
#      x y z
#    x 3.484600 0.000000 0.171180 
#    y 0.000000 3.172290 0.000000 
#    z 0.171180 0.000000 3.605210 
# 
# 
# High freq. dielectric constant tensor:
#      x y z
#    x 1.709600 0.000000 -0.002230 
#    y 0.000000 1.709570 0.000000 
#    z -0.002230 0.000000 1.737840 
# 
# From -- ./inp_files/27347.got.cif
#   From: 2010.06.25/outbox.cif.g09.slc.cpg/sg10_14_cif.got.tgz:27347.got - 2010.06.27 22:07:45.
