data_PCOD8059325
_publ_section_title
;
Structure prediction by ZEFSAII (Michael W. Deem and Ramdas Pophale) SiO2 
 PCOD8059325
Probable space group: P 2/M
;
_chemical_formula_sum "Si O2"
_cell_formula_units_Z 32
_cell_length_a 6.617079
_cell_length_b 13.592666
_cell_length_c 18.464347
_cell_angle_alpha 90.000000
_cell_angle_beta 90.886933
_cell_angle_gamma 90.000000
_cell_volume 1660.553537
_symmetry_space_group_name_H-M "P 2/M"
_symmetry_group_IT_number 10
_symmetry_cell_setting 'monoclinic'
loop_
_space_group_symop_operation_xyz
x,y,z
-x,y,-z
-x,-y,-z
x,-y,z
loop_
_atom_site_type_symbol
_atom_site_label
_atom_site_fract_x
_atom_site_fract_y
_atom_site_fract_z
Si Si1 0.869132 0.391779 0.928680
Si Si2 0.751299 0.716758 0.288026
Si Si3 0.256699 0.608089 0.852465
Si Si4 0.521066 0.883777 0.776473
Si Si5 0.135923 0.889400 0.563138
Si Si6 0.853231 0.191948 0.674102
Si Si7 0.481361 0.258808 0.579760
Si Si8 0.474808 0.764515 0.080179
O O1 0.762941 0.500000 0.935370
O O2 0.720791 0.302768 0.913458
O O3 0.016088 0.393934 0.860197
O O4 0.000000 0.370394 0.000000
O O5 0.687684 0.635942 0.229256
O O6 0.654307 0.822981 0.265342
O O7 0.654359 0.678935 0.363676
O O8 0.995277 0.724305 0.293575
O O9 0.349810 0.500000 0.869163
O O10 0.339678 0.689852 0.907918
O O11 0.734810 0.861646 0.738451
O O12 0.533559 0.851525 0.860903
O O13 0.472593 0.000000 0.772341
O O14 0.356901 0.842049 0.568814
O O15 0.000000 0.838245 0.500000
O O16 0.006831 0.883734 0.636331
O O17 0.182283 0.000000 0.541794
O O18 0.701087 0.239297 0.614818
O O19 0.500000 0.309848 0.500000
O O20 0.500000 0.811281 0.000000
#
# Coordination Sequence:
#
# PCOD8059325 Si02
#       8
#     4   4   4   4   4   4   4   4
#     4  10  19  31  53  83 109 132 161 204 267 329
#     4   9  21  35  53  77 104 139 178 217 259 309
#     4  10  20  36  57  82 109 135 167 212 266 322
#     4  10  22  37  52  72 102 145 189 220 250 297
#     4  10  19  28  43  71 103 132 168 217 267 309
#     4  10  19  34  53  69 100 138 180 218 264 303
#     4  10  19  32  49  75 103 135 174 211 261 313
#     4  11  21  35  56  80 109 139 171 216 264 310
#
# _framework density 19.270681
#
# number of rings (size 3 to 8) (size 9 to 14) (size 15 to 20)
#    0.000    2.000    2.500    1.500    0.000    6.500 
#    0.000    0.000    0.000    0.750    0.000    0.875 
#    0.000    0.000    0.000    0.000    0.000    0.000 
#
# Total GULP energy -396509.374579 kJ/mol
# GULP energy per Si atom -12390.917956 kJ/mol
# Density = 1.922682 g / cm^3
# Si number density = 19.270681 Si / 1000 Ang^3
#
#
#
# Elastic Constant Matrix: (Units=GPa)
#
#
# Indices 1 2 3 4 5 6 
#
# 1 92.1850 12.2776 22.9330 0.0000 1.7993 0.0000
# 2 12.2776 39.1777 17.6331 0.0000 -7.2827 0.0000
# 3 22.9330 17.6331 130.5773 0.0000 -13.6284 0.0000
# 4 0.0000 0.0000 0.0000 21.3061 0.0000 7.5350
# 5 1.7993 -7.2827 -13.6284 0.0000 29.2454 0.0000
# 6 0.0000 0.0000 0.0000 7.5350 0.0000 17.8381
#
#
#
# Elastic Compliance Matrix: (Units=1/GPa)
#
#
# Indices 1 2 3 4 5 6 
#
# 1 0.011803 -0.003303 -0.001880 0.000000 -0.002425 0.000000
# 2 -0.003303 0.028911 -0.002682 0.000000 0.006153 0.000000
# 3 -0.001880 -0.002682 0.008717 0.000000 0.003510 0.000000
# 4 0.000000 0.000000 0.000000 0.055178 0.000000 -0.023308
# 5 -0.002425 0.006153 0.003510 0.000000 0.037510 0.000000
# 6 0.000000 0.000000 0.000000 -0.023308 0.000000 0.065905
#
#
# Mechanical properties :
#
#
# Convention : Reuss Voigt Hill
#
# Bulk Modulus (GPa) = 29.67329 40.84748 35.26039
# Shear Modulus (GPa) = 21.27778 27.61769 24.44774
#
# Velocity S-wave (km/s) = 3.32648 3.78980 3.56567
# Velocity P-wave (km/s) = 5.49414 6.35553 5.94047
#
# Compressibility (1/GPa) = 0.03370034
#
# Stress axis : x y z
#
# Youngs Moduli (GPa) = 84.72639 34.58922 114.71925
#
# Poissons Ratio (x) = 0.11426 0.21566
# Poissons Ratio (y) = 0.27989 0.30765
# Poissons Ratio (z) = 0.15927 0.09276
#
# Static dielectric constant tensor:
#      x y z
#    x 3.638570 0.000000 -0.034750 
#    y 0.000000 3.081310 0.000000 
#    z -0.034750 0.000000 3.856250 
# 
# 
# High freq. dielectric constant tensor:
#      x y z
#    x 1.758170 0.000000 -0.004320 
#    y 0.000000 1.695610 0.000000 
#    z -0.004320 0.000000 1.767280 
# 
# From -- ./inp_files/73540.got.cif
#   From: 2010.06.25/outbox.cif.g09.slc.cpg/sg10_37_cif.got.tgz:73540.got - 2010.06.27 22:07:45.
