data_PCOD8059356
_publ_section_title
;
Structure prediction by ZEFSAII (Michael W. Deem and Ramdas Pophale) SiO2 
 PCOD8059356
Probable space group: P 2/M
;
_chemical_formula_sum "Si O2"
_cell_formula_units_Z 32
_cell_length_a 20.826412
_cell_length_b 9.044990
_cell_length_c 11.372079
_cell_angle_alpha 90.000000
_cell_angle_beta 63.400414
_cell_angle_gamma 90.000000
_cell_volume 1915.474721
_symmetry_space_group_name_H-M "P 2/M"
_symmetry_group_IT_number 10
_symmetry_cell_setting 'monoclinic'
loop_
_space_group_symop_operation_xyz
x,y,z
-x,y,-z
-x,-y,-z
x,-y,z
loop_
_atom_site_type_symbol
_atom_site_label
_atom_site_fract_x
_atom_site_fract_y
_atom_site_fract_z
Si Si1 0.122219 0.166918 0.079943
Si Si2 0.736655 0.673373 0.995483
Si Si3 0.464372 0.826155 0.203486
Si Si4 0.610113 0.174491 0.971602
Si Si5 0.573206 0.829620 0.510017
Si Si6 0.153601 0.166718 0.779099
Si Si7 0.984212 0.667086 0.150879
Si Si8 0.293612 0.673152 0.711651
O O1 0.186459 0.252147 0.092428
O O2 0.047455 0.249128 0.168831
O O3 0.117910 0.000000 0.131700
O O4 0.135640 0.167764 0.930649
O O5 0.745212 0.500000 0.969520
O O6 0.681066 0.737839 0.947609
O O7 0.709258 0.712425 0.148319
O O8 0.406426 0.787098 0.150849
O O9 0.438115 0.763044 0.349819
O O10 0.473456 0.000000 0.206539
O O11 0.543394 0.765769 0.104624
O O12 0.622366 0.000000 0.979625
O O13 0.500000 0.813529 0.500000
O O14 0.631640 0.730927 0.398123
O O15 0.598901 0.000000 0.491933
O O16 0.090789 0.251175 0.760433
O O17 0.228867 0.248475 0.694883
O O18 0.158988 0.000000 0.726420
O O19 0.979315 0.500000 0.202028
O O20 0.000000 0.668289 0.000000
O O21 0.286401 0.500000 0.695713
#
# Coordination Sequence:
#
# PCOD8059356 Si02
#       8
#     4   4   4   4   4   4   4   4
#     4   9  16  25  38  57  81 112 149 182 214 258
#     4  10  19  29  41  61  89 117 147 184 224 262
#     4   8  16  30  48  69  88 109 142 183 222 261
#     4   9  16  30  50  66  84 112 145 180 220 266
#     4  10  19  31  48  68  89 114 146 182 219 262
#     4   9  16  26  40  57  79 111 150 185 215 255
#     4   9  15  23  36  55  82 114 144 177 218 259
#     4  10  20  31  42  60  88 119 149 183 223 264
#
# _framework density 16.706042
#
# number of rings (size 3 to 8) (size 9 to 14) (size 15 to 20)
#    0.000    2.750    0.000    3.375    0.000    7.250 
#    0.000    2.500    0.000    0.000    0.000    0.000 
#    0.000    1.000    0.000   10.750    0.000    8.250 
#
# Total GULP energy -396765.960797 kJ/mol
# GULP energy per Si atom -12398.936275 kJ/mol
# Density = 1.666802 g / cm^3
# Si number density = 16.706042 Si / 1000 Ang^3
#
#
#
# Elastic Constant Matrix: (Units=GPa)
#
#
# Indices 1 2 3 4 5 6 
#
# 1 132.9100 60.3367 27.9148 0.0000 -10.8628 0.0000
# 2 60.3367 100.6660 22.9337 0.0000 -6.4853 0.0000
# 3 27.9148 22.9337 38.1332 0.0000 2.1143 0.0000
# 4 0.0000 0.0000 0.0000 15.6264 0.0000 -7.1093
# 5 -10.8628 -6.4853 2.1143 0.0000 18.9306 0.0000
# 6 0.0000 0.0000 0.0000 -7.1093 0.0000 20.5044
#
#
#
# Elastic Compliance Matrix: (Units=1/GPa)
#
#
# Indices 1 2 3 4 5 6 
#
# 1 0.011542 -0.005301 -0.005562 0.000000 0.005428 0.000000
# 2 -0.005301 0.014386 -0.004906 0.000000 0.002434 0.000000
# 3 -0.005562 -0.004906 0.033725 0.000000 -0.008639 0.000000
# 4 0.000000 0.000000 0.000000 0.075979 0.000000 0.026344
# 5 0.005428 0.002434 -0.008639 0.000000 0.057738 0.000000
# 6 0.000000 0.000000 0.000000 0.026344 0.000000 0.057904
#
#
# Mechanical properties :
#
#
# Convention : Reuss Voigt Hill
#
# Bulk Modulus (GPa) = 35.56905 54.89774 45.23339
# Shear Modulus (GPa) = 17.11244 21.71389 19.41317
#
# Velocity S-wave (km/s) = 3.20398 3.60913 3.41258
# Velocity P-wave (km/s) = 5.91817 7.09226 6.53165
#
# Compressibility (1/GPa) = 0.02811433
#
# Stress axis : x y z
#
# Youngs Moduli (GPa) = 86.63726 69.51278 29.65159
#
# Poissons Ratio (x) = 0.36851 0.16492
# Poissons Ratio (y) = 0.45929 0.14547
# Poissons Ratio (z) = 0.48188 0.34103
#
# Static dielectric constant tensor:
#      x y z
#    x 3.220510 0.000000 -0.099520 
#    y 0.000000 3.133500 0.000000 
#    z -0.099520 0.000000 2.911420 
# 
# 
# High freq. dielectric constant tensor:
#      x y z
#    x 1.652320 0.000000 -0.019510 
#    y 0.000000 1.643730 0.000000 
#    z -0.019510 0.000000 1.586580 
# 
# From -- ./inp_files/54786.got.cif
#   From: 2010.06.25/outbox.cif.g09.slc.cpg/sg10_28_cif.got.tgz:54786.got - 2010.06.27 22:07:45.
