data_PCOD8059309
_publ_section_title
;
Structure prediction by ZEFSAII (Michael W. Deem and Ramdas Pophale) SiO2 
 PCOD8059309
Probable space group: P 2/M
;
_chemical_formula_sum "Si O2"
_cell_formula_units_Z 32
_cell_length_a 16.183796
_cell_length_b 9.439184
_cell_length_c 13.564091
_cell_angle_alpha 90.000000
_cell_angle_beta 87.732108
_cell_angle_gamma 90.000000
_cell_volume 2070.452341
_symmetry_space_group_name_H-M "P 2/M"
_symmetry_group_IT_number 10
_symmetry_cell_setting 'monoclinic'
loop_
_space_group_symop_operation_xyz
x,y,z
-x,y,-z
-x,-y,-z
x,-y,z
loop_
_atom_site_type_symbol
_atom_site_label
_atom_site_fract_x
_atom_site_fract_y
_atom_site_fract_z
Si Si1 0.709656 0.336494 0.804591
Si Si2 0.089131 0.655963 0.545543
Si Si3 0.386158 0.840101 0.920888
Si Si4 0.236989 0.665538 0.976644
Si Si5 0.859404 0.666494 0.663526
Si Si6 0.979886 0.836590 0.289486
Si Si7 0.438265 0.841228 0.144323
Si Si8 0.077359 0.838318 0.929791
O O1 0.688745 0.500000 0.794276
O O2 0.747908 0.302560 0.909333
O O3 0.775040 0.285374 0.719829
O O4 0.622996 0.256835 0.789554
O O5 0.111785 0.500000 0.586933
O O6 0.151071 0.698350 0.453211
O O7 0.000000 0.650323 0.500000
O O8 0.088953 0.770183 0.633344
O O9 0.465736 0.791178 0.852116
O O10 0.359930 0.000000 0.893012
O O11 0.309517 0.734864 0.906513
O O12 0.411725 0.835325 0.032779
O O13 0.234844 0.500000 0.953286
O O14 0.150662 0.733083 0.951632
O O15 0.877834 0.500000 0.680950
O O16 0.933778 0.754730 0.707637
O O17 0.945495 0.819470 0.182364
O O18 0.993880 0.000000 0.317528
O O19 0.430148 0.000000 0.185850
O O20 0.103871 0.000000 0.951698
O O21 0.000000 0.793676 0.000000
#
# Coordination Sequence:
#
# PCOD8059309 Si02
#       8
#     4   4   4   4   4   4   4   4
#     4   9  17  27  39  59  86 110 134 167 202 236
#     4   8  15  28  44  59  77 104 133 161 200 249
#     4   8  14  26  41  55  77 108 138 167 198 237
#     4  10  19  28  41  61  81 106 141 176 205 231
#     4   9  17  29  43  59  82 111 136 159 200 252
#     4  10  19  29  43  61  78 101 137 177 208 233
#     4   8  14  24  39  58  78 106 139 164 195 239
#     4  10  21  34  44  56  79 111 142 170 204 243
#
# _framework density 15.45556
#
# number of rings (size 3 to 8) (size 9 to 14) (size 15 to 20)
#    0.000    3.000    0.000    3.000    0.000    5.000 
#    0.000    2.500    0.000    0.000    0.000    0.000 
#    0.000    1.000    0.000   11.250    0.000    5.500 
#
# Total GULP energy -396631.408824 kJ/mol
# GULP energy per Si atom -12394.731526 kJ/mol
# Density = 1.542038 g / cm^3
# Si number density = 15.455560 Si / 1000 Ang^3
#
#
#
# Elastic Constant Matrix: (Units=GPa)
#
#
# Indices 1 2 3 4 5 6 
#
# 1 126.3133 72.6745 43.6148 0.0000 -24.6986 0.0000
# 2 72.6745 94.3589 39.1168 0.0000 -11.9725 0.0000
# 3 43.6148 39.1168 53.6082 0.0000 -18.0324 0.0000
# 4 0.0000 0.0000 0.0000 17.5011 0.0000 -1.8458
# 5 -24.6986 -11.9725 -18.0324 0.0000 21.1310 0.0000
# 6 0.0000 0.0000 0.0000 -1.8458 0.0000 28.6677
#
#
#
# Elastic Compliance Matrix: (Units=1/GPa)
#
#
# Indices 1 2 3 4 5 6 
#
# 1 0.017309 -0.010966 -0.001915 0.000000 0.012384 0.000000
# 2 -0.010966 0.022163 -0.010292 0.000000 -0.009043 0.000000
# 3 -0.001915 -0.010292 0.035076 0.000000 0.021863 0.000000
# 4 0.000000 0.000000 0.000000 0.057530 0.000000 0.003704
# 5 0.012384 -0.009043 0.021863 0.000000 0.075332 0.000000
# 6 0.000000 0.000000 0.000000 0.003704 0.000000 0.035121
#
#
# Mechanical properties :
#
#
# Convention : Reuss Voigt Hill
#
# Bulk Modulus (GPa) = 35.45868 65.01028 50.23448
# Shear Modulus (GPa) = 16.76300 21.38491 19.07395
#
# Velocity S-wave (km/s) = 3.29689 3.72376 3.51681
# Velocity P-wave (km/s) = 6.12248 7.78734 7.00455
#
# Compressibility (1/GPa) = 0.02820184
#
# Stress axis : x y z
#
# Youngs Moduli (GPa) = 57.77422 45.12059 28.50982
#
# Poissons Ratio (x) = 0.49479 0.05459
# Poissons Ratio (y) = 0.63355 0.29342
# Poissons Ratio (z) = 0.11063 0.46437
#
# Static dielectric constant tensor:
#      x y z
#    x 3.135470 0.000000 -0.391910 
#    y 0.000000 3.086820 0.000000 
#    z -0.391910 0.000000 2.856340 
# 
# 
# High freq. dielectric constant tensor:
#      x y z
#    x 1.584000 0.000000 -0.026640 
#    y 0.000000 1.599110 0.000000 
#    z -0.026640 0.000000 1.552770 
# 
# From -- ./inp_files/66206.got.cif
#   From: 2010.06.25/outbox.cif.g09.slc.cpg/sg10_34_cif.got.tgz:66206.got - 2010.06.27 22:07:45.
