data_PCOD8059534
_publ_section_title
;
Structure prediction by ZEFSAII (Michael W. Deem and Ramdas Pophale) SiO2 
 PCOD8059534
Probable space group: P 2/M
;
_chemical_formula_sum "Si O2"
_cell_formula_units_Z 24
_cell_length_a 17.540525
_cell_length_b 17.385058
_cell_length_c 5.136163
_cell_angle_alpha 90.000000
_cell_angle_beta 89.643594
_cell_angle_gamma 90.000000
_cell_volume 1566.206880
_symmetry_space_group_name_H-M "P 2/M"
_symmetry_group_IT_number 10
_symmetry_cell_setting 'monoclinic'
loop_
_space_group_symop_operation_xyz
x,y,z
-x,y,-z
-x,-y,-z
x,-y,z
loop_
_atom_site_type_symbol
_atom_site_label
_atom_site_fract_x
_atom_site_fract_y
_atom_site_fract_z
Si Si1 0.158180 0.845157 0.025542
Si Si2 0.085704 0.910804 0.528305
Si Si3 0.678046 0.909532 0.970207
Si Si4 0.090444 0.320133 0.001967
Si Si5 0.090055 0.414492 0.502117
Si Si6 0.584351 0.089899 0.482845
O O1 0.137889 0.865735 0.322688
O O2 0.247191 0.859420 0.980120
O O3 0.112019 0.897620 0.822835
O O4 0.138070 0.757335 0.970240
O O5 0.000000 0.879543 0.500000
O O6 0.090891 0.000000 0.458786
O O7 0.639187 0.877924 0.707862
O O8 0.699760 0.000000 0.955184
O O9 0.619477 0.892368 0.202576
O O10 0.116159 0.375160 0.767828
O O11 0.117291 0.362120 0.263200
O O12 0.000000 0.302178 0.000000
O O13 0.126240 0.500000 0.481889
O O14 0.000000 0.422281 0.500000
O O15 0.500000 0.127617 0.500000
O O16 0.576367 0.000000 0.537262
#
# Coordination Sequence:
#
# PCOD8059534 Si02
#       6
#     4   4   4   4   4   4
#     4  12  22  33  46  64  90 116 150 191 232 270
#     4  11  22  34  46  58  78 116 162 202 232 255
#     4  10  19  30  45  64  86 114 146 182 223 262
#     4  10  19  30  45  64  86 114 146 182 223 262
#     4   9  17  30  47  65  83 105 140 183 222 265
#     4   9  17  30  47  65  83 105 140 183 222 265
#
# _framework density 15.323644
#
# number of rings (size 3 to 8) (size 9 to 14) (size 15 to 20)
#    0.000    1.833    0.000    6.000    0.000    8.000 
#    0.000    0.000    0.000    0.000    0.000    0.000 
#    0.000    0.000    0.000    0.000    0.000   58.333 
#
# Total GULP energy -297656.593161 kJ/mol
# GULP energy per Si atom -12402.358048 kJ/mol
# Density = 1.528877 g / cm^3
# Si number density = 15.323644 Si / 1000 Ang^3
#
#
#
# Elastic Constant Matrix: (Units=GPa)
#
#
# Indices 1 2 3 4 5 6 
#
# 1 75.4529 28.0758 14.0890 0.0000 2.5018 0.0000
# 2 28.0758 59.4313 12.7591 0.0000 -3.8569 0.0000
# 3 14.0890 12.7591 77.3629 0.0000 7.1096 0.0000
# 4 0.0000 0.0000 0.0000 62.4974 0.0000 27.5198
# 5 2.5018 -3.8569 7.1096 0.0000 21.2795 0.0000
# 6 0.0000 0.0000 0.0000 27.5198 0.0000 25.6719
#
#
#
# Elastic Compliance Matrix: (Units=1/GPa)
#
#
# Indices 1 2 3 4 5 6 
#
# 1 0.016468 -0.007646 -0.001478 0.000000 -0.002828 0.000000
# 2 -0.007646 0.021375 -0.002653 0.000000 0.005659 0.000000
# 3 -0.001478 -0.002653 0.014094 0.000000 -0.005016 0.000000
# 4 0.000000 0.000000 0.000000 0.030306 0.000000 -0.032488
# 5 -0.002828 0.005659 -0.005016 0.000000 0.050028 0.000000
# 6 0.000000 0.000000 0.000000 -0.032488 0.000000 0.073779
#
#
# Mechanical properties :
#
#
# Convention : Reuss Voigt Hill
#
# Bulk Modulus (GPa) = 35.23258 35.78835 35.51046
# Shear Modulus (GPa) = 20.91484 32.37798 26.64641
#
# Velocity S-wave (km/s) = 3.69843 4.60166 4.17455
# Velocity P-wave (km/s) = 6.42495 7.18606 6.81614
#
# Compressibility (1/GPa) = 0.02838282
#
# Stress axis : x y z
#
# Youngs Moduli (GPa) = 60.72353 46.78378 70.95329
#
# Poissons Ratio (x) = 0.35770 0.10488
# Poissons Ratio (y) = 0.46428 0.18824
# Poissons Ratio (z) = 0.08976 0.12411
#
# Static dielectric constant tensor:
#      x y z
#    x 2.825850 0.000000 0.105690 
#    y 0.000000 2.781340 0.000000 
#    z 0.105690 0.000000 3.131300 
# 
# 
# High freq. dielectric constant tensor:
#      x y z
#    x 1.557370 0.000000 0.007290 
#    y 0.000000 1.554300 0.000000 
#    z 0.007290 0.000000 1.612510 
# 
# From -- ./inp_files/9219.got.cif
#   From: 2010.06.25/outbox.cif.g09.slc.cpg/sg10_5_cif.got.tgz:9219.got - 2010.06.27 22:07:45.
