data_PCOD8059484
_publ_section_title
;
Structure prediction by ZEFSAII (Michael W. Deem and Ramdas Pophale) SiO2 
 PCOD8059484
Probable space group: P 2/M
;
_chemical_formula_sum "Si O2"
_cell_formula_units_Z 28
_cell_length_a 20.554788
_cell_length_b 23.417904
_cell_length_c 5.153028
_cell_angle_alpha 90.000000
_cell_angle_beta 119.523854
_cell_angle_gamma 90.000000
_cell_volume 2158.330531
_symmetry_space_group_name_H-M "P 2/M"
_symmetry_group_IT_number 10
_symmetry_cell_setting 'monoclinic'
loop_
_space_group_symop_operation_xyz
x,y,z
-x,y,-z
-x,-y,-z
x,-y,z
loop_
_atom_site_type_symbol
_atom_site_label
_atom_site_fract_x
_atom_site_fract_y
_atom_site_fract_z
Si Si1 0.549771 0.363360 0.841858
Si Si2 0.043665 0.568120 0.835807
Si Si3 0.411726 0.064629 0.364652
Si Si4 0.451568 0.762527 0.154870
Si Si5 0.699293 0.432152 0.150497
Si Si6 0.788159 0.432154 0.825656
Si Si7 0.411393 0.875472 0.868976
O O1 0.500000 0.382441 0.500000
O O2 0.583909 0.299482 0.852108
O O3 0.500000 0.367229 0.000000
O O4 0.617115 0.406873 0.003260
O O5 0.045315 0.500000 0.839076
O O6 0.000000 0.591513 0.500000
O O7 0.127826 0.592709 0.001095
O O8 0.000000 0.591472 0.000000
O O9 0.500000 0.071597 0.500000
O O10 0.377925 0.106623 0.522770
O O11 0.389979 0.000000 0.395089
O O12 0.377808 0.081406 0.018192
O O13 0.500000 0.784471 0.500000
O O14 0.500000 0.749508 0.000000
O O15 0.393166 0.811778 0.946706
O O16 0.691529 0.500000 0.135681
O O17 0.747115 0.410043 0.488056
O O18 0.741931 0.409507 0.980399
O O19 0.792020 0.500000 0.836919
O O20 0.500000 0.880686 0.000000
#
# Coordination Sequence:
#
# PCOD8059484 Si02
#       7
#     4   4   4   4   4   4   4
#     4  10  20  31  42  54  65  80 109 147 180 212
#     4   9  15  23  37  56  75  93 111 128 143 168
#     4   9  15  20  27  41  59  76  93 111 134 174
#     4   9  16  26  37  47  58  73  97 130 165 197
#     4  10  19  30  42  54  70  90 108 133 173 215
#     4   9  17  28  40  55  74  93 110 126 153 197
#     4   9  14  21  31  41  55  75  94 115 147 183
#
# _framework density 12.972989999999999
#
# number of rings (size 3 to 8) (size 9 to 14) (size 15 to 20)
#    0.000    2.714    0.000    4.286    0.000    5.714 
#    0.000    0.000    0.000    0.000    0.000    0.000 
#    0.000    0.000    0.000    0.000    0.000    0.000 
#
# Total GULP energy -346880.700664 kJ/mol
# GULP energy per Si atom -12388.596452 kJ/mol
# Density = 1.294346 g / cm^3
# Si number density = 12.972990 Si / 1000 Ang^3
#
#
#
# Elastic Constant Matrix: (Units=GPa)
#
#
# Indices 1 2 3 4 5 6 
#
# 1 70.0883 21.4475 44.6958 0.0000 -8.6190 0.0000
# 2 21.4475 37.1236 24.5737 0.0000 -0.1012 0.0000
# 3 44.6958 24.5737 90.1581 0.0000 -13.3023 0.0000
# 4 0.0000 0.0000 0.0000 -8.5780 0.0000 1.7817
# 5 -8.6190 -0.1012 -13.3023 0.0000 24.9264 0.0000
# 6 0.0000 0.0000 0.0000 1.7817 0.0000 0.8507
#
#
#
# Elastic Compliance Matrix: (Units=1/GPa)
#
#
# Indices 1 2 3 4 5 6 
#
# 1 0.022380 -0.007171 -0.008687 0.000000 0.003074 0.000000
# 2 -0.007171 0.035760 -0.007095 0.000000 -0.006121 0.000000
# 3 -0.008687 -0.007095 0.018327 0.000000 0.006748 0.000000
# 4 0.000000 0.000000 0.000000 -0.081238 0.000000 0.170141
# 5 0.003074 -0.006121 0.006748 0.000000 0.044757 0.000000
# 6 0.000000 0.000000 0.000000 0.170141 0.000000 0.819137
#
#
# Mechanical properties :
#
#
# Convention : Reuss Voigt Hill
#
# Bulk Modulus (GPa) = 32.72054 42.08934 37.40494
# Shear Modulus (GPa) = 5.46320 10.55004 8.00662
#
# Velocity S-wave (km/s) = 2.05435 2.85481 2.48700
# Velocity P-wave (km/s) = 5.55913 6.58642 6.09446
#
# Compressibility (1/GPa) = 0.03056184
#
# Stress axis : x y z
#
# Youngs Moduli (GPa) = 44.68366 27.96455 54.56305
#
# Poissons Ratio (x) = 0.20053 0.47397
# Poissons Ratio (y) = 0.32042 0.38711
# Poissons Ratio (z) = 0.38815 0.19840
#
# Static dielectric constant tensor:
#      x y z
#    x 2.513300 0.000000 -0.365030 
#    y 0.000000 2.550020 0.000000 
#    z -0.365030 0.000000 2.707600 
# 
# 
# High freq. dielectric constant tensor:
#      x y z
#    x 1.465130 0.000000 -0.046900 
#    y 0.000000 1.463790 0.000000 
#    z -0.046900 0.000000 1.488160 
# 
# From -- ./inp_files/12888.got.cif
#   From: 2010.06.25/outbox.cif.g09.slc.cpg/sg10_7_cif.got.tgz:12888.got - 2010.06.27 22:07:45.
