data_PCOD8059664
_publ_section_title
;
Structure prediction by ZEFSAII (Michael W. Deem and Ramdas Pophale) SiO2 
 PCOD8059664
Probable space group: P 2/M
;
_chemical_formula_sum "Si O2"
_cell_formula_units_Z 28
_cell_length_a 18.222253
_cell_length_b 8.700760
_cell_length_c 13.684160
_cell_angle_alpha 90.000000
_cell_angle_beta 48.875653
_cell_angle_gamma 90.000000
_cell_volume 1634.316396
_symmetry_space_group_name_H-M "P 2/M"
_symmetry_group_IT_number 10
_symmetry_cell_setting 'monoclinic'
loop_
_space_group_symop_operation_xyz
x,y,z
-x,y,-z
-x,-y,-z
x,-y,z
loop_
_atom_site_type_symbol
_atom_site_label
_atom_site_fract_x
_atom_site_fract_y
_atom_site_fract_z
Si Si1 0.715107 0.820590 0.250783
Si Si2 0.895890 0.331092 0.641362
Si Si3 0.025178 0.178646 0.248219
Si Si4 0.829403 0.680707 0.497013
Si Si5 0.667483 0.179681 0.511840
Si Si6 0.475068 0.672686 0.635149
Si Si7 0.088038 0.321073 0.993563
O O1 0.706910 0.769809 0.370961
O O2 0.633374 0.738830 0.255470
O O3 0.696612 0.000000 0.257363
O O4 0.820067 0.777779 0.119142
O O5 0.866177 0.500000 0.707636
O O6 0.900687 0.211809 0.726743
O O7 0.822705 0.277634 0.618860
O O8 0.000000 0.342852 0.500000
O O9 0.059586 0.280346 0.128064
O O10 0.914932 0.223776 0.370319
O O11 0.029698 0.000000 0.217247
O O12 0.851058 0.500000 0.464252
O O13 0.727093 0.725882 0.539859
O O14 0.554084 0.224742 0.623500
O O15 0.680711 0.000000 0.518970
O O16 0.500000 0.678856 0.500000
O O17 0.478808 0.500000 0.673081
O O18 0.113965 0.500000 0.962561
O O19 0.000000 0.275372 0.000000
#
# Coordination Sequence:
#
# PCOD8059664 Si02
#       7
#     4   4   4   4   4   4   4
#     4  10  20  33  48  68  96 127 160 198 238 278
#     4   8  16  31  48  66  91 123 157 193 233 279
#     4  11  21  32  48  69  95 126 159 197 238 280
#     4  10  19  31  48  70  97 127 158 194 236 282
#     4  10  19  30  47  72 100 126 154 195 242 282
#     4   9  17  30  48  68  92 124 160 194 232 282
#     4  11  23  36  50  68  93 128 166 198 230 275
#
# _framework density 17.132546000000001
#
# number of rings (size 3 to 8) (size 9 to 14) (size 15 to 20)
#    0.000    2.143    0.000    5.143    0.000   10.000 
#    0.000    0.000    0.000    0.000    0.000    1.000 
#    0.000    8.000    0.000    0.000    0.000    0.000 
#
# Total GULP energy -347196.448644 kJ/mol
# GULP energy per Si atom -12399.873166 kJ/mol
# Density = 1.709355 g / cm^3
# Si number density = 17.132546 Si / 1000 Ang^3
#
#
#
# Elastic Constant Matrix: (Units=GPa)
#
#
# Indices 1 2 3 4 5 6 
#
# 1 116.9410 25.7491 34.2899 0.0000 -3.9889 0.0000
# 2 25.7491 48.8804 8.1944 0.0000 0.7104 0.0000
# 3 34.2899 8.1944 45.1912 0.0000 -4.6048 0.0000
# 4 0.0000 0.0000 0.0000 25.0733 0.0000 -4.5042
# 5 -3.9889 0.7104 -4.6048 0.0000 22.3899 0.0000
# 6 0.0000 0.0000 0.0000 -4.5042 0.0000 28.2968
#
#
#
# Elastic Compliance Matrix: (Units=1/GPa)
#
#
# Indices 1 2 3 4 5 6 
#
# 1 0.012075 -0.004997 -0.008193 0.000000 0.000625 0.000000
# 2 -0.004997 0.023216 -0.000597 0.000000 -0.001749 0.000000
# 3 -0.008193 -0.000597 0.028912 0.000000 0.004505 0.000000
# 4 0.000000 0.000000 0.000000 0.041057 0.000000 0.006535
# 5 0.000625 -0.001749 0.004505 0.000000 0.045756 0.000000
# 6 0.000000 0.000000 0.000000 0.006535 0.000000 0.036380
#
#
# Mechanical properties :
#
#
# Convention : Reuss Voigt Hill
#
# Bulk Modulus (GPa) = 27.29931 38.60882 32.95406
# Shear Modulus (GPa) = 22.00920 24.67062 23.33991
#
# Velocity S-wave (km/s) = 3.58808 3.79883 3.69496
# Velocity P-wave (km/s) = 5.75626 6.46729 6.12210
#
# Compressibility (1/GPa) = 0.03663097
#
# Stress axis : x y z
#
# Youngs Moduli (GPa) = 82.81523 43.07443 34.58796
#
# Poissons Ratio (x) = 0.21522 0.28336
# Poissons Ratio (y) = 0.41379 0.02064
# Poissons Ratio (z) = 0.67847 0.02570
#
# Static dielectric constant tensor:
#      x y z
#    x 3.541490 0.000000 0.007100 
#    y 0.000000 3.235240 0.000000 
#    z 0.007100 0.000000 2.862440 
# 
# 
# High freq. dielectric constant tensor:
#      x y z
#    x 1.666380 0.000000 -0.006880 
#    y 0.000000 1.674140 0.000000 
#    z -0.006880 0.000000 1.615010 
# 
# From -- ./inp_files/57405.got.cif
#   From: 2010.06.25/outbox.cif.g09.slc.cpg/sg10_29_cif.got.tgz:57405.got - 2010.06.27 22:07:45.
