data_PCOD8059004
_publ_section_title
;
Structure prediction by ZEFSAII (Michael W. Deem and Ramdas Pophale) SiO2 
 PCOD8059004
Probable space group: P 2/M
;
_chemical_formula_sum "Si O2"
_cell_formula_units_Z 24
_cell_length_a 22.528685
_cell_length_b 14.254555
_cell_length_c 20.161996
_cell_angle_alpha 90.000000
_cell_angle_beta 167.614429
_cell_angle_gamma 90.000000
_cell_volume 1388.765079
_symmetry_space_group_name_H-M "P 2/M"
_symmetry_group_IT_number 10
_symmetry_cell_setting 'monoclinic'
loop_
_space_group_symop_operation_xyz
x,y,z
-x,y,-z
-x,-y,-z
x,-y,z
loop_
_atom_site_type_symbol
_atom_site_label
_atom_site_fract_x
_atom_site_fract_y
_atom_site_fract_z
Si Si1 0.705813 0.895366 0.309965
Si Si2 0.727565 0.105326 0.486678
Si Si3 0.834507 0.217524 0.259373
Si Si4 0.374699 0.271559 0.101688
Si Si5 0.187411 0.608670 0.142168
Si Si6 0.977948 0.285235 0.785998
O O1 0.805746 0.894311 0.494901
O O2 0.964262 0.863302 0.548323
O O3 0.622036 0.000000 0.196777
O O4 0.441347 0.828586 0.011005
O O5 0.429629 0.158323 0.169536
O O6 0.957963 0.171390 0.774410
O O7 0.717666 0.000000 0.505911
O O8 0.000000 0.269833 0.500000
O O9 0.758248 0.289584 0.116351
O O10 0.671521 0.324536 0.432723
O O11 0.177124 0.311943 0.942665
O O12 0.500000 0.635809 0.500000
O O13 0.158258 0.500000 0.091004
O O14 0.000000 0.635054 0.000000
O O15 0.090279 0.669960 0.974913
#
# Coordination Sequence:
#
# PCOD8059004 Si02
#       6
#     4   4   4   4   4   4
#     4  10  19  29  39  57  86 124 170 217 259 292
#     4   8  17  29  47  67  92 130 175 211 238 272
#     4  11  19  29  40  58  92 128 168 215 256 287
#     4   9  18  31  44  71  92 132 175 208 241 284
#     4  10  21  37  59  87 111 127 146 181 245 316
#     4  10  18  33  54  71 100 132 161 202 236 295
#
# _framework density 17.281541000000001
#
# number of rings (size 3 to 8) (size 9 to 14) (size 15 to 20)
#    1.000    1.333    1.667    2.000    0.000    3.333 
#    0.000    0.000    0.000    1.000    0.000    0.000 
#    0.000    4.000    0.000    0.000    0.000    0.000 
#
# Total GULP energy -297328.297361 kJ/mol
# GULP energy per Si atom -12388.679057 kJ/mol
# Density = 1.724221 g / cm^3
# Si number density = 17.281541 Si / 1000 Ang^3
#
#
#
# Elastic Constant Matrix: (Units=GPa)
#
#
# Indices 1 2 3 4 5 6 
#
# 1 105.2315 32.9048 71.9841 0.0000 -12.1654 0.0000
# 2 32.9048 32.9707 29.9460 0.0000 -16.5211 0.0000
# 3 71.9841 29.9460 119.6114 0.0000 -2.8246 0.0000
# 4 0.0000 0.0000 0.0000 58.0271 0.0000 -70.3360
# 5 -12.1654 -16.5211 -2.8246 0.0000 41.8659 0.0000
# 6 0.0000 0.0000 0.0000 -70.3360 0.0000 152.7442
#
#
#
# Elastic Compliance Matrix: (Units=1/GPa)
#
#
# Indices 1 2 3 4 5 6 
#
# 1 0.018808 -0.010541 -0.008663 0.000000 0.000721 0.000000
# 2 -0.010541 0.057215 -0.007532 0.000000 0.019007 0.000000
# 3 -0.008663 -0.007532 0.015354 0.000000 -0.004454 0.000000
# 4 0.000000 0.000000 0.000000 0.039004 0.000000 0.017961
# 5 0.000721 0.019007 -0.004454 0.000000 0.031295 0.000000
# 6 0.000000 0.000000 0.000000 0.017961 0.000000 0.014817
#
#
# Mechanical properties :
#
#
# Convention : Reuss Voigt Hill
#
# Bulk Modulus (GPa) = 26.38115 58.60927 42.49521
# Shear Modulus (GPa) = 20.60999 58.72602 39.66800
#
# Velocity S-wave (km/s) = 3.45715 5.83573 4.79623
# Velocity P-wave (km/s) = 5.58879 8.91042 7.43741
#
# Compressibility (1/GPa) = 0.03790585
#
# Stress axis : x y z
#
# Youngs Moduli (GPa) = 53.16786 17.47803 65.12768
#
# Poissons Ratio (x) = 0.18424 0.56421
# Poissons Ratio (y) = 0.56045 0.49052
# Poissons Ratio (z) = 0.46060 0.13164
#
# Static dielectric constant tensor:
#      x y z
#    x 3.169880 0.000000 0.031480 
#    y 0.000000 2.793280 0.000000 
#    z 0.031480 0.000000 3.304740 
# 
# 
# High freq. dielectric constant tensor:
#      x y z
#    x 1.667100 0.000000 0.011490 
#    y 0.000000 1.604460 0.000000 
#    z 0.011490 0.000000 1.680650 
# 
# From -- ./inp_files/91264.got.cif
#   From: 2010.06.25/outbox.cif.g09.slc.cpg/sg10_46_cif.got.tgz:91264.got - 2010.06.27 22:07:45.
