data_PCOD8059906
_publ_section_title
;
Structure prediction by ZEFSAII (Michael W. Deem and Ramdas Pophale) SiO2 
 PCOD8059906
Probable space group: P 2/M
;
_chemical_formula_sum "Si O2"
_cell_formula_units_Z 28
_cell_length_a 14.410894
_cell_length_b 14.177375
_cell_length_c 11.829985
_cell_angle_alpha 90.000000
_cell_angle_beta 40.739082
_cell_angle_gamma 90.000000
_cell_volume 1577.350656
_symmetry_space_group_name_H-M "P 2/M"
_symmetry_group_IT_number 10
_symmetry_cell_setting 'monoclinic'
loop_
_space_group_symop_operation_xyz
x,y,z
-x,y,-z
-x,-y,-z
x,-y,z
loop_
_atom_site_type_symbol
_atom_site_label
_atom_site_fract_x
_atom_site_fract_y
_atom_site_fract_z
Si Si1 0.086351 0.229140 0.733132
Si Si2 0.438960 0.889664 0.937174
Si Si3 0.315044 0.106027 0.457312
Si Si4 0.291052 0.393400 0.604432
Si Si5 0.762625 0.223127 0.010712
Si Si6 0.600512 0.392759 0.244402
Si Si7 0.784451 0.892001 0.214450
O O1 0.181586 0.174645 0.550211
O O2 0.158343 0.329197 0.693427
O O3 0.081615 0.162520 0.850494
O O4 0.927635 0.244885 0.836937
O O5 0.545542 0.861061 0.737464
O O6 0.291971 0.836603 0.046169
O O7 0.407120 0.000000 0.970519
O O8 0.500000 0.854028 0.000000
O O9 0.338753 0.110724 0.572920
O O10 0.274928 0.000000 0.456268
O O11 0.247772 0.500000 0.614409
O O12 0.434401 0.364582 0.405544
O O13 0.321166 0.383024 0.708602
O O14 0.678824 0.321926 0.087457
O O15 0.731843 0.163096 0.152758
O O16 0.614787 0.500000 0.186564
O O17 0.824439 0.000000 0.146379
#
# Coordination Sequence:
#
# PCOD8059906 Si02
#       7
#     4   4   4   4   4   4   4
#     4  10  19  31  47  77 110 139 166 206 256 309
#     4  10  22  39  55  73  99 134 180 224 256 297
#     4   8  17  33  51  70 101 135 164 204 252 304
#     4   9  17  30  47  69 105 146 174 201 245 306
#     4  12  21  30  52  78 105 139 172 210 261 304
#     4   9  18  31  48  72 103 141 177 206 245 304
#     4   9  19  31  47  73 108 138 164 200 250 309
#
# _framework density 17.751283999999998
#
# number of rings (size 3 to 8) (size 9 to 14) (size 15 to 20)
#    0.857    1.571    1.429    2.571    0.000    4.000 
#    0.000    4.286    0.000    3.000    0.000    0.000 
#    0.000    4.571    0.000    0.000    0.000    0.000 
#
# Total GULP energy -346948.750225 kJ/mol
# GULP energy per Si atom -12391.026794 kJ/mol
# Density = 1.771088 g / cm^3
# Si number density = 17.751284 Si / 1000 Ang^3
#
#
#
# Elastic Constant Matrix: (Units=GPa)
#
#
# Indices 1 2 3 4 5 6 
#
# 1 97.1242 42.8428 36.5688 0.0000 -19.5776 0.0000
# 2 42.8428 98.9638 31.5749 0.0000 -21.3473 0.0000
# 3 36.5688 31.5749 48.6551 0.0000 -22.5535 0.0000
# 4 0.0000 0.0000 0.0000 11.7374 0.0000 -0.9859
# 5 -19.5776 -21.3473 -22.5535 0.0000 18.7618 0.0000
# 6 0.0000 0.0000 0.0000 -0.9859 0.0000 19.8067
#
#
#
# Elastic Compliance Matrix: (Units=1/GPa)
#
#
# Indices 1 2 3 4 5 6 
#
# 1 0.015418 -0.003586 -0.008344 0.000000 0.001978 0.000000
# 2 -0.003586 0.014523 -0.001817 0.000000 0.010599 0.000000
# 3 -0.008344 -0.001817 0.051964 0.000000 0.051692 0.000000
# 4 0.000000 0.000000 0.000000 0.085555 0.000000 0.004258
# 5 0.001978 0.010599 0.051692 0.000000 0.129561 0.000000
# 6 0.000000 0.000000 0.000000 0.004258 0.000000 0.050700
#
#
# Mechanical properties :
#
#
# Convention : Reuss Voigt Hill
#
# Bulk Modulus (GPa) = 18.37835 51.85733 35.11784
# Shear Modulus (GPa) = 12.71122 18.97831 15.84476
#
# Velocity S-wave (km/s) = 2.67886 3.27329 2.99088
# Velocity P-wave (km/s) = 4.46588 6.60020 5.63501
#
# Compressibility (1/GPa) = 0.05441185
#
# Stress axis : x y z
#
# Youngs Moduli (GPa) = 64.85776 68.85673 19.24391
#
# Poissons Ratio (x) = 0.24691 0.16058
# Poissons Ratio (y) = 0.23257 0.03496
# Poissons Ratio (z) = 0.54120 0.12510
#
# Static dielectric constant tensor:
#      x y z
#    x 2.871330 0.000000 -0.108320 
#    y 0.000000 3.432750 0.000000 
#    z -0.108320 0.000000 3.096480 
# 
# 
# High freq. dielectric constant tensor:
#      x y z
#    x 1.638200 0.000000 -0.023670 
#    y 0.000000 1.696970 0.000000 
#    z -0.023670 0.000000 1.667510 
# 
# From -- ./inp_files/51386.got.cif
#   From: 2010.06.25/outbox.cif.g09.slc.cpg/sg10_26_cif.got.tgz:51386.got - 2010.06.27 22:07:45.
