data_PCOD8059831
_publ_section_title
;
Structure prediction by ZEFSAII (Michael W. Deem and Ramdas Pophale) SiO2 
 PCOD8059831
Probable space group: P 2/M
;
_chemical_formula_sum "Si O2"
_cell_formula_units_Z 28
_cell_length_a 31.781261
_cell_length_b 8.620998
_cell_length_c 31.781145
_cell_angle_alpha 90.000000
_cell_angle_beta 9.432604
_cell_angle_gamma 90.000000
_cell_volume 1427.064558
_symmetry_space_group_name_H-M "P 2/M"
_symmetry_group_IT_number 10
_symmetry_cell_setting 'monoclinic'
loop_
_space_group_symop_operation_xyz
x,y,z
-x,y,-z
-x,-y,-z
x,-y,z
loop_
_atom_site_type_symbol
_atom_site_label
_atom_site_fract_x
_atom_site_fract_y
_atom_site_fract_z
Si Si1 0.452004 0.185070 0.452336
Si Si2 0.165841 0.684254 0.166579
Si Si3 0.594915 0.815501 0.595963
Si Si4 0.738035 0.314989 0.737991
Si Si5 0.024034 0.185028 0.023673
Si Si6 0.309960 0.684585 0.309239
Si Si7 0.119105 0.815804 0.120216
O O1 0.428370 0.250107 0.428330
O O2 0.713880 0.248539 0.214482
O O3 0.451932 0.000000 0.452179
O O4 0.213889 0.248531 0.714412
O O5 0.164925 0.500000 0.165639
O O6 0.928356 0.747214 0.428387
O O7 0.143136 0.749337 0.142666
O O8 0.427279 0.747167 0.929590
O O9 0.857304 0.752969 0.357654
O O10 0.594522 0.000000 0.595321
O O11 0.355906 0.753044 0.858884
O O12 0.737987 0.500000 0.737783
O O13 0.714227 0.249966 0.714161
O O14 0.000000 0.251394 0.500000
O O15 0.500000 0.251455 0.000000
O O16 0.023930 0.000000 0.023609
O O17 0.000000 0.248898 0.000000
O O18 0.309366 0.500000 0.308888
O O19 0.120127 0.000000 0.121356
#
# Coordination Sequence:
#
# PCOD8059831 Si02
#       7
#     4   4   4   4   4   4   4
#     4   9  15  23  34  48  69  98 133 169 205 244
#     4  10  19  31  46  64  89 118 144 172 214 261
#     4   9  17  28  42  59  79 106 141 182 219 250
#     4   9  15  23  37  58  85 114 140 168 205 246
#     4   9  15  21  30  46  69  98 133 169 200 239
#     4   9  17  28  42  62  89 118 144 172 209 256
#     4  10  19  31  46  64  85 109 145 186 216 247
#
# _framework density 19.620697
#
# number of rings (size 3 to 8) (size 9 to 14) (size 15 to 20)
#    0.000    2.714    0.000    3.000    0.000    8.571 
#    0.000    0.000    0.000    0.000    0.000    0.000 
#    0.000   11.429    0.000    0.000    0.000   50.000 
#
# Total GULP energy -347197.766996 kJ/mol
# GULP energy per Si atom -12399.920250 kJ/mol
# Density = 1.957604 g / cm^3
# Si number density = 19.620697 Si / 1000 Ang^3
#
#
#
# Elastic Constant Matrix: (Units=GPa)
#
#
# Indices 1 2 3 4 5 6 
#
# 1 233.5385 7.5124 131.1304 0.0000 0.1490 0.0000
# 2 7.5124 3.2270 8.3628 0.0000 -0.0736 0.0000
# 3 131.1304 8.3628 234.5696 0.0000 -0.2799 0.0000
# 4 0.0000 0.0000 0.0000 4.3815 0.0000 1.5928
# 5 0.1490 -0.0736 -0.2799 0.0000 50.3054 0.0000
# 6 0.0000 0.0000 0.0000 1.5928 0.0000 22.5610
#
#
#
# Elastic Compliance Matrix: (Units=1/GPa)
#
#
# Indices 1 2 3 4 5 6 
#
# 1 0.006350 -0.006152 -0.003330 0.000000 -0.000046 0.000000
# 2 -0.006152 0.347398 -0.008945 0.000000 0.000477 0.000000
# 3 -0.003330 -0.008945 0.006444 0.000000 0.000033 0.000000
# 4 0.000000 0.000000 0.000000 0.234246 0.000000 -0.016537
# 5 -0.000046 0.000477 0.000033 0.000000 0.019880 0.000000
# 6 0.000000 0.000000 0.000000 -0.016537 0.000000 0.045492
#
#
# Mechanical properties :
#
#
# Convention : Reuss Voigt Hill
#
# Bulk Modulus (GPa) = 3.09276 85.03849 44.06562
# Shear Modulus (GPa) = 6.21546 37.07155 21.64351
#
# Velocity S-wave (km/s) = 1.78177 4.35145 3.32489
# Velocity P-wave (km/s) = 2.41094 8.28747 6.10306
#
# Compressibility (1/GPa) = 0.32333562
#
# Stress axis : x y z
#
# Youngs Moduli (GPa) = 157.48189 2.87854 155.18526
#
# Poissons Ratio (x) = 0.01771 0.51684
# Poissons Ratio (y) = 0.96890 1.38819
# Poissons Ratio (z) = 0.52449 0.02575
#
# Static dielectric constant tensor:
#      x y z
#    x 3.799530 0.000000 -0.019070 
#    y 0.000000 2.724120 0.000000 
#    z -0.019070 0.000000 4.015050 
# 
# 
# High freq. dielectric constant tensor:
#      x y z
#    x 1.785940 0.000000 -0.000140 
#    y 0.000000 1.675150 0.000000 
#    z -0.000140 0.000000 1.787510 
# 
# From -- ./inp_files/13565.got.cif
#   From: 2010.06.25/outbox.cif.g09.slc.cpg/sg10_7_cif.got.tgz:13565.got - 2010.06.27 22:07:45.
