data_PCOD8059231
_publ_section_title
;
Structure prediction by ZEFSAII (Michael W. Deem and Ramdas Pophale) SiO2 
 PCOD8059231
Probable space group: P 2/M
;
_chemical_formula_sum "Si O2"
_cell_formula_units_Z 24
_cell_length_a 17.966189
_cell_length_b 7.738452
_cell_length_c 23.973092
_cell_angle_alpha 90.000000
_cell_angle_beta 159.343806
_cell_angle_gamma 90.000000
_cell_volume 1175.744281
_symmetry_space_group_name_H-M "P 2/M"
_symmetry_group_IT_number 10
_symmetry_cell_setting 'monoclinic'
loop_
_space_group_symop_operation_xyz
x,y,z
-x,y,-z
-x,-y,-z
x,-y,z
loop_
_atom_site_type_symbol
_atom_site_label
_atom_site_fract_x
_atom_site_fract_y
_atom_site_fract_z
Si Si1 0.880717 0.794728 0.626152
Si Si2 0.915213 0.304561 0.772069
Si Si3 0.499335 0.300855 0.282771
Si Si4 0.750613 0.000000 0.836918
Si Si5 0.699175 0.000000 0.678007
Si Si6 0.401917 0.695849 0.094396
Si Si7 0.650582 0.804775 0.059644
O O1 0.810523 0.733196 0.638387
O O2 0.721506 0.717888 0.469386
O O3 0.115855 0.718971 0.778416
O O4 0.877182 0.000000 0.621329
O O5 0.860399 0.500000 0.751914
O O6 0.830268 0.174062 0.758934
O O7 0.162007 0.269697 0.943044
O O8 0.418584 0.500000 0.230734
O O9 0.319721 0.173317 0.180360
O O10 0.538924 0.253519 0.245040
O O11 0.627389 0.000000 0.691774
O O12 0.000000 0.000000 0.000000
O O13 0.500000 0.000000 0.500000
O O14 0.440964 0.500000 0.104186
O O15 0.457971 0.802785 0.077962
O O16 0.682555 0.000000 0.101696
O O17 0.500000 0.711512 0.000000
#
# Coordination Sequence:
#
# PCOD8059231 Si02
#       7
#     4   4   4   2   2   4   4
#     4  10  18  35  60  84 115 154 197 235 282 341
#     4  10  20  37  58  79 108 147 188 235 283 334
#     4  11  23  40  60  85 116 153 198 237 280 345
#     4  12  26  40  60  86 115 153 188 237 305 342
#     4  12  24  36  54  82 111 139 188 231 285 352
#     4   9  20  36  58  83 107 148 194 227 275 340
#     4   9  19  34  58  91 120 149 188 236 286 336
#
# _framework density 20.412603000000001
#
# number of rings (size 3 to 8) (size 9 to 14) (size 15 to 20)
#    0.000    1.833    1.667    2.500    2.333    2.333 
#    0.000    0.833    0.000    5.000    0.000    0.000 
#    0.000    0.000    0.000    0.000    0.000    0.000 
#
# Total GULP energy -297522.624837 kJ/mol
# GULP energy per Si atom -12396.776035 kJ/mol
# Density = 2.036614 g / cm^3
# Si number density = 20.412603 Si / 1000 Ang^3
#
#
#
# Elastic Constant Matrix: (Units=GPa)
#
#
# Indices 1 2 3 4 5 6 
#
# 1 112.8418 42.6337 29.5499 0.0000 -9.8840 0.0000
# 2 42.6337 100.6590 10.5256 0.0000 5.4584 0.0000
# 3 29.5499 10.5256 70.7166 0.0000 -20.4903 0.0000
# 4 0.0000 0.0000 0.0000 21.9282 0.0000 -6.0857
# 5 -9.8840 5.4584 -20.4903 0.0000 34.1559 0.0000
# 6 0.0000 0.0000 0.0000 -6.0857 0.0000 15.0877
#
#
#
# Elastic Compliance Matrix: (Units=1/GPa)
#
#
# Indices 1 2 3 4 5 6 
#
# 1 0.011769 -0.004710 -0.003645 0.000000 0.001972 0.000000
# 2 -0.004710 0.012245 -0.000988 0.000000 -0.003913 0.000000
# 3 -0.003645 -0.000988 0.018823 0.000000 0.010395 0.000000
# 4 0.000000 0.000000 0.000000 0.051352 0.000000 0.020713
# 5 0.001972 -0.003913 0.010395 0.000000 0.036709 0.000000
# 6 0.000000 0.000000 0.000000 0.020713 0.000000 0.074634
#
#
# Mechanical properties :
#
#
# Convention : Reuss Voigt Hill
#
# Bulk Modulus (GPa) = 41.40837 49.95951 45.68394
# Shear Modulus (GPa) = 21.52667 27.66825 24.59746
#
# Velocity S-wave (km/s) = 3.25095 3.68564 3.47510
# Velocity P-wave (km/s) = 5.86697 6.52992 6.20730
#
# Compressibility (1/GPa) = 0.02414970
#
# Stress axis : x y z
#
# Youngs Moduli (GPa) = 84.96918 81.66544 53.12554
#
# Poissons Ratio (x) = 0.38468 0.19367
# Poissons Ratio (y) = 0.40024 0.05249
# Poissons Ratio (z) = 0.30975 0.08068
#
# Static dielectric constant tensor:
#      x y z
#    x 3.962560 0.000000 -0.105680 
#    y 0.000000 3.561580 0.000000 
#    z -0.105680 0.000000 3.944010 
# 
# 
# High freq. dielectric constant tensor:
#      x y z
#    x 1.791650 0.000000 -0.021240 
#    y 0.000000 1.800790 0.000000 
#    z -0.021240 0.000000 1.786320 
# 
# From -- ./inp_files/33810.got.cif
#   From: 2010.06.25/outbox.cif.g09.slc.cpg/sg10_17_cif.got.tgz:33810.got - 2010.06.27 22:07:45.
