data_PCOD8059291
_publ_section_title
;
Structure prediction by ZEFSAII (Michael W. Deem and Ramdas Pophale) SiO2 
 PCOD8059291
Probable space group: P 2/M
;
_chemical_formula_sum "Si O2"
_cell_formula_units_Z 26
_cell_length_a 27.562301
_cell_length_b 10.724421
_cell_length_c 5.165402
_cell_angle_alpha 90.000000
_cell_angle_beta 67.888249
_cell_angle_gamma 90.000000
_cell_volume 1414.542881
_symmetry_space_group_name_H-M "P 2/M"
_symmetry_group_IT_number 10
_symmetry_cell_setting 'monoclinic'
loop_
_space_group_symop_operation_xyz
x,y,z
-x,y,-z
-x,-y,-z
x,-y,z
loop_
_atom_site_type_symbol
_atom_site_label
_atom_site_fract_x
_atom_site_fract_y
_atom_site_fract_z
Si Si1 0.613267 0.271317 0.995116
Si Si2 0.204532 0.357951 0.835036
Si Si3 0.535579 0.500000 0.178739
Si Si4 0.385993 0.000000 0.916461
Si Si5 0.683381 0.266725 0.353535
Si Si6 0.851158 0.649298 0.553000
Si Si7 0.322430 0.000000 0.544113
Si Si8 0.030214 0.351434 0.689347
O O1 0.569754 0.375458 0.114583
O O2 0.585633 0.132901 0.075464
O O3 0.657084 0.288476 0.128134
O O4 0.640191 0.289547 0.662052
O O5 0.186227 0.500000 0.869512
O O6 0.267571 0.357081 0.713279
O O7 0.180251 0.294450 0.628701
O O8 0.178779 0.294178 0.138135
O O9 0.500000 0.500000 0.500000
O O10 0.500000 0.500000 0.000000
O O11 0.372943 0.000000 0.637105
O O12 0.336120 0.000000 0.211626
O O13 0.708120 0.126945 0.327412
O O14 0.849427 0.500000 0.557908
O O15 0.910521 0.699003 0.429528
O O16 0.030395 0.500000 0.689120
O O17 0.000000 0.299555 0.500000
O O18 0.000000 0.299452 0.000000
#
# Coordination Sequence:
#
# PCOD8059291 Si02
#       8
#     4   4   2   2   4   4   2   4
#     4  10  21  36  58  75 103 129 167 205 240 293
#     4  10  19  27  41  63  96 124 153 182 232 293
#     4  12  26  42  56  80 110 136 162 208 258 282
#     4   8  16  34  54  79  96 128 162 201 242 282
#     4  10  19  33  53  77  96 130 165 196 237 287
#     4   9  17  28  36  55  89 124 150 196 240 275
#     4   8  16  30  50  73 100 120 158 205 236 272
#     4   9  15  23  37  52  70 109 164 200 227 272
#
# _framework density 18.380496999999998
#
# number of rings (size 3 to 8) (size 9 to 14) (size 15 to 20)
#    0.000    2.462    0.000    2.769    2.154    3.692 
#    0.000    0.769    0.000    0.000    0.000    0.000 
#    0.000    0.000    0.000   13.846    0.000    6.154 
#
# Total GULP energy -322179.360917 kJ/mol
# GULP energy per Si atom -12391.513881 kJ/mol
# Density = 1.833866 g / cm^3
# Si number density = 18.380497 Si / 1000 Ang^3
#
#
#
# Elastic Constant Matrix: (Units=GPa)
#
#
# Indices 1 2 3 4 5 6 
#
# 1 110.2251 31.2535 46.5790 0.0000 11.1721 0.0000
# 2 31.2535 60.6819 26.4938 0.0000 -5.9039 0.0000
# 3 46.5790 26.4938 128.8130 0.0000 12.0202 0.0000
# 4 0.0000 0.0000 0.0000 10.4379 0.0000 6.5868
# 5 11.1721 -5.9039 12.0202 0.0000 37.2018 0.0000
# 6 0.0000 0.0000 0.0000 6.5868 0.0000 4.3163
#
#
#
# Elastic Compliance Matrix: (Units=1/GPa)
#
#
# Indices 1 2 3 4 5 6 
#
# 1 0.012204 -0.005327 -0.002987 0.000000 -0.003545 0.000000
# 2 -0.005327 0.021091 -0.002963 0.000000 0.005904 0.000000
# 3 -0.002987 -0.002963 0.009705 0.000000 -0.002709 0.000000
# 4 0.000000 0.000000 0.000000 2.588884 0.000000 -3.950706
# 5 -0.003545 0.005904 -0.002709 0.000000 0.029757 0.000000
# 6 0.000000 0.000000 0.000000 -3.950706 0.000000 6.260562
#
#
# Mechanical properties :
#
#
# Convention : Reuss Voigt Hill
#
# Bulk Modulus (GPa) = 48.90373 56.48586 52.69479
# Shear Modulus (GPa) = 0.55856 23.41744 11.98800
#
# Velocity S-wave (km/s) = 0.55186 3.57324 2.55662
# Velocity P-wave (km/s) = 5.20290 6.91536 6.11933
#
# Compressibility (1/GPa) = 0.02044834
#
# Stress axis : x y z
#
# Youngs Moduli (GPa) = 81.93974 47.41423 103.03617
#
# Poissons Ratio (x) = 0.25255 0.30773
# Poissons Ratio (y) = 0.43646 0.30527
# Poissons Ratio (z) = 0.24472 0.14047
#
# Static dielectric constant tensor:
#      x y z
#    x 3.321540 0.000000 0.297320 
#    y 0.000000 3.271090 0.000000 
#    z 0.297320 0.000000 3.584060 
# 
# 
# High freq. dielectric constant tensor:
#      x y z
#    x 1.702610 0.000000 0.025500 
#    y 0.000000 1.667090 0.000000 
#    z 0.025500 0.000000 1.727450 
# 
# From -- ./inp_files/12361.got.cif
#   From: 2010.06.25/outbox.cif.g09.slc.cpg/sg10_7_cif.got.tgz:12361.got - 2010.06.27 22:07:45.
