data_PCOD8059554
_publ_section_title
;
Structure prediction by ZEFSAII (Michael W. Deem and Ramdas Pophale) SiO2 
 PCOD8059554
Probable space group: P 2/M
;
_chemical_formula_sum "Si O2"
_cell_formula_units_Z 24
_cell_length_a 13.254076
_cell_length_b 10.093967
_cell_length_c 26.201521
_cell_angle_alpha 90.000000
_cell_angle_beta 24.603729
_cell_angle_gamma 90.000000
_cell_volume 1459.438988
_symmetry_space_group_name_H-M "P 2/M"
_symmetry_group_IT_number 10
_symmetry_cell_setting 'monoclinic'
loop_
_space_group_symop_operation_xyz
x,y,z
-x,y,-z
-x,-y,-z
x,-y,z
loop_
_atom_site_type_symbol
_atom_site_label
_atom_site_fract_x
_atom_site_fract_y
_atom_site_fract_z
Si Si1 0.678936 0.149092 0.265338
Si Si2 0.450940 0.352012 0.209569
Si Si3 0.881558 0.846541 0.999583
Si Si4 0.250333 0.743157 0.405182
Si Si5 0.403255 0.844067 0.488715
Si Si6 0.064057 0.646968 0.594879
O O1 0.449828 0.151164 0.331912
O O2 0.606138 0.204868 0.354550
O O3 0.758972 0.000000 0.235297
O O4 0.920611 0.216196 0.130996
O O5 0.556651 0.500000 0.152731
O O6 0.643631 0.241981 0.104899
O O7 0.369891 0.343536 0.305741
O O8 0.221907 0.327343 0.278292
O O9 0.812557 0.000000 0.020269
O O10 0.000000 0.833683 0.000000
O O11 0.188156 0.651044 0.482021
O O12 0.000000 0.812182 0.500000
O O13 0.500000 0.811686 0.500000
O O14 0.163254 0.758283 0.588183
O O15 0.342473 0.000000 0.509698
O O16 0.114398 0.500000 0.593927
#
# Coordination Sequence:
#
# PCOD8059554 Si02
#       6
#     4   4   4   4   4   4
#     4   9  17  30  45  66  95 123 153 190 230 273
#     4  10  19  30  45  67  96 128 160 191 223 267
#     4  10  19  31  45  64  95 131 161 188 222 269
#     4   9  16  27  43  65  94 126 155 186 226 273
#     4   9  18  33  53  74  93 115 150 197 241 279
#     4   9  18  31  47  69  96 123 153 191 235 279
#
# _framework density 16.444675
#
# number of rings (size 3 to 8) (size 9 to 14) (size 15 to 20)
#    0.000    2.667    1.667    0.500    0.000    3.667 
#    0.000    4.167    0.000    1.000    0.000    7.000 
#    0.000    0.000    0.000    0.000    0.000    0.000 
#
# Total GULP energy -297360.018267 kJ/mol
# GULP energy per Si atom -12390.000761 kJ/mol
# Density = 1.640725 g / cm^3
# Si number density = 16.444675 Si / 1000 Ang^3
#
#
#
# Elastic Constant Matrix: (Units=GPa)
#
#
# Indices 1 2 3 4 5 6 
#
# 1 94.3598 44.6846 45.8099 0.0000 -6.4889 0.0000
# 2 44.6846 77.2208 55.2749 0.0000 -7.5096 0.0000
# 3 45.8099 55.2749 114.6995 0.0000 -3.4709 0.0000
# 4 0.0000 0.0000 0.0000 25.1750 0.0000 -6.1400
# 5 -6.4889 -7.5096 -3.4709 0.0000 14.8055 0.0000
# 6 0.0000 0.0000 0.0000 -6.1400 0.0000 18.0718
#
#
#
# Elastic Compliance Matrix: (Units=1/GPa)
#
#
# Indices 1 2 3 4 5 6 
#
# 1 0.015264 -0.006509 -0.002877 0.000000 0.002714 0.000000
# 2 -0.006509 0.023494 -0.008509 0.000000 0.007069 0.000000
# 3 -0.002877 -0.008509 0.013898 0.000000 -0.002319 0.000000
# 4 0.000000 0.000000 0.000000 0.043311 0.000000 0.014715
# 5 0.002714 0.007069 -0.002319 0.000000 0.071774 0.000000
# 6 0.000000 0.000000 0.000000 0.014715 0.000000 0.060334
#
#
# Mechanical properties :
#
#
# Convention : Reuss Voigt Hill
#
# Bulk Modulus (GPa) = 59.29085 64.20210 61.74647
# Shear Modulus (GPa) = 18.55382 20.97784 19.76583
#
# Velocity S-wave (km/s) = 3.36260 3.57552 3.47069
# Velocity P-wave (km/s) = 7.15605 7.49478 7.32738
#
# Compressibility (1/GPa) = 0.01686601
#
# Stress axis : x y z
#
# Youngs Moduli (GPa) = 65.51556 42.56347 71.95365
#
# Poissons Ratio (x) = 0.27704 0.20703
# Poissons Ratio (y) = 0.42644 0.61223
# Poissons Ratio (z) = 0.18851 0.36216
#
# Static dielectric constant tensor:
#      x y z
#    x 2.952400 0.000000 0.057410 
#    y 0.000000 2.958510 0.000000 
#    z 0.057410 0.000000 3.310480 
# 
# 
# High freq. dielectric constant tensor:
#      x y z
#    x 1.606310 0.000000 -0.000290 
#    y 0.000000 1.619670 0.000000 
#    z -0.000290 0.000000 1.632350 
# 
# From -- ./inp_files/24023.got.cif
#   From: 2010.06.25/outbox.cif.g09.slc.cpg/sg10_13_cif.got.tgz:24023.got - 2010.06.27 22:07:45.
