data_PCOD8059522
_publ_section_title
;
Structure prediction by ZEFSAII (Michael W. Deem and Ramdas Pophale) SiO2 
 PCOD8059522
Probable space group: P 2/M
;
_chemical_formula_sum "Si O2"
_cell_formula_units_Z 28
_cell_length_a 13.454701
_cell_length_b 22.831372
_cell_length_c 5.149662
_cell_angle_alpha 90.000000
_cell_angle_beta 96.529035
_cell_angle_gamma 90.000000
_cell_volume 1571.661214
_symmetry_space_group_name_H-M "P 2/M"
_symmetry_group_IT_number 10
_symmetry_cell_setting 'monoclinic'
loop_
_space_group_symop_operation_xyz
x,y,z
-x,y,-z
-x,-y,-z
x,-y,z
loop_
_atom_site_type_symbol
_atom_site_label
_atom_site_fract_x
_atom_site_fract_y
_atom_site_fract_z
Si Si1 0.730245 0.772498 0.578148
Si Si2 0.266536 0.633922 0.419705
Si Si3 0.118182 0.865811 0.522402
Si Si4 0.118708 0.065298 0.025434
Si Si5 0.388800 0.227764 0.953547
Si Si6 0.612109 0.366653 0.038303
Si Si7 0.935386 0.433903 0.737476
O O1 0.749502 0.703450 0.583812
O O2 0.835010 0.803304 0.540426
O O3 0.653487 0.792433 0.333850
O O4 0.682906 0.794417 0.835441
O O5 0.322406 0.612066 0.696612
O O6 0.158748 0.606256 0.349984
O O7 0.334387 0.611348 0.204699
O O8 0.154666 0.911390 0.314256
O O9 0.000000 0.856063 0.500000
O O10 0.156509 0.891588 0.808086
O O11 0.161906 0.000000 0.992024
O O12 0.000000 0.062936 0.000000
O O13 0.395542 0.297252 0.967499
O O14 0.500000 0.200607 0.000000
O O15 0.500000 0.393465 0.000000
O O16 0.900029 0.500000 0.792615
O O17 0.000000 0.432850 0.500000
O O18 0.000000 0.409095 0.000000
#
# Coordination Sequence:
#
# PCOD8059522 Si02
#       7
#     4   4   4   4   4   4   4
#     4  10  19  30  46  72 101 126 154 189 240 297
#     4  10  19  32  51  73  98 130 162 198 245 293
#     4  10  19  30  44  67 100 129 151 187 234 278
#     4   9  17  30  47  64  87 125 166 195 223 266
#     4   9  17  30  47  67  94 126 160 197 232 274
#     4   9  17  30  50  74  98 126 158 193 242 300
#     4  10  21  37  55  73  94 127 174 217 242 269
#
# _framework density 17.815546000000001
#
# number of rings (size 3 to 8) (size 9 to 14) (size 15 to 20)
#    0.000    2.429    0.000    3.000    0.000    5.714 
#    0.000    2.143    0.000    2.571    0.000    0.000 
#    0.000   40.000    0.000    0.000    0.000    0.000 
#
# Total GULP energy -347106.876657 kJ/mol
# GULP energy per Si atom -12396.674166 kJ/mol
# Density = 1.777500 g / cm^3
# Si number density = 17.815546 Si / 1000 Ang^3
#
#
#
# Elastic Constant Matrix: (Units=GPa)
#
#
# Indices 1 2 3 4 5 6 
#
# 1 103.2652 43.8561 50.8835 0.0000 2.5765 0.0000
# 2 43.8561 49.6052 31.3161 0.0000 0.0171 0.0000
# 3 50.8835 31.3161 145.1359 0.0000 -0.7211 0.0000
# 4 0.0000 0.0000 0.0000 17.0719 0.0000 -1.9853
# 5 2.5765 0.0171 -0.7211 0.0000 29.2405 0.0000
# 6 0.0000 0.0000 0.0000 -1.9853 0.0000 1.3813
#
#
#
# Elastic Compliance Matrix: (Units=1/GPa)
#
#
# Indices 1 2 3 4 5 6 
#
# 1 0.016680 -0.012792 -0.003095 0.000000 -0.001539 0.000000
# 2 -0.012792 0.033150 -0.002663 0.000000 0.001042 0.000000
# 3 -0.003095 -0.002663 0.008552 0.000000 0.000485 0.000000
# 4 0.000000 0.000000 0.000000 0.070331 0.000000 0.101089
# 5 -0.001539 0.001042 0.000485 0.000000 0.034346 0.000000
# 6 0.000000 0.000000 0.000000 0.101089 0.000000 0.869279
#
#
# Mechanical properties :
#
#
# Convention : Reuss Voigt Hill
#
# Bulk Modulus (GPa) = 46.98972 61.12418 54.05695
# Shear Modulus (GPa) = 4.64454 21.00211 12.82332
#
# Velocity S-wave (km/s) = 1.61638 3.43718 2.68579
# Velocity P-wave (km/s) = 5.46960 7.08070 6.32664
#
# Compressibility (1/GPa) = 0.02128125
#
# Stress axis : x y z
#
# Youngs Moduli (GPa) = 59.95093 30.16626 116.92847
#
# Poissons Ratio (x) = 0.38590 0.36194
# Poissons Ratio (y) = 0.76692 0.31134
# Poissons Ratio (z) = 0.18557 0.08032
#
# Static dielectric constant tensor:
#      x y z
#    x 3.178650 0.000000 0.005080 
#    y 0.000000 3.100040 0.000000 
#    z 0.005080 0.000000 3.658080 
# 
# 
# High freq. dielectric constant tensor:
#      x y z
#    x 1.675850 0.000000 -0.004010 
#    y 0.000000 1.650860 0.000000 
#    z -0.004010 0.000000 1.714810 
# 
# From -- ./inp_files/7574.got.cif
#   From: 2010.06.25/outbox.cif.g09.slc.cpg/sg10_4_cif.got.tgz:7574.got - 2010.06.27 22:07:45.
