data_PCOD8059798
_publ_section_title
;
Structure prediction by ZEFSAII (Michael W. Deem and Ramdas Pophale) SiO2 
 PCOD8059798
Probable space group: P 2/M
;
_chemical_formula_sum "Si O2"
_cell_formula_units_Z 24
_cell_length_a 13.996199
_cell_length_b 9.254115
_cell_length_c 10.211656
_cell_angle_alpha 90.000000
_cell_angle_beta 90.122195
_cell_angle_gamma 90.000000
_cell_volume 1322.635544
_symmetry_space_group_name_H-M "P 2/M"
_symmetry_group_IT_number 10
_symmetry_cell_setting 'monoclinic'
loop_
_space_group_symop_operation_xyz
x,y,z
-x,y,-z
-x,-y,-z
x,-y,z
loop_
_atom_site_type_symbol
_atom_site_label
_atom_site_fract_x
_atom_site_fract_y
_atom_site_fract_z
Si Si1 0.743085 0.671811 0.285229
Si Si2 0.063694 0.672026 0.116721
Si Si3 0.559687 0.170066 0.371992
Si Si4 0.264387 0.670804 0.016087
Si Si5 0.563823 0.838993 0.873064
Si Si6 0.045986 0.328002 0.633209
O O1 0.731741 0.500000 0.294501
O O2 0.660281 0.746018 0.370757
O O3 0.844726 0.723056 0.345250
O O4 0.736065 0.725220 0.134315
O O5 0.058862 0.500000 0.116345
O O6 0.170791 0.725808 0.091971
O O7 0.021740 0.733236 0.252020
O O8 0.000000 0.735298 0.000000
O O9 0.500000 0.213238 0.500000
O O10 0.497793 0.221390 0.247633
O O11 0.581555 0.000000 0.366782
O O12 0.271884 0.500000 0.016367
O O13 0.349540 0.732384 0.102238
O O14 0.602111 0.000000 0.841025
O O15 0.500000 0.842584 0.000000
O O16 0.044216 0.500000 0.633185
O O17 0.000000 0.265664 0.500000
#
# Coordination Sequence:
#
# PCOD8059798 Si02
#       6
#     4   4   4   4   4   4
#     4  10  19  32  53  80 106 134 171 216 261 299
#     4   9  15  27  46  69  99 133 167 201 244 300
#     4  10  22  39  56  74 101 139 175 208 258 319
#     4  10  19  30  52  82 106 134 173 216 257 296
#     4  10  20  35  54  75  99 133 175 213 253 306
#     4   9  17  29  47  73 105 137 168 205 251 305
#
# _framework density 18.145588
#
# number of rings (size 3 to 8) (size 9 to 14) (size 15 to 20)
#    0.000    2.333    3.333    0.000    0.000    2.667 
#    0.000    1.667    0.000    2.000    0.000    0.000 
#    0.000    0.000    0.000    0.000    0.000    0.000 
#
# Total GULP energy -297558.255565 kJ/mol
# GULP energy per Si atom -12398.260649 kJ/mol
# Density = 1.810429 g / cm^3
# Si number density = 18.145588 Si / 1000 Ang^3
#
#
#
# Elastic Constant Matrix: (Units=GPa)
#
#
# Indices 1 2 3 4 5 6 
#
# 1 154.5188 32.9737 70.4713 0.0000 -6.7313 0.0000
# 2 32.9737 19.9450 17.9452 0.0000 -3.8929 0.0000
# 3 70.4713 17.9452 136.9332 0.0000 -4.5823 0.0000
# 4 0.0000 0.0000 0.0000 20.0696 0.0000 -3.5035
# 5 -6.7313 -3.8929 -4.5823 0.0000 35.7927 0.0000
# 6 0.0000 0.0000 0.0000 -3.5035 0.0000 -7.1498
#
#
#
# Elastic Compliance Matrix: (Units=1/GPa)
#
#
# Indices 1 2 3 4 5 6 
#
# 1 0.011598 -0.015653 -0.003918 0.000000 -0.000023 0.000000
# 2 -0.015653 0.078967 -0.002113 0.000000 0.005374 0.000000
# 3 -0.003918 -0.002113 0.009605 0.000000 0.000263 0.000000
# 4 0.000000 0.000000 0.000000 0.045900 0.000000 -0.022492
# 5 -0.000023 0.005374 0.000263 0.000000 0.028553 0.000000
# 6 0.000000 0.000000 0.000000 -0.022492 0.000000 -0.128842
#
#
# Mechanical properties :
#
#
# Convention : Reuss Voigt Hill
#
# Bulk Modulus (GPa) = 17.60542 61.57525 39.59033
# Shear Modulus (GPa) = 46.26078 22.40964 34.33521
#
# Velocity S-wave (km/s) = 5.05466 3.51806 4.35467
# Velocity P-wave (km/s) = 6.61736 7.10704 6.86657
#
# Compressibility (1/GPa) = 0.05680070
#
# Stress axis : x y z
#
# Youngs Moduli (GPa) = 86.22131 12.66356 104.11261
#
# Poissons Ratio (x) = 0.19823 0.40793
# Poissons Ratio (y) = 1.34966 0.21998
# Poissons Ratio (z) = 0.33783 0.02676
#
# Static dielectric constant tensor:
#      x y z
#    x 3.410380 0.000000 -0.025510 
#    y 0.000000 2.925040 0.000000 
#    z -0.025510 0.000000 3.547030 
# 
# 
# High freq. dielectric constant tensor:
#      x y z
#    x 1.715360 0.000000 -0.000610 
#    y 0.000000 1.655190 0.000000 
#    z -0.000610 0.000000 1.708800 
# 
# From -- ./inp_files/24046.got.cif
#   From: 2010.06.25/outbox.cif.g09.slc.cpg/sg10_13_cif.got.tgz:24046.got - 2010.06.27 22:07:45.
