data_PCOD8059697
_publ_section_title
;
Structure prediction by ZEFSAII (Michael W. Deem and Ramdas Pophale) SiO2 
 PCOD8059697
Probable space group: P 2/M
;
_chemical_formula_sum "Si O2"
_cell_formula_units_Z 32
_cell_length_a 21.691920
_cell_length_b 8.875310
_cell_length_c 11.844620
_cell_angle_alpha 90.000000
_cell_angle_beta 127.285813
_cell_angle_gamma 90.000000
_cell_volume 1814.304854
_symmetry_space_group_name_H-M "P 2/M"
_symmetry_group_IT_number 10
_symmetry_cell_setting 'monoclinic'
loop_
_space_group_symop_operation_xyz
x,y,z
-x,y,-z
-x,-y,-z
x,-y,z
loop_
_atom_site_type_symbol
_atom_site_label
_atom_site_fract_x
_atom_site_fract_y
_atom_site_fract_z
Si Si1 0.769140 0.178092 0.137014
Si Si2 0.183023 0.174683 0.474312
Si Si3 0.538629 0.679434 0.657538
Si Si4 0.596755 0.677775 0.342659
Si Si5 0.747457 0.677164 0.641759
Si Si6 0.917412 0.174356 0.437189
Si Si7 0.713041 0.677454 0.856081
Si Si8 0.313066 0.324047 0.763513
O O1 0.847775 0.241124 0.282938
O O2 0.694546 0.234784 0.127089
O O3 0.767070 0.000000 0.132812
O O4 0.765732 0.241723 0.007395
O O5 0.182062 0.233713 0.343669
O O6 0.101280 0.195423 0.449639
O O7 0.242669 0.282668 0.603986
O O8 0.208883 0.000000 0.509824
O O9 0.500000 0.741150 0.500000
O O10 0.542500 0.500000 0.656827
O O11 0.485997 0.738648 0.704190
O O12 0.625513 0.742283 0.766752
O O13 0.597375 0.500000 0.357814
O O14 0.666219 0.737617 0.499832
O O15 0.609975 0.720049 0.224689
O O16 0.758362 0.500000 0.634741
O O17 0.749905 0.718153 0.776197
O O18 0.000000 0.253312 0.500000
O O19 0.923371 0.000000 0.411801
O O20 0.713962 0.500000 0.878804
O O21 0.312270 0.500000 0.791413
#
# Coordination Sequence:
#
# PCOD8059697 Si02
#       8
#     4   4   4   4   4   4   4   4
#     4  10  20  33  49  69  95 123 152 189 235 286
#     4   9  16  26  45  73  98 119 147 188 234 275
#     4   9  14  24  44  69  93 116 156 207 238 259
#     4   8  13  23  42  68  90 112 151 203 240 259
#     4   9  16  27  44  67  94 125 159 193 228 268
#     4   8  15  30  52  74  92 114 149 191 230 270
#     4  10  19  30  48  70  94 127 161 196 235 273
#     4   9  16  28  47  67  91 121 155 194 233 277
#
# _framework density 17.637609999999999
#
# number of rings (size 3 to 8) (size 9 to 14) (size 15 to 20)
#    0.000    3.000    1.250    2.625    0.000    0.500 
#    0.000    0.625    0.000   22.125    0.000    5.250 
#    0.000    0.000    0.000    0.000    0.000    0.000 
#
# Total GULP energy -396443.693984 kJ/mol
# GULP energy per Si atom -12388.865437 kJ/mol
# Density = 1.759747 g / cm^3
# Si number density = 17.637610 Si / 1000 Ang^3
#
#
#
# Elastic Constant Matrix: (Units=GPa)
#
#
# Indices 1 2 3 4 5 6 
#
# 1 149.4631 35.0088 57.1833 0.0000 -14.8568 0.0000
# 2 35.0088 33.9178 24.9430 0.0000 -8.3378 0.0000
# 3 57.1833 24.9430 76.1611 0.0000 -15.9199 0.0000
# 4 0.0000 0.0000 0.0000 18.5054 0.0000 -6.3587
# 5 -14.8568 -8.3378 -15.9199 0.0000 25.0782 0.0000
# 6 0.0000 0.0000 0.0000 -6.3587 0.0000 19.1316
#
#
#
# Elastic Compliance Matrix: (Units=1/GPa)
#
#
# Indices 1 2 3 4 5 6 
#
# 1 0.010396 -0.006518 -0.005576 0.000000 0.000452 0.000000
# 2 -0.006518 0.043613 -0.008262 0.000000 0.005394 0.000000
# 3 -0.005576 -0.008262 0.021628 0.000000 0.007679 0.000000
# 4 0.000000 0.000000 0.000000 0.061005 0.000000 0.020276
# 5 0.000452 0.005394 0.007679 0.000000 0.046811 0.000000
# 6 0.000000 0.000000 0.000000 0.020276 0.000000 0.059008
#
#
# Mechanical properties :
#
#
# Convention : Reuss Voigt Hill
#
# Bulk Modulus (GPa) = 28.63394 54.86806 41.75100
# Shear Modulus (GPa) = 16.95983 22.03684 19.49833
#
# Velocity S-wave (km/s) = 3.10429 3.53855 3.32851
# Velocity P-wave (km/s) = 5.39617 6.91890 6.20443
#
# Compressibility (1/GPa) = 0.03492360
#
# Stress axis : x y z
#
# Youngs Moduli (GPa) = 96.19374 22.92911 46.23720
#
# Poissons Ratio (x) = 0.14946 0.25782
# Poissons Ratio (y) = 0.62703 0.38200
# Poissons Ratio (z) = 0.53638 0.18943
#
# Static dielectric constant tensor:
#      x y z
#    x 3.873320 0.000000 -0.164860 
#    y 0.000000 2.957450 0.000000 
#    z -0.164860 0.000000 3.049440 
# 
# 
# High freq. dielectric constant tensor:
#      x y z
#    x 1.695150 0.000000 -0.025660 
#    y 0.000000 1.648140 0.000000 
#    z -0.025660 0.000000 1.638750 
# 
# From -- ./inp_files/55382.got.cif
#   From: 2010.06.25/outbox.cif.g09.slc.cpg/sg10_28_cif.got.tgz:55382.got - 2010.06.27 22:07:45.
