data_PCOD8059084
_publ_section_title
;
Structure prediction by ZEFSAII (Michael W. Deem and Ramdas Pophale) SiO2 
 PCOD8059084
Probable space group: P 2/M
;
_chemical_formula_sum "Si O2"
_cell_formula_units_Z 28
_cell_length_a 11.924999
_cell_length_b 11.717833
_cell_length_c 12.134641
_cell_angle_alpha 90.000000
_cell_angle_beta 60.806703
_cell_angle_gamma 90.000000
_cell_volume 1480.254728
_symmetry_space_group_name_H-M "P 2/M"
_symmetry_group_IT_number 10
_symmetry_cell_setting 'monoclinic'
loop_
_space_group_symop_operation_xyz
x,y,z
-x,y,-z
-x,-y,-z
x,-y,z
loop_
_atom_site_type_symbol
_atom_site_label
_atom_site_fract_x
_atom_site_fract_y
_atom_site_fract_z
Si Si1 0.173217 0.304354 0.999752
Si Si2 0.261804 0.210470 0.610651
Si Si3 0.612819 0.741389 0.661135
Si Si4 0.567594 0.500000 0.784958
Si Si5 0.648935 0.132622 0.195585
Si Si6 0.909816 0.372342 0.187576
Si Si7 0.859167 0.870928 0.536483
Si Si8 0.318528 0.500000 0.028621
O O1 0.246185 0.185667 0.938928
O O2 0.166747 0.377590 0.890608
O O3 0.242059 0.381793 0.057429
O O4 0.029645 0.284531 0.116186
O O5 0.382008 0.246578 0.475131
O O6 0.308434 0.146304 0.697699
O O7 0.185310 0.326384 0.674052
O O8 0.164812 0.131342 0.584814
O O9 0.608724 0.609844 0.695857
O O10 0.486998 0.807364 0.763799
O O11 0.744219 0.797118 0.648866
O O12 0.627627 0.500000 0.875890
O O13 0.416349 0.500000 0.878855
O O14 0.635992 0.000000 0.173997
O O15 0.956355 0.500000 0.196336
O O16 0.000000 0.820437 0.500000
O O17 0.849942 0.000000 0.584875
#
# Coordination Sequence:
#
# PCOD8059084 Si02
#       8
#     4   4   4   2   4   4   4   2
#     4  10  19  36  58  85 112 152 196 235 289 336
#     4   9  22  33  55  91 120 151 189 233 287 354
#     4  10  22  38  58  87 119 149 190 242 291 350
#     4  11  24  38  58  86 114 151 193 242 292 352
#     4  11  21  37  61  88 117 152 195 243 292 346
#     4  10  18  33  57  86 119 154 188 232 291 355
#     4   9  19  37  57  77 113 158 191 224 271 338
#     4  11  20  39  60  80 114 157 190 239 291 346
#
# _framework density 18.915664
#
# number of rings (size 3 to 8) (size 9 to 14) (size 15 to 20)
#    0.857    1.143    2.857    1.714    1.000    1.714 
#    0.000    7.500    0.000    2.571    0.000    0.000 
#    0.000    0.000    0.000    0.000    0.000    0.000 
#
# Total GULP energy -346941.165568 kJ/mol
# GULP energy per Si atom -12390.755913 kJ/mol
# Density = 1.887261 g / cm^3
# Si number density = 18.915664 Si / 1000 Ang^3
#
#
#
# Elastic Constant Matrix: (Units=GPa)
#
#
# Indices 1 2 3 4 5 6 
#
# 1 100.3679 40.1600 1.2929 0.0000 -9.1727 0.0000
# 2 40.1600 132.9098 23.7352 0.0000 -16.6373 0.0000
# 3 1.2929 23.7352 29.4176 0.0000 -12.2878 0.0000
# 4 0.0000 0.0000 0.0000 6.5302 0.0000 12.7907
# 5 -9.1727 -16.6373 -12.2878 0.0000 27.3358 0.0000
# 6 0.0000 0.0000 0.0000 12.7907 0.0000 3.7068
#
#
#
# Elastic Compliance Matrix: (Units=1/GPa)
#
#
# Indices 1 2 3 4 5 6 
#
# 1 0.011761 -0.003843 0.004007 0.000000 0.003409 0.000000
# 2 -0.003843 0.010206 -0.007399 0.000000 0.001596 0.000000
# 3 0.004007 -0.007399 0.047360 0.000000 0.018130 0.000000
# 4 0.000000 0.000000 0.000000 -0.026592 0.000000 0.091758
# 5 0.003409 0.001596 0.018130 0.000000 0.046847 0.000000
# 6 0.000000 0.000000 0.000000 0.091758 0.000000 -0.046846
#
#
# Mechanical properties :
#
#
# Convention : Reuss Voigt Hill
#
# Bulk Modulus (GPa) = 18.22865 43.67460 30.95162
# Shear Modulus (GPa) = 66.23396 20.68171 43.45784
#
# Velocity S-wave (km/s) = 5.92380 3.31019 4.79837
# Velocity P-wave (km/s) = 7.51307 6.14403 6.86277
#
# Compressibility (1/GPa) = 0.05485870
#
# Stress axis : x y z
#
# Youngs Moduli (GPa) = 85.02826 97.98053 21.11489
#
# Poissons Ratio (x) = 0.37649 -0.08462
# Poissons Ratio (y) = 0.32672 0.15623
# Poissons Ratio (z) = -0.34074 0.72495
#
# Static dielectric constant tensor:
#      x y z
#    x 3.546290 0.000000 -0.151710 
#    y 0.000000 3.271930 0.000000 
#    z -0.151710 0.000000 3.234460 
# 
# 
# High freq. dielectric constant tensor:
#      x y z
#    x 1.742120 0.000000 -0.012840 
#    y 0.000000 1.723040 0.000000 
#    z -0.012840 0.000000 1.711210 
# 
# From -- ./inp_files/46051.got.cif
#   From: 2010.06.25/outbox.cif.g09.slc.cpg/sg10_24_cif.got.tgz:46051.got - 2010.06.27 22:07:45.
