data_PCOD8059592
_publ_section_title
;
Structure prediction by ZEFSAII (Michael W. Deem and Ramdas Pophale) SiO2 
 PCOD8059592
Probable space group: P 2/M
;
_chemical_formula_sum "Si O2"
_cell_formula_units_Z 32
_cell_length_a 17.931367
_cell_length_b 9.501965
_cell_length_c 11.420309
_cell_angle_alpha 90.000000
_cell_angle_beta 65.414536
_cell_angle_gamma 90.000000
_cell_volume 1769.423469
_symmetry_space_group_name_H-M "P 2/M"
_symmetry_group_IT_number 10
_symmetry_cell_setting 'monoclinic'
loop_
_space_group_symop_operation_xyz
x,y,z
-x,y,-z
-x,-y,-z
x,-y,z
loop_
_atom_site_type_symbol
_atom_site_label
_atom_site_fract_x
_atom_site_fract_y
_atom_site_fract_z
Si Si1 0.625491 0.841352 0.854150
Si Si2 0.185695 0.837303 0.616251
Si Si3 0.874512 0.658647 0.145858
Si Si4 0.993458 0.160697 0.373558
Si Si5 0.053648 0.657193 0.138591
Si Si6 0.446358 0.157193 0.861402
Si Si7 0.493435 0.660706 0.373573
Si Si8 0.685711 0.337294 0.616250
O O1 0.536282 0.839038 0.856355
O O2 0.682801 0.730734 0.748181
O O3 0.661728 0.000000 0.820517
O O4 0.618154 0.795395 0.995528
O O5 0.182797 0.769262 0.748169
O O6 0.098898 0.822469 0.609661
O O7 0.249972 0.749991 0.499991
O O8 0.212665 0.000000 0.609362
O O9 0.838275 0.500000 0.179496
O O10 0.963724 0.660963 0.143642
O O11 0.881842 0.704600 0.004483
O O12 0.000000 0.223624 0.500000
O O13 0.057790 0.241465 0.248061
O O14 0.022484 0.000000 0.353784
O O15 0.075091 0.500000 0.166730
O O16 0.442226 0.258543 0.751927
O O17 0.424914 0.000000 0.833262
O O18 0.500000 0.723617 0.500000
O O19 0.522435 0.500000 0.353793
O O20 0.401071 0.677597 0.390391
O O21 0.712654 0.500000 0.609379
#
# Coordination Sequence:
#
# PCOD8059592 Si02
#       8
#     4   4   4   4   4   4   4   4
#     4   8  14  26  43  64  90 115 143 181 222 262
#     4  10  19  30  46  67  91 119 149 182 220 262
#     4   8  14  26  43  64  90 115 143 181 222 262
#     4   9  18  31  46  66  92 120 148 180 220 263
#     4   8  14  25  43  66  89 114 144 181 222 260
#     4   8  14  25  43  66  89 114 144 181 222 260
#     4   9  18  31  46  66  92 120 148 180 220 263
#     4  10  19  30  46  67  91 119 149 182 220 262
#
# _framework density 18.084986000000001
#
# number of rings (size 3 to 8) (size 9 to 14) (size 15 to 20)
#    0.000    3.250    0.000    2.250    0.000    2.500 
#    0.000    5.000    0.000    1.500    0.000    0.000 
#    0.000    0.000    0.000    0.000    0.000    0.000 
#
# Total GULP energy -396593.719253 kJ/mol
# GULP energy per Si atom -12393.553727 kJ/mol
# Density = 1.804382 g / cm^3
# Si number density = 18.084986 Si / 1000 Ang^3
#
#
#
# Elastic Constant Matrix: (Units=GPa)
#
#
# Indices 1 2 3 4 5 6 
#
# 1 8.8793 17.3714 21.6303 0.0000 4.6329 0.0000
# 2 17.3714 129.4260 110.4753 0.0000 -0.2399 0.0000
# 3 21.6303 110.4753 199.1566 0.0000 9.8418 0.0000
# 4 0.0000 0.0000 0.0000 44.3602 0.0000 -0.0914
# 5 4.6329 -0.2399 9.8418 0.0000 24.8120 0.0000
# 6 0.0000 0.0000 0.0000 -0.0914 0.0000 13.2031
#
#
#
# Elastic Compliance Matrix: (Units=1/GPa)
#
#
# Indices 1 2 3 4 5 6 
#
# 1 0.184126 -0.017109 -0.008976 0.000000 -0.030985 0.000000
# 2 -0.017109 0.016558 -0.007642 0.000000 0.006386 0.000000
# 3 -0.008976 -0.007642 0.010359 0.000000 -0.002507 0.000000
# 4 0.000000 0.000000 0.000000 0.022543 0.000000 0.000156
# 5 -0.030985 0.006386 -0.002507 0.000000 0.047145 0.000000
# 6 0.000000 0.000000 0.000000 0.000156 0.000000 0.075741
#
#
# Mechanical properties :
#
#
# Convention : Reuss Voigt Hill
#
# Bulk Modulus (GPa) = 6.96434 70.71286 38.83860
# Shear Modulus (GPa) = 10.59797 29.00738 19.80268
#
# Velocity S-wave (km/s) = 2.42339 4.00928 3.31264
# Velocity P-wave (km/s) = 3.41902 7.78573 6.01279
#
# Compressibility (1/GPa) = 0.14358859
#
# Stress axis : x y z
#
# Youngs Moduli (GPa) = 5.43107 60.39407 96.53179
#
# Poissons Ratio (x) = 1.03326 0.86648
# Poissons Ratio (y) = 0.09292 0.73773
# Poissons Ratio (z) = 0.04875 0.46155
#
# Static dielectric constant tensor:
#      x y z
#    x 2.802010 0.000000 0.128790 
#    y 0.000000 3.541060 0.000000 
#    z 0.128790 0.000000 3.848590 
# 
# 
# High freq. dielectric constant tensor:
#      x y z
#    x 1.635690 0.000000 0.004090 
#    y 0.000000 1.701840 0.000000 
#    z 0.004090 0.000000 1.719940 
# 
# From -- ./inp_files/54798.got.cif
#   From: 2010.06.25/outbox.cif.g09.slc.cpg/sg10_28_cif.got.tgz:54798.got - 2010.06.27 22:07:45.
