data_PCOD8059188
_publ_section_title
;
Structure prediction by ZEFSAII (Michael W. Deem and Ramdas Pophale) SiO2 
 PCOD8059188
Probable space group: P 2/M
;
_chemical_formula_sum "Si O2"
_cell_formula_units_Z 32
_cell_length_a 28.871034
_cell_length_b 8.875484
_cell_length_c 12.134287
_cell_angle_alpha 90.000000
_cell_angle_beta 146.132876
_cell_angle_gamma 90.000000
_cell_volume 1732.739774
_symmetry_space_group_name_H-M "P 2/M"
_symmetry_group_IT_number 10
_symmetry_cell_setting 'monoclinic'
loop_
_space_group_symop_operation_xyz
x,y,z
-x,y,-z
-x,-y,-z
x,-y,z
loop_
_atom_site_type_symbol
_atom_site_label
_atom_site_fract_x
_atom_site_fract_y
_atom_site_fract_z
Si Si1 0.462026 0.173171 0.808786
Si Si2 0.751694 0.673899 0.414062
Si Si3 0.874402 0.323730 0.476692
Si Si4 0.212678 0.176882 0.064074
Si Si5 0.626503 0.827274 0.009599
Si Si6 0.962291 0.672054 0.304585
Si Si7 0.709221 0.325602 0.573497
Si Si8 0.727540 0.321608 0.031247
O O1 0.386299 0.280232 0.628163
O O2 0.431867 0.000000 0.757990
O O3 0.500000 0.226343 0.000000
O O4 0.529640 0.192580 0.845820
O O5 0.729879 0.500000 0.345143
O O6 0.840397 0.714818 0.531951
O O7 0.678517 0.772845 0.218193
O O8 0.758561 0.704415 0.557109
O O9 0.881267 0.500000 0.468670
O O10 0.808630 0.261190 0.257199
O O11 0.967342 0.260667 0.640098
O O12 0.245511 0.224537 0.247663
O O13 0.220055 0.000000 0.065732
O O14 0.117539 0.224374 0.862902
O O15 0.271373 0.252622 0.088248
O O16 0.646683 0.733148 0.939104
O O17 0.649261 0.000000 0.032485
O O18 0.936806 0.500000 0.225485
O O19 0.000000 0.680663 0.500000
O O20 0.713841 0.500000 0.616747
O O21 0.725154 0.500000 0.016742
#
# Coordination Sequence:
#
# PCOD8059188 Si02
#       8
#     4   4   4   4   4   4   4   4
#     4  10  20  36  57  84 119 153 186 228 284 339
#     4   9  18  33  54  82 112 147 190 235 279 328
#     4   8  15  30  55  83 110 140 179 229 280 326
#     4  12  25  39  56  81 116 152 188 231 291 350
#     4  10  19  32  55  86 117 148 183 227 282 336
#     4  10  18  34  59  85 112 146 188 232 281 335
#     4  11  23  38  58  82 112 151 198 240 281 332
#     4  10  19  36  58  82 113 147 188 232 280 332
#
# _framework density 18.467860999999999
#
# number of rings (size 3 to 8) (size 9 to 14) (size 15 to 20)
#    0.000    2.000    2.500    3.000    0.000    2.000 
#    0.000    1.875    0.000    7.500    0.000    0.000 
#    0.000    0.000    0.000    0.000    0.000    0.000 
#
# Total GULP energy -396793.150248 kJ/mol
# GULP energy per Si atom -12399.785945 kJ/mol
# Density = 1.842583 g / cm^3
# Si number density = 18.467861 Si / 1000 Ang^3
#
#
#
# Elastic Constant Matrix: (Units=GPa)
#
#
# Indices 1 2 3 4 5 6 
#
# 1 135.6817 50.4736 41.0750 0.0000 -0.9394 0.0000
# 2 50.4736 93.0637 31.4462 0.0000 -3.0711 0.0000
# 3 41.0750 31.4462 61.6007 0.0000 -3.9157 0.0000
# 4 0.0000 0.0000 0.0000 29.0832 0.0000 3.0418
# 5 -0.9394 -3.0711 -3.9157 0.0000 24.3870 0.0000
# 6 0.0000 0.0000 0.0000 3.0418 0.0000 34.6866
#
#
#
# Elastic Compliance Matrix: (Units=1/GPa)
#
#
# Indices 1 2 3 4 5 6 
#
# 1 0.010330 -0.003970 -0.004918 0.000000 -0.000892 0.000000
# 2 -0.003970 0.014519 -0.004706 0.000000 0.000920 0.000000
# 3 -0.004918 -0.004706 0.022091 0.000000 0.002765 0.000000
# 4 0.000000 0.000000 0.000000 0.034702 0.000000 -0.003043
# 5 -0.000892 0.000920 0.002765 0.000000 0.041531 0.000000
# 6 0.000000 0.000000 0.000000 -0.003043 0.000000 0.029096
#
#
# Mechanical properties :
#
#
# Convention : Reuss Voigt Hill
#
# Bulk Modulus (GPa) = 50.62842 59.59285 55.11064
# Shear Modulus (GPa) = 26.87579 28.78810 27.83195
#
# Velocity S-wave (km/s) = 3.81894 3.95247 3.88628
# Velocity P-wave (km/s) = 6.84979 7.29163 7.07416
#
# Compressibility (1/GPa) = 0.01975175
#
# Stress axis : x y z
#
# Youngs Moduli (GPa) = 96.80878 68.87503 45.26758
#
# Poissons Ratio (x) = 0.27344 0.22262
# Poissons Ratio (y) = 0.38434 0.21303
# Poissons Ratio (z) = 0.47608 0.32413
#
# Static dielectric constant tensor:
#      x y z
#    x 3.770710 0.000000 0.122820 
#    y 0.000000 3.322380 0.000000 
#    z 0.122820 0.000000 3.393710 
# 
# 
# High freq. dielectric constant tensor:
#      x y z
#    x 1.737570 0.000000 0.007090 
#    y 0.000000 1.708420 0.000000 
#    z 0.007090 0.000000 1.682430 
# 
# From -- ./inp_files/58260.got.cif
#   From: 2010.06.25/outbox.cif.g09.slc.cpg/sg10_30_cif.got.tgz:58260.got - 2010.06.27 22:07:45.
