data_PCOD8059130
_publ_section_title
;
Structure prediction by ZEFSAII (Michael W. Deem and Ramdas Pophale) SiO2 
 PCOD8059130
Probable space group: P 2/M
;
_chemical_formula_sum "Si O2"
_cell_formula_units_Z 32
_cell_length_a 9.279580
_cell_length_b 14.423312
_cell_length_c 26.577541
_cell_angle_alpha 90.000000
_cell_angle_beta 148.005415
_cell_angle_gamma 90.000000
_cell_volume 1884.742962
_symmetry_space_group_name_H-M "P 2/M"
_symmetry_group_IT_number 10
_symmetry_cell_setting 'monoclinic'
loop_
_space_group_symop_operation_xyz
x,y,z
-x,y,-z
-x,-y,-z
x,-y,z
loop_
_atom_site_type_symbol
_atom_site_label
_atom_site_fract_x
_atom_site_fract_y
_atom_site_fract_z
Si Si1 0.055949 0.273977 0.865059
Si Si2 0.365598 0.392102 0.512014
Si Si3 0.604549 0.604437 0.685779
Si Si4 0.311504 0.609502 0.109201
Si Si5 0.411391 0.223145 0.211315
Si Si6 0.875171 0.286765 0.412431
Si Si7 0.486884 0.267748 0.074370
Si Si8 0.319735 0.103068 0.091099
O O1 0.225564 0.241806 0.866393
O O2 0.868052 0.355182 0.789744
O O3 0.846244 0.199609 0.828183
O O4 0.269703 0.307794 0.970254
O O5 0.500000 0.359603 0.500000
O O6 0.278495 0.500000 0.484677
O O7 0.589292 0.374077 0.621661
O O8 0.101565 0.329346 0.442920
O O9 0.645976 0.500000 0.709972
O O10 0.319790 0.631881 0.626254
O O11 0.380589 0.500000 0.138663
O O12 0.363495 0.672185 0.174334
O O13 0.506346 0.653251 0.123396
O O14 0.000000 0.622642 0.000000
O O15 0.691284 0.215832 0.325784
O O16 0.441390 0.145431 0.178108
O O17 0.000000 0.238410 0.500000
O O18 0.391782 0.168227 0.066026
O O19 0.441527 0.000000 0.119111
O O20 0.000000 0.098577 0.000000
#
# Coordination Sequence:
#
# PCOD8059130 Si02
#       8
#     4   4   4   4   4   4   4   4
#     4  10  19  30  47  67  98 131 157 201 250 284
#     4   9  17  29  44  64  92 122 164 216 248 275
#     4   9  18  30  44  63  93 132 174 204 235 284
#     4  10  19  31  45  64  93 132 171 200 233 281
#     4  10  18  34  53  72  98 126 168 205 240 290
#     4   9  18  31  48  68  92 127 163 201 248 288
#     4  10  19  34  47  68 102 128 160 205 244 286
#     4  10  19  35  57  76  96 125 160 198 246 298
#
# _framework density 16.978444
#
# number of rings (size 3 to 8) (size 9 to 14) (size 15 to 20)
#    0.000    2.375    2.500    1.125    0.000    7.000 
#    0.000    4.375    0.000    0.375    0.000    0.000 
#    0.000    9.500    0.000    0.000    0.000    0.000 
#
# Total GULP energy -396470.413685 kJ/mol
# GULP energy per Si atom -12389.700428 kJ/mol
# Density = 1.693980 g / cm^3
# Si number density = 16.978444 Si / 1000 Ang^3
#
#
#
# Elastic Constant Matrix: (Units=GPa)
#
#
# Indices 1 2 3 4 5 6 
#
# 1 164.4686 23.7355 49.9589 0.0000 17.0735 0.0000
# 2 23.7355 74.7033 22.2790 0.0000 -4.3258 0.0000
# 3 49.9589 22.2790 101.4984 0.0000 -2.3911 0.0000
# 4 0.0000 0.0000 0.0000 9.9152 0.0000 -1.2935
# 5 17.0735 -4.3258 -2.3911 0.0000 26.4809 0.0000
# 6 0.0000 0.0000 0.0000 -1.2935 0.0000 9.5753
#
#
#
# Elastic Compliance Matrix: (Units=1/GPa)
#
#
# Indices 1 2 3 4 5 6 
#
# 1 0.008074 -0.001795 -0.003718 0.000000 -0.005835 0.000000
# 2 -0.001795 0.014836 -0.002294 0.000000 0.003373 0.000000
# 3 -0.003718 -0.002294 0.012260 0.000000 0.003129 0.000000
# 4 0.000000 0.000000 0.000000 0.102665 0.000000 0.013869
# 5 -0.005835 0.003373 0.003129 0.000000 0.042359 0.000000
# 6 0.000000 0.000000 0.000000 0.013869 0.000000 0.106309
#
#
# Mechanical properties :
#
#
# Convention : Reuss Voigt Hill
#
# Bulk Modulus (GPa) = 51.13126 59.17970 55.15548
# Shear Modulus (GPa) = 16.20049 25.50740 20.85395
#
# Velocity S-wave (km/s) = 3.09233 3.88021 3.50846
# Velocity P-wave (km/s) = 6.55216 7.41661 6.99775
#
# Compressibility (1/GPa) = 0.01955751
#
# Stress axis : x y z
#
# Youngs Moduli (GPa) = 123.85171 67.40424 81.56932
#
# Poissons Ratio (x) = 0.12096 0.30326
# Poissons Ratio (y) = 0.22225 0.18710
# Poissons Ratio (z) = 0.46045 0.15461
#
# Static dielectric constant tensor:
#      x y z
#    x 3.279260 0.000000 -0.127570 
#    y 0.000000 2.940890 0.000000 
#    z -0.127570 0.000000 3.297230 
# 
# 
# High freq. dielectric constant tensor:
#      x y z
#    x 1.670030 0.000000 -0.009950 
#    y 0.000000 1.603950 0.000000 
#    z -0.009950 0.000000 1.654730 
# 
# From -- ./inp_files/92360.got.cif
#   From: 2010.06.25/outbox.cif.g09.slc.cpg/sg10_47_cif.got.tgz:92360.got - 2010.06.27 22:07:45.
