data_PCOD8059513
_publ_section_title
;
Structure prediction by ZEFSAII (Michael W. Deem and Ramdas Pophale) SiO2 
 PCOD8059513
Probable space group: P 2/M
;
_chemical_formula_sum "Si O2"
_cell_formula_units_Z 24
_cell_length_a 24.394481
_cell_length_b 13.765906
_cell_length_c 12.713596
_cell_angle_alpha 90.000000
_cell_angle_beta 160.386758
_cell_angle_gamma 90.000000
_cell_volume 1433.099663
_symmetry_space_group_name_H-M "P 2/M"
_symmetry_group_IT_number 10
_symmetry_cell_setting 'monoclinic'
loop_
_space_group_symop_operation_xyz
x,y,z
-x,y,-z
-x,-y,-z
x,-y,z
loop_
_atom_site_type_symbol
_atom_site_label
_atom_site_fract_x
_atom_site_fract_y
_atom_site_fract_z
Si Si1 0.829696 0.755941 0.644581
Si Si2 0.970430 0.384917 0.330949
Si Si3 0.471823 0.726657 0.752350
Si Si4 0.231719 0.613953 0.634293
Si Si5 0.618346 0.612276 0.615232
Si Si6 0.633259 0.891987 0.150156
O O1 0.702091 0.740275 0.507525
O O2 0.846668 0.653622 0.614891
O O3 0.786089 0.837598 0.479124
O O4 0.000000 0.789176 0.000000
O O5 0.965871 0.500000 0.331141
O O6 0.000000 0.339571 0.500000
O O7 0.120122 0.349775 0.529577
O O8 0.797812 0.350237 0.971558
O O9 0.449632 0.685538 0.595481
O O10 0.583177 0.651554 0.019286
O O11 0.564807 0.831269 0.925816
O O12 0.233999 0.500000 0.630537
O O13 0.500000 0.620397 0.500000
O O14 0.621192 0.500000 0.579440
O O15 0.682766 0.000000 0.201259
O O16 0.500000 0.897576 0.000000
#
# Coordination Sequence:
#
# PCOD8059513 Si02
#       6
#     4   4   4   4   4   4
#     4  10  20  31  45  69  96 121 154 191 231 279
#     4   9  17  29  44  63  89 123 161 195 224 258
#     4  10  19  31  48  68  92 121 155 193 231 275
#     4  10  19  30  44  63  92 128 159 189 227 271
#     4  10  19  30  46  69  96 126 160 194 226 265
#     4   8  16  32  51  69  90 117 149 188 234 281
#
# _framework density 16.746915000000001
#
# number of rings (size 3 to 8) (size 9 to 14) (size 15 to 20)
#    0.000    2.500    0.000    4.000    0.000    5.333 
#    0.000    0.000    0.000    0.500    0.000    0.000 
#    0.000   18.000    0.000    0.000    0.000    0.000 
#
# Total GULP energy -297495.176125 kJ/mol
# GULP energy per Si atom -12395.632339 kJ/mol
# Density = 1.670880 g / cm^3
# Si number density = 16.746915 Si / 1000 Ang^3
#
#
#
# Elastic Constant Matrix: (Units=GPa)
#
#
# Indices 1 2 3 4 5 6 
#
# 1 58.4208 43.0324 35.6731 0.0000 -9.5688 0.0000
# 2 43.0324 95.2672 47.4373 0.0000 -6.8226 0.0000
# 3 35.6731 47.4373 124.2555 0.0000 -5.1203 0.0000
# 4 0.0000 0.0000 0.0000 15.3084 0.0000 -5.3074
# 5 -9.5688 -6.8226 -5.1203 0.0000 30.2996 0.0000
# 6 0.0000 0.0000 0.0000 -5.3074 0.0000 14.4144
#
#
#
# Elastic Compliance Matrix: (Units=1/GPa)
#
#
# Indices 1 2 3 4 5 6 
#
# 1 0.028044 -0.010320 -0.003869 0.000000 0.005879 0.000000
# 2 -0.010320 0.016892 -0.003488 0.000000 -0.000045 0.000000
# 3 -0.003869 -0.003488 0.010481 0.000000 -0.000236 0.000000
# 4 0.000000 0.000000 0.000000 0.074883 0.000000 0.027572
# 5 0.005879 -0.000045 -0.000236 0.000000 0.034810 0.000000
# 6 0.000000 0.000000 0.000000 0.027572 0.000000 0.079527
#
#
# Mechanical properties :
#
#
# Convention : Reuss Voigt Hill
#
# Bulk Modulus (GPa) = 49.84396 58.91435 54.37916
# Shear Modulus (GPa) = 17.44110 22.12454 19.78282
#
# Velocity S-wave (km/s) = 3.23065 3.63865 3.44071
# Velocity P-wave (km/s) = 6.61391 7.27383 6.95171
#
# Compressibility (1/GPa) = 0.02006261
#
# Stress axis : x y z
#
# Youngs Moduli (GPa) = 35.65769 59.19991 95.41428
#
# Poissons Ratio (x) = 0.61095 0.36918
# Poissons Ratio (y) = 0.36799 0.33279
# Poissons Ratio (z) = 0.13797 0.20648
#
# Static dielectric constant tensor:
#      x y z
#    x 3.100240 0.000000 0.008020 
#    y 0.000000 3.174390 0.000000 
#    z 0.008020 0.000000 3.274030 
# 
# 
# High freq. dielectric constant tensor:
#      x y z
#    x 1.632640 0.000000 0.001510 
#    y 0.000000 1.614830 0.000000 
#    z 0.001510 0.000000 1.657240 
# 
# From -- ./inp_files/24558.got.cif
#   From: 2010.06.25/outbox.cif.g09.slc.cpg/sg10_13_cif.got.tgz:24558.got - 2010.06.27 22:07:45.
