data_PCOD8059885
_publ_section_title
;
Structure prediction by ZEFSAII (Michael W. Deem and Ramdas Pophale) SiO2 
 PCOD8059885
Probable space group: P 2/M
;
_chemical_formula_sum "Si O2"
_cell_formula_units_Z 32
_cell_length_a 28.012271
_cell_length_b 9.660075
_cell_length_c 19.969083
_cell_angle_alpha 90.000000
_cell_angle_beta 159.211690
_cell_angle_gamma 90.000000
_cell_volume 1917.841850
_symmetry_space_group_name_H-M "P 2/M"
_symmetry_group_IT_number 10
_symmetry_cell_setting 'monoclinic'
loop_
_space_group_symop_operation_xyz
x,y,z
-x,y,-z
-x,-y,-z
x,-y,z
loop_
_atom_site_type_symbol
_atom_site_label
_atom_site_fract_x
_atom_site_fract_y
_atom_site_fract_z
Si Si1 0.302142 0.335935 0.703675
Si Si2 0.755111 0.657933 0.598280
Si Si3 0.181612 0.160822 0.050705
Si Si4 0.279196 0.839565 0.324360
Si Si5 0.585933 0.159153 0.746987
Si Si6 0.557109 0.659505 0.831735
Si Si7 0.925557 0.336938 0.692062
Si Si8 0.422347 0.335900 0.994945
O O1 0.306189 0.500000 0.701768
O O2 0.166537 0.282727 0.490452
O O3 0.308790 0.292225 0.791250
O O4 0.433264 0.274139 0.838197
O O5 0.778640 0.500000 0.650818
O O6 0.791312 0.752784 0.709272
O O7 0.602833 0.681661 0.375039
O O8 0.852056 0.700280 0.664919
O O9 0.210144 0.203011 0.164487
O O10 0.314532 0.194321 0.182744
O O11 0.142166 0.000000 0.993184
O O12 0.063011 0.253805 0.866252
O O13 0.436980 0.803644 0.526068
O O14 0.257030 0.000000 0.311609
O O15 0.625067 0.250386 0.862743
O O16 0.596137 0.000000 0.782274
O O17 0.594150 0.500000 0.866861
O O18 0.615577 0.713776 0.979864
O O19 0.955248 0.500000 0.725894
O O20 0.437189 0.500000 0.016372
#
# Coordination Sequence:
#
# PCOD8059885 Si02
#       8
#     4   4   4   4   4   4   4   4
#     4   8  13  23  42  69  97 124 150 179 217 266
#     4   9  17  29  45  69  99 124 144 178 231 279
#     4  10  21  35  49  65  87 120 160 195 229 269
#     4   9  18  33  52  69  85 112 154 200 235 269
#     4   9  18  33  51  68  87 115 153 197 238 271
#     4   9  15  26  47  74  98 117 144 187 232 271
#     4  10  19  31  47  68  98 128 153 181 220 274
#     4   8  12  21  43  72  97 119 148 183 221 263
#
# _framework density 16.685421000000002
#
# number of rings (size 3 to 8) (size 9 to 14) (size 15 to 20)
#    0.000    3.000    1.250    1.125    0.000    3.500 
#    0.000    2.500    0.000    5.250    0.000    7.000 
#    0.000    0.000    0.000    0.000    0.000    0.000 
#
# Total GULP energy -396668.840604 kJ/mol
# GULP energy per Si atom -12395.901269 kJ/mol
# Density = 1.664744 g / cm^3
# Si number density = 16.685421 Si / 1000 Ang^3
#
#
#
# Elastic Constant Matrix: (Units=GPa)
#
#
# Indices 1 2 3 4 5 6 
#
# 1 54.4715 26.6623 32.2042 0.0000 -24.6157 0.0000
# 2 26.6623 37.8576 29.8805 0.0000 -8.8915 0.0000
# 3 32.2042 29.8805 86.3288 0.0000 -21.3105 0.0000
# 4 0.0000 0.0000 0.0000 17.7957 0.0000 8.3973
# 5 -24.6157 -8.8915 -21.3105 0.0000 29.2526 0.0000
# 6 0.0000 0.0000 0.0000 8.3973 0.0000 13.4720
#
#
#
# Elastic Compliance Matrix: (Units=1/GPa)
#
#
# Indices 1 2 3 4 5 6 
#
# 1 0.043007 -0.022685 -0.001171 0.000000 0.028442 0.000000
# 2 -0.022685 0.048436 -0.011437 0.000000 -0.012699 0.000000
# 3 -0.001171 -0.011437 0.018140 0.000000 0.008753 0.000000
# 4 0.000000 0.000000 0.000000 0.079608 0.000000 -0.049620
# 5 0.028442 -0.012699 0.008753 0.000000 0.060635 0.000000
# 6 0.000000 0.000000 0.000000 -0.049620 0.000000 0.105157
#
#
# Mechanical properties :
#
#
# Convention : Reuss Voigt Hill
#
# Bulk Modulus (GPa) = 25.64284 39.57245 32.60765
# Shear Modulus (GPa) = 11.40078 18.09813 14.74945
#
# Velocity S-wave (km/s) = 2.61679 3.29700 2.97639
# Velocity P-wave (km/s) = 4.95297 6.18562 5.60329
#
# Compressibility (1/GPa) = 0.03899724
#
# Stress axis : x y z
#
# Youngs Moduli (GPa) = 23.25218 20.64580 55.12736
#
# Poissons Ratio (x) = 0.46835 0.06453
# Poissons Ratio (y) = 0.52747 0.63050
# Poissons Ratio (z) = 0.02722 0.23613
#
# Static dielectric constant tensor:
#      x y z
#    x 3.243900 0.000000 -0.277870 
#    y 0.000000 2.884320 0.000000 
#    z -0.277870 0.000000 3.110810 
# 
# 
# High freq. dielectric constant tensor:
#      x y z
#    x 1.642890 0.000000 -0.018550 
#    y 0.000000 1.612280 0.000000 
#    z -0.018550 0.000000 1.627820 
# 
# From -- ./inp_files/38226.got.cif
#   From: 2010.06.25/outbox.cif.g09.slc.cpg/sg10_20_cif.got.tgz:38226.got - 2010.06.27 22:07:45.
