data_PCOD8059485
_publ_section_title
;
Structure prediction by ZEFSAII (Michael W. Deem and Ramdas Pophale) SiO2 
 PCOD8059485
Probable space group: P 2/M
;
_chemical_formula_sum "Si O2"
_cell_formula_units_Z 28
_cell_length_a 23.530194
_cell_length_b 17.382142
_cell_length_c 25.734600
_cell_angle_alpha 90.000000
_cell_angle_beta 168.969453
_cell_angle_gamma 90.000000
_cell_volume 2013.884493
_symmetry_space_group_name_H-M "P 2/M"
_symmetry_group_IT_number 10
_symmetry_cell_setting 'monoclinic'
loop_
_space_group_symop_operation_xyz
x,y,z
-x,y,-z
-x,-y,-z
x,-y,z
loop_
_atom_site_type_symbol
_atom_site_label
_atom_site_fract_x
_atom_site_fract_y
_atom_site_fract_z
Si Si1 0.832077 0.090525 0.501465
Si Si2 0.847072 0.908653 0.104784
Si Si3 0.164001 0.908155 0.698549
Si Si4 0.177563 0.414468 0.106532
Si Si5 0.163973 0.090595 0.096976
Si Si6 0.185657 0.843893 0.313137
Si Si7 0.678642 0.678523 0.607137
O O1 0.008976 0.115062 0.711435
O O2 0.994950 0.126005 0.597169
O O3 0.835051 0.000000 0.497801
O O4 0.493522 0.118531 0.200292
O O5 0.006382 0.856902 0.204848
O O6 0.882650 0.000000 0.124972
O O7 0.000000 0.877288 0.500000
O O8 0.162695 0.000000 0.698297
O O9 0.500000 0.876963 0.000000
O O10 0.245066 0.500000 0.145149
O O11 0.484156 0.370760 0.392456
O O12 0.000000 0.422489 0.000000
O O13 0.980587 0.367775 0.888689
O O14 0.500184 0.116174 0.398314
O O15 0.151770 0.000000 0.088471
O O16 0.000000 0.126829 0.000000
O O17 0.995958 0.117390 0.895580
O O18 0.229437 0.754830 0.340478
O O19 0.500000 0.697392 0.500000
#
# Coordination Sequence:
#
# PCOD8059485 Si02
#       7
#     4   4   4   4   4   4   4
#     4   9  17  28  40  55  74  97 128 163 200 240
#     4  10  19  30  42  54  73 104 138 169 199 235
#     4   9  15  23  37  56  75  93 115 151 202 248
#     4   9  17  30  47  65  83 101 119 142 187 254
#     4  11  22  34  46  58  74  99 133 175 219 258
#     4  12  22  33  46  61  80 103 135 172 211 248
#     4  10  19  30  45  64  83 101 123 159 205 246
#
# _framework density 13.903478
#
# number of rings (size 3 to 8) (size 9 to 14) (size 15 to 20)
#    0.000    2.000    0.000    5.571    0.000    8.571 
#    0.000    0.000    0.000    0.000    0.000    0.000 
#    0.000    0.000    0.000    0.000    0.000    0.000 
#
# Total GULP energy -347203.606823 kJ/mol
# GULP energy per Si atom -12400.128815 kJ/mol
# Density = 1.387183 g / cm^3
# Si number density = 13.903478 Si / 1000 Ang^3
#
#
#
# Elastic Constant Matrix: (Units=GPa)
#
#
# Indices 1 2 3 4 5 6 
#
# 1 59.3292 24.8563 40.9677 0.0000 15.8601 0.0000
# 2 24.8563 64.3667 32.7213 0.0000 1.1457 0.0000
# 3 40.9677 32.7213 130.2130 0.0000 -4.1289 0.0000
# 4 0.0000 0.0000 0.0000 -12.6093 0.0000 2.8381
# 5 15.8601 1.1457 -4.1289 0.0000 25.8564 0.0000
# 6 0.0000 0.0000 0.0000 2.8381 0.0000 7.8067
#
#
#
# Elastic Compliance Matrix: (Units=1/GPa)
#
#
# Indices 1 2 3 4 5 6 
#
# 1 0.031323 -0.007336 -0.008654 0.000000 -0.020270 0.000000
# 2 -0.007336 0.019588 -0.002512 0.000000 0.003231 0.000000
# 3 -0.008654 -0.002512 0.011263 0.000000 0.007218 0.000000
# 4 0.000000 0.000000 0.000000 -0.073308 0.000000 0.026651
# 5 -0.020270 0.003231 0.007218 0.000000 0.052118 0.000000
# 6 0.000000 0.000000 0.000000 0.026651 0.000000 0.118406
#
#
# Mechanical properties :
#
#
# Convention : Reuss Voigt Hill
#
# Bulk Modulus (GPa) = 39.72953 50.11106 44.92029
# Shear Modulus (GPa) = 24.41603 14.56835 19.49219
#
# Velocity S-wave (km/s) = 4.19514 3.24052 3.74834
# Velocity P-wave (km/s) = 7.21823 7.07966 7.14928
#
# Compressibility (1/GPa) = 0.02517020
#
# Stress axis : x y z
#
# Youngs Moduli (GPa) = 31.92540 51.05109 88.78911
#
# Poissons Ratio (x) = 0.37449 0.76840
# Poissons Ratio (y) = 0.23419 0.22303
# Poissons Ratio (z) = 0.27629 0.12824
#
# Static dielectric constant tensor:
#      x y z
#    x 2.944970 0.000000 -0.353210 
#    y 0.000000 2.515280 0.000000 
#    z -0.353210 0.000000 3.421890 
# 
# 
# High freq. dielectric constant tensor:
#      x y z
#    x 1.519900 0.000000 -0.017700 
#    y 0.000000 1.482240 0.000000 
#    z -0.017700 0.000000 1.551740 
# 
# From -- ./inp_files/12615.got.cif
#   From: 2010.06.25/outbox.cif.g09.slc.cpg/sg10_7_cif.got.tgz:12615.got - 2010.06.27 22:07:45.
