data_PCOD8059919
_publ_section_title
;
Structure prediction by ZEFSAII (Michael W. Deem and Ramdas Pophale) SiO2 
 PCOD8059919
Probable space group: P 2/M
;
_chemical_formula_sum "Si O2"
_cell_formula_units_Z 24
_cell_length_a 24.464238
_cell_length_b 8.942042
_cell_length_c 11.576036
_cell_angle_alpha 90.000000
_cell_angle_beta 146.251380
_cell_angle_gamma 90.000000
_cell_volume 1406.862263
_symmetry_space_group_name_H-M "P 2/M"
_symmetry_group_IT_number 10
_symmetry_cell_setting 'monoclinic'
loop_
_space_group_symop_operation_xyz
x,y,z
-x,y,-z
-x,-y,-z
x,-y,z
loop_
_atom_site_type_symbol
_atom_site_label
_atom_site_fract_x
_atom_site_fract_y
_atom_site_fract_z
Si Si1 0.948870 0.677605 0.236995
Si Si2 0.319377 0.322539 0.850008
Si Si3 0.145286 0.322570 0.698825
Si Si4 0.097814 0.325444 0.099256
Si Si5 0.530974 0.665535 0.186975
Si Si6 0.718950 0.176057 0.460378
O O1 0.952692 0.500000 0.237737
O O2 0.870065 0.731880 0.195783
O O3 0.056745 0.738611 0.462455
O O4 0.918823 0.738902 0.059054
O O5 0.311894 0.500000 0.816857
O O6 0.249691 0.266412 0.832154
O O7 0.282173 0.246751 0.667993
O O8 0.432305 0.278262 0.080583
O O9 0.141299 0.500000 0.689711
O O10 0.126705 0.500000 0.150546
O O11 0.184857 0.229996 0.305372
O O12 0.000000 0.297066 0.000000
O O13 0.562209 0.500000 0.284800
O O14 0.622671 0.776034 0.365704
O O15 0.500000 0.658534 0.000000
O O16 0.719482 0.000000 0.449407
#
# Coordination Sequence:
#
# PCOD8059919 Si02
#       6
#     4   4   4   4   4   4
#     4   8  14  24  42  69  95 116 141 179 223 265
#     4   9  16  28  48  70  91 116 148 186 226 268
#     4   8  13  24  44  70  94 112 139 182 227 265
#     4  10  19  31  48  68  91 121 153 181 216 265
#     4   8  15  28  45  65  88 115 148 186 226 266
#     4  11  21  30  43  65  94 123 149 183 224 265
#
# _framework density 17.059239000000002
#
# number of rings (size 3 to 8) (size 9 to 14) (size 15 to 20)
#    0.000    3.000    0.000    4.500    0.000    6.000 
#    0.000    0.000    0.000    2.000    0.000   10.500 
#    0.000    0.000    0.000    0.000    0.000    0.000 
#
# Total GULP energy -297413.021151 kJ/mol
# GULP energy per Si atom -12392.209215 kJ/mol
# Density = 1.702041 g / cm^3
# Si number density = 17.059239 Si / 1000 Ang^3
#
#
#
# Elastic Constant Matrix: (Units=GPa)
#
#
# Indices 1 2 3 4 5 6 
#
# 1 141.3511 30.0224 56.0411 0.0000 18.2091 0.0000
# 2 30.0224 42.1009 29.4544 0.0000 4.3158 0.0000
# 3 56.0411 29.4544 75.5516 0.0000 8.1800 0.0000
# 4 0.0000 0.0000 0.0000 4.3580 0.0000 -0.3437
# 5 18.2091 4.3158 8.1800 0.0000 31.4398 0.0000
# 6 0.0000 0.0000 0.0000 -0.3437 0.0000 1.8289
#
#
#
# Elastic Compliance Matrix: (Units=1/GPa)
#
#
# Indices 1 2 3 4 5 6 
#
# 1 0.010752 -0.002717 -0.006464 0.000000 -0.004172 0.000000
# 2 -0.002717 0.033392 -0.010986 0.000000 -0.000152 0.000000
# 3 -0.006464 -0.010986 0.022376 0.000000 -0.000570 0.000000
# 4 0.000000 0.000000 0.000000 0.232915 0.000000 0.043773
# 5 -0.004172 -0.000152 -0.000570 0.000000 0.034392 0.000000
# 6 0.000000 0.000000 0.000000 0.043773 0.000000 0.554989
#
#
# Mechanical properties :
#
#
# Convention : Reuss Voigt Hill
#
# Bulk Modulus (GPa) = 38.19103 54.44884 46.31994
# Shear Modulus (GPa) = 5.33117 17.09105 11.21111
#
# Velocity S-wave (km/s) = 1.76971 3.16866 2.56635
# Velocity P-wave (km/s) = 5.15866 6.73602 5.99941
#
# Compressibility (1/GPa) = 0.02618416
#
# Stress axis : x y z
#
# Youngs Moduli (GPa) = 93.00486 29.94761 44.69117
#
# Poissons Ratio (x) = 0.08137 0.28890
# Poissons Ratio (y) = 0.25270 0.49099
# Poissons Ratio (z) = 0.60123 0.32901
#
# Static dielectric constant tensor:
#      x y z
#    x 3.851700 0.000000 0.348240 
#    y 0.000000 2.788470 0.000000 
#    z 0.348240 0.000000 3.224110 
# 
# 
# High freq. dielectric constant tensor:
#      x y z
#    x 1.661830 0.000000 0.022630 
#    y 0.000000 1.615690 0.000000 
#    z 0.022630 0.000000 1.640750 
# 
# From -- ./inp_files/52862.got.cif
#   From: 2010.06.25/outbox.cif.g09.slc.cpg/sg10_27_cif.got.tgz:52862.got - 2010.06.27 22:07:45.
