data_PCOD8059631
_publ_section_title
;
Structure prediction by ZEFSAII (Michael W. Deem and Ramdas Pophale) SiO2 
 PCOD8059631
Probable space group: P 2/M
;
_chemical_formula_sum "Si O2"
_cell_formula_units_Z 32
_cell_length_a 16.677618
_cell_length_b 10.337318
_cell_length_c 20.060195
_cell_angle_alpha 90.000000
_cell_angle_beta 34.335976
_cell_angle_gamma 90.000000
_cell_volume 1950.700202
_symmetry_space_group_name_H-M "P 2/M"
_symmetry_group_IT_number 10
_symmetry_cell_setting 'monoclinic'
loop_
_space_group_symop_operation_xyz
x,y,z
-x,y,-z
-x,-y,-z
x,-y,z
loop_
_atom_site_type_symbol
_atom_site_label
_atom_site_fract_x
_atom_site_fract_y
_atom_site_fract_z
Si Si1 0.919646 0.352140 0.487110
Si Si2 0.380464 0.645726 0.248734
Si Si3 0.061666 0.854425 0.296894
Si Si4 0.915593 0.138424 0.127833
Si Si5 0.373042 0.852474 0.136941
Si Si6 0.121209 0.146561 0.107886
Si Si7 0.308866 0.646447 0.922730
Si Si8 0.829283 0.361369 0.122284
O O1 0.955959 0.500000 0.441017
O O2 0.751833 0.332619 0.611434
O O3 0.000000 0.316311 0.500000
O O4 0.967259 0.252580 0.397952
O O5 0.372526 0.500000 0.223145
O O6 0.378345 0.751843 0.193021
O O7 0.521397 0.661380 0.196419
O O8 0.227226 0.832815 0.197627
O O9 0.037745 0.836554 0.234431
O O10 0.015593 0.000000 0.350645
O O11 0.796174 0.250533 0.200347
O O12 0.015139 0.177326 0.120561
O O13 0.842437 0.000000 0.192575
O O14 0.000000 0.129869 0.000000
O O15 0.386674 0.000000 0.154552
O O16 0.500000 0.819159 0.000000
O O17 0.182749 0.000000 0.059899
O O18 0.248688 0.250576 0.017349
O O19 0.265430 0.500000 0.973516
O O20 0.244251 0.680957 0.895555
O O21 0.767708 0.500000 0.187847
O O22 0.000000 0.371643 0.000000
#
# Coordination Sequence:
#
# PCOD8059631 Si02
#       8
#     4   4   4   4   4   4   4   4
#     4  10  20  37  57  72  90 123 172 219 252 286
#     4  10  21  35  51  72  96 127 166 207 249 286
#     4  10  21  34  51  74  98 130 167 207 248 287
#     4   9  15  25  43  67  96 131 162 189 227 283
#     4  10  20  34  50  71 101 133 163 193 239 297
#     4  10  19  31  47  72 107 135 160 196 241 295
#     4  10  19  30  46  72 104 132 158 194 243 295
#     4   9  15  25  42  65  96 128 157 189 227 281
#
# _framework density 16.404366
#
# number of rings (size 3 to 8) (size 9 to 14) (size 15 to 20)
#    0.000    2.250    3.750    0.750    0.000    3.000 
#    0.000    0.000    0.000    0.000    0.000    0.875 
#    0.000    7.000    0.000    0.000    0.000    0.000 
#
# Total GULP energy -396532.081894 kJ/mol
# GULP energy per Si atom -12391.627559 kJ/mol
# Density = 1.636703 g / cm^3
# Si number density = 16.404366 Si / 1000 Ang^3
#
#
#
# Elastic Constant Matrix: (Units=GPa)
#
#
# Indices 1 2 3 4 5 6 
#
# 1 94.0528 48.8238 38.3983 0.0000 6.0489 0.0000
# 2 48.8238 134.3337 56.5895 0.0000 6.9523 0.0000
# 3 38.3983 56.5895 72.0929 0.0000 4.7371 0.0000
# 4 0.0000 0.0000 0.0000 11.3803 0.0000 4.4499
# 5 6.0489 6.9523 4.7371 0.0000 9.9046 0.0000
# 6 0.0000 0.0000 0.0000 4.4499 0.0000 20.6376
#
#
#
# Elastic Compliance Matrix: (Units=1/GPa)
#
#
# Indices 1 2 3 4 5 6 
#
# 1 0.014522 -0.002860 -0.005202 0.000000 -0.004373 0.000000
# 2 -0.002860 0.011822 -0.007563 0.000000 -0.002934 0.000000
# 3 -0.005202 -0.007563 0.022736 0.000000 -0.002388 0.000000
# 4 0.000000 0.000000 0.000000 0.095962 0.000000 -0.020691
# 5 -0.004373 -0.002934 -0.002388 0.000000 0.106835 0.000000
# 6 0.000000 0.000000 0.000000 -0.020691 0.000000 0.052917
#
#
# Mechanical properties :
#
#
# Convention : Reuss Voigt Hill
#
# Bulk Modulus (GPa) = 56.09219 65.34471 60.71845
# Shear Modulus (GPa) = 14.62043 18.82903 16.72473
#
# Velocity S-wave (km/s) = 2.98862 3.39160 3.19647
# Velocity P-wave (km/s) = 6.79535 7.43354 7.12160
#
# Compressibility (1/GPa) = 0.01782779
#
# Stress axis : x y z
#
# Youngs Moduli (GPa) = 68.85952 84.59075 43.98399
#
# Poissons Ratio (x) = 0.24195 0.22882
# Poissons Ratio (y) = 0.19696 0.33266
# Poissons Ratio (z) = 0.35823 0.63978
#
# Static dielectric constant tensor:
#      x y z
#    x 3.132370 0.000000 -0.091670 
#    y 0.000000 4.423980 0.000000 
#    z -0.091670 0.000000 2.753660 
# 
# 
# High freq. dielectric constant tensor:
#      x y z
#    x 1.633270 0.000000 -0.006860 
#    y 0.000000 1.659740 0.000000 
#    z -0.006860 0.000000 1.577690 
# 
# From -- ./inp_files/78185.got.cif
#   From: 2010.06.25/outbox.cif.g09.slc.cpg/sg10_40_cif.got.tgz:78185.got - 2010.06.27 22:07:45.
