data_PCOD8059635
_publ_section_title
;
Structure prediction by ZEFSAII (Michael W. Deem and Ramdas Pophale) SiO2 
 PCOD8059635
Probable space group: P 2/M
;
_chemical_formula_sum "Si O2"
_cell_formula_units_Z 32
_cell_length_a 11.216588
_cell_length_b 9.792233
_cell_length_c 20.401497
_cell_angle_alpha 90.000000
_cell_angle_beta 50.308587
_cell_angle_gamma 90.000000
_cell_volume 1724.290766
_symmetry_space_group_name_H-M "P 2/M"
_symmetry_group_IT_number 10
_symmetry_cell_setting 'monoclinic'
loop_
_space_group_symop_operation_xyz
x,y,z
-x,y,-z
-x,-y,-z
x,-y,z
loop_
_atom_site_type_symbol
_atom_site_label
_atom_site_fract_x
_atom_site_fract_y
_atom_site_fract_z
Si Si1 0.738853 0.161629 0.450133
Si Si2 0.431841 0.160281 0.621396
Si Si3 0.228096 0.162772 0.811499
Si Si4 0.668583 0.719001 0.951572
Si Si5 0.993039 0.340181 0.680365
Si Si6 0.630188 0.155699 0.103602
Si Si7 0.286529 0.847725 0.198145
Si Si8 0.004278 0.646027 0.824595
O O1 0.613979 0.198921 0.550841
O O2 0.663716 0.209111 0.408026
O O3 0.889827 0.256518 0.408069
O O4 0.781848 0.000000 0.435899
O O5 0.357051 0.217685 0.714557
O O6 0.418576 0.000000 0.627754
O O7 0.280165 0.214576 0.864596
O O8 0.064622 0.234034 0.850832
O O9 0.205247 0.000000 0.816426
O O10 0.680294 0.836586 0.891785
O O11 0.817887 0.624320 0.890092
O O12 0.500000 0.645124 0.000000
O O13 0.685758 0.770381 0.019187
O O14 0.980851 0.500000 0.664235
O O15 0.826009 0.267759 0.733492
O O16 0.055260 0.322017 0.732448
O O17 0.447060 0.171857 0.180499
O O18 0.677162 0.000000 0.078284
O O19 0.218564 0.000000 0.234090
O O20 0.075025 0.500000 0.821781
#
# Coordination Sequence:
#
# PCOD8059635 Si02
#       8
#     4   4   4   4   4   4   4   4
#     4   9  15  27  48  72  97 125 161 196 236 287
#     4   8  15  27  46  72  98 126 159 195 234 285
#     4  10  19  33  52  72  99 131 160 194 240 288
#     4   9  18  33  51  72  98 125 159 204 247 280
#     4  10  19  30  46  73 103 126 158 203 244 283
#     4   9  18  32  51  75  96 121 164 207 239 283
#     4   9  17  31  52  73  95 125 160 202 247 285
#     4  10  21  34  48  71 101 130 162 198 238 286
#
# _framework density 18.558356
#
# number of rings (size 3 to 8) (size 9 to 14) (size 15 to 20)
#    0.000    2.750    1.250    1.500    0.000    4.750 
#    0.000    6.875    0.000    0.750    0.000    5.250 
#    0.000    0.000    0.000    0.000    0.000    0.000 
#
# Total GULP energy -396441.262255 kJ/mol
# GULP energy per Si atom -12388.789445 kJ/mol
# Density = 1.851612 g / cm^3
# Si number density = 18.558356 Si / 1000 Ang^3
#
#
#
# Elastic Constant Matrix: (Units=GPa)
#
#
# Indices 1 2 3 4 5 6 
#
# 1 70.7721 29.4657 25.0554 0.0000 -4.6832 0.0000
# 2 29.4657 79.0035 18.2069 0.0000 -14.1272 0.0000
# 3 25.0554 18.2069 73.3378 0.0000 -17.0971 0.0000
# 4 0.0000 0.0000 0.0000 4.5981 0.0000 1.0598
# 5 -4.6832 -14.1272 -17.0971 0.0000 25.2809 0.0000
# 6 0.0000 0.0000 0.0000 1.0598 0.0000 11.6057
#
#
#
# Elastic Compliance Matrix: (Units=1/GPa)
#
#
# Indices 1 2 3 4 5 6 
#
# 1 0.018499 -0.006294 -0.005673 0.000000 -0.003927 0.000000
# 2 -0.006294 0.016448 -0.000074 0.000000 0.007976 0.000000
# 3 -0.005673 -0.000074 0.018208 0.000000 0.011222 0.000000
# 4 0.000000 0.000000 0.000000 0.222158 0.000000 -0.020288
# 5 -0.003927 0.007976 0.011222 0.000000 0.050874 0.000000
# 6 0.000000 0.000000 0.000000 -0.020288 0.000000 0.088017
#
#
# Mechanical properties :
#
#
# Convention : Reuss Voigt Hill
#
# Bulk Modulus (GPa) = 34.39559 40.95216 37.67388
# Shear Modulus (GPa) = 11.16127 18.32264 14.74195
#
# Velocity S-wave (km/s) = 2.45504 3.14554 2.82149
# Velocity P-wave (km/s) = 5.15851 5.94198 5.56405
#
# Compressibility (1/GPa) = 0.02907349
#
# Stress axis : x y z
#
# Youngs Moduli (GPa) = 54.05690 60.79612 54.92067
#
# Poissons Ratio (x) = 0.38267 0.31156
# Poissons Ratio (y) = 0.34025 0.00405
# Poissons Ratio (z) = 0.30666 0.00448
#
# Static dielectric constant tensor:
#      x y z
#    x 3.264660 0.000000 -0.081840 
#    y 0.000000 3.114120 0.000000 
#    z -0.081840 0.000000 3.692220 
# 
# 
# High freq. dielectric constant tensor:
#      x y z
#    x 1.697240 0.000000 -0.021220 
#    y 0.000000 1.695340 0.000000 
#    z -0.021220 0.000000 1.715680 
# 
# From -- ./inp_files/83520.got.cif
#   From: 2010.06.25/outbox.cif.g09.slc.cpg/sg10_42_cif.got.tgz:83520.got - 2010.06.27 22:07:45.
