data_PCOD8059800
_publ_section_title
;
Structure prediction by ZEFSAII (Michael W. Deem and Ramdas Pophale) SiO2 
 PCOD8059800
Probable space group: P 2/M
;
_chemical_formula_sum "Si O2"
_cell_formula_units_Z 20
_cell_length_a 9.030453
_cell_length_b 12.963320
_cell_length_c 16.709817
_cell_angle_alpha 90.000000
_cell_angle_beta 147.780393
_cell_angle_gamma 90.000000
_cell_volume 1042.941071
_symmetry_space_group_name_H-M "P 2/M"
_symmetry_group_IT_number 10
_symmetry_cell_setting 'monoclinic'
loop_
_space_group_symop_operation_xyz
x,y,z
-x,y,-z
-x,-y,-z
x,-y,z
loop_
_atom_site_type_symbol
_atom_site_label
_atom_site_fract_x
_atom_site_fract_y
_atom_site_fract_z
Si Si1 0.065087 0.189119 0.338943
Si Si2 0.877560 0.613774 0.322911
Si Si3 0.147805 0.000000 0.655573
Si Si4 0.654044 0.192737 0.690705
Si Si5 0.458701 0.613748 0.679585
Si Si6 0.300832 0.000000 0.174981
O O1 0.882000 0.293592 0.261092
O O2 0.368538 0.200926 0.513352
O O3 0.095866 0.170540 0.257537
O O4 0.920572 0.098413 0.321850
O O5 0.853497 0.500000 0.271247
O O6 0.166047 0.620936 0.501511
O O7 0.613721 0.631660 0.260268
O O8 0.477412 0.000000 0.794948
O O9 0.000000 0.000000 0.500000
O O10 0.681886 0.301568 0.751001
O O11 0.646989 0.100591 0.749249
O O12 0.590945 0.500000 0.726938
O O13 0.000000 0.000000 0.000000
#
# Coordination Sequence:
#
# PCOD8059800 Si02
#       6
#     4   4   2   4   4   2
#     4  10  19  30  53  80 105 136 172 219 262 307
#     4   8  14  24  41  72 109 139 167 206 258 309
#     4  12  21  35  57  77  98 134 183 218 256 315
#     4  10  19  33  50  77 110 135 172 218 264 306
#     4   8  14  25  45  71 104 140 172 208 251 306
#     4  12  25  39  55  75 104 139 177 220 263 314
#
# _framework density 19.176538000000001
#
# number of rings (size 3 to 8) (size 9 to 14) (size 15 to 20)
#    0.000    2.400    2.000    3.000    2.800    2.400 
#    0.000    6.000    0.000    0.600    0.000    0.000 
#    0.000    6.400    0.000    0.000    0.000    0.000 
#
# Total GULP energy -247790.368435 kJ/mol
# GULP energy per Si atom -12389.518422 kJ/mol
# Density = 1.913289 g / cm^3
# Si number density = 19.176538 Si / 1000 Ang^3
#
#
#
# Elastic Constant Matrix: (Units=GPa)
#
#
# Indices 1 2 3 4 5 6 
#
# 1 158.2176 97.5329 14.2409 0.0000 7.9641 0.0000
# 2 97.5329 185.1072 9.5867 0.0000 0.6431 0.0000
# 3 14.2409 9.5867 15.3759 0.0000 8.3040 0.0000
# 4 0.0000 0.0000 0.0000 22.2832 0.0000 34.8357
# 5 7.9641 0.6431 8.3040 0.0000 11.1227 0.0000
# 6 0.0000 0.0000 0.0000 34.8357 0.0000 67.0525
#
#
#
# Elastic Compliance Matrix: (Units=1/GPa)
#
#
# Indices 1 2 3 4 5 6 
#
# 1 0.009982 -0.005038 -0.004024 0.000000 -0.003852 0.000000
# 2 -0.005038 0.008223 -0.003607 0.000000 0.005824 0.000000
# 3 -0.004024 -0.003607 0.116192 0.000000 -0.083656 0.000000
# 4 0.000000 0.000000 0.000000 0.238947 0.000000 -0.124140
# 5 -0.003852 0.005824 -0.083656 0.000000 0.154783 0.000000
# 6 0.000000 0.000000 0.000000 -0.124140 0.000000 0.079408
#
#
# Mechanical properties :
#
#
# Convention : Reuss Voigt Hill
#
# Bulk Modulus (GPa) = 9.16924 66.82464 37.99694
# Shear Modulus (GPa) = 7.47133 35.91436 21.69285
#
# Velocity S-wave (km/s) = 1.97599 4.33231 3.36701
# Velocity P-wave (km/s) = 3.16195 7.74261 5.91379
#
# Compressibility (1/GPa) = 0.10906031
#
# Stress axis : x y z
#
# Youngs Moduli (GPa) = 100.18053 121.60704 8.60645
#
# Poissons Ratio (x) = 0.61262 0.03463
# Poissons Ratio (y) = 0.50468 0.03104
# Poissons Ratio (z) = 0.40312 0.43861
#
# Static dielectric constant tensor:
#      x y z
#    x 3.901160 0.000000 0.072190 
#    y 0.000000 3.951170 0.000000 
#    z 0.072190 0.000000 2.747620 
# 
# 
# High freq. dielectric constant tensor:
#      x y z
#    x 1.757580 0.000000 0.003230 
#    y 0.000000 1.769420 0.000000 
#    z 0.003230 0.000000 1.657690 
# 
# From -- ./inp_files/41739.got.cif
#   From: 2010.06.25/outbox.cif.g09.slc.cpg/sg10_21_cif.got.tgz:41739.got - 2010.06.27 22:07:45.
