data_PCOD8059394
_publ_section_title
;
Structure prediction by ZEFSAII (Michael W. Deem and Ramdas Pophale) SiO2 
 PCOD8059394
Probable space group: P 2/M
;
_chemical_formula_sum "Si O2"
_cell_formula_units_Z 32
_cell_length_a 7.617366
_cell_length_b 12.783277
_cell_length_c 21.056001
_cell_angle_alpha 90.000000
_cell_angle_beta 110.255516
_cell_angle_gamma 90.000000
_cell_volume 1923.529744
_symmetry_space_group_name_H-M "P 2/M"
_symmetry_group_IT_number 10
_symmetry_cell_setting 'monoclinic'
loop_
_space_group_symop_operation_xyz
x,y,z
-x,y,-z
-x,-y,-z
x,-y,z
loop_
_atom_site_type_symbol
_atom_site_label
_atom_site_fract_x
_atom_site_fract_y
_atom_site_fract_z
Si Si1 0.373449 0.624287 0.074427
Si Si2 0.271600 0.739600 0.311123
Si Si3 0.837239 0.624728 0.828684
Si Si4 0.234573 0.375724 0.923723
Si Si5 0.624910 0.877484 0.368304
Si Si6 0.007937 0.117296 0.346085
Si Si7 0.816548 0.816824 0.512964
Si Si8 0.698955 0.384077 0.557668
O O1 0.365962 0.500000 0.073927
O O2 0.288356 0.667740 0.128952
O O3 0.587838 0.663214 0.095140
O O4 0.253984 0.665055 0.998823
O O5 0.242463 0.671976 0.245217
O O6 0.445913 0.816421 0.319610
O O7 0.319020 0.659434 0.373433
O O8 0.079676 0.804913 0.299990
O O9 0.830751 0.500000 0.822721
O O10 0.046921 0.666900 0.867596
O O11 0.229221 0.500000 0.924717
O O12 0.810574 0.843718 0.351578
O O13 0.644177 0.848509 0.445949
O O14 0.588797 0.000000 0.356238
O O15 0.176081 0.119417 0.419885
O O16 0.988291 0.000000 0.316748
O O17 0.822827 0.693222 0.529933
O O18 0.000000 0.852333 0.500000
O O19 0.500000 0.390157 0.500000
O O20 0.790763 0.500000 0.570924
#
# Coordination Sequence:
#
# PCOD8059394 Si02
#       8
#     4   4   4   4   4   4   4   4
#     4   8  14  26  45  68  91 121 159 190 222 262
#     4  11  21  32  46  67  93 126 160 190 229 277
#     4  10  19  29  43  65  98 133 162 187 217 260
#     4   8  14  26  45  67  92 122 156 192 224 259
#     4  10  19  33  51  69  88 110 143 195 254 299
#     4   9  19  33  50  70  89 109 142 195 253 299
#     4   9  17  31  50  71  87 105 146 199 246 290
#     4  10  19  32  46  60  88 126 163 197 224 257
#
# _framework density 16.636081999999998
#
# number of rings (size 3 to 8) (size 9 to 14) (size 15 to 20)
#    0.000    2.625    1.250    2.250    0.000    4.250 
#    0.000    1.875    0.000    1.500    0.000    0.000 
#    0.000    8.000    0.000   22.000    0.000    1.000 
#
# Total GULP energy -396564.473393 kJ/mol
# GULP energy per Si atom -12392.639794 kJ/mol
# Density = 1.659822 g / cm^3
# Si number density = 16.636082 Si / 1000 Ang^3
#
#
#
# Elastic Constant Matrix: (Units=GPa)
#
#
# Indices 1 2 3 4 5 6 
#
# 1 81.9544 24.2532 48.0868 0.0000 1.9177 0.0000
# 2 24.2532 62.3826 24.9723 0.0000 -0.2874 0.0000
# 3 48.0868 24.9723 97.3194 0.0000 0.5472 0.0000
# 4 0.0000 0.0000 0.0000 -15.7959 0.0000 8.9635
# 5 1.9177 -0.2874 0.5472 0.0000 17.3344 0.0000
# 6 0.0000 0.0000 0.0000 8.9635 0.0000 17.4273
#
#
#
# Elastic Compliance Matrix: (Units=1/GPa)
#
#
# Indices 1 2 3 4 5 6 
#
# 1 0.018023 -0.003850 -0.007907 0.000000 -0.001808 0.000000
# 2 -0.003850 0.018691 -0.002898 0.000000 0.000827 0.000000
# 3 -0.007907 -0.002898 0.014924 0.000000 0.000356 0.000000
# 4 0.000000 0.000000 0.000000 -0.049005 0.000000 0.025205
# 5 -0.001808 0.000827 0.000356 0.000000 0.057891 0.000000
# 6 0.000000 0.000000 0.000000 0.025205 0.000000 0.044417
#
#
# Mechanical properties :
#
#
# Convention : Reuss Voigt Hill
#
# Bulk Modulus (GPa) = 44.78919 48.47568 46.63243
# Shear Modulus (GPa) = 35.28668 13.41611 24.35139
#
# Velocity S-wave (km/s) = 4.61053 2.84288 3.83007
# Velocity P-wave (km/s) = 7.43801 6.32282 6.90297
#
# Compressibility (1/GPa) = 0.02232682
#
# Stress axis : x y z
#
# Youngs Moduli (GPa) = 55.48381 53.50160 67.00454
#
# Poissons Ratio (x) = 0.20598 0.52984
# Poissons Ratio (y) = 0.21361 0.19421
# Poissons Ratio (z) = 0.43874 0.15507
#
# Static dielectric constant tensor:
#      x y z
#    x 3.311670 0.000000 -0.031840 
#    y 0.000000 2.959980 0.000000 
#    z -0.031840 0.000000 3.071500 
# 
# 
# High freq. dielectric constant tensor:
#      x y z
#    x 1.647320 0.000000 -0.001390 
#    y 0.000000 1.603720 0.000000 
#    z -0.001390 0.000000 1.623960 
# 
# From -- ./inp_files/80353.got.cif
#   From: 2010.06.25/outbox.cif.g09.slc.cpg/sg10_41_cif.got.tgz:80353.got - 2010.06.27 22:07:45.
