data_PCOD8059896
_publ_section_title
;
Structure prediction by ZEFSAII (Michael W. Deem and Ramdas Pophale) SiO2 
 PCOD8059896
Probable space group: P 2/M
;
_chemical_formula_sum "Si O2"
_cell_formula_units_Z 28
_cell_length_a 26.897207
_cell_length_b 9.480302
_cell_length_c 20.935950
_cell_angle_alpha 90.000000
_cell_angle_beta 162.514271
_cell_angle_gamma 90.000000
_cell_volume 1604.059990
_symmetry_space_group_name_H-M "P 2/M"
_symmetry_group_IT_number 10
_symmetry_cell_setting 'monoclinic'
loop_
_space_group_symop_operation_xyz
x,y,z
-x,y,-z
-x,-y,-z
x,-y,z
loop_
_atom_site_type_symbol
_atom_site_label
_atom_site_fract_x
_atom_site_fract_y
_atom_site_fract_z
Si Si1 0.484197 0.163721 0.342209
Si Si2 0.497459 0.340225 0.892481
Si Si3 0.238233 0.340247 0.681158
Si Si4 0.414665 0.835562 0.113052
Si Si5 0.833155 0.164209 0.833394
Si Si6 0.045561 0.164332 0.627125
Si Si7 0.676819 0.661051 0.749727
O O1 0.466519 0.209704 0.247309
O O2 0.674225 0.192805 0.594069
O O3 0.349738 0.254922 0.216687
O O4 0.438448 0.000000 0.296721
O O5 0.534967 0.500000 0.917569
O O6 0.328119 0.331706 0.723691
O O7 0.471582 0.245988 0.798070
O O8 0.645282 0.282876 0.118775
O O9 0.186489 0.500000 0.633104
O O10 0.077440 0.244456 0.476257
O O11 0.441504 0.000000 0.134614
O O12 0.227926 0.788486 0.869936
O O13 0.812766 0.258753 0.872360
O O14 0.842825 0.000000 0.865394
O O15 0.000000 0.209104 0.000000
O O16 0.000000 0.212630 0.500000
O O17 0.018189 0.000000 0.603505
O O18 0.500000 0.662277 0.500000
O O19 0.736278 0.500000 0.834956
#
# Coordination Sequence:
#
# PCOD8059896 Si02
#       7
#     4   4   4   4   4   4   4
#     4   9  18  33  51  71  98 131 164 197 237 289
#     4   9  18  32  49  69  93 123 160 201 243 291
#     4   9  18  32  49  69  92 121 161 203 244 292
#     4  10  20  33  49  71  98 128 162 201 246 290
#     4   9  17  31  53  78 100 127 163 199 235 281
#     4  10  19  31  47  70  96 121 157 205 245 282
#     4   9  17  30  50  75 101 128 160 196 234 281
#
# _framework density 17.455705999999999
#
# number of rings (size 3 to 8) (size 9 to 14) (size 15 to 20)
#    0.000    2.714    1.429    1.286    0.000    4.000 
#    0.000    2.857    0.000    6.857    0.000    0.000 
#    0.000    0.000    0.000    0.000    0.000    0.000 
#
# Total GULP energy -347165.184442 kJ/mol
# GULP energy per Si atom -12398.756587 kJ/mol
# Density = 1.741598 g / cm^3
# Si number density = 17.455706 Si / 1000 Ang^3
#
#
#
# Elastic Constant Matrix: (Units=GPa)
#
#
# Indices 1 2 3 4 5 6 
#
# 1 131.3557 66.2300 41.7667 0.0000 0.9382 0.0000
# 2 66.2300 71.7599 28.6231 0.0000 6.7799 0.0000
# 3 41.7667 28.6231 55.2562 0.0000 3.5743 0.0000
# 4 0.0000 0.0000 0.0000 20.0387 0.0000 5.9890
# 5 0.9382 6.7799 3.5743 0.0000 28.9859 0.0000
# 6 0.0000 0.0000 0.0000 5.9890 0.0000 37.4979
#
#
#
# Elastic Compliance Matrix: (Units=1/GPa)
#
#
# Indices 1 2 3 4 5 6 
#
# 1 0.015689 -0.012559 -0.005555 0.000000 0.003115 0.000000
# 2 -0.012559 0.027882 -0.004591 0.000000 -0.005549 0.000000
# 3 -0.005555 -0.004591 0.024791 0.000000 -0.001803 0.000000
# 4 0.000000 0.000000 0.000000 0.052405 0.000000 -0.008370
# 5 0.003115 -0.005549 -0.001803 0.000000 0.035919 0.000000
# 6 0.000000 0.000000 0.000000 -0.008370 0.000000 0.028005
#
#
# Mechanical properties :
#
#
# Convention : Reuss Voigt Hill
#
# Bulk Modulus (GPa) = 43.56836 59.06794 51.31815
# Shear Modulus (GPa) = 21.03034 25.42129 23.22582
#
# Velocity S-wave (km/s) = 3.47476 3.82033 3.65164
# Velocity P-wave (km/s) = 6.41188 7.30562 6.87329
#
# Compressibility (1/GPa) = 0.02295244
#
# Stress axis : x y z
#
# Youngs Moduli (GPa) = 63.73883 35.86574 40.33663
#
# Poissons Ratio (x) = 0.45042 0.22407
# Poissons Ratio (y) = 0.80047 0.18520
# Poissons Ratio (z) = 0.35407 0.16467
#
# Static dielectric constant tensor:
#      x y z
#    x 3.237820 0.000000 0.063880 
#    y 0.000000 3.247220 0.000000 
#    z 0.063880 0.000000 3.041990 
# 
# 
# High freq. dielectric constant tensor:
#      x y z
#    x 1.675280 0.000000 0.010460 
#    y 0.000000 1.673800 0.000000 
#    z 0.010460 0.000000 1.646670 
# 
# From -- ./inp_files/33486.got.cif
#   From: 2010.06.25/outbox.cif.g09.slc.cpg/sg10_17_cif.got.tgz:33486.got - 2010.06.27 22:07:45.
