data_PCOD8059999
_publ_section_title
;
Structure prediction by ZEFSAII (Michael W. Deem and Ramdas Pophale) SiO2 
 PCOD8059999
Probable space group: P 2/M
;
_chemical_formula_sum "Si O2"
_cell_formula_units_Z 26
_cell_length_a 11.474255
_cell_length_b 14.317185
_cell_length_c 9.424401
_cell_angle_alpha 90.000000
_cell_angle_beta 118.865147
_cell_angle_gamma 90.000000
_cell_volume 1355.876630
_symmetry_space_group_name_H-M "P 2/M"
_symmetry_group_IT_number 10
_symmetry_cell_setting 'monoclinic'
loop_
_space_group_symop_operation_xyz
x,y,z
-x,y,-z
-x,-y,-z
x,-y,z
loop_
_atom_site_type_symbol
_atom_site_label
_atom_site_fract_x
_atom_site_fract_y
_atom_site_fract_z
Si Si1 0.423202 0.394132 0.217637
Si Si2 0.991888 0.787730 0.157125
Si Si3 0.867033 0.105921 0.329988
Si Si4 0.500000 0.257697 0.500000
Si Si5 0.719295 0.396690 0.341878
Si Si6 0.162666 0.393587 0.890228
Si Si7 0.753310 0.786369 0.509581
O O1 0.407856 0.500000 0.264716
O O2 0.418655 0.323892 0.345971
O O3 0.562376 0.383099 0.213291
O O4 0.300431 0.366832 0.046476
O O5 0.882262 0.843791 0.185976
O O6 0.953800 0.677811 0.133052
O O7 0.133556 0.810895 0.310826
O O8 0.000000 0.824656 0.000000
O O9 0.758272 0.157801 0.363652
O O10 0.000000 0.110917 0.500000
O O11 0.821863 0.000000 0.275334
O O12 0.391853 0.190957 0.511317
O O13 0.743072 0.500000 0.418811
O O14 0.811666 0.381699 0.260775
O O15 0.765700 0.324339 0.488303
O O16 0.118292 0.500000 0.899955
#
# Coordination Sequence:
#
# PCOD8059999 Si02
#       7
#     4   4   4   2   4   4   4
#     4   9  17  29  46  72 107 146 187 220 251 300
#     4  11  22  35  54  81 112 139 174 219 265 317
#     4   9  19  38  61  80 102 135 174 218 267 319
#     4  10  19  32  53  76 106 144 182 218 262 304
#     4   9  17  30  51  76 104 143 186 221 253 300
#     4  10  19  31  48  75 110 145 178 217 264 308
#     4  10  20  36  55  81 108 139 180 217 260 319
#
# _framework density 19.175785999999999
#
# number of rings (size 3 to 8) (size 9 to 14) (size 15 to 20)
#    0.000    2.308    1.538    1.615    0.000    3.692 
#    0.000    1.923    0.000    0.000    0.000   14.000 
#    0.000    0.000    0.000    0.000    0.000    0.000 
#
# Total GULP energy -322319.707246 kJ/mol
# GULP energy per Si atom -12396.911817 kJ/mol
# Density = 1.913214 g / cm^3
# Si number density = 19.175786 Si / 1000 Ang^3
#
#
#
# Elastic Constant Matrix: (Units=GPa)
#
#
# Indices 1 2 3 4 5 6 
#
# 1 110.6319 45.0049 34.0931 0.0000 -24.9351 0.0000
# 2 45.0049 88.3588 26.9145 0.0000 -14.0928 0.0000
# 3 34.0931 26.9145 76.2523 0.0000 -18.4082 0.0000
# 4 0.0000 0.0000 0.0000 15.9077 0.0000 -1.7926
# 5 -24.9351 -14.0928 -18.4082 0.0000 28.5757 0.0000
# 6 0.0000 0.0000 0.0000 -1.7926 0.0000 14.3504
#
#
#
# Elastic Compliance Matrix: (Units=1/GPa)
#
#
# Indices 1 2 3 4 5 6 
#
# 1 0.013554 -0.004912 -0.002434 0.000000 0.007836 0.000000
# 2 -0.004912 0.014858 -0.002740 0.000000 0.001276 0.000000
# 3 -0.002434 -0.002740 0.016970 0.000000 0.007456 0.000000
# 4 0.000000 0.000000 0.000000 0.063760 0.000000 0.007965
# 5 0.007836 0.001276 0.007456 0.000000 0.047265 0.000000
# 6 0.000000 0.000000 0.000000 0.007965 0.000000 0.070679
#
#
# Mechanical properties :
#
#
# Convention : Reuss Voigt Hill
#
# Bulk Modulus (GPa) = 39.66949 54.14088 46.90518
# Shear Modulus (GPa) = 19.55714 23.04881 21.30297
#
# Velocity S-wave (km/s) = 3.19703 3.47071 3.33668
# Velocity P-wave (km/s) = 5.86176 6.66006 6.27362
#
# Compressibility (1/GPa) = 0.02520829
#
# Stress axis : x y z
#
# Youngs Moduli (GPa) = 73.78139 67.30595 58.92765
#
# Poissons Ratio (x) = 0.33061 0.14345
# Poissons Ratio (y) = 0.36242 0.16146
# Poissons Ratio (z) = 0.17961 0.18441
#
# Static dielectric constant tensor:
#      x y z
#    x 3.608800 0.000000 -0.168530 
#    y 0.000000 3.397500 0.000000 
#    z -0.168530 0.000000 3.302600 
# 
# 
# High freq. dielectric constant tensor:
#      x y z
#    x 1.746220 0.000000 -0.014520 
#    y 0.000000 1.721080 0.000000 
#    z -0.014520 0.000000 1.729300 
# 
# From -- ./inp_files/24829.got.cif
#   From: 2010.06.25/outbox.cif.g09.slc.cpg/sg10_13_cif.got.tgz:24829.got - 2010.06.27 22:07:45.
