data_PCOD8059544
_publ_section_title
;
Structure prediction by ZEFSAII (Michael W. Deem and Ramdas Pophale) SiO2 
 PCOD8059544
Probable space group: P 2/M
;
_chemical_formula_sum "Si O2"
_cell_formula_units_Z 32
_cell_length_a 11.743881
_cell_length_b 9.131530
_cell_length_c 21.419012
_cell_angle_alpha 90.000000
_cell_angle_beta 126.956379
_cell_angle_gamma 90.000000
_cell_volume 1835.490757
_symmetry_space_group_name_H-M "P 2/M"
_symmetry_group_IT_number 10
_symmetry_cell_setting 'monoclinic'
loop_
_space_group_symop_operation_xyz
x,y,z
-x,y,-z
-x,-y,-z
x,-y,z
loop_
_atom_site_type_symbol
_atom_site_label
_atom_site_fract_x
_atom_site_fract_y
_atom_site_fract_z
Si Si1 0.549465 0.670766 0.322785
Si Si2 0.656351 0.327643 0.033705
Si Si3 0.149866 0.329036 0.263734
Si Si4 0.736631 0.169475 0.805181
Si Si5 0.156082 0.669939 0.788561
Si Si6 0.353161 0.833676 0.092595
Si Si7 0.555548 0.671025 0.582544
Si Si8 0.340417 0.172475 0.751792
O O1 0.563031 0.500000 0.311282
O O2 0.394533 0.727152 0.254163
O O3 0.562381 0.699271 0.401787
O O4 0.665797 0.758553 0.320162
O O5 0.656141 0.500000 0.025718
O O6 0.766295 0.276265 0.122823
O O7 0.500000 0.268319 0.000000
O O8 0.703972 0.262094 0.983241
O O9 0.164063 0.500000 0.250844
O O10 0.134325 0.235351 0.193890
O O11 0.287706 0.268700 0.347005
O O12 0.011668 0.301030 0.260326
O O13 0.759956 0.182620 0.887593
O O14 0.705887 0.000000 0.777735
O O15 0.190852 0.500000 0.787639
O O16 0.209659 0.763705 0.747881
O O17 0.510728 0.782523 0.166453
O O18 0.361606 0.000000 0.072317
O O19 0.500000 0.745891 0.500000
O O20 0.576060 0.500000 0.577849
O O21 0.324170 0.000000 0.739848
#
# Coordination Sequence:
#
# PCOD8059544 Si02
#       8
#     4   4   4   4   4   4   4   4
#     4   9  16  27  47  73  98 124 154 192 234 273
#     4  10  19  30  45  66  90 120 157 198 239 277
#     4   9  18  32  50  71  95 125 156 191 234 280
#     4   9  17  30  47  68  94 123 157 197 235 278
#     4  10  20  33  47  67  95 124 160 198 236 283
#     4   9  18  30  45  66  90 118 155 199 239 276
#     4   8  14  27  50  78 100 118 147 188 232 276
#     4  10  19  30  46  69  95 125 161 198 236 275
#
# _framework density 17.43403
#
# number of rings (size 3 to 8) (size 9 to 14) (size 15 to 20)
#    0.000    2.750    1.250    2.625    0.000    3.750 
#    0.000    0.625    0.000   13.875    0.000    5.250 
#    0.000    0.000    0.000    0.000    0.000    0.000 
#
# Total GULP energy -396596.186657 kJ/mol
# GULP energy per Si atom -12393.630833 kJ/mol
# Density = 1.739435 g / cm^3
# Si number density = 17.434030 Si / 1000 Ang^3
#
#
#
# Elastic Constant Matrix: (Units=GPa)
#
#
# Indices 1 2 3 4 5 6 
#
# 1 120.7872 54.9982 53.3157 0.0000 -21.6968 0.0000
# 2 54.9982 63.7475 31.9232 0.0000 -16.8348 0.0000
# 3 53.3157 31.9232 76.4434 0.0000 -18.7492 0.0000
# 4 0.0000 0.0000 0.0000 7.9175 0.0000 -3.9172
# 5 -21.6968 -16.8348 -18.7492 0.0000 27.3442 0.0000
# 6 0.0000 0.0000 0.0000 -3.9172 0.0000 24.9365
#
#
#
# Elastic Compliance Matrix: (Units=1/GPa)
#
#
# Indices 1 2 3 4 5 6 
#
# 1 0.016133 -0.010096 -0.006516 0.000000 0.002117 0.000000
# 2 -0.010096 0.027663 -0.002763 0.000000 0.007125 0.000000
# 3 -0.006516 -0.002763 0.020551 0.000000 0.007220 0.000000
# 4 0.000000 0.000000 0.000000 0.136946 0.000000 0.021512
# 5 0.002117 0.007125 0.007220 0.000000 0.047588 0.000000
# 6 0.000000 0.000000 0.000000 0.021512 0.000000 0.043481
#
#
# Mechanical properties :
#
#
# Convention : Reuss Voigt Hill
#
# Bulk Modulus (GPa) = 39.06926 60.16134 49.61530
# Shear Modulus (GPa) = 14.72129 20.08905 17.40517
#
# Velocity S-wave (km/s) = 2.90901 3.39822 3.16309
# Velocity P-wave (km/s) = 5.80875 7.06966 6.46999
#
# Compressibility (1/GPa) = 0.02559557
#
# Stress axis : x y z
#
# Youngs Moduli (GPa) = 61.98563 36.14977 48.65946
#
# Poissons Ratio (x) = 0.36498 0.31708
# Poissons Ratio (y) = 0.62582 0.13444
# Poissons Ratio (z) = 0.40392 0.09987
#
# Static dielectric constant tensor:
#      x y z
#    x 3.469990 0.000000 -0.340160 
#    y 0.000000 3.167830 0.000000 
#    z -0.340160 0.000000 3.176210 
# 
# 
# High freq. dielectric constant tensor:
#      x y z
#    x 1.673960 0.000000 -0.029010 
#    y 0.000000 1.665880 0.000000 
#    z -0.029010 0.000000 1.635210 
# 
# From -- ./inp_files/52713.got.cif
#   From: 2010.06.25/outbox.cif.g09.slc.cpg/sg10_27_cif.got.tgz:52713.got - 2010.06.27 22:07:45.
