data_PCOD8059949
_publ_section_title
;
Structure prediction by ZEFSAII (Michael W. Deem and Ramdas Pophale) SiO2 
 PCOD8059949
Probable space group: P 2/M
;
_chemical_formula_sum "Si O2"
_cell_formula_units_Z 28
_cell_length_a 28.605961
_cell_length_b 7.996831
_cell_length_c 9.699761
_cell_angle_alpha 90.000000
_cell_angle_beta 41.996897
_cell_angle_gamma 90.000000
_cell_volume 1484.636951
_symmetry_space_group_name_H-M "P 2/M"
_symmetry_group_IT_number 10
_symmetry_cell_setting 'monoclinic'
loop_
_space_group_symop_operation_xyz
x,y,z
-x,y,-z
-x,-y,-z
x,-y,z
loop_
_atom_site_type_symbol
_atom_site_label
_atom_site_fract_x
_atom_site_fract_y
_atom_site_fract_z
Si Si1 0.406092 0.000000 0.836268
Si Si2 0.354178 0.684676 0.594204
Si Si3 0.209466 0.191307 0.864014
Si Si4 0.907405 0.696722 0.078470
Si Si5 0.561219 0.000000 0.558258
Si Si6 0.178706 0.191684 0.233680
Si Si7 0.061861 0.696635 0.681808
Si Si8 0.678325 0.684701 0.013245
O O1 0.363809 0.831930 0.972677
O O2 0.478162 0.000000 0.762712
O O3 0.420085 0.000000 0.643261
O O4 0.384528 0.500000 0.490092
O O5 0.280426 0.707213 0.676741
O O6 0.339461 0.697264 0.787780
O O7 0.408369 0.832017 0.435767
O O8 0.155415 0.210543 0.858671
O O9 0.232288 0.000000 0.827678
O O10 0.174183 0.253246 0.084712
O O11 0.897797 0.500000 0.082854
O O12 0.905980 0.749773 0.241510
O O13 0.981139 0.753305 0.850294
O O14 0.103535 0.214938 0.468011
O O15 0.201677 0.000000 0.187769
O O16 0.238203 0.292567 0.186878
O O17 0.067591 0.500000 0.650398
O O18 0.657801 0.500000 0.000140
#
# Coordination Sequence:
#
# PCOD8059949 Si02
#       8
#     2   4   4   4   2   4   4   4
#     4   9  16  26  40  62  94 127 160 198 239 291
#     4   9  16  27  43  63  91 127 163 200 244 288
#     4  10  19  31  48  70  97 128 165 208 248 291
#     4   9  19  35  51  68  94 127 163 206 253 298
#     4   9  16  26  40  62  94 127 160 198 239 291
#     4  10  19  31  48  70  97 128 165 208 248 291
#     4   9  19  35  51  68  94 127 163 206 253 298
#     4   9  16  27  43  63  91 127 163 200 244 288
#
# _framework density 18.859831
#
# number of rings (size 3 to 8) (size 9 to 14) (size 15 to 20)
#    0.000    2.714    1.429    1.714    0.000    4.000 
#    0.000    7.143    0.000    0.000    0.000    0.000 
#    0.000    2.286    0.000    6.000    0.000    5.714 
#
# Total GULP energy -347083.650288 kJ/mol
# GULP energy per Si atom -12395.844653 kJ/mol
# Density = 1.881691 g / cm^3
# Si number density = 18.859831 Si / 1000 Ang^3
#
#
#
# Elastic Constant Matrix: (Units=GPa)
#
#
# Indices 1 2 3 4 5 6 
#
# 1 93.7394 41.0483 20.7650 0.0000 -23.0693 0.0000
# 2 41.0483 109.7132 11.1193 0.0000 -17.7822 0.0000
# 3 20.7650 11.1193 9.0453 0.0000 -8.4183 0.0000
# 4 0.0000 0.0000 0.0000 17.9744 0.0000 -5.6826
# 5 -23.0693 -17.7822 -8.4183 0.0000 20.6105 0.0000
# 6 0.0000 0.0000 0.0000 -5.6826 0.0000 24.9260
#
#
#
# Elastic Compliance Matrix: (Units=1/GPa)
#
#
# Indices 1 2 3 4 5 6 
#
# 1 0.023239 -0.003381 -0.044686 0.000000 0.004843 0.000000
# 2 -0.003381 0.011395 -0.000998 0.000000 0.005639 0.000000
# 3 -0.044686 -0.000998 0.269436 0.000000 0.059172 0.000000
# 4 0.000000 0.000000 0.000000 0.059956 0.000000 0.013669
# 5 0.004843 0.005639 0.059172 0.000000 0.082973 0.000000
# 6 0.000000 0.000000 0.000000 0.013669 0.000000 0.043235
#
#
# Mechanical properties :
#
#
# Convention : Reuss Voigt Hill
#
# Bulk Modulus (GPa) = 4.85577 39.81812 22.33694
# Shear Modulus (GPa) = 7.61024 22.00653 14.80838
#
# Velocity S-wave (km/s) = 2.01095 3.41962 2.80515
# Velocity P-wave (km/s) = 2.82350 6.06220 4.72876
#
# Compressibility (1/GPa) = 0.20594075
#
# Stress axis : x y z
#
# Youngs Moduli (GPa) = 43.03145 87.75980 3.71146
#
# Poissons Ratio (x) = 0.29670 0.16585
# Poissons Ratio (y) = 0.14548 0.00370
# Poissons Ratio (z) = 1.92289 0.08756
#
# Static dielectric constant tensor:
#      x y z
#    x 3.267070 0.000000 -0.251970 
#    y 0.000000 3.590690 0.000000 
#    z -0.251970 0.000000 3.197950 
# 
# 
# High freq. dielectric constant tensor:
#      x y z
#    x 1.706450 0.000000 -0.029650 
#    y 0.000000 1.743860 0.000000 
#    z -0.029650 0.000000 1.691040 
# 
# From -- ./inp_files/37215.got.cif
#   From: 2010.06.25/outbox.cif.g09.slc.cpg/sg10_19_cif.got.tgz:37215.got - 2010.06.27 22:07:45.
