data_PCOD8059822
_publ_section_title
;
Structure prediction by ZEFSAII (Michael W. Deem and Ramdas Pophale) SiO2 
 PCOD8059822
Probable space group: P 2/M
;
_chemical_formula_sum "Si O2"
_cell_formula_units_Z 32
_cell_length_a 14.546937
_cell_length_b 8.616978
_cell_length_c 20.634668
_cell_angle_alpha 90.000000
_cell_angle_beta 42.450695
_cell_angle_gamma 90.000000
_cell_volume 1745.818823
_symmetry_space_group_name_H-M "P 2/M"
_symmetry_group_IT_number 10
_symmetry_cell_setting 'monoclinic'
loop_
_space_group_symop_operation_xyz
x,y,z
-x,y,-z
-x,-y,-z
x,-y,z
loop_
_atom_site_type_symbol
_atom_site_label
_atom_site_fract_x
_atom_site_fract_y
_atom_site_fract_z
Si Si1 0.359233 0.319589 0.026436
Si Si2 0.048258 0.317176 0.171110
Si Si3 0.692007 0.680347 0.806114
Si Si4 0.974592 0.181053 0.689429
Si Si5 0.894244 0.320110 0.498997
Si Si6 0.650136 0.823334 0.693357
Si Si7 0.924556 0.815558 0.975206
Si Si8 0.621868 0.179755 0.113879
O O1 0.366827 0.500000 0.012825
O O2 0.204771 0.261470 0.097118
O O3 0.403329 0.281702 0.079528
O O4 0.439460 0.249721 0.922236
O O5 0.026642 0.500000 0.188310
O O6 0.963968 0.228692 0.271984
O O7 0.998191 0.257787 0.126900
O O8 0.672972 0.500000 0.795223
O O9 0.847138 0.703783 0.747468
O O10 0.675924 0.798973 0.756018
O O11 0.082858 0.217519 0.576672
O O12 0.935271 0.000000 0.707745
O O13 0.912502 0.500000 0.472857
O O14 0.739917 0.290427 0.602978
O O15 0.000000 0.268366 0.500000
O O16 0.487578 0.788722 0.771166
O O17 0.686909 0.000000 0.656126
O O18 0.931257 0.000000 0.967180
O O19 0.768107 0.752668 0.059183
O O20 0.000000 0.754404 0.000000
O O21 0.637162 0.000000 0.092002
#
# Coordination Sequence:
#
# PCOD8059822 Si02
#       8
#     4   4   4   4   4   4   4   4
#     4   8  16  29  45  63  88 125 164 198 235 282
#     4   9  17  30  48  73 104 132 162 200 244 293
#     4  10  19  31  45  65  92 126 168 208 245 285
#     4  11  20  31  50  72  97 128 166 210 252 292
#     4  11  22  35  51  69  93 127 170 216 254 291
#     4  11  22  33  46  66  93 127 167 208 249 291
#     4   9  17  32  55  80 105 133 164 198 241 295
#     4   9  19  33  47  68  98 127 159 201 244 289
#
# _framework density 18.329508000000001
#
# number of rings (size 3 to 8) (size 9 to 14) (size 15 to 20)
#    0.000    2.250    1.250    3.375    0.000    5.750 
#    0.000    2.500    0.000    0.000    0.000    0.875 
#    0.000    7.000    0.000    0.000    0.000    0.000 
#
# Total GULP energy -396616.477767 kJ/mol
# GULP energy per Si atom -12394.264930 kJ/mol
# Density = 1.828779 g / cm^3
# Si number density = 18.329508 Si / 1000 Ang^3
#
#
#
# Elastic Constant Matrix: (Units=GPa)
#
#
# Indices 1 2 3 4 5 6 
#
# 1 63.1482 8.1927 24.6005 0.0000 17.5605 0.0000
# 2 8.1927 41.6666 19.0266 0.0000 10.3721 0.0000
# 3 24.6005 19.0266 111.9204 0.0000 18.2791 0.0000
# 4 0.0000 0.0000 0.0000 28.5279 0.0000 7.2755
# 5 17.5605 10.3721 18.2791 0.0000 22.4795 0.0000
# 6 0.0000 0.0000 0.0000 7.2755 0.0000 17.7137
#
#
#
# Elastic Compliance Matrix: (Units=1/GPa)
#
#
# Indices 1 2 3 4 5 6 
#
# 1 0.020703 0.000600 -0.002267 0.000000 -0.014606 0.000000
# 2 0.000600 0.028009 -0.003121 0.000000 -0.010855 0.000000
# 3 -0.002267 -0.003121 0.010885 0.000000 -0.005640 0.000000
# 4 0.000000 0.000000 0.000000 0.039155 0.000000 -0.016082
# 5 -0.014606 -0.010855 -0.005640 0.000000 0.065490 0.000000
# 6 0.000000 0.000000 0.000000 -0.016082 0.000000 0.063059
#
#
# Mechanical properties :
#
#
# Convention : Reuss Voigt Hill
#
# Bulk Modulus (GPa) = 19.99112 35.59718 27.79415
# Shear Modulus (GPa) = 19.72006 24.73858 22.22932
#
# Velocity S-wave (km/s) = 3.28360 3.67776 3.48625
# Velocity P-wave (km/s) = 5.03053 6.12351 5.60373
#
# Compressibility (1/GPa) = 0.05002222
#
# Stress axis : x y z
#
# Youngs Moduli (GPa) = 48.30271 35.70258 91.87019
#
# Poissons Ratio (x) = -0.02144 0.20828
# Poissons Ratio (y) = -0.02901 0.28670
# Poissons Ratio (z) = 0.10951 0.11142
#
# Static dielectric constant tensor:
#      x y z
#    x 3.319140 0.000000 0.081910 
#    y 0.000000 3.176740 0.000000 
#    z 0.081910 0.000000 3.667720 
# 
# 
# High freq. dielectric constant tensor:
#      x y z
#    x 1.665520 0.000000 0.012320 
#    y 0.000000 1.709740 0.000000 
#    z 0.012320 0.000000 1.718050 
# 
# From -- ./inp_files/84722.got.cif
#   From: 2010.06.25/outbox.cif.g09.slc.cpg/sg10_43_cif.got.tgz:84722.got - 2010.06.27 22:07:45.
