data_PCOD8059559
_publ_section_title
;
Structure prediction by ZEFSAII (Michael W. Deem and Ramdas Pophale) SiO2 
 PCOD8059559
Probable space group: P 2/M
;
_chemical_formula_sum "Si O2"
_cell_formula_units_Z 32
_cell_length_a 28.036950
_cell_length_b 8.720982
_cell_length_c 14.411543
_cell_angle_alpha 90.000000
_cell_angle_beta 150.404334
_cell_angle_gamma 90.000000
_cell_volume 1740.302100
_symmetry_space_group_name_H-M "P 2/M"
_symmetry_group_IT_number 10
_symmetry_cell_setting 'monoclinic'
loop_
_space_group_symop_operation_xyz
x,y,z
-x,y,-z
-x,-y,-z
x,-y,z
loop_
_atom_site_type_symbol
_atom_site_label
_atom_site_fract_x
_atom_site_fract_y
_atom_site_fract_z
Si Si1 0.389357 0.672188 0.288174
Si Si2 0.393710 0.181675 0.790861
Si Si3 0.454206 0.326191 0.203672
Si Si4 0.238246 0.178654 0.157101
Si Si5 0.644998 0.820039 0.478393
Si Si6 0.080388 0.183401 0.751425
Si Si7 0.294966 0.676973 0.789153
Si Si8 0.877027 0.682630 0.369823
O O1 0.500000 0.695989 0.500000
O O2 0.354570 0.500000 0.254499
O O3 0.379850 0.703483 0.162155
O O4 0.325388 0.793347 0.233816
O O5 0.361171 0.251068 0.635565
O O6 0.308258 0.231087 0.716060
O O7 0.398922 0.000000 0.795039
O O8 0.500000 0.246098 0.000000
O O9 0.493669 0.500000 0.275885
O O10 0.545405 0.214531 0.363270
O O11 0.395554 0.296128 0.011347
O O12 0.266693 0.246986 0.307655
O O13 0.225829 0.000000 0.148270
O O14 0.139810 0.240786 0.943194
O O15 0.657831 0.000000 0.492008
O O16 0.136170 0.238484 0.752938
O O17 0.977546 0.265150 0.585098
O O18 0.068610 0.000000 0.727617
O O19 0.276856 0.500000 0.735251
O O20 0.206329 0.739867 0.700945
O O21 0.874298 0.500000 0.351750
#
# Coordination Sequence:
#
# PCOD8059559 Si02
#       8
#     4   4   4   4   4   4   4   4
#     4  10  19  30  45  68 100 135 171 207 242 294
#     4  10  20  34  52  75 101 134 176 218 260 303
#     4  10  19  31  46  69 100 134 167 203 247 297
#     4  10  21  34  50  72 102 139 173 208 254 305
#     4  10  20  34  49  69 100 135 171 209 248 299
#     4  10  20  35  55  81 108 136 172 212 256 308
#     4  10  21  34  52  76 103 133 169 213 261 311
#     4  10  20  36  57  81 106 136 170 211 263 311
#
# _framework density 18.387611
#
# number of rings (size 3 to 8) (size 9 to 14) (size 15 to 20)
#    0.000    2.000    2.500    2.250    0.000    4.500 
#    0.000    0.000    0.000    0.750    0.000    5.250 
#    0.000    0.000    0.000    0.000    0.000    0.000 
#
# Total GULP energy -396588.134890 kJ/mol
# GULP energy per Si atom -12393.379215 kJ/mol
# Density = 1.834576 g / cm^3
# Si number density = 18.387611 Si / 1000 Ang^3
#
#
#
# Elastic Constant Matrix: (Units=GPa)
#
#
# Indices 1 2 3 4 5 6 
#
# 1 91.0209 13.3831 53.9137 0.0000 -11.4327 0.0000
# 2 13.3831 18.5252 16.7960 0.0000 -3.9310 0.0000
# 3 53.9137 16.7960 102.2112 0.0000 -27.5647 0.0000
# 4 0.0000 0.0000 0.0000 17.6509 0.0000 3.4494
# 5 -11.4327 -3.9310 -27.5647 0.0000 30.5504 0.0000
# 6 0.0000 0.0000 0.0000 3.4494 0.0000 26.7740
#
#
#
# Elastic Compliance Matrix: (Units=1/GPa)
#
#
# Indices 1 2 3 4 5 6 
#
# 1 0.016417 -0.004632 -0.008461 0.000000 -0.002087 0.000000
# 2 -0.004632 0.064800 -0.008490 0.000000 -0.001055 0.000000
# 3 -0.008461 -0.008490 0.019154 0.000000 0.013023 0.000000
# 4 0.000000 0.000000 0.000000 0.058118 0.000000 -0.007488
# 5 -0.002087 -0.001055 0.013023 0.000000 0.043567 0.000000
# 6 0.000000 0.000000 0.000000 -0.007488 0.000000 0.038314
#
#
# Mechanical properties :
#
#
# Convention : Reuss Voigt Hill
#
# Bulk Modulus (GPa) = 17.48075 42.21587 29.84831
# Shear Modulus (GPa) = 16.52323 23.50602 20.01463
#
# Velocity S-wave (km/s) = 3.00093 3.57930 3.30280
# Velocity P-wave (km/s) = 4.64057 6.33171 5.55092
#
# Compressibility (1/GPa) = 0.05720577
#
# Stress axis : x y z
#
# Youngs Moduli (GPa) = 60.91184 15.43206 52.20835
#
# Poissons Ratio (x) = 0.07147 0.44175
# Poissons Ratio (y) = 0.28212 0.44325
# Poissons Ratio (z) = 0.51539 0.13102
#
# Static dielectric constant tensor:
#      x y z
#    x 3.445060 0.000000 -0.361500 
#    y 0.000000 3.222860 0.000000 
#    z -0.361500 0.000000 3.781350 
# 
# 
# High freq. dielectric constant tensor:
#      x y z
#    x 1.696240 0.000000 -0.019200 
#    y 0.000000 1.699290 0.000000 
#    z -0.019200 0.000000 1.713450 
# 
# From -- ./inp_files/72575.got.cif
#   From: 2010.06.25/outbox.cif.g09.slc.cpg/sg10_37_cif.got.tgz:72575.got - 2010.06.27 22:07:45.
