data_PCOD8059983
_publ_section_title
;
Structure prediction by ZEFSAII (Michael W. Deem and Ramdas Pophale) SiO2 
 PCOD8059983
Probable space group: P 2/M
;
_chemical_formula_sum "Si O2"
_cell_formula_units_Z 28
_cell_length_a 18.299336
_cell_length_b 9.344787
_cell_length_c 9.371551
_cell_angle_alpha 90.000000
_cell_angle_beta 94.417620
_cell_angle_gamma 90.000000
_cell_volume 1597.806010
_symmetry_space_group_name_H-M "P 2/M"
_symmetry_group_IT_number 10
_symmetry_cell_setting 'monoclinic'
loop_
_space_group_symop_operation_xyz
x,y,z
-x,y,-z
-x,-y,-z
x,-y,z
loop_
_atom_site_type_symbol
_atom_site_label
_atom_site_fract_x
_atom_site_fract_y
_atom_site_fract_z
Si Si1 0.443830 0.837783 0.794663
Si Si2 0.395879 0.837831 0.099688
Si Si3 0.697726 0.332011 0.718090
Si Si4 0.859870 0.330657 0.655508
Si Si5 0.010342 0.830351 0.169385
Si Si6 0.930764 0.340316 0.385986
Si Si7 0.581102 0.332132 0.469187
O O1 0.526536 0.778676 0.829261
O O2 0.399762 0.741169 0.677178
O O3 0.448123 0.000000 0.740288
O O4 0.396594 0.829070 0.930173
O O5 0.327428 0.742937 0.139996
O O6 0.384012 0.000000 0.149149
O O7 0.692871 0.500000 0.739921
O O8 0.779117 0.283759 0.690227
O O9 0.641062 0.277993 0.589985
O O10 0.874751 0.500000 0.680137
O O11 0.915334 0.242878 0.764061
O O12 0.866238 0.292692 0.486393
O O13 0.942461 0.766501 0.253410
O O14 0.013935 0.000000 0.195613
O O15 0.000000 0.795063 0.000000
O O16 0.916479 0.500000 0.322157
O O17 0.000000 0.341432 0.500000
O O18 0.500000 0.280982 0.500000
O O19 0.585426 0.500000 0.448716
#
# Coordination Sequence:
#
# PCOD8059983 Si02
#       7
#     4   4   4   4   4   4   4
#     4   9  18  32  49  69  94 126 167 211 252 300
#     4   9  18  32  49  70  96 128 166 208 253 299
#     4  10  20  34  51  73 102 132 166 208 255 301
#     4   9  19  35  53  74 101 134 169 205 245 295
#     4  10  20  33  52  80 108 132 161 201 245 290
#     4   8  15  30  52  75  99 130 167 201 236 285
#     4  10  19  31  48  73 100 127 163 211 258 296
#
# _framework density 17.524028000000001
#
# number of rings (size 3 to 8) (size 9 to 14) (size 15 to 20)
#    0.000    2.714    1.429    2.143    0.000    5.714 
#    0.000    2.857    0.000    5.143    0.000    0.000 
#    0.000    0.000    0.000    0.000    0.000    0.000 
#
# Total GULP energy -347060.933491 kJ/mol
# GULP energy per Si atom -12395.033339 kJ/mol
# Density = 1.748414 g / cm^3
# Si number density = 17.524028 Si / 1000 Ang^3
#
#
#
# Elastic Constant Matrix: (Units=GPa)
#
#
# Indices 1 2 3 4 5 6 
#
# 1 101.2519 41.1086 47.3703 0.0000 -21.3514 0.0000
# 2 41.1086 59.0379 54.7653 0.0000 -7.8854 0.0000
# 3 47.3703 54.7653 105.2155 0.0000 -13.6098 0.0000
# 4 0.0000 0.0000 0.0000 36.0468 0.0000 -4.3009
# 5 -21.3514 -7.8854 -13.6098 0.0000 27.7308 0.0000
# 6 0.0000 0.0000 0.0000 -4.3009 0.0000 23.9217
#
#
#
# Elastic Compliance Matrix: (Units=1/GPa)
#
#
# Indices 1 2 3 4 5 6 
#
# 1 0.015967 -0.008365 -0.001657 0.000000 0.009102 0.000000
# 2 -0.008365 0.037161 -0.016062 0.000000 -0.003757 0.000000
# 3 -0.001657 -0.016062 0.019066 0.000000 0.003513 0.000000
# 4 0.000000 0.000000 0.000000 0.028350 0.000000 0.005097
# 5 0.009102 -0.003757 0.003513 0.000000 0.043725 0.000000
# 6 0.000000 0.000000 0.000000 0.005097 0.000000 0.042719
#
#
# Mechanical properties :
#
#
# Convention : Reuss Voigt Hill
#
# Bulk Modulus (GPa) = 49.93934 61.33263 55.63599
# Shear Modulus (GPa) = 20.33901 25.69061 23.01481
#
# Velocity S-wave (km/s) = 3.41051 3.83302 3.62792
# Velocity P-wave (km/s) = 6.63839 7.39355 7.02612
#
# Compressibility (1/GPa) = 0.02002429
#
# Stress axis : x y z
#
# Youngs Moduli (GPa) = 62.62764 26.90990 52.45051
#
# Poissons Ratio (x) = 0.22510 0.08694
# Poissons Ratio (y) = 0.52388 0.84248
# Poissons Ratio (z) = 0.10380 0.43224
#
# Static dielectric constant tensor:
#      x y z
#    x 3.265700 0.000000 -0.282210 
#    y 0.000000 3.174560 0.000000 
#    z -0.282210 0.000000 3.345410 
# 
# 
# High freq. dielectric constant tensor:
#      x y z
#    x 1.654350 0.000000 -0.019250 
#    y 0.000000 1.672880 0.000000 
#    z -0.019250 0.000000 1.677040 
# 
# From -- ./inp_files/33478.got.cif
#   From: 2010.06.25/outbox.cif.g09.slc.cpg/sg10_17_cif.got.tgz:33478.got - 2010.06.27 22:07:45.
