data_PCOD8059040
_publ_section_title
;
Structure prediction by ZEFSAII (Michael W. Deem and Ramdas Pophale) SiO2 
 PCOD8059040
Probable space group: P 2/M
;
_chemical_formula_sum "Si O2"
_cell_formula_units_Z 28
_cell_length_a 21.903063
_cell_length_b 8.539918
_cell_length_c 12.409974
_cell_angle_alpha 90.000000
_cell_angle_beta 138.525817
_cell_angle_gamma 90.000000
_cell_volume 1537.349848
_symmetry_space_group_name_H-M "P 2/M"
_symmetry_group_IT_number 10
_symmetry_cell_setting 'monoclinic'
loop_
_space_group_symop_operation_xyz
x,y,z
-x,y,-z
-x,-y,-z
x,-y,z
loop_
_atom_site_type_symbol
_atom_site_label
_atom_site_fract_x
_atom_site_fract_y
_atom_site_fract_z
Si Si1 0.218322 0.314831 0.922661
Si Si2 0.399946 0.181632 0.476574
Si Si3 0.904706 0.318253 0.434059
Si Si4 0.094115 0.818503 0.332296
Si Si5 0.223667 0.682278 0.333935
Si Si6 0.410584 0.316484 0.258460
Si Si7 0.898605 0.685125 0.031442
O O1 0.214972 0.500000 0.931259
O O2 0.178011 0.263686 0.754043
O O3 0.155562 0.247069 0.936408
O O4 0.323797 0.256837 0.072640
O O5 0.319437 0.223486 0.453467
O O6 0.387185 0.284238 0.352264
O O7 0.498851 0.223215 0.660563
O O8 0.397621 0.000000 0.442862
O O9 0.896207 0.500000 0.455277
O O10 0.900016 0.213617 0.533273
O O11 0.000000 0.286720 0.500000
O O12 0.175887 0.723833 0.383094
O O13 0.997218 0.766234 0.154608
O O14 0.108837 0.000000 0.329181
O O15 0.246721 0.500000 0.359676
O O16 0.157512 0.732922 0.148679
O O17 0.427847 0.500000 0.265889
O O18 0.914726 0.500000 0.060560
#
# Coordination Sequence:
#
# PCOD8059040 Si02
#       7
#     4   4   4   4   4   4   4
#     4   9  17  32  57  84 107 137 185 233 266 306
#     4  11  21  33  51  81 116 145 175 221 279 329
#     4  10  19  36  60  79 103 143 189 230 266 311
#     4  12  25  37  51  79 116 148 181 223 274 327
#     4  11  22  38  59  79 105 147 190 225 267 325
#     4  10  18  33  55  81 110 145 186 224 265 322
#     4  10  19  36  57  80 107 144 187 224 264 319
#
# _framework density 18.213160999999999
#
# number of rings (size 3 to 8) (size 9 to 14) (size 15 to 20)
#    0.000    1.571    2.857    4.714    0.000    3.143 
#    0.000    1.429    0.000    0.857    0.000    6.000 
#    0.000    0.000    0.000    0.000    0.000    0.000 
#
# Total GULP energy -347284.320633 kJ/mol
# GULP energy per Si atom -12403.011451 kJ/mol
# Density = 1.817171 g / cm^3
# Si number density = 18.213161 Si / 1000 Ang^3
#
#
#
# Elastic Constant Matrix: (Units=GPa)
#
#
# Indices 1 2 3 4 5 6 
#
# 1 98.8530 24.4214 41.2780 0.0000 15.7228 0.0000
# 2 24.4214 54.1172 22.8506 0.0000 6.0163 0.0000
# 3 41.2780 22.8506 98.0623 0.0000 21.6355 0.0000
# 4 0.0000 0.0000 0.0000 8.5245 0.0000 -2.1823
# 5 15.7228 6.0163 21.6355 0.0000 30.9957 0.0000
# 6 0.0000 0.0000 0.0000 -2.1823 0.0000 19.6936
#
#
#
# Elastic Compliance Matrix: (Units=1/GPa)
#
#
# Indices 1 2 3 4 5 6 
#
# 1 0.013252 -0.003956 -0.003951 0.000000 -0.003196 0.000000
# 2 -0.003956 0.021691 -0.003431 0.000000 0.000192 0.000000
# 3 -0.003951 -0.003431 0.014269 0.000000 -0.007289 0.000000
# 4 0.000000 0.000000 0.000000 0.120733 0.000000 0.013379
# 5 -0.003196 0.000192 -0.007289 0.000000 0.038935 0.000000
# 6 0.000000 0.000000 0.000000 0.013379 0.000000 0.052260
#
#
# Mechanical properties :
#
#
# Convention : Reuss Voigt Hill
#
# Bulk Modulus (GPa) = 37.68771 47.57028 42.62899
# Shear Modulus (GPa) = 17.08452 22.67494 19.87973
#
# Velocity S-wave (km/s) = 3.06605 3.53225 3.30738
# Velocity P-wave (km/s) = 5.76816 6.54301 6.16777
#
# Compressibility (1/GPa) = 0.02653385
#
# Stress axis : x y z
#
# Youngs Moduli (GPa) = 75.46240 46.10112 70.08406
#
# Poissons Ratio (x) = 0.18240 0.27690
# Poissons Ratio (y) = 0.29856 0.24049
# Poissons Ratio (z) = 0.29815 0.15819
#
# Static dielectric constant tensor:
#      x y z
#    x 3.309310 0.000000 0.212920 
#    y 0.000000 3.171780 0.000000 
#    z 0.212920 0.000000 3.544470 
# 
# 
# High freq. dielectric constant tensor:
#      x y z
#    x 1.696370 0.000000 0.016860 
#    y 0.000000 1.695330 0.000000 
#    z 0.016860 0.000000 1.699340 
# 
# From -- ./inp_files/55015.got.cif
#   From: 2010.06.25/outbox.cif.g09.slc.cpg/sg10_28_cif.got.tgz:55015.got - 2010.06.27 22:07:45.
