data_PCOD8059222
_publ_section_title
;
Structure prediction by ZEFSAII (Michael W. Deem and Ramdas Pophale) SiO2 
 PCOD8059222
Probable space group: P 2/M
;
_chemical_formula_sum "Si O2"
_cell_formula_units_Z 28
_cell_length_a 8.266873
_cell_length_b 17.391672
_cell_length_c 19.891466
_cell_angle_alpha 90.000000
_cell_angle_beta 150.344146
_cell_angle_gamma 90.000000
_cell_volume 1415.043030
_symmetry_space_group_name_H-M "P 2/M"
_symmetry_group_IT_number 10
_symmetry_cell_setting 'monoclinic'
loop_
_space_group_symop_operation_xyz
x,y,z
-x,y,-z
-x,-y,-z
x,-y,z
loop_
_atom_site_type_symbol
_atom_site_label
_atom_site_fract_x
_atom_site_fract_y
_atom_site_fract_z
Si Si1 0.188344 0.723532 0.506982
Si Si2 0.829808 0.368606 0.156123
Si Si3 0.783570 0.203418 0.980971
Si Si4 0.116115 0.210364 0.241552
Si Si5 0.463270 0.412023 0.300960
Si Si6 0.639781 0.661049 0.224074
Si Si7 0.301733 0.084753 0.860456
O O1 0.507727 0.772654 0.604963
O O2 0.281131 0.637158 0.563907
O O3 0.000000 0.765938 0.500000
O O4 0.943728 0.715145 0.356394
O O5 0.785413 0.396699 0.218428
O O6 0.878538 0.276813 0.184156
O O7 0.116615 0.405088 0.214622
O O8 0.500000 0.390139 0.000000
O O9 0.637348 0.287139 0.911355
O O10 0.507329 0.138573 0.885910
O O11 0.000000 0.170957 0.000000
O O12 0.036079 0.210342 0.133790
O O13 0.038965 0.128342 0.247443
O O14 0.574944 0.500000 0.341977
O O15 0.467150 0.382440 0.224714
O O16 0.232156 0.000000 0.804266
O O17 0.500000 0.075439 0.000000
#
# Coordination Sequence:
#
# PCOD8059222 Si02
#       7
#     4   4   4   4   4   4   4
#     4   9  20  37  58  85 111 147 194 242 287 337
#     4  11  20  37  60  83 115 150 194 240 284 343
#     4  11  19  32  58  86 112 149 190 234 283 332
#     4  10  18  35  58  81 114 147 187 238 280 335
#     4  10  24  41  57  84 118 149 190 243 295 346
#     4  11  22  36  62  86 109 153 198 238 286 345
#     4   9  18  33  54  84 117 149 184 227 285 338
#
# _framework density 19.787385
#
# number of rings (size 3 to 8) (size 9 to 14) (size 15 to 20)
#    0.000    1.857    2.857    3.000    0.000    6.000 
#    0.000    1.429    0.000    2.143    0.000    0.000 
#    0.000    0.000    0.000    0.000    0.000    0.000 
#
# Total GULP energy -346916.321129 kJ/mol
# GULP energy per Si atom -12389.868612 kJ/mol
# Density = 1.974235 g / cm^3
# Si number density = 19.787385 Si / 1000 Ang^3
#
#
#
# Elastic Constant Matrix: (Units=GPa)
#
#
# Indices 1 2 3 4 5 6 
#
# 1 143.6306 25.5033 32.0102 0.0000 1.9192 0.0000
# 2 25.5033 95.6658 -3.7178 0.0000 10.8736 0.0000
# 3 32.0102 -3.7178 75.2031 0.0000 9.5629 0.0000
# 4 0.0000 0.0000 0.0000 20.6902 0.0000 9.4758
# 5 1.9192 10.8736 9.5629 0.0000 31.0042 0.0000
# 6 0.0000 0.0000 0.0000 9.4758 0.0000 30.3559
#
#
#
# Elastic Compliance Matrix: (Units=1/GPa)
#
#
# Indices 1 2 3 4 5 6 
#
# 1 0.008243 -0.002523 -0.003832 0.000000 0.001557 0.000000
# 2 -0.002523 0.011742 0.002247 0.000000 -0.004655 0.000000
# 3 -0.003832 0.002247 0.015726 0.000000 -0.005401 0.000000
# 4 0.000000 0.000000 0.000000 0.056394 0.000000 -0.017604
# 5 0.001557 -0.004655 -0.005401 0.000000 0.035456 0.000000
# 6 0.000000 0.000000 0.000000 -0.017604 0.000000 0.038438
#
#
# Mechanical properties :
#
#
# Convention : Reuss Voigt Hill
#
# Bulk Modulus (GPa) = 36.37042 46.89901 41.63471
# Shear Modulus (GPa) = 27.26555 33.79030 30.52793
#
# Velocity S-wave (km/s) = 3.71607 4.13688 3.93211
# Velocity P-wave (km/s) = 6.06900 6.82431 6.45771
#
# Compressibility (1/GPa) = 0.02749487
#
# Stress axis : x y z
#
# Youngs Moduli (GPa) = 121.30790 85.16323 63.58851
#
# Poissons Ratio (x) = 0.21490 0.24364
# Poissons Ratio (y) = 0.30611 -0.14285
# Poissons Ratio (z) = 0.46479 -0.19132
#
# Static dielectric constant tensor:
#      x y z
#    x 4.026780 0.000000 0.121600 
#    y 0.000000 3.545520 0.000000 
#    z 0.121600 0.000000 3.490050 
# 
# 
# High freq. dielectric constant tensor:
#      x y z
#    x 1.795870 0.000000 0.009450 
#    y 0.000000 1.733620 0.000000 
#    z 0.009450 0.000000 1.759460 
# 
# From -- ./inp_files/83025.got.cif
#   From: 2010.06.25/outbox.cif.g09.slc.cpg/sg10_42_cif.got.tgz:83025.got - 2010.06.27 22:07:45.
