data_PCOD8059251
_publ_section_title
;
Structure prediction by ZEFSAII (Michael W. Deem and Ramdas Pophale) SiO2 
 PCOD8059251
Probable space group: P 2/M
;
_chemical_formula_sum "Si O2"
_cell_formula_units_Z 28
_cell_length_a 27.699011
_cell_length_b 8.012332
_cell_length_c 10.084330
_cell_angle_alpha 90.000000
_cell_angle_beta 143.872462
_cell_angle_gamma 90.000000
_cell_volume 1319.521295
_symmetry_space_group_name_H-M "P 2/M"
_symmetry_group_IT_number 10
_symmetry_cell_setting 'monoclinic'
loop_
_space_group_symop_operation_xyz
x,y,z
-x,y,-z
-x,-y,-z
x,-y,z
loop_
_atom_site_type_symbol
_atom_site_label
_atom_site_fract_x
_atom_site_fract_y
_atom_site_fract_z
Si Si1 0.321286 0.809480 0.564555
Si Si2 0.431113 0.500000 0.458609
Si Si3 0.597399 0.820083 0.716111
Si Si4 0.132524 0.808682 0.133517
Si Si5 0.313143 0.303536 0.833446
Si Si6 0.874483 0.305646 0.587662
Si Si7 0.429402 0.500000 0.737779
Si Si8 0.001165 0.691677 0.353098
O O1 0.227547 0.763805 0.325499
O O2 0.336614 0.796118 0.754424
O O3 0.376639 0.669100 0.619269
O O4 0.343203 0.000000 0.567825
O O5 0.500000 0.500000 0.500000
O O6 0.374775 0.666765 0.317243
O O7 0.474968 0.500000 0.697529
O O8 0.500000 0.830982 0.500000
O O9 0.633195 0.000000 0.748061
O O10 0.628221 0.778400 0.929973
O O11 0.103884 0.770797 0.220480
O O12 0.114823 0.000000 0.064901
O O13 0.085140 0.706192 0.914905
O O14 0.330115 0.500000 0.851356
O O15 0.218774 0.270356 0.661251
O O16 0.893047 0.500000 0.643321
O O17 0.930420 0.226672 0.593867
O O18 0.500000 0.500000 0.000000
O O19 0.024715 0.500000 0.425570
O O20 0.000000 0.773654 0.500000
#
# Coordination Sequence:
#
# PCOD8059251 Si02
#       8
#     4   2   4   4   4   4   2   4
#     4  10  23  42  65  96 132 165 208 263 321 377
#     4  10  24  44  64  90 125 160 203 258 300 375
#     4  10  21  36  60  89 122 163 206 253 312 370
#     4  10  21  38  62  89 119 161 205 253 310 369
#     4  10  18  35  64  92 124 164 213 265 315 374
#     4   9  19  35  58  90 117 158 210 255 303 364
#     4  12  28  44  70 100 125 169 214 257 321 378
#     4  10  21  37  57  86 124 164 205 253 311 369
#
# _framework density 21.219816000000002
#
# number of rings (size 3 to 8) (size 9 to 14) (size 15 to 20)
#    0.000    2.000    1.429    1.286    6.000    4.000 
#    2.571    0.000    0.000    0.000    0.000    0.000 
#    0.000    0.000    0.000    0.000    0.000    0.000 
#
# Total GULP energy -346970.534824 kJ/mol
# GULP energy per Si atom -12391.804815 kJ/mol
# Density = 2.117152 g / cm^3
# Si number density = 21.219816 Si / 1000 Ang^3
#
#
#
# Elastic Constant Matrix: (Units=GPa)
#
#
# Indices 1 2 3 4 5 6 
#
# 1 106.6635 29.6133 50.4684 0.0000 -16.4185 0.0000
# 2 29.6133 117.0609 22.0816 0.0000 -1.6607 0.0000
# 3 50.4684 22.0816 141.8202 0.0000 -19.2400 0.0000
# 4 0.0000 0.0000 0.0000 11.0686 0.0000 0.6087
# 5 -16.4185 -1.6607 -19.2400 0.0000 26.6011 0.0000
# 6 0.0000 0.0000 0.0000 0.6087 0.0000 5.7837
#
#
#
# Elastic Compliance Matrix: (Units=1/GPa)
#
#
# Indices 1 2 3 4 5 6 
#
# 1 0.012421 -0.002438 -0.003350 0.000000 0.005091 0.000000
# 2 -0.002438 0.009285 -0.000780 0.000000 -0.001489 0.000000
# 3 -0.003350 -0.000780 0.008956 0.000000 0.004362 0.000000
# 4 0.000000 0.000000 0.000000 0.090872 0.000000 -0.009564
# 5 0.005091 -0.001489 0.004362 0.000000 0.043797 0.000000
# 6 0.000000 0.000000 0.000000 -0.009564 0.000000 0.173906
#
#
# Mechanical properties :
#
#
# Convention : Reuss Voigt Hill
#
# Bulk Modulus (GPa) = 57.05613 63.31902 60.18758
# Shear Modulus (GPa) = 13.95810 26.24943 20.10377
#
# Velocity S-wave (km/s) = 2.56752 3.52095 3.08133
# Velocity P-wave (km/s) = 5.97796 6.81424 6.40975
#
# Compressibility (1/GPa) = 0.01752660
#
# Stress axis : x y z
#
# Youngs Moduli (GPa) = 80.51008 107.69643 111.65114
#
# Poissons Ratio (x) = 0.26257 0.37401
# Poissons Ratio (y) = 0.19629 0.08711
# Poissons Ratio (z) = 0.26969 0.08403
#
# Static dielectric constant tensor:
#      x y z
#    x 3.789810 0.000000 -0.056090 
#    y 0.000000 6.326370 0.000000 
#    z -0.056090 0.000000 3.845230 
# 
# 
# High freq. dielectric constant tensor:
#      x y z
#    x 1.805510 0.000000 -0.007550 
#    y 0.000000 1.839660 0.000000 
#    z -0.007550 0.000000 1.838810 
# 
# From -- ./inp_files/37373.got.cif
#   From: 2010.06.25/outbox.cif.g09.slc.cpg/sg10_19_cif.got.tgz:37373.got - 2010.06.27 22:07:45.
