data_PCOD8059596
_publ_section_title
;
Structure prediction by ZEFSAII (Michael W. Deem and Ramdas Pophale) SiO2 
 PCOD8059596
Probable space group: P 2/M
;
_chemical_formula_sum "Si O2"
_cell_formula_units_Z 28
_cell_length_a 18.943684
_cell_length_b 17.509620
_cell_length_c 5.058332
_cell_angle_alpha 90.000000
_cell_angle_beta 60.448962
_cell_angle_gamma 90.000000
_cell_volume 1459.574156
_symmetry_space_group_name_H-M "P 2/M"
_symmetry_group_IT_number 10
_symmetry_cell_setting 'monoclinic'
loop_
_space_group_symop_operation_xyz
x,y,z
-x,y,-z
-x,-y,-z
x,-y,z
loop_
_atom_site_type_symbol
_atom_site_label
_atom_site_fract_x
_atom_site_fract_y
_atom_site_fract_z
Si Si1 0.276909 0.361543 0.523670
Si Si2 0.307133 0.911849 0.356831
Si Si3 0.552563 0.585899 0.643623
Si Si4 0.906258 0.263825 0.611542
Si Si5 0.189188 0.414462 0.190838
Si Si6 0.410312 0.911905 0.681584
Si Si7 0.182461 0.788542 0.715181
O O1 0.369803 0.362373 0.441840
O O2 0.262105 0.400528 0.265857
O O3 0.253403 0.273243 0.548311
O O4 0.222829 0.406869 0.833983
O O5 0.370615 0.900704 0.472825
O O6 0.223051 0.870106 0.583753
O O7 0.283131 0.000000 0.358761
O O8 0.351103 0.876184 0.015468
O O9 0.500000 0.621114 0.500000
O O10 0.581060 0.500000 0.515357
O O11 0.500000 0.584464 0.000000
O O12 0.882684 0.353319 0.636470
O O13 0.889762 0.225179 0.359770
O O14 0.000000 0.256917 0.500000
O O15 0.854251 0.217444 0.924009
O O16 0.154008 0.500000 0.291579
O O17 0.500000 0.873469 0.500000
O O18 0.421525 0.000000 0.741819
#
# Coordination Sequence:
#
# PCOD8059596 Si02
#       7
#     4   4   4   4   4   4   4
#     4  10  20  34  50  71 102 136 172 211 255 305
#     4  10  19  33  55  79 105 140 181 221 256 301
#     4  10  19  30  46  67  93 129 171 212 247 280
#     4  10  21  37  57  79 105 136 165 204 261 320
#     4  10  19  32  54  79 101 130 166 207 254 306
#     4   9  17  30  50  78 109 138 171 213 260 305
#     4  10  21  37  56  77 103 136 173 210 259 320
#
# _framework density 19.183676999999999
#
# number of rings (size 3 to 8) (size 9 to 14) (size 15 to 20)
#    0.000    2.143    0.000    3.857    0.000    3.143 
#    0.000    2.143    0.000    7.714    0.000    0.000 
#    0.000    0.000    0.000    0.000    0.000    0.000 
#
# Total GULP energy -347225.081901 kJ/mol
# GULP energy per Si atom -12400.895782 kJ/mol
# Density = 1.914001 g / cm^3
# Si number density = 19.183677 Si / 1000 Ang^3
#
#
#
# Elastic Constant Matrix: (Units=GPa)
#
#
# Indices 1 2 3 4 5 6 
#
# 1 113.3818 29.5447 14.8681 0.0000 -6.5041 0.0000
# 2 29.5447 66.1642 23.2511 0.0000 -8.0597 0.0000
# 3 14.8681 23.2511 59.6110 0.0000 9.1090 0.0000
# 4 0.0000 0.0000 0.0000 21.1660 0.0000 0.0499
# 5 -6.5041 -8.0597 9.1090 0.0000 38.1291 0.0000
# 6 0.0000 0.0000 0.0000 0.0499 0.0000 12.4988
#
#
#
# Elastic Compliance Matrix: (Units=1/GPa)
#
#
# Indices 1 2 3 4 5 6 
#
# 1 0.010066 -0.003951 -0.001146 0.000000 0.001156 0.000000
# 2 -0.003951 0.020269 -0.007755 0.000000 0.005463 0.000000
# 3 -0.001146 -0.007755 0.021138 0.000000 -0.006885 0.000000
# 4 0.000000 0.000000 0.000000 0.047246 0.000000 -0.000189
# 5 0.001156 0.005463 -0.006885 0.000000 0.029223 0.000000
# 6 0.000000 0.000000 0.000000 -0.000189 0.000000 0.080008
#
#
# Mechanical properties :
#
#
# Convention : Reuss Voigt Hill
#
# Bulk Modulus (GPa) = 38.80752 41.60941 40.20847
# Shear Modulus (GPa) = 20.64023 25.79165 23.21594
#
# Velocity S-wave (km/s) = 3.28369 3.67066 3.48256
# Velocity P-wave (km/s) = 5.88644 6.30096 6.09723
#
# Compressibility (1/GPa) = 0.02576820
#
# Stress axis : x y z
#
# Youngs Moduli (GPa) = 99.34476 49.33622 47.30771
#
# Poissons Ratio (x) = 0.19494 0.05422
# Poissons Ratio (y) = 0.39254 0.36688
# Poissons Ratio (z) = 0.11385 0.38261
#
# Static dielectric constant tensor:
#      x y z
#    x 3.461330 0.000000 0.250980 
#    y 0.000000 3.361970 0.000000 
#    z 0.250980 0.000000 3.531370 
# 
# 
# High freq. dielectric constant tensor:
#      x y z
#    x 1.749320 0.000000 0.020400 
#    y 0.000000 1.715670 0.000000 
#    z 0.020400 0.000000 1.751660 
# 
# From -- ./inp_files/9762.got.cif
#   From: 2010.06.25/outbox.cif.g09.slc.cpg/sg10_5_cif.got.tgz:9762.got - 2010.06.27 22:07:45.
