data_PCOD8059505
_publ_section_title
;
Structure prediction by ZEFSAII (Michael W. Deem and Ramdas Pophale) SiO2 
 PCOD8059505
Probable space group: P 2/M
;
_chemical_formula_sum "Si O2"
_cell_formula_units_Z 28
_cell_length_a 8.114491
_cell_length_b 17.172167
_cell_length_c 19.617409
_cell_angle_alpha 90.000000
_cell_angle_beta 31.869740
_cell_angle_gamma 90.000000
_cell_volume 1443.290118
_symmetry_space_group_name_H-M "P 2/M"
_symmetry_group_IT_number 10
_symmetry_cell_setting 'monoclinic'
loop_
_space_group_symop_operation_xyz
x,y,z
-x,y,-z
-x,-y,-z
x,-y,z
loop_
_atom_site_type_symbol
_atom_site_label
_atom_site_fract_x
_atom_site_fract_y
_atom_site_fract_z
Si Si1 0.915996 0.846729 0.719924
Si Si2 0.762730 0.909047 0.523584
Si Si3 0.134162 0.587327 0.348251
Si Si4 0.175828 0.683183 0.654208
Si Si5 0.493917 0.588284 0.654552
Si Si6 0.278593 0.089455 0.953893
Si Si7 0.906955 0.912600 0.209660
O O1 0.551053 0.854028 0.828974
O O2 0.135450 0.860845 0.578164
O O3 0.020068 0.767138 0.719939
O O4 0.950041 0.913278 0.765190
O O5 0.436093 0.873416 0.664996
O O6 0.000000 0.893408 0.500000
O O7 0.738125 0.000000 0.512476
O O8 0.220833 0.500000 0.295378
O O9 0.409634 0.618318 0.302865
O O10 0.090633 0.637684 0.295266
O O11 0.807034 0.587458 0.501336
O O12 0.500000 0.689031 0.500000
O O13 0.238835 0.643103 0.706068
O O14 0.360399 0.500000 0.705145
O O15 0.397543 0.000000 0.918566
O O16 0.000000 0.095137 0.000000
O O17 0.148602 0.125055 0.071143
O O18 0.853673 0.000000 0.201603
#
# Coordination Sequence:
#
# PCOD8059505 Si02
#       7
#     4   4   4   4   4   4   4
#     4  12  22  34  50  79 112 141 173 217 282 335
#     4  10  20  35  53  75 103 139 182 224 267 320
#     4   8  14  27  47  69  97 142 188 217 252 308
#     4  10  19  30  43  73 113 147 174 213 271 331
#     4   8  14  27  47  69  98 141 186 220 252 308
#     4  10  21  39  60  78  97 134 189 237 274 318
#     4  10  20  35  56  76  98 136 182 226 267 315
#
# _framework density 19.400119
#
# number of rings (size 3 to 8) (size 9 to 14) (size 15 to 20)
#    0.000    2.286    0.000    5.143    0.000    6.286 
#   10.286    0.000    0.000    0.000    0.000    0.000 
#    0.000   11.429    0.000    1.143    0.000    0.143 
#
# Total GULP energy -346947.371496 kJ/mol
# GULP energy per Si atom -12390.977553 kJ/mol
# Density = 1.935596 g / cm^3
# Si number density = 19.400119 Si / 1000 Ang^3
#
#
#
# Elastic Constant Matrix: (Units=GPa)
#
#
# Indices 1 2 3 4 5 6 
#
# 1 125.3234 50.1870 13.4810 0.0000 -6.0068 0.0000
# 2 50.1870 72.0922 22.8044 0.0000 -9.8821 0.0000
# 3 13.4810 22.8044 41.0476 0.0000 -2.2779 0.0000
# 4 0.0000 0.0000 0.0000 10.8637 0.0000 -9.2115
# 5 -6.0068 -9.8821 -2.2779 0.0000 24.1501 0.0000
# 6 0.0000 0.0000 0.0000 -9.2115 0.0000 17.1297
#
#
#
# Elastic Compliance Matrix: (Units=1/GPa)
#
#
# Indices 1 2 3 4 5 6 
#
# 1 0.011089 -0.008034 0.000796 0.000000 -0.000454 0.000000
# 2 -0.008034 0.023572 -0.010086 0.000000 0.006696 0.000000
# 3 0.000796 -0.010086 0.029641 0.000000 -0.001133 0.000000
# 4 0.000000 0.000000 0.000000 0.169198 0.000000 0.090987
# 5 -0.000454 0.006696 -0.001133 0.000000 0.043928 0.000000
# 6 0.000000 0.000000 0.000000 0.090987 0.000000 0.107306
#
#
# Mechanical properties :
#
#
# Convention : Reuss Voigt Hill
#
# Bulk Modulus (GPa) = 33.72064 45.71198 39.71631
# Shear Modulus (GPa) = 11.64779 20.56145 16.10462
#
# Velocity S-wave (km/s) = 2.45296 3.25908 2.88432
# Velocity P-wave (km/s) = 5.04401 6.14622 5.62219
#
# Compressibility (1/GPa) = 0.02965543
#
# Stress axis : x y z
#
# Youngs Moduli (GPa) = 90.17811 42.42320 33.73732
#
# Poissons Ratio (x) = 0.34082 -0.02686
# Poissons Ratio (y) = 0.72447 0.34026
# Poissons Ratio (z) = -0.07179 0.42786
#
# Static dielectric constant tensor:
#      x y z
#    x 3.875380 0.000000 -0.055450 
#    y 0.000000 3.372520 0.000000 
#    z -0.055450 0.000000 3.406280 
# 
# 
# High freq. dielectric constant tensor:
#      x y z
#    x 1.777920 0.000000 -0.005850 
#    y 0.000000 1.723170 0.000000 
#    z -0.005850 0.000000 1.711240 
# 
# From -- ./inp_files/82903.got.cif
#   From: 2010.06.25/outbox.cif.g09.slc.cpg/sg10_42_cif.got.tgz:82903.got - 2010.06.27 22:07:45.
