data_PCOD8059914
_publ_section_title
;
Structure prediction by ZEFSAII (Michael W. Deem and Ramdas Pophale) SiO2 
 PCOD8059914
Probable space group: P 2/M
;
_chemical_formula_sum "Si O2"
_cell_formula_units_Z 32
_cell_length_a 17.322840
_cell_length_b 8.763285
_cell_length_c 21.694157
_cell_angle_alpha 90.000000
_cell_angle_beta 143.500091
_cell_angle_gamma 90.000000
_cell_volume 1958.914469
_symmetry_space_group_name_H-M "P 2/M"
_symmetry_group_IT_number 10
_symmetry_cell_setting 'monoclinic'
loop_
_space_group_symop_operation_xyz
x,y,z
-x,y,-z
-x,-y,-z
x,-y,z
loop_
_atom_site_type_symbol
_atom_site_label
_atom_site_fract_x
_atom_site_fract_y
_atom_site_fract_z
Si Si1 0.787845 0.817632 0.119182
Si Si2 0.292140 0.180676 0.383228
Si Si3 0.626721 0.181839 0.805479
Si Si4 0.982136 0.320503 0.802854
Si Si5 0.453448 0.181932 0.115852
Si Si6 0.625194 0.832298 0.123220
Si Si7 0.467932 0.180538 0.384384
Si Si8 0.080347 0.819593 0.991712
O O1 0.923780 0.741812 0.190091
O O2 0.739370 0.754276 0.155604
O O3 0.801818 0.000000 0.129331
O O4 0.683982 0.766105 0.000849
O O5 0.356757 0.234321 0.360399
O O6 0.389501 0.229080 0.500970
O O7 0.161039 0.272160 0.309376
O O8 0.264980 0.000000 0.365744
O O9 0.542812 0.237470 0.810805
O O10 0.561144 0.250961 0.701784
O O11 0.773625 0.241853 0.906034
O O12 0.629059 0.000000 0.804061
O O13 0.993709 0.500000 0.813518
O O14 0.014899 0.252892 0.890267
O O15 0.576108 0.251426 0.155072
O O16 0.462115 0.000000 0.116458
O O17 0.676368 0.000000 0.173896
O O18 0.500000 0.847939 0.000000
O O19 0.461855 0.000000 0.377695
O O20 0.077703 0.000000 0.980297
O O21 0.000000 0.769720 0.000000
#
# Coordination Sequence:
#
# PCOD8059914 Si02
#       8
#     4   4   4   4   4   4   4   4
#     4   9  15  27  44  62  86 118 152 179 213 264
#     4   9  17  32  50  65  85 114 153 192 226 261
#     4   9  14  22  41  70  94 109 136 181 229 267
#     4  12  23  31  42  64  95 124 152 185 223 259
#     4   8  12  20  38  66  93 112 137 179 225 268
#     4   7  11  19  36  61  86 112 142 176 215 264
#     4   8  15  28  48  70  86 107 145 194 231 261
#     4  10  19  31  48  67  89 121 155 180 212 267
#
# _framework density 16.335578999999999
#
# number of rings (size 3 to 8) (size 9 to 14) (size 15 to 20)
#    0.000    3.000    1.250    4.125    0.000    2.250 
#    0.000    1.250    0.000    4.125    0.000    0.875 
#    0.000    7.000    0.000    0.000    0.000    0.000 
#
# Total GULP energy -396444.001172 kJ/mol
# GULP energy per Si atom -12388.875037 kJ/mol
# Density = 1.629840 g / cm^3
# Si number density = 16.335579 Si / 1000 Ang^3
#
#
#
# Elastic Constant Matrix: (Units=GPa)
#
#
# Indices 1 2 3 4 5 6 
#
# 1 165.3103 21.3340 68.8259 0.0000 7.1989 0.0000
# 2 21.3340 17.1809 10.4857 0.0000 3.6147 0.0000
# 3 68.8259 10.4857 88.8640 0.0000 2.3990 0.0000
# 4 0.0000 0.0000 0.0000 3.3949 0.0000 -2.4812
# 5 7.1989 3.6147 2.3990 0.0000 21.1724 0.0000
# 6 0.0000 0.0000 0.0000 -2.4812 0.0000 1.2925
#
#
#
# Elastic Compliance Matrix: (Units=1/GPa)
#
#
# Indices 1 2 3 4 5 6 
#
# 1 0.009928 -0.007965 -0.006715 0.000000 -0.001255 0.000000
# 2 -0.007965 0.071251 -0.001989 0.000000 -0.009231 0.000000
# 3 -0.006715 -0.001989 0.016669 0.000000 0.000734 0.000000
# 4 0.000000 0.000000 0.000000 -0.730921 0.000000 -1.403151
# 5 -0.001255 -0.009231 0.000734 0.000000 0.049151 0.000000
# 6 0.000000 0.000000 0.000000 -1.403151 0.000000 -1.919919
#
#
# Mechanical properties :
#
#
# Convention : Reuss Voigt Hill
#
# Bulk Modulus (GPa) = 15.50184 52.51627 34.00906
# Shear Modulus (GPa) = -2.04165 16.55261 7.25548
#
# Velocity S-wave (km/s) = -1.11917 3.18667 2.10978
# Velocity P-wave (km/s) = 2.80003 6.76447 5.17678
#
# Compressibility (1/GPa) = 0.06450846
#
# Stress axis : x y z
#
# Youngs Moduli (GPa) = 100.72840 14.03491 59.99106
#
# Poissons Ratio (x) = 0.11179 0.40286
# Poissons Ratio (y) = 0.80231 0.11934
# Poissons Ratio (z) = 0.67643 0.02792
#
# Static dielectric constant tensor:
#      x y z
#    x 3.629830 0.000000 -0.066430 
#    y 0.000000 2.560580 0.000000 
#    z -0.066430 0.000000 3.021390 
# 
# 
# High freq. dielectric constant tensor:
#      x y z
#    x 1.645710 0.000000 0.004380 
#    y 0.000000 1.574210 0.000000 
#    z 0.004380 0.000000 1.596450 
# 
# From -- ./inp_files/89969.got.cif
#   From: 2010.06.25/outbox.cif.g09.slc.cpg/sg10_45_cif.got.tgz:89969.got - 2010.06.27 22:07:45.
