data_PCOD8059024
_publ_section_title
;
Structure prediction by ZEFSAII (Michael W. Deem and Ramdas Pophale) SiO2 
 PCOD8059024
Probable space group: P 2/M
;
_chemical_formula_sum "Si O2"
_cell_formula_units_Z 32
_cell_length_a 17.645654
_cell_length_b 8.957761
_cell_length_c 11.605742
_cell_angle_alpha 90.000000
_cell_angle_beta 69.191258
_cell_angle_gamma 90.000000
_cell_volume 1714.808382
_symmetry_space_group_name_H-M "P 2/M"
_symmetry_group_IT_number 10
_symmetry_cell_setting 'monoclinic'
loop_
_space_group_symop_operation_xyz
x,y,z
-x,y,-z
-x,-y,-z
x,-y,z
loop_
_atom_site_type_symbol
_atom_site_label
_atom_site_fract_x
_atom_site_fract_y
_atom_site_fract_z
Si Si1 0.474773 0.331706 0.881427
Si Si2 0.318156 0.825115 0.024445
Si Si3 0.852682 0.822797 0.248614
Si Si4 0.820167 0.328370 0.035544
Si Si5 0.921366 0.168907 0.620621
Si Si6 0.215350 0.176540 0.473991
Si Si7 0.022103 0.671023 0.187972
Si Si8 0.631154 0.174155 0.745599
O O1 0.459902 0.500000 0.847564
O O2 0.392429 0.238908 0.908284
O O3 0.547576 0.261203 0.767436
O O4 0.500000 0.324173 0.000000
O O5 0.234708 0.750790 0.030530
O O6 0.313403 0.000000 0.005233
O O7 0.329761 0.785463 0.152238
O O8 0.807159 0.749775 0.165409
O O9 0.805663 0.763200 0.387553
O O10 0.946122 0.775530 0.203438
O O11 0.848622 0.000000 0.239641
O O12 0.793849 0.500000 0.058915
O O13 0.914403 0.313328 0.950623
O O14 0.848215 0.238675 0.585338
O O15 0.932984 0.278168 0.720895
O O16 0.000000 0.165751 0.500000
O O17 0.901906 0.000000 0.674558
O O18 0.306018 0.223598 0.387988
O O19 0.205175 0.000000 0.479107
O O20 0.993040 0.500000 0.216285
O O21 0.610971 0.000000 0.751141
#
# Coordination Sequence:
#
# PCOD8059024 Si02
#       8
#     4   4   4   4   4   4   4   4
#     4   9  17  30  50  78 113 144 168 203 257 312
#     4  10  19  33  56  83 107 137 176 213 256 313
#     4  11  22  38  57  75  99 138 186 226 265 312
#     4  11  24  39  53  74 106 140 176 223 272 313
#     4  10  18  33  55  77 104 137 175 217 262 311
#     4   9  18  33  53  78 106 137 173 220 266 305
#     4  11  23  37  53  76 107 139 175 221 272 320
#     4   9  17  31  53  81 111 138 171 211 255 312
#
# _framework density 18.660979000000001
#
# number of rings (size 3 to 8) (size 9 to 14) (size 15 to 20)
#    0.000    2.000    1.250    3.000    0.000    6.750 
#    0.000    1.875    0.000    0.750    0.000    5.250 
#    0.000    0.000    0.000    0.000    0.000    0.000 
#
# Total GULP energy -396864.887780 kJ/mol
# GULP energy per Si atom -12402.027743 kJ/mol
# Density = 1.861851 g / cm^3
# Si number density = 18.660979 Si / 1000 Ang^3
#
#
#
# Elastic Constant Matrix: (Units=GPa)
#
#
# Indices 1 2 3 4 5 6 
#
# 1 54.8116 30.7113 32.1865 0.0000 -16.5122 0.0000
# 2 30.7113 85.9745 35.5460 0.0000 -4.2418 0.0000
# 3 32.1865 35.5460 83.3092 0.0000 -7.8976 0.0000
# 4 0.0000 0.0000 0.0000 21.1725 0.0000 -0.5847
# 5 -16.5122 -4.2418 -7.8976 0.0000 30.0954 0.0000
# 6 0.0000 0.0000 0.0000 -0.5847 0.0000 16.8489
#
#
#
# Elastic Compliance Matrix: (Units=1/GPa)
#
#
# Indices 1 2 3 4 5 6 
#
# 1 0.030941 -0.007247 -0.007537 0.000000 0.013977 0.000000
# 2 -0.007247 0.015825 -0.004223 0.000000 -0.002854 0.000000
# 3 -0.007537 -0.004223 0.016684 0.000000 -0.000352 0.000000
# 4 0.000000 0.000000 0.000000 0.047276 0.000000 0.001640
# 5 0.013977 -0.002854 -0.000352 0.000000 0.040402 0.000000
# 6 0.000000 0.000000 0.000000 0.001640 0.000000 0.059408
#
#
# Mechanical properties :
#
#
# Convention : Reuss Voigt Hill
#
# Bulk Modulus (GPa) = 39.31346 46.77587 43.04466
# Shear Modulus (GPa) = 19.45304 22.00013 20.72659
#
# Velocity S-wave (km/s) = 3.23219 3.43729 3.33632
# Velocity P-wave (km/s) = 5.91966 6.39327 6.16102
#
# Compressibility (1/GPa) = 0.02543658
#
# Stress axis : x y z
#
# Youngs Moduli (GPa) = 32.31914 63.19035 59.93817
#
# Poissons Ratio (x) = 0.45793 0.45176
# Poissons Ratio (y) = 0.23421 0.25311
# Poissons Ratio (z) = 0.24359 0.26685
#
# Static dielectric constant tensor:
#      x y z
#    x 3.356110 0.000000 -0.133100 
#    y 0.000000 3.387700 0.000000 
#    z -0.133100 0.000000 3.495610 
# 
# 
# High freq. dielectric constant tensor:
#      x y z
#    x 1.713860 0.000000 -0.015240 
#    y 0.000000 1.719580 0.000000 
#    z -0.015240 0.000000 1.714260 
# 
# From -- ./inp_files/54816.got.cif
#   From: 2010.06.25/outbox.cif.g09.slc.cpg/sg10_28_cif.got.tgz:54816.got - 2010.06.27 22:07:45.
