data_PCOD8059039
_publ_section_title
;
Structure prediction by ZEFSAII (Michael W. Deem and Ramdas Pophale) SiO2 
 PCOD8059039
Probable space group: P 2/M
;
_chemical_formula_sum "Si O2"
_cell_formula_units_Z 32
_cell_length_a 27.131996
_cell_length_b 8.634643
_cell_length_c 21.104516
_cell_angle_alpha 90.000000
_cell_angle_beta 160.402754
_cell_angle_gamma 90.000000
_cell_volume 1658.336760
_symmetry_space_group_name_H-M "P 2/M"
_symmetry_group_IT_number 10
_symmetry_cell_setting 'monoclinic'
loop_
_space_group_symop_operation_xyz
x,y,z
-x,y,-z
-x,-y,-z
x,-y,z
loop_
_atom_site_type_symbol
_atom_site_label
_atom_site_fract_x
_atom_site_fract_y
_atom_site_fract_z
Si Si1 0.341423 0.182865 0.284718
Si Si2 0.937425 0.683652 0.991499
Si Si3 0.715383 0.683379 0.922076
Si Si4 0.494418 0.684092 0.760406
Si Si5 0.831851 0.316039 0.627464
Si Si6 0.715454 0.818669 0.278719
Si Si7 0.040305 0.317753 0.350525
Si Si8 0.448065 0.317107 0.029558
O O1 0.500000 0.244011 0.500000
O O2 0.222445 0.244726 0.190678
O O3 0.307028 0.242459 0.173123
O O4 0.336576 0.000000 0.278207
O O5 0.921913 0.500000 0.976848
O O6 0.000000 0.737638 0.000000
O O7 0.050556 0.750188 0.180477
O O8 0.707550 0.500000 0.903588
O O9 0.592545 0.747699 0.821613
O O10 0.870997 0.732041 0.140572
O O11 0.490837 0.500000 0.754585
O O12 0.329654 0.750261 0.552205
O O13 0.560759 0.737628 0.908168
O O14 0.831792 0.500000 0.631325
O O15 0.877765 0.261454 0.613577
O O16 0.882675 0.771207 0.497813
O O17 0.681412 0.769934 0.165152
O O18 0.689857 0.000000 0.256081
O O19 0.606888 0.726415 0.193933
O O20 0.056141 0.500000 0.380652
O O21 0.426506 0.500000 0.996755
#
# Coordination Sequence:
#
# PCOD8059039 Si02
#       8
#     4   4   4   4   4   4   4   4
#     4  11  25  42  57  79 119 163 195 226 279 349
#     4  10  21  37  62  93 116 143 189 245 291 330
#     4  10  21  38  62  86 109 142 190 240 282 328
#     4   9  18  32  56  86 111 138 178 233 287 333
#     4   9  16  31  54  84 113 136 176 234 283 329
#     4  11  21  32  51  81 113 146 187 228 274 331
#     4  10  18  34  57  81 109 143 183 230 280 330
#     4  10  18  33  55  80 111 146 183 229 288 334
#
# _framework density 19.296444000000001
#
# number of rings (size 3 to 8) (size 9 to 14) (size 15 to 20)
#    0.000    2.000    2.500    2.625    1.750    1.750 
#    0.000    1.875    0.000    3.750    0.000    0.000 
#    0.000    0.000    0.000    0.000    0.000    0.000 
#
# Total GULP energy -396814.828805 kJ/mol
# GULP energy per Si atom -12400.463400 kJ/mol
# Density = 1.925252 g / cm^3
# Si number density = 19.296444 Si / 1000 Ang^3
#
#
#
# Elastic Constant Matrix: (Units=GPa)
#
#
# Indices 1 2 3 4 5 6 
#
# 1 100.8668 19.1913 60.8910 0.0000 12.2205 0.0000
# 2 19.1913 38.3101 31.7229 0.0000 -1.9495 0.0000
# 3 60.8910 31.7229 159.5160 0.0000 4.0716 0.0000
# 4 0.0000 0.0000 0.0000 19.1688 0.0000 -0.3422
# 5 12.2205 -1.9495 4.0716 0.0000 36.6262 0.0000
# 6 0.0000 0.0000 0.0000 -0.3422 0.0000 6.1652
#
#
#
# Elastic Compliance Matrix: (Units=1/GPa)
#
#
# Indices 1 2 3 4 5 6 
#
# 1 0.013783 -0.003420 -0.004472 0.000000 -0.004284 0.000000
# 2 -0.003420 0.032302 -0.005206 0.000000 0.003439 0.000000
# 3 -0.004472 -0.005206 0.009006 0.000000 0.000214 0.000000
# 4 0.000000 0.000000 0.000000 0.052220 0.000000 0.002898
# 5 -0.004284 0.003439 0.000214 0.000000 0.028891 0.000000
# 6 0.000000 0.000000 0.000000 0.002898 0.000000 0.162361
#
#
# Mechanical properties :
#
#
# Convention : Reuss Voigt Hill
#
# Bulk Modulus (GPa) = 34.60767 58.03368 46.32068
# Shear Modulus (GPa) = 14.95253 24.85122 19.90187
#
# Velocity S-wave (km/s) = 2.78670 3.59258 3.21499
# Velocity P-wave (km/s) = 5.32240 6.88105 6.15129
#
# Compressibility (1/GPa) = 0.02889533
#
# Stress axis : x y z
#
# Youngs Moduli (GPa) = 72.55124 30.95795 111.03755
#
# Poissons Ratio (x) = 0.10586 0.49656
# Poissons Ratio (y) = 0.24810 0.57809
# Poissons Ratio (z) = 0.32445 0.16118
#
# Static dielectric constant tensor:
#      x y z
#    x 3.602940 0.000000 -0.046310 
#    y 0.000000 3.168910 0.000000 
#    z -0.046310 0.000000 3.846970 
# 
# 
# High freq. dielectric constant tensor:
#      x y z
#    x 1.744210 0.000000 -0.010200 
#    y 0.000000 1.719760 0.000000 
#    z -0.010200 0.000000 1.765260 
# 
# From -- ./inp_files/85752.got.cif
#   From: 2010.06.25/outbox.cif.g09.slc.cpg/sg10_43_cif.got.tgz:85752.got - 2010.06.27 22:07:45.
