data_PCOD8059626
_publ_section_title
;
Structure prediction by ZEFSAII (Michael W. Deem and Ramdas Pophale) SiO2 
 PCOD8059626
Probable space group: P 2/M
;
_chemical_formula_sum "Si O2"
_cell_formula_units_Z 24
_cell_length_a 23.899870
_cell_length_b 9.021503
_cell_length_c 11.371169
_cell_angle_alpha 90.000000
_cell_angle_beta 34.347703
_cell_angle_gamma 90.000000
_cell_volume 1383.321520
_symmetry_space_group_name_H-M "P 2/M"
_symmetry_group_IT_number 10
_symmetry_cell_setting 'monoclinic'
loop_
_space_group_symop_operation_xyz
x,y,z
-x,y,-z
-x,-y,-z
x,-y,z
loop_
_atom_site_type_symbol
_atom_site_label
_atom_site_fract_x
_atom_site_fract_y
_atom_site_fract_z
Si Si1 0.348074 0.325033 0.201643
Si Si2 0.601135 0.670847 0.394456
Si Si3 0.785594 0.173709 0.962228
Si Si4 0.172786 0.173877 0.378030
Si Si5 0.021478 0.332647 0.325272
Si Si6 0.450645 0.325621 0.259912
O O1 0.331476 0.500000 0.212732
O O2 0.249852 0.237998 0.337619
O O3 0.370798 0.285997 0.298196
O O4 0.440147 0.265144 0.963439
O O5 0.500000 0.687206 0.500000
O O6 0.636494 0.500000 0.336083
O O7 0.585649 0.737541 0.552272
O O8 0.681867 0.769560 0.190190
O O9 0.790340 0.214592 0.816505
O O10 0.874297 0.251971 0.880073
O O11 0.795816 0.000000 0.965061
O O12 0.066311 0.247239 0.589597
O O13 0.161783 0.000000 0.415214
O O14 0.027479 0.500000 0.266938
O O15 0.000000 0.328676 0.500000
O O16 0.462928 0.500000 0.248785
#
# Coordination Sequence:
#
# PCOD8059626 Si02
#       6
#     4   4   4   4   4   4
#     4   9  16  30  51  70  92 124 161 198 236 278
#     4  10  19  31  49  72  97 126 161 196 230 276
#     4  10  20  32  46  68 100 131 155 189 238 283
#     4  10  19  30  46  71 100 125 154 194 238 281
#     4   9  17  30  49  71  93 121 158 195 233 280
#     4   8  16  30  48  71  96 123 158 200 238 272
#
# _framework density 17.349544999999999
#
# number of rings (size 3 to 8) (size 9 to 14) (size 15 to 20)
#    0.000    2.667    0.000    3.500    0.000    5.667 
#    0.000    3.333    0.000    1.000    0.000    7.000 
#    0.000    0.000    0.000    0.000    0.000    0.000 
#
# Total GULP energy -297588.611125 kJ/mol
# GULP energy per Si atom -12399.525464 kJ/mol
# Density = 1.731006 g / cm^3
# Si number density = 17.349545 Si / 1000 Ang^3
#
#
#
# Elastic Constant Matrix: (Units=GPa)
#
#
# Indices 1 2 3 4 5 6 
#
# 1 98.5335 40.8021 37.9227 0.0000 -15.9748 0.0000
# 2 40.8021 72.5018 33.9531 0.0000 -10.7308 0.0000
# 3 37.9227 33.9531 69.3442 0.0000 -10.9912 0.0000
# 4 0.0000 0.0000 0.0000 21.8454 0.0000 1.5314
# 5 -15.9748 -10.7308 -10.9912 0.0000 32.0438 0.0000
# 6 0.0000 0.0000 0.0000 1.5314 0.0000 9.0492
#
#
#
# Elastic Compliance Matrix: (Units=1/GPa)
#
#
# Indices 1 2 3 4 5 6 
#
# 1 0.014951 -0.005573 -0.004824 0.000000 0.003932 0.000000
# 2 -0.005573 0.020281 -0.006606 0.000000 0.001748 0.000000
# 3 -0.004824 -0.006606 0.020686 0.000000 0.002478 0.000000
# 4 0.000000 0.000000 0.000000 0.046326 0.000000 -0.007840
# 5 0.003932 0.001748 0.002478 0.000000 0.034603 0.000000
# 6 0.000000 0.000000 0.000000 -0.007840 0.000000 0.111833
#
#
# Mechanical properties :
#
#
# Convention : Reuss Voigt Hill
#
# Bulk Modulus (GPa) = 45.63543 51.74837 48.69190
# Shear Modulus (GPa) = 17.24199 21.10113 19.17156
#
# Velocity S-wave (km/s) = 3.15588 3.49124 3.32779
# Velocity P-wave (km/s) = 6.29604 6.79289 6.54918
#
# Compressibility (1/GPa) = 0.02191280
#
# Stress axis : x y z
#
# Youngs Moduli (GPa) = 66.88647 49.30720 48.34108
#
# Poissons Ratio (x) = 0.27477 0.23322
# Poissons Ratio (y) = 0.37273 0.31933
# Poissons Ratio (z) = 0.32269 0.32571
#
# Static dielectric constant tensor:
#      x y z
#    x 3.297340 0.000000 0.000760 
#    y 0.000000 3.102810 0.000000 
#    z 0.000760 0.000000 3.269490 
# 
# 
# High freq. dielectric constant tensor:
#      x y z
#    x 1.661600 0.000000 -0.020680 
#    y 0.000000 1.659140 0.000000 
#    z -0.020680 0.000000 1.657410 
# 
# From -- ./inp_files/45171.got.cif
#   From: 2010.06.25/outbox.cif.g09.slc.cpg/sg10_23_cif.got.tgz:45171.got - 2010.06.27 22:07:45.
