data_PCOD8059979
_publ_section_title
;
Structure prediction by ZEFSAII (Michael W. Deem and Ramdas Pophale) SiO2 
 PCOD8059979
Probable space group: P 2/M
;
_chemical_formula_sum "Si O2"
_cell_formula_units_Z 24
_cell_length_a 9.173709
_cell_length_b 16.926981
_cell_length_c 16.728515
_cell_angle_alpha 90.000000
_cell_angle_beta 150.209532
_cell_angle_gamma 90.000000
_cell_volume 1290.593011
_symmetry_space_group_name_H-M "P 2/M"
_symmetry_group_IT_number 10
_symmetry_cell_setting 'monoclinic'
loop_
_space_group_symop_operation_xyz
x,y,z
-x,y,-z
-x,-y,-z
x,-y,z
loop_
_atom_site_type_symbol
_atom_site_label
_atom_site_fract_x
_atom_site_fract_y
_atom_site_fract_z
Si Si1 0.367609 0.592728 0.018814
Si Si2 0.139528 0.670616 0.147847
Si Si3 0.815485 0.908444 0.664330
Si Si4 0.337786 0.592633 0.674866
Si Si5 0.057315 0.150666 0.940215
Si Si6 0.619787 0.087814 0.144973
O O1 0.337333 0.500000 0.998075
O O2 0.570481 0.617092 0.191056
O O3 0.500000 0.628002 0.000000
O O4 0.038326 0.627910 0.866240
O O5 0.479801 0.643841 0.304394
O O6 0.090651 0.763653 0.133630
O O7 0.000000 0.637673 0.000000
O O8 0.500000 0.866749 0.500000
O O9 0.906112 0.900677 0.799832
O O10 0.054444 0.874274 0.713983
O O11 0.792726 0.000000 0.633128
O O12 0.397623 0.500000 0.688375
O O13 0.000000 0.614194 0.500000
O O14 0.412142 0.148423 0.095571
O O15 0.000000 0.112908 0.000000
O O16 0.627427 0.000000 0.189648
O O17 0.500000 0.075053 0.000000
#
# Coordination Sequence:
#
# PCOD8059979 Si02
#       6
#     4   4   4   4   4   4
#     4   9  17  30  49  72  95 122 161 204 239 276
#     4   9  18  32  48  69  97 130 162 193 239 294
#     4   9  18  34  53  72  97 128 161 197 240 290
#     4   9  17  32  53  72  94 128 165 199 240 290
#     4  10  19  31  48  72  97 125 163 202 238 281
#     4   8  15  29  49  69  90 121 158 192 230 281
#
# _framework density 18.596101999999998
#
# number of rings (size 3 to 8) (size 9 to 14) (size 15 to 20)
#    0.000    3.000    0.000    2.000    0.000    5.333 
#    0.000    8.333    0.000    7.000    0.000    0.000 
#    0.000    0.000    0.000    0.000    0.000    0.000 
#
# Total GULP energy -297313.289824 kJ/mol
# GULP energy per Si atom -12388.053743 kJ/mol
# Density = 1.855378 g / cm^3
# Si number density = 18.596102 Si / 1000 Ang^3
#
#
#
# Elastic Constant Matrix: (Units=GPa)
#
#
# Indices 1 2 3 4 5 6 
#
# 1 137.7407 34.7068 59.9683 0.0000 33.5759 0.0000
# 2 34.7068 43.1037 23.8530 0.0000 19.9732 0.0000
# 3 59.9683 23.8530 106.7448 0.0000 38.2661 0.0000
# 4 0.0000 0.0000 0.0000 14.1827 0.0000 5.8900
# 5 33.5759 19.9732 38.2661 0.0000 36.7872 0.0000
# 6 0.0000 0.0000 0.0000 5.8900 0.0000 18.9050
#
#
#
# Elastic Compliance Matrix: (Units=1/GPa)
#
#
# Indices 1 2 3 4 5 6 
#
# 1 0.011060 -0.005278 -0.003895 0.000000 -0.003178 0.000000
# 2 -0.005278 0.033654 0.000428 0.000000 -0.013900 0.000000
# 3 -0.003895 0.000428 0.016376 0.000000 -0.013712 0.000000
# 4 0.000000 0.000000 0.000000 0.080987 0.000000 -0.025232
# 5 -0.003178 -0.013900 -0.013712 0.000000 0.051893 0.000000
# 6 0.000000 0.000000 0.000000 -0.025232 0.000000 0.060758
#
#
# Mechanical properties :
#
#
# Convention : Reuss Voigt Hill
#
# Bulk Modulus (GPa) = 22.93605 58.29391 40.61498
# Shear Modulus (GPa) = 17.43671 25.24572 21.34122
#
# Velocity S-wave (km/s) = 3.06544 3.68853 3.39133
# Velocity P-wave (km/s) = 4.98896 7.03959 6.10105
#
# Compressibility (1/GPa) = 0.04359949
#
# Stress axis : x y z
#
# Youngs Moduli (GPa) = 90.41399 29.71457 61.06425
#
# Poissons Ratio (x) = 0.15682 0.23785
# Poissons Ratio (y) = 0.47718 -0.02611
# Poissons Ratio (z) = 0.35217 -0.01270
#
# Static dielectric constant tensor:
#      x y z
#    x 3.834930 0.000000 0.497540 
#    y 0.000000 3.101900 0.000000 
#    z 0.497540 0.000000 3.664850 
# 
# 
# High freq. dielectric constant tensor:
#      x y z
#    x 1.724620 0.000000 0.030250 
#    y 0.000000 1.698480 0.000000 
#    z 0.030250 0.000000 1.699550 
# 
# From -- ./inp_files/25733.got.cif
#   From: 2010.06.25/outbox.cif.g09.slc.cpg/sg10_13_cif.got.tgz:25733.got - 2010.06.27 22:07:45.
