data_PCOD8059749
_publ_section_title
;
Structure prediction by ZEFSAII (Michael W. Deem and Ramdas Pophale) SiO2 
 PCOD8059749
Probable space group: P 2/M
;
_chemical_formula_sum "Si O2"
_cell_formula_units_Z 28
_cell_length_a 15.514992
_cell_length_b 9.654251
_cell_length_c 10.688017
_cell_angle_alpha 90.000000
_cell_angle_beta 73.521163
_cell_angle_gamma 90.000000
_cell_volume 1535.153214
_symmetry_space_group_name_H-M "P 2/M"
_symmetry_group_IT_number 10
_symmetry_cell_setting 'monoclinic'
loop_
_space_group_symop_operation_xyz
x,y,z
-x,y,-z
-x,-y,-z
x,-y,z
loop_
_atom_site_type_symbol
_atom_site_label
_atom_site_fract_x
_atom_site_fract_y
_atom_site_fract_z
Si Si1 0.901077 0.163919 0.488512
Si Si2 0.273622 0.653039 0.081209
Si Si3 0.733445 0.657903 0.633007
Si Si4 0.453829 0.664671 0.393153
Si Si5 0.067577 0.163218 0.799798
Si Si6 0.459012 0.659681 0.892690
Si Si7 0.875530 0.163137 0.960941
O O1 0.821264 0.244923 0.590523
O O2 0.894753 0.216583 0.347517
O O3 0.000000 0.202823 0.500000
O O4 0.884158 0.000000 0.510909
O O5 0.231606 0.500000 0.079485
O O6 0.307906 0.667572 0.209989
O O7 0.352127 0.674967 0.948044
O O8 0.201202 0.769312 0.087964
O O9 0.762488 0.500000 0.590455
O O10 0.652260 0.705465 0.573688
O O11 0.500000 0.726635 0.500000
O O12 0.463308 0.500000 0.390696
O O13 0.507295 0.727725 0.251197
O O14 0.132645 0.204189 0.888373
O O15 0.056824 0.000000 0.797593
O O16 0.968526 0.222490 0.867492
O O17 0.490308 0.500000 0.879303
O O18 0.500000 0.732829 0.000000
O O19 0.868080 0.000000 0.946086
#
# Coordination Sequence:
#
# PCOD8059749 Si02
#       7
#     4   4   4   4   4   4   4
#     4  10  20  34  53  75 100 134 173 206 244 305
#     4  10  19  30  49  76 101 126 164 207 249 295
#     4  10  20  33  50  75 105 133 165 212 260 297
#     4   9  17  30  49  73 100 132 171 210 249 301
#     4   8  16  32  51  70  95 129 168 203 240 294
#     4   9  15  28  48  66  91 129 163 193 237 295
#     4   9  17  32  53  72  94 128 166 205 247 293
#
# _framework density 18.23922
#
# number of rings (size 3 to 8) (size 9 to 14) (size 15 to 20)
#    0.000    2.714    1.429    1.714    0.000    3.143 
#    0.000    4.286    0.000    1.714    0.000    0.000 
#    0.000    0.000    0.000    0.000    0.000    0.000 
#
# Total GULP energy -346972.516677 kJ/mol
# GULP energy per Si atom -12391.875596 kJ/mol
# Density = 1.819771 g / cm^3
# Si number density = 18.239220 Si / 1000 Ang^3
#
#
#
# Elastic Constant Matrix: (Units=GPa)
#
#
# Indices 1 2 3 4 5 6 
#
# 1 108.5287 34.2841 41.5725 0.0000 7.0147 0.0000
# 2 34.2841 35.9124 21.5872 0.0000 -2.1226 0.0000
# 3 41.5725 21.5872 108.9337 0.0000 0.8447 0.0000
# 4 0.0000 0.0000 0.0000 24.5715 0.0000 -11.2860
# 5 7.0147 -2.1226 0.8447 0.0000 28.0831 0.0000
# 6 0.0000 0.0000 0.0000 -11.2860 0.0000 34.4582
#
#
#
# Elastic Compliance Matrix: (Units=1/GPa)
#
#
# Indices 1 2 3 4 5 6 
#
# 1 0.014581 -0.012329 -0.003086 0.000000 -0.004481 0.000000
# 2 -0.012329 0.042224 -0.003712 0.000000 0.006383 0.000000
# 3 -0.003086 -0.003712 0.011092 0.000000 0.000157 0.000000
# 4 0.000000 0.000000 0.000000 0.047904 0.000000 0.015690
# 5 -0.004481 0.006383 0.000157 0.000000 0.037206 0.000000
# 6 0.000000 0.000000 0.000000 0.015690 0.000000 0.034160
#
#
# Mechanical properties :
#
#
# Convention : Reuss Voigt Hill
#
# Bulk Modulus (GPa) = 33.73574 49.80693 41.77134
# Shear Modulus (GPa) = 21.24923 27.81796 24.53360
#
# Velocity S-wave (km/s) = 3.41696 3.90958 3.67154
# Velocity P-wave (km/s) = 5.83985 6.90990 6.39729
#
# Compressibility (1/GPa) = 0.02964215
#
# Stress axis : x y z
#
# Youngs Moduli (GPa) = 68.58279 23.68306 90.15403
#
# Poissons Ratio (x) = 0.29200 0.27826
# Poissons Ratio (y) = 0.84558 0.33463
# Poissons Ratio (z) = 0.21168 0.08791
#
# Static dielectric constant tensor:
#      x y z
#    x 3.271080 0.000000 0.165310 
#    y 0.000000 2.835630 0.000000 
#    z 0.165310 0.000000 3.818670 
# 
# 
# High freq. dielectric constant tensor:
#      x y z
#    x 1.705980 0.000000 0.006020 
#    y 0.000000 1.649240 0.000000 
#    z 0.006020 0.000000 1.718900 
# 
# From -- ./inp_files/49099.got.cif
#   From: 2010.06.25/outbox.cif.g09.slc.cpg/sg10_25_cif.got.tgz:49099.got - 2010.06.27 22:07:45.
