data_PCOD8059541
_publ_section_title
;
Structure prediction by ZEFSAII (Michael W. Deem and Ramdas Pophale) SiO2 
 PCOD8059541
Probable space group: P 2/M
;
_chemical_formula_sum "Si O2"
_cell_formula_units_Z 24
_cell_length_a 18.882145
_cell_length_b 8.939024
_cell_length_c 30.601059
_cell_angle_alpha 90.000000
_cell_angle_beta 162.074293
_cell_angle_gamma 90.000000
_cell_volume 1589.729667
_symmetry_space_group_name_H-M "P 2/M"
_symmetry_group_IT_number 10
_symmetry_cell_setting 'monoclinic'
loop_
_space_group_symop_operation_xyz
x,y,z
-x,y,-z
-x,-y,-z
x,-y,z
loop_
_atom_site_type_symbol
_atom_site_label
_atom_site_fract_x
_atom_site_fract_y
_atom_site_fract_z
Si Si1 0.613642 0.668989 0.113982
Si Si2 0.970036 0.175103 0.678957
Si Si3 0.192310 0.175107 0.901895
Si Si4 0.503100 0.330882 0.619024
Si Si5 0.035277 0.330892 0.150432
Si Si6 0.889065 0.822954 0.889220
O O1 0.652392 0.500000 0.152840
O O2 0.858566 0.752201 0.255937
O O3 0.500000 0.674285 0.000000
O O4 0.445896 0.752191 0.049446
O O5 0.718948 0.241444 0.525866
O O6 0.052200 0.213560 0.775929
O O7 0.964767 0.000000 0.667045
O O8 0.050305 0.241428 0.858271
O O9 0.223977 0.000000 0.927022
O O10 0.437085 0.500000 0.593944
O O11 0.684420 0.332245 0.684881
O O12 0.630570 0.247124 0.734500
O O13 0.937641 0.500000 0.093784
O O14 0.955104 0.247105 0.058579
O O15 0.875741 0.000000 0.875897
O O16 0.000000 0.774910 0.000000
#
# Coordination Sequence:
#
# PCOD8059541 Si02
#       6
#     4   4   4   4   4   4
#     4   9  17  29  45  63  86 119 158 193 225 263
#     4  10  19  30  45  65  92 124 157 192 226 263
#     4  10  19  30  45  65  92 124 157 192 226 263
#     4   9  19  31  45  67  93 120 152 186 224 271
#     4   9  19  31  45  67  93 120 152 186 224 271
#     4   9  17  31  50  69  90 115 145 184 228 273
#
# _framework density 15.096907
#
# number of rings (size 3 to 8) (size 9 to 14) (size 15 to 20)
#    1.000    1.667    0.000    2.500    0.000    6.000 
#    0.000    3.333    0.000    0.000    0.000    1.167 
#    0.000    9.333    0.000    0.000    0.000    0.000 
#
# Total GULP energy -297426.830293 kJ/mol
# GULP energy per Si atom -12392.784596 kJ/mol
# Density = 1.506255 g / cm^3
# Si number density = 15.096907 Si / 1000 Ang^3
#
#
#
# Elastic Constant Matrix: (Units=GPa)
#
#
# Indices 1 2 3 4 5 6 
#
# 1 60.6662 55.1795 66.9412 0.0000 4.1818 0.0000
# 2 55.1795 105.5405 55.2496 0.0000 -3.4741 0.0000
# 3 66.9412 55.2496 66.0857 0.0000 9.0830 0.0000
# 4 0.0000 0.0000 0.0000 27.3193 0.0000 6.7748
# 5 4.1818 -3.4741 9.0830 0.0000 16.1721 0.0000
# 6 0.0000 0.0000 0.0000 6.7748 0.0000 25.5350
#
#
#
# Elastic Compliance Matrix: (Units=1/GPa)
#
#
# Indices 1 2 3 4 5 6 
#
# 1 -0.108381 -0.009552 0.123753 0.000000 -0.043533 0.000000
# 2 -0.009552 0.018711 -0.007433 0.000000 0.010664 0.000000
# 3 0.123753 -0.007433 -0.107706 0.000000 0.026896 0.000000
# 4 0.000000 0.000000 0.000000 0.039182 0.000000 -0.010396
# 5 -0.043533 0.010664 0.026896 0.000000 0.060277 0.000000
# 6 0.000000 0.000000 0.000000 -0.010396 0.000000 0.041920
#
#
# Mechanical properties :
#
#
# Convention : Reuss Voigt Hill
#
# Bulk Modulus (GPa) = 61.87962 65.22589 63.55276
# Shear Modulus (GPa) = -18.92895 17.46673 -0.73111
#
# Velocity S-wave (km/s) = -3.54479 3.40512 -0.69665
# Velocity P-wave (km/s) = 4.93186 7.66540 6.44522
#
# Compressibility (1/GPa) = 0.01616041
#
# Stress axis : x y z
#
# Youngs Moduli (GPa) = -9.22670 53.44312 -9.28455
#
# Poissons Ratio (x) = 0.51050 1.14899
# Poissons Ratio (y) = -0.08814 -0.06901
# Poissons Ratio (z) = 1.14184 0.39725
#
# Static dielectric constant tensor:
#      x y z
#    x 2.713640 0.000000 0.152840 
#    y 0.000000 3.080840 0.000000 
#    z 0.152840 0.000000 2.754420 
# 
# 
# High freq. dielectric constant tensor:
#      x y z
#    x 1.550660 0.000000 0.017540 
#    y 0.000000 1.603260 0.000000 
#    z 0.017540 0.000000 1.555490 
# 
# From -- ./inp_files/52392.got.cif
#   From: 2010.06.25/outbox.cif.g09.slc.cpg/sg10_27_cif.got.tgz:52392.got - 2010.06.27 22:07:45.
