data_PCOD8059167
_publ_section_title
;
Structure prediction by ZEFSAII (Michael W. Deem and Ramdas Pophale) SiO2 
 PCOD8059167
Probable space group: P 2/M
;
_chemical_formula_sum "Si O2"
_cell_formula_units_Z 20
_cell_length_a 31.877414
_cell_length_b 7.846402
_cell_length_c 10.429700
_cell_angle_alpha 90.000000
_cell_angle_beta 25.251728
_cell_angle_gamma 90.000000
_cell_volume 1112.864403
_symmetry_space_group_name_H-M "P 2/M"
_symmetry_group_IT_number 10
_symmetry_cell_setting 'monoclinic'
loop_
_space_group_symop_operation_xyz
x,y,z
-x,y,-z
-x,-y,-z
x,-y,z
loop_
_atom_site_type_symbol
_atom_site_label
_atom_site_fract_x
_atom_site_fract_y
_atom_site_fract_z
Si Si1 0.413961 0.500000 0.339994
Si Si2 0.043380 0.799944 0.750363
Si Si3 0.586227 0.500000 0.364224
Si Si4 0.059883 0.201001 0.215371
Si Si5 0.267093 0.808287 0.740849
Si Si6 0.232044 0.688936 0.106986
O O1 0.452969 0.500000 0.379571
O O2 0.352128 0.670958 0.484917
O O3 0.500000 0.500000 0.000000
O O4 0.159565 0.758376 0.417160
O O5 0.984149 0.720605 0.793876
O O6 0.027450 0.000000 0.799733
O O7 0.000000 0.716551 0.000000
O O8 0.500000 0.500000 0.500000
O O9 0.655349 0.668515 0.150927
O O10 0.000000 0.282041 0.500000
O O11 0.043267 0.000000 0.261840
O O12 0.175476 0.243990 0.904188
O O13 0.304449 0.000000 0.604141
O O14 0.229007 0.812839 0.993165
O O15 0.198495 0.500000 0.152998
#
# Coordination Sequence:
#
# PCOD8059167 Si02
#       6
#     2   4   2   4   4   4
#     4  10  22  40  56  83 108 132 180 227 281 318
#     4  10  19  32  49  75 114 147 172 216 263 308
#     4   8  18  38  58  70  98 142 174 224 281 312
#     4   9  16  28  51  77 105 142 176 209 256 311
#     4  10  18  34  58  81 108 142 179 217 262 319
#     4   9  18  32  53  78 103 136 187 215 256 323
#
# _framework density 17.971641999999999
#
# number of rings (size 3 to 8) (size 9 to 14) (size 15 to 20)
#    0.600    2.000    3.000    0.600    0.000    0.800 
#    5.400    1.500    0.000   15.000    0.000    0.000 
#    0.000    0.000    0.000    0.000    0.000    0.000 
#
# Total GULP energy -247798.119464 kJ/mol
# GULP energy per Si atom -12389.905973 kJ/mol
# Density = 1.793074 g / cm^3
# Si number density = 17.971642 Si / 1000 Ang^3
#
#
#
# Elastic Constant Matrix: (Units=GPa)
#
#
# Indices 1 2 3 4 5 6 
#
# 1 144.2196 23.9826 73.9982 0.0000 -1.5599 0.0000
# 2 23.9826 59.0710 28.6099 0.0000 -4.3803 0.0000
# 3 73.9982 28.6099 149.6705 0.0000 11.1735 0.0000
# 4 0.0000 0.0000 0.0000 22.1556 0.0000 -5.9492
# 5 -1.5599 -4.3803 11.1735 0.0000 23.9661 0.0000
# 6 0.0000 0.0000 0.0000 -5.9492 0.0000 11.7770
#
#
#
# Elastic Compliance Matrix: (Units=1/GPa)
#
#
# Indices 1 2 3 4 5 6 
#
# 1 0.009590 -0.001453 -0.004652 0.000000 0.002528 0.000000
# 2 -0.001453 0.019538 -0.003394 0.000000 0.005059 0.000000
# 3 -0.004652 -0.003394 0.010049 0.000000 -0.005608 0.000000
# 4 0.000000 0.000000 0.000000 0.052219 0.000000 0.026379
# 5 0.002528 0.005059 -0.005608 0.000000 0.045429 0.000000
# 6 0.000000 0.000000 0.000000 0.026379 0.000000 0.098237
#
#
# Mechanical properties :
#
#
# Convention : Reuss Voigt Hill
#
# Bulk Modulus (GPa) = 49.55864 67.34917 58.45391
# Shear Modulus (GPa) = 19.17284 26.67107 22.92196
#
# Velocity S-wave (km/s) = 3.26979 3.85653 3.57522
# Velocity P-wave (km/s) = 6.47235 7.57543 7.04551
#
# Compressibility (1/GPa) = 0.02017812
#
# Stress axis : x y z
#
# Youngs Moduli (GPa) = 104.27674 51.18348 99.51296
#
# Poissons Ratio (x) = 0.07436 0.46296
# Poissons Ratio (y) = 0.15149 0.33775
# Poissons Ratio (z) = 0.48513 0.17372
#
# Static dielectric constant tensor:
#      x y z
#    x 3.347050 0.000000 0.091740 
#    y 0.000000 3.080940 0.000000 
#    z 0.091740 0.000000 3.279300 
# 
# 
# High freq. dielectric constant tensor:
#      x y z
#    x 1.678360 0.000000 -0.000720 
#    y 0.000000 1.681610 0.000000 
#    z -0.000720 0.000000 1.682700 
# 
# From -- ./inp_files/37819.got.cif
#   From: 2010.06.25/outbox.cif.g09.slc.cpg/sg10_19_cif.got.tgz:37819.got - 2010.06.27 22:07:45.
