data_PCOD8059651
_publ_section_title
;
Structure prediction by ZEFSAII (Michael W. Deem and Ramdas Pophale) SiO2 
 PCOD8059651
Probable space group: P 2/M
;
_chemical_formula_sum "Si O2"
_cell_formula_units_Z 32
_cell_length_a 23.240968
_cell_length_b 8.981194
_cell_length_c 16.973873
_cell_angle_alpha 90.000000
_cell_angle_beta 148.272539
_cell_angle_gamma 90.000000
_cell_volume 1863.182404
_symmetry_space_group_name_H-M "P 2/M"
_symmetry_group_IT_number 10
_symmetry_cell_setting 'monoclinic'
loop_
_space_group_symop_operation_xyz
x,y,z
-x,y,-z
-x,-y,-z
x,-y,z
loop_
_atom_site_type_symbol
_atom_site_label
_atom_site_fract_x
_atom_site_fract_y
_atom_site_fract_z
Si Si1 0.324485 0.168199 0.816458
Si Si2 0.102072 0.677953 0.943295
Si Si3 0.329904 0.825554 0.648993
Si Si4 0.886570 0.169819 0.334785
Si Si5 0.144494 0.677981 0.330402
Si Si6 0.871243 0.662137 0.857743
Si Si7 0.767980 0.676227 0.056848
Si Si8 0.427053 0.174304 0.093634
O O1 0.339646 0.243906 0.748636
O O2 0.197544 0.178563 0.691084
O O3 0.365802 0.000000 0.854706
O O4 0.397172 0.239785 0.971613
O O5 0.102320 0.500000 0.949160
O O6 0.180607 0.734853 0.965185
O O7 0.976559 0.730703 0.782778
O O8 0.149579 0.744342 0.082178
O O9 0.234109 0.742000 0.492997
O O10 0.445558 0.797726 0.739661
O O11 0.301067 0.000000 0.618371
O O12 0.849232 0.273240 0.220093
O O13 0.000000 0.232870 0.500000
O O14 0.898360 0.000000 0.318063
O O15 0.151300 0.500000 0.337959
O O16 0.169683 0.741713 0.270728
O O17 0.814448 0.500000 0.795154
O O18 0.000000 0.640109 0.000000
O O19 0.757983 0.500000 0.046139
O O20 0.646828 0.744964 0.926607
O O21 0.395871 0.000000 0.059018
#
# Coordination Sequence:
#
# PCOD8059651 Si02
#       8
#     4   4   4   4   4   4   4   4
#     4   8  15  29  47  65  83 114 159 193 219 258
#     4   8  15  28  47  71  96 121 149 182 222 274
#     4  10  19  30  48  70  91 118 152 195 235 267
#     4   9  18  31  46  64  91 126 157 184 217 268
#     4   9  17  29  47  72  97 119 145 182 229 276
#     4   7  11  24  46  67  89 120 152 177 212 270
#     4  10  19  30  47  70  93 118 151 192 233 267
#     4   9  18  34  50  63  86 122 163 195 223 266
#
# _framework density 17.174916
#
# number of rings (size 3 to 8) (size 9 to 14) (size 15 to 20)
#    0.000    3.250    0.000    3.000    1.750    2.250 
#    0.000    3.125    0.000    9.375    0.000    5.250 
#    0.000    0.000    0.000    0.000    0.000    0.000 
#
# Total GULP energy -396422.835657 kJ/mol
# GULP energy per Si atom -12388.213614 kJ/mol
# Density = 1.713582 g / cm^3
# Si number density = 17.174916 Si / 1000 Ang^3
#
#
#
# Elastic Constant Matrix: (Units=GPa)
#
#
# Indices 1 2 3 4 5 6 
#
# 1 141.0004 30.1646 55.3403 0.0000 -7.6576 0.0000
# 2 30.1646 29.6647 17.1416 0.0000 0.3882 0.0000
# 3 55.3403 17.1416 68.8771 0.0000 0.4736 0.0000
# 4 0.0000 0.0000 0.0000 16.6099 0.0000 6.1653
# 5 -7.6576 0.3882 0.4736 0.0000 18.7648 0.0000
# 6 0.0000 0.0000 0.0000 6.1653 0.0000 14.7192
#
#
#
# Elastic Compliance Matrix: (Units=1/GPa)
#
#
# Indices 1 2 3 4 5 6 
#
# 1 0.012142 -0.007893 -0.007828 0.000000 0.005316 0.000000
# 2 -0.007893 0.044509 -0.004708 0.000000 -0.004023 0.000000
# 3 -0.007828 -0.004708 0.022005 0.000000 -0.003652 0.000000
# 4 0.000000 0.000000 0.000000 0.071289 0.000000 -0.029860
# 5 0.005316 -0.004023 -0.003652 0.000000 0.055636 0.000000
# 6 0.000000 0.000000 0.000000 -0.029860 0.000000 0.080446
#
#
# Mechanical properties :
#
#
# Convention : Reuss Voigt Hill
#
# Bulk Modulus (GPa) = 26.45597 49.42614 37.94106
# Shear Modulus (GPa) = 14.72836 19.14515 16.93675
#
# Velocity S-wave (km/s) = 2.93157 3.34236 3.14368
# Velocity P-wave (km/s) = 5.18615 6.61330 5.94272
#
# Compressibility (1/GPa) = 0.03779865
#
# Stress axis : x y z
#
# Youngs Moduli (GPa) = 82.36190 22.46749 45.44504
#
# Poissons Ratio (x) = 0.17733 0.35573
# Poissons Ratio (y) = 0.65004 0.21395
# Poissons Ratio (z) = 0.64470 0.10578
#
# Static dielectric constant tensor:
#      x y z
#    x 3.568480 0.000000 -0.163150 
#    y 0.000000 2.791250 0.000000 
#    z -0.163150 0.000000 3.162710 
# 
# 
# High freq. dielectric constant tensor:
#      x y z
#    x 1.667210 0.000000 -0.003560 
#    y 0.000000 1.617400 0.000000 
#    z -0.003560 0.000000 1.649450 
# 
# From -- ./inp_files/79970.got.cif
#   From: 2010.06.25/outbox.cif.g09.slc.cpg/sg10_40_cif.got.tgz:79970.got - 2010.06.27 22:07:45.
