data_PCOD8059163
_publ_section_title
;
Structure prediction by ZEFSAII (Michael W. Deem and Ramdas Pophale) SiO2 
 PCOD8059163
Probable space group: P 2/M
;
_chemical_formula_sum "Si O2"
_cell_formula_units_Z 18
_cell_length_a 12.209757
_cell_length_b 7.193335
_cell_length_c 17.387088
_cell_angle_alpha 90.000000
_cell_angle_beta 40.357548
_cell_angle_gamma 90.000000
_cell_volume 988.874417
_symmetry_space_group_name_H-M "P 2/M"
_symmetry_group_IT_number 10
_symmetry_cell_setting 'monoclinic'
loop_
_space_group_symop_operation_xyz
x,y,z
-x,y,-z
-x,-y,-z
x,-y,z
loop_
_atom_site_type_symbol
_atom_site_label
_atom_site_fract_x
_atom_site_fract_y
_atom_site_fract_z
Si Si1 0.219288 0.500000 0.764297
Si Si2 0.971912 0.500000 0.770429
Si Si3 0.741533 0.781910 0.624214
Si Si4 0.149567 0.500000 0.001896
Si Si5 0.361119 0.221298 0.794826
Si Si6 0.032690 0.780879 0.358940
O O1 0.322838 0.313082 0.731659
O O2 0.163251 0.500000 0.705158
O O3 0.052091 0.500000 0.909544
O O4 0.835257 0.500000 0.912732
O O5 0.946791 0.684419 0.734097
O O6 0.550239 0.717058 0.716104
O O7 0.812937 0.715682 0.668517
O O8 0.858924 0.709085 0.491640
O O9 0.758171 0.000000 0.613074
O O10 0.238444 0.312094 0.923866
O O11 0.335239 0.000000 0.805271
O O12 0.033708 0.000000 0.343480
#
# Coordination Sequence:
#
# PCOD8059163 Si02
#       6
#     2   2   4   2   4   4
#     4   9  22  36  46  77 106 125 181 209 232 311
#     4  10  22  34  48  76 102 140 178 186 248 318
#     4   8  17  33  57  83  96 124 176 211 247 299
#     4   9  22  36  46  77 106 125 181 209 232 311
#     4  10  18  34  58  76  98 130 166 218 260 280
#     4   9  18  36  55  74 106 133 162 210 248 297
#
# _framework density 18.202513
#
# number of rings (size 3 to 8) (size 9 to 14) (size 15 to 20)
#    0.667    2.222    0.000    2.667    0.000    8.889 
#    0.000    4.444    0.000    8.000    0.000    0.000 
#    0.000    0.000    0.000    0.000    0.000    0.000 
#
# Total GULP energy -223015.952482 kJ/mol
# GULP energy per Si atom -12389.775138 kJ/mol
# Density = 1.816108 g / cm^3
# Si number density = 18.202513 Si / 1000 Ang^3
#
#
#
# Elastic Constant Matrix: (Units=GPa)
#
#
# Indices 1 2 3 4 5 6 
#
# 1 101.0219 33.6394 19.6574 0.0000 -9.1465 0.0000
# 2 33.6394 106.8688 16.6623 0.0000 -2.2911 0.0000
# 3 19.6574 16.6623 29.0133 0.0000 -15.6039 0.0000
# 4 0.0000 0.0000 0.0000 -41.1436 0.0000 10.6540
# 5 -9.1465 -2.2911 -15.6039 0.0000 38.4183 0.0000
# 6 0.0000 0.0000 0.0000 10.6540 0.0000 31.0430
#
#
#
# Elastic Compliance Matrix: (Units=1/GPa)
#
#
# Indices 1 2 3 4 5 6 
#
# 1 0.012111 -0.002785 -0.006583 0.000000 0.000044 0.000000
# 2 -0.002785 0.011077 -0.005727 0.000000 -0.002328 0.000000
# 3 -0.006583 -0.005727 0.052701 0.000000 0.019496 0.000000
# 4 0.000000 0.000000 0.000000 -0.022321 0.000000 0.007661
# 5 0.000044 -0.002328 0.019496 0.000000 0.033819 0.000000
# 6 0.000000 0.000000 0.000000 0.007661 0.000000 0.029584
#
#
# Mechanical properties :
#
#
# Convention : Reuss Voigt Hill
#
# Bulk Modulus (GPa) = 21.88168 41.86912 31.87540
# Shear Modulus (GPa) = 30.78928 16.79321 23.79124
#
# Velocity S-wave (km/s) = 4.11723 3.04069 3.61921
# Velocity P-wave (km/s) = 5.88638 5.94807 5.91730
#
# Compressibility (1/GPa) = 0.04570034
#
# Stress axis : x y z
#
# Youngs Moduli (GPa) = 82.56911 90.27822 18.97479
#
# Poissons Ratio (x) = 0.25142 0.12491
# Poissons Ratio (y) = 0.22995 0.10867
# Poissons Ratio (z) = 0.54353 0.51701
#
# Static dielectric constant tensor:
#      x y z
#    x 3.654780 0.000000 -0.322580 
#    y 0.000000 3.202550 0.000000 
#    z -0.322580 0.000000 3.329440 
# 
# 
# High freq. dielectric constant tensor:
#      x y z
#    x 1.711520 0.000000 -0.009650 
#    y 0.000000 1.710420 0.000000 
#    z -0.009650 0.000000 1.682320 
# 
# From -- ./inp_files/75706.got.cif
#   From: 2010.06.25/outbox.cif.g09.slc.cpg/sg10_38_cif.got.tgz:75706.got - 2010.06.27 22:07:45.
