data_PCOD8059420
_publ_section_title
;
Structure prediction by ZEFSAII (Michael W. Deem and Ramdas Pophale) SiO2 
 PCOD8059420
Probable space group: P 2/M
;
_chemical_formula_sum "Si O2"
_cell_formula_units_Z 32
_cell_length_a 13.883263
_cell_length_b 13.473483
_cell_length_c 12.276702
_cell_angle_alpha 90.000000
_cell_angle_beta 125.266064
_cell_angle_gamma 90.000000
_cell_volume 1874.988204
_symmetry_space_group_name_H-M "P 2/M"
_symmetry_group_IT_number 10
_symmetry_cell_setting 'monoclinic'
loop_
_space_group_symop_operation_xyz
x,y,z
-x,y,-z
-x,-y,-z
x,-y,z
loop_
_atom_site_type_symbol
_atom_site_label
_atom_site_fract_x
_atom_site_fract_y
_atom_site_fract_z
Si Si1 0.793290 0.787441 0.586704
Si Si2 0.280421 0.116486 0.857371
Si Si3 0.503887 0.611096 0.683971
Si Si4 0.310309 0.610049 0.370381
Si Si5 0.009941 0.113766 0.630814
Si Si6 0.614256 0.215240 0.278035
Si Si7 0.385739 0.112841 0.148440
Si Si8 0.620909 0.114194 0.623645
O O1 0.790613 0.688424 0.660225
O O2 0.727521 0.777239 0.428805
O O3 0.726899 0.873858 0.609093
O O4 0.927393 0.818237 0.652866
O O5 0.140348 0.126019 0.761684
O O6 0.337727 0.194942 0.811336
O O7 0.317031 0.000000 0.860014
O O8 0.325282 0.160229 0.002327
O O9 0.513723 0.500000 0.739994
O O10 0.404858 0.613144 0.527740
O O11 0.627222 0.639557 0.703562
O O12 0.468654 0.686383 0.759172
O O13 0.254347 0.500000 0.324840
O O14 0.000000 0.150604 0.500000
O O15 0.966340 0.000000 0.609252
O O16 0.528088 0.122513 0.244467
O O17 0.341899 0.160357 0.234552
O O18 0.347097 0.000000 0.116769
O O19 0.500000 0.166852 0.500000
O O20 0.591454 0.000000 0.624154
#
# Coordination Sequence:
#
# PCOD8059420 Si02
#       8
#     4   4   4   4   4   4   4   4
#     4  11  19  28  50  75  97 122 161 205 246 286
#     4  10  21  35  48  65  95 137 176 201 229 281
#     4   8  15  27  44  70 102 130 154 188 242 304
#     4   8  15  27  44  69 102 130 152 189 247 305
#     4  10  20  34  49  67  95 132 171 206 237 278
#     4  11  18  27  49  74  97 124 160 202 241 285
#     4  10  20  32  46  69 101 131 159 194 243 298
#     4  10  19  29  44  71 103 125 147 194 253 294
#
# _framework density 17.066773999999999
#
# number of rings (size 3 to 8) (size 9 to 14) (size 15 to 20)
#    0.000    2.250    2.500    2.625    1.750    2.000 
#    0.000    0.625    0.000    5.625    0.000    0.000 
#    0.000    3.000    0.000    0.000    0.000    0.000 
#
# Total GULP energy -396419.053671 kJ/mol
# GULP energy per Si atom -12388.095427 kJ/mol
# Density = 1.702793 g / cm^3
# Si number density = 17.066774 Si / 1000 Ang^3
#
#
#
# Elastic Constant Matrix: (Units=GPa)
#
#
# Indices 1 2 3 4 5 6 
#
# 1 107.0064 52.0862 31.2185 0.0000 -18.2261 0.0000
# 2 52.0862 76.8882 34.6261 0.0000 -13.6104 0.0000
# 3 31.2185 34.6261 74.9613 0.0000 -19.5033 0.0000
# 4 0.0000 0.0000 0.0000 12.6581 0.0000 -5.7440
# 5 -18.2261 -13.6104 -19.5033 0.0000 23.6768 0.0000
# 6 0.0000 0.0000 0.0000 -5.7440 0.0000 29.9787
#
#
#
# Elastic Compliance Matrix: (Units=1/GPa)
#
#
# Indices 1 2 3 4 5 6 
#
# 1 0.014745 -0.008677 -0.000607 0.000000 0.005862 0.000000
# 2 -0.008677 0.021841 -0.006296 0.000000 0.000690 0.000000
# 3 -0.000607 -0.006296 0.019649 0.000000 0.012099 0.000000
# 4 0.000000 0.000000 0.000000 0.086524 0.000000 0.016578
# 5 0.005862 0.000690 0.012099 0.000000 0.057111 0.000000
# 6 0.000000 0.000000 0.000000 0.016578 0.000000 0.036534
#
#
# Mechanical properties :
#
#
# Convention : Reuss Voigt Hill
#
# Bulk Modulus (GPa) = 39.88093 54.96860 47.42476
# Shear Modulus (GPa) = 18.12107 22.65773 20.38940
#
# Velocity S-wave (km/s) = 3.26202 3.64757 3.46017
# Velocity P-wave (km/s) = 6.13238 7.07231 6.61905
#
# Compressibility (1/GPa) = 0.02507464
#
# Stress axis : x y z
#
# Youngs Moduli (GPa) = 67.82172 45.78446 50.89275
#
# Poissons Ratio (x) = 0.39728 0.03090
# Poissons Ratio (y) = 0.58851 0.32041
# Poissons Ratio (z) = 0.04118 0.28825
#
# Static dielectric constant tensor:
#      x y z
#    x 3.077150 0.000000 -0.223990 
#    y 0.000000 3.338440 0.000000 
#    z -0.223990 0.000000 3.146610 
# 
# 
# High freq. dielectric constant tensor:
#      x y z
#    x 1.644770 0.000000 -0.021910 
#    y 0.000000 1.643870 0.000000 
#    z -0.021910 0.000000 1.633050 
# 
# From -- ./inp_files/47421.got.cif
#   From: 2010.06.25/outbox.cif.g09.slc.cpg/sg10_24_cif.got.tgz:47421.got - 2010.06.27 22:07:45.
