data_PCOD8059357
_publ_section_title
;
Structure prediction by ZEFSAII (Michael W. Deem and Ramdas Pophale) SiO2 
 PCOD8059357
Probable space group: P 2/M
;
_chemical_formula_sum "Si O2"
_cell_formula_units_Z 32
_cell_length_a 16.032307
_cell_length_b 9.335197
_cell_length_c 23.171467
_cell_angle_alpha 90.000000
_cell_angle_beta 30.335452
_cell_angle_gamma 90.000000
_cell_volume 1751.529769
_symmetry_space_group_name_H-M "P 2/M"
_symmetry_group_IT_number 10
_symmetry_cell_setting 'monoclinic'
loop_
_space_group_symop_operation_xyz
x,y,z
-x,y,-z
-x,-y,-z
x,-y,z
loop_
_atom_site_type_symbol
_atom_site_label
_atom_site_fract_x
_atom_site_fract_y
_atom_site_fract_z
Si Si1 0.958567 0.335865 0.810752
Si Si2 0.731333 0.667194 0.299028
Si Si3 0.455280 0.832291 0.411446
Si Si4 0.871048 0.662948 0.403273
Si Si5 0.251644 0.157068 0.984970
Si Si6 0.471790 0.168271 0.269418
Si Si7 0.067277 0.842171 0.900114
Si Si8 0.861682 0.334401 0.538969
O O1 0.930587 0.500000 0.844785
O O2 0.138337 0.287571 0.729144
O O3 0.974053 0.311783 0.732550
O O4 0.794649 0.255027 0.932034
O O5 0.690355 0.500000 0.324114
O O6 0.559216 0.754770 0.400778
O O7 0.809358 0.717562 0.191920
O O8 0.270927 0.774147 0.527778
O O9 0.520204 0.797625 0.307227
O O10 0.455057 0.000000 0.424394
O O11 0.803923 0.500000 0.435666
O O12 0.931718 0.687968 0.432385
O O13 0.080808 0.140209 0.054950
O O14 0.310736 0.000000 0.971301
O O15 0.386680 0.222362 0.859868
O O16 0.305063 0.247542 0.351022
O O17 0.442840 0.000000 0.279599
O O18 0.155774 0.000000 0.852987
O O19 0.000000 0.786768 0.000000
O O20 0.822272 0.500000 0.575070
O O21 0.000000 0.275469 0.500000
#
# Coordination Sequence:
#
# PCOD8059357 Si02
#       8
#     4   4   4   4   4   4   4   4
#     4   9  19  33  47  65  92 129 167 197 230 275
#     4  10  19  29  41  61  90 124 164 203 236 272
#     4  10  19  31  47  68  94 124 162 203 242 282
#     4   9  18  34  52  69  94 125 154 190 238 285
#     4   9  17  29  46  67  92 123 159 197 232 271
#     4   9  18  32  50  73  99 126 155 190 236 284
#     4   9  16  27  42  59  84 120 159 200 244 280
#     4   9  18  33  55  81 101 117 144 186 235 286
#
# _framework density 18.269743999999999
#
# number of rings (size 3 to 8) (size 9 to 14) (size 15 to 20)
#    0.000    2.750    0.000    1.500    0.000    5.000 
#    0.000    5.000    0.000    0.750    0.000    5.250 
#    0.000    0.000    0.000    0.000    0.000    0.000 
#
# Total GULP energy -396480.344506 kJ/mol
# GULP energy per Si atom -12390.010766 kJ/mol
# Density = 1.822816 g / cm^3
# Si number density = 18.269744 Si / 1000 Ang^3
#
#
#
# Elastic Constant Matrix: (Units=GPa)
#
#
# Indices 1 2 3 4 5 6 
#
# 1 53.6466 27.8303 21.7255 0.0000 2.3874 0.0000
# 2 27.8303 61.0077 33.5444 0.0000 1.8677 0.0000
# 3 21.7255 33.5444 84.2308 0.0000 18.9657 0.0000
# 4 0.0000 0.0000 0.0000 33.6262 0.0000 -3.2261
# 5 2.3874 1.8677 18.9657 0.0000 22.7687 0.0000
# 6 0.0000 0.0000 0.0000 -3.2261 0.0000 16.9880
#
#
#
# Elastic Compliance Matrix: (Units=1/GPa)
#
#
# Indices 1 2 3 4 5 6 
#
# 1 0.024801 -0.009946 -0.002504 0.000000 0.000301 0.000000
# 2 -0.009946 0.025775 -0.009180 0.000000 0.006575 0.000000
# 3 -0.002504 -0.009180 0.019626 0.000000 -0.015332 0.000000
# 4 0.000000 0.000000 0.000000 0.030291 0.000000 0.005752
# 5 0.000301 0.006575 -0.015332 0.000000 0.056121 0.000000
# 6 0.000000 0.000000 0.000000 0.005752 0.000000 0.059957
#
#
# Mechanical properties :
#
#
# Convention : Reuss Voigt Hill
#
# Bulk Modulus (GPa) = 37.11600 40.56506 38.84053
# Shear Modulus (GPa) = 18.60054 22.39557 20.49806
#
# Velocity S-wave (km/s) = 3.19424 3.50498 3.35321
# Velocity P-wave (km/s) = 5.82785 6.21542 6.02476
#
# Compressibility (1/GPa) = 0.02694256
#
# Stress axis : x y z
#
# Youngs Moduli (GPa) = 40.32127 38.79786 50.95314
#
# Poissons Ratio (x) = 0.38589 0.12756
# Poissons Ratio (y) = 0.40104 0.46773
# Poissons Ratio (z) = 0.10095 0.35615
#
# Static dielectric constant tensor:
#      x y z
#    x 3.176040 0.000000 0.133120 
#    y 0.000000 3.503090 0.000000 
#    z 0.133120 0.000000 3.297050 
# 
# 
# High freq. dielectric constant tensor:
#      x y z
#    x 1.673500 0.000000 0.016100 
#    y 0.000000 1.704860 0.000000 
#    z 0.016100 0.000000 1.704720 
# 
# From -- ./inp_files/56403.got.cif
#   From: 2010.06.25/outbox.cif.g09.slc.cpg/sg10_29_cif.got.tgz:56403.got - 2010.06.27 22:07:45.
