data_PCOD8059441
_publ_section_title
;
Structure prediction by ZEFSAII (Michael W. Deem and Ramdas Pophale) SiO2 
 PCOD8059441
Probable space group: P 2/M
;
_chemical_formula_sum "Si O2"
_cell_formula_units_Z 32
_cell_length_a 16.470070
_cell_length_b 9.712098
_cell_length_c 25.275905
_cell_angle_alpha 90.000000
_cell_angle_beta 25.612477
_cell_angle_gamma 90.000000
_cell_volume 1747.762810
_symmetry_space_group_name_H-M "P 2/M"
_symmetry_group_IT_number 10
_symmetry_cell_setting 'monoclinic'
loop_
_space_group_symop_operation_xyz
x,y,z
-x,y,-z
-x,-y,-z
x,-y,z
loop_
_atom_site_type_symbol
_atom_site_label
_atom_site_fract_x
_atom_site_fract_y
_atom_site_fract_z
Si Si1 0.108618 0.657199 0.884791
Si Si2 0.059668 0.155796 0.104875
Si Si3 0.699029 0.647889 0.861623
Si Si4 0.962325 0.844460 0.762624
Si Si5 0.763357 0.154913 0.733264
Si Si6 0.461903 0.843936 0.825560
Si Si7 0.829695 0.845315 0.465950
Si Si8 0.495565 0.658986 0.299782
O O1 0.045659 0.500000 0.911917
O O2 0.331247 0.668806 0.761755
O O3 0.054964 0.744209 0.865411
O O4 0.000000 0.715532 0.000000
O O5 0.977518 0.181638 0.212163
O O6 0.015332 0.000000 0.113411
O O7 0.285265 0.181812 0.968818
O O8 0.802054 0.500000 0.790256
O O9 0.670702 0.733743 0.825277
O O10 0.802078 0.735323 0.845585
O O11 0.500000 0.609761 0.000000
O O12 0.124896 0.822671 0.623082
O O13 0.883216 0.000000 0.803428
O O14 0.664535 0.177585 0.734705
O O15 0.988740 0.176505 0.602589
O O16 0.718650 0.000000 0.779696
O O17 0.446907 0.734101 0.787892
O O18 0.453044 0.000000 0.808211
O O19 0.679793 0.732168 0.570002
O O20 0.750767 0.000000 0.521015
O O21 0.445774 0.500000 0.316758
#
# Coordination Sequence:
#
# PCOD8059441 Si02
#       8
#     4   4   4   4   4   4   4   4
#     4  10  21  39  58  79 110 145 178 217 276 338
#     4  10  20  34  58  89 113 136 177 230 276 322
#     4  10  19  29  45  74 109 145 185 226 268 315
#     4   9  19  36  56  79 108 144 182 222 272 324
#     4   9  19  35  54  76 106 147 186 223 269 321
#     4  10  20  34  55  84 113 141 180 227 275 324
#     4   9  19  37  58  78 107 147 187 224 264 316
#     4  11  23  38  57  79 107 145 184 225 274 328
#
# _framework density 18.309121000000001
#
# number of rings (size 3 to 8) (size 9 to 14) (size 15 to 20)
#    0.000    2.250    1.250    2.250    0.000    6.750 
#    0.000    3.125    0.000    3.750    0.000    0.000 
#    0.000    0.000    0.000    0.000    0.000    0.000 
#
# Total GULP energy -396604.774142 kJ/mol
# GULP energy per Si atom -12393.899192 kJ/mol
# Density = 1.826745 g / cm^3
# Si number density = 18.309121 Si / 1000 Ang^3
#
#
#
# Elastic Constant Matrix: (Units=GPa)
#
#
# Indices 1 2 3 4 5 6 
#
# 1 97.2606 54.0016 26.1374 0.0000 -0.4303 0.0000
# 2 54.0016 125.5852 38.5841 0.0000 -0.9712 0.0000
# 3 26.1374 38.5841 68.0045 0.0000 -2.9595 0.0000
# 4 0.0000 0.0000 0.0000 29.8316 0.0000 4.1093
# 5 -0.4303 -0.9712 -2.9595 0.0000 22.0554 0.0000
# 6 0.0000 0.0000 0.0000 4.1093 0.0000 47.1881
#
#
#
# Elastic Compliance Matrix: (Units=1/GPa)
#
#
# Indices 1 2 3 4 5 6 
#
# 1 0.013811 -0.005215 -0.002361 0.000000 -0.000277 0.000000
# 2 -0.005215 0.011615 -0.004595 0.000000 -0.000207 0.000000
# 3 -0.002361 -0.004595 0.018316 0.000000 0.002209 0.000000
# 4 0.000000 0.000000 0.000000 0.033928 0.000000 -0.002955
# 5 -0.000277 -0.000207 0.002209 0.000000 0.045622 0.000000
# 6 0.000000 0.000000 0.000000 -0.002955 0.000000 0.021449
#
#
# Mechanical properties :
#
#
# Convention : Reuss Voigt Hill
#
# Bulk Modulus (GPa) = 51.54874 58.69960 55.12417
# Shear Modulus (GPa) = 28.48190 31.29018 29.88604
#
# Velocity S-wave (km/s) = 3.94840 4.13848 4.04456
# Velocity P-wave (km/s) = 7.00017 7.41390 7.21000
#
# Compressibility (1/GPa) = 0.01939912
#
# Stress axis : x y z
#
# Youngs Moduli (GPa) = 72.40812 86.09282 54.59851
#
# Poissons Ratio (x) = 0.44900 0.12891
# Poissons Ratio (y) = 0.37763 0.25087
# Poissons Ratio (z) = 0.17096 0.39558
#
# Static dielectric constant tensor:
#      x y z
#    x 3.347000 0.000000 0.013520 
#    y 0.000000 3.519620 0.000000 
#    z 0.013520 0.000000 3.217120 
# 
# 
# High freq. dielectric constant tensor:
#      x y z
#    x 1.699570 0.000000 0.002420 
#    y 0.000000 1.722630 0.000000 
#    z 0.002420 0.000000 1.693490 
# 
# From -- ./inp_files/89539.got.cif
#   From: 2010.06.25/outbox.cif.g09.slc.cpg/sg10_45_cif.got.tgz:89539.got - 2010.06.27 22:07:45.
