data_PCOD8059884
_publ_section_title
;
Structure prediction by ZEFSAII (Michael W. Deem and Ramdas Pophale) SiO2 
 PCOD8059884
Probable space group: P 2/M
;
_chemical_formula_sum "Si O2"
_cell_formula_units_Z 32
_cell_length_a 9.283294
_cell_length_b 9.247670
_cell_length_c 20.465449
_cell_angle_alpha 90.000000
_cell_angle_beta 92.608293
_cell_angle_gamma 90.000000
_cell_volume 1755.114849
_symmetry_space_group_name_H-M "P 2/M"
_symmetry_group_IT_number 10
_symmetry_cell_setting 'monoclinic'
loop_
_space_group_symop_operation_xyz
x,y,z
-x,y,-z
-x,-y,-z
x,-y,z
loop_
_atom_site_type_symbol
_atom_site_label
_atom_site_fract_x
_atom_site_fract_y
_atom_site_fract_z
Si Si1 0.266967 0.166887 0.894121
Si Si2 0.893181 0.165105 0.363207
Si Si3 0.181106 0.334555 0.383586
Si Si4 0.410797 0.830837 0.141772
Si Si5 0.831592 0.339895 0.477932
Si Si6 0.665216 0.336398 0.982606
Si Si7 0.048100 0.832464 0.776746
Si Si8 0.248007 0.332681 0.244469
O O1 0.420913 0.199129 0.864711
O O2 0.144378 0.210285 0.840487
O O3 0.257520 0.000000 0.914839
O O4 0.241422 0.262727 0.958138
O O5 0.789620 0.242453 0.414406
O O6 0.054624 0.221315 0.371991
O O7 0.851787 0.190148 0.286170
O O8 0.888994 0.000000 0.383219
O O9 0.119736 0.500000 0.384239
O O10 0.255557 0.302045 0.456160
O O11 0.285371 0.317565 0.322922
O O12 0.315700 0.755600 0.083093
O O13 0.368470 0.758924 0.209505
O O14 0.373848 0.000000 0.141533
O O15 0.792995 0.500000 0.454140
O O16 0.000000 0.322899 0.500000
O O17 0.719711 0.500000 0.972411
O O18 0.500000 0.333574 0.000000
O O19 0.910481 0.728681 0.774425
O O20 0.997453 0.000000 0.778940
O O21 0.253077 0.500000 0.222729
#
# Coordination Sequence:
#
# PCOD8059884 Si02
#       8
#     4   4   4   4   4   4   4   4
#     4   9  18  33  52  71  92 121 154 186 223 270
#     4   9  15  22  36  59  85 112 143 182 223 260
#     4   8  15  26  38  54  81 117 149 178 219 267
#     4  10  19  32  51  72  93 120 153 186 224 272
#     4   8  13  22  35  52  78 112 147 180 217 263
#     4   9  17  30  49  72  95 117 146 188 230 265
#     4   9  18  32  47  66  95 126 153 184 226 274
#     4  10  19  31  47  68  95 124 153 188 230 272
#
# _framework density 18.232426
#
# number of rings (size 3 to 8) (size 9 to 14) (size 15 to 20)
#    0.000    3.000    0.000    2.250    0.000    5.750 
#    0.000    0.625    0.000    3.750    0.000    0.875 
#    0.000    7.000    0.000    0.000    0.000    0.000 
#
# Total GULP energy -396486.149565 kJ/mol
# GULP energy per Si atom -12390.192174 kJ/mol
# Density = 1.819093 g / cm^3
# Si number density = 18.232426 Si / 1000 Ang^3
#
#
#
# Elastic Constant Matrix: (Units=GPa)
#
#
# Indices 1 2 3 4 5 6 
#
# 1 18.1321 9.8110 0.2376 0.0000 -7.9036 0.0000
# 2 9.8110 87.6612 19.5575 0.0000 -13.1460 0.0000
# 3 0.2376 19.5575 41.0782 0.0000 -22.5798 0.0000
# 4 0.0000 0.0000 0.0000 34.4334 0.0000 -6.0005
# 5 -7.9036 -13.1460 -22.5798 0.0000 21.4989 0.0000
# 6 0.0000 0.0000 0.0000 -6.0005 0.0000 15.5450
#
#
#
# Elastic Compliance Matrix: (Units=1/GPa)
#
#
# Indices 1 2 3 4 5 6 
#
# 1 0.093203 -0.009173 0.046321 0.000000 0.077304 0.000000
# 2 -0.009173 0.013770 -0.008820 0.000000 -0.004216 0.000000
# 3 0.046321 -0.008820 0.082026 0.000000 0.097785 0.000000
# 4 0.000000 0.000000 0.000000 0.031136 0.000000 0.012019
# 5 0.077304 -0.004216 0.097785 0.000000 0.175057 0.000000
# 6 0.000000 0.000000 0.000000 0.012019 0.000000 0.068969
#
#
# Mechanical properties :
#
#
# Convention : Reuss Voigt Hill
#
# Bulk Modulus (GPa) = 4.07076 22.89818 13.48447
# Shear Modulus (GPa) = 10.21684 22.11317 16.16501
#
# Velocity S-wave (km/s) = 2.36977 3.48638 2.98083
# Velocity P-wave (km/s) = 3.11855 5.36589 4.38851
#
# Compressibility (1/GPa) = 0.24565426
#
# Stress axis : x y z
#
# Youngs Moduli (GPa) = 10.72930 72.62324 12.19131
#
# Poissons Ratio (x) = 0.66614 -0.56471
# Poissons Ratio (y) = 0.09841 0.10753
# Poissons Ratio (z) = -0.49699 0.64054
#
# Static dielectric constant tensor:
#      x y z
#    x 2.738490 0.000000 -0.247880 
#    y 0.000000 3.470440 0.000000 
#    z -0.247880 0.000000 3.950140 
# 
# 
# High freq. dielectric constant tensor:
#      x y z
#    x 1.632750 0.000000 -0.021470 
#    y 0.000000 1.715400 0.000000 
#    z -0.021470 0.000000 1.728270 
# 
# From -- ./inp_files/83232.got.cif
#   From: 2010.06.25/outbox.cif.g09.slc.cpg/sg10_42_cif.got.tgz:83232.got - 2010.06.27 22:07:45.
