data_PCOD8059114
_publ_section_title
;
Structure prediction by ZEFSAII (Michael W. Deem and Ramdas Pophale) SiO2 
 PCOD8059114
Probable space group: P 2/M
;
_chemical_formula_sum "Si O2"
_cell_formula_units_Z 32
_cell_length_a 16.057845
_cell_length_b 13.996464
_cell_length_c 23.285060
_cell_angle_alpha 90.000000
_cell_angle_beta 17.328364
_cell_angle_gamma 90.000000
_cell_volume 1558.751538
_symmetry_space_group_name_H-M "P 2/M"
_symmetry_group_IT_number 10
_symmetry_cell_setting 'monoclinic'
loop_
_space_group_symop_operation_xyz
x,y,z
-x,y,-z
-x,-y,-z
x,-y,z
loop_
_atom_site_type_symbol
_atom_site_label
_atom_site_fract_x
_atom_site_fract_y
_atom_site_fract_z
Si Si1 0.592257 0.711396 0.658201
Si Si2 0.288819 0.103421 0.086851
Si Si3 0.693120 0.690304 0.952216
Si Si4 0.259652 0.606127 0.786609
Si Si5 0.674132 0.106876 0.540118
Si Si6 0.279702 0.109496 0.693969
Si Si7 0.920679 0.711718 0.920812
Si Si8 0.869089 0.387873 0.716468
O O1 0.500107 0.668382 0.657444
O O2 0.647296 0.823565 0.612290
O O3 0.874128 0.654568 0.489405
O O4 0.370265 0.697275 0.854514
O O5 0.377947 0.196492 0.992126
O O6 0.970592 0.121278 0.314758
O O7 0.306008 0.000000 0.042619
O O8 0.500000 0.097926 0.000000
O O9 0.880524 0.665333 0.884180
O O10 0.856673 0.668557 0.785455
O O11 0.407554 0.629979 0.139205
O O12 0.375216 0.500000 0.699023
O O13 0.170938 0.652280 0.784735
O O14 0.000000 0.603543 0.000000
O O15 0.422429 0.127208 0.661489
O O16 0.648319 0.000000 0.581683
O O17 0.500000 0.135804 0.500000
O O18 0.009076 0.176759 0.863602
O O19 0.178333 0.000000 0.754446
O O20 0.904461 0.500000 0.704722
#
# Coordination Sequence:
#
# PCOD8059114 Si02
#       8
#     4   4   4   4   4   4   4   4
#     4  11  21  40  59  88 122 161 199 246 308 366
#     4  10  18  33  59  89 117 154 201 246 295 356
#     4  11  21  40  62  91 120 156 202 255 302 363
#     4   9  19  36  55  78 112 154 195 238 296 358
#     4  10  19  33  58  85 119 166 205 240 292 362
#     4  10  21  37  58  90 129 165 203 249 302 360
#     4  11  24  36  62  91 124 156 198 254 306 360
#     4  11  24  43  65  87 118 159 204 255 311 365
#
# _framework density 20.529250000000001
#
# number of rings (size 3 to 8) (size 9 to 14) (size 15 to 20)
#    0.000    1.625    3.750    1.875    0.000    4.000 
#    0.000    1.875    0.000    1.875    0.000    5.250 
#    0.000    0.000    0.000    0.000    0.000    0.000 
#
# Total GULP energy -396712.474543 kJ/mol
# GULP energy per Si atom -12397.264829 kJ/mol
# Density = 2.048252 g / cm^3
# Si number density = 20.529250 Si / 1000 Ang^3
#
#
#
# Elastic Constant Matrix: (Units=GPa)
#
#
# Indices 1 2 3 4 5 6 
#
# 1 80.0612 18.6865 6.6246 0.0000 -11.1218 0.0000
# 2 18.6865 127.3344 16.2082 0.0000 1.6376 0.0000
# 3 6.6246 16.2082 71.1263 0.0000 -13.4074 0.0000
# 4 0.0000 0.0000 0.0000 29.3360 0.0000 -5.7037
# 5 -11.1218 1.6376 -13.4074 0.0000 20.7262 0.0000
# 6 0.0000 0.0000 0.0000 -5.7037 0.0000 19.9664
#
#
#
# Elastic Compliance Matrix: (Units=1/GPa)
#
#
# Indices 1 2 3 4 5 6 
#
# 1 0.014102 -0.002272 0.000757 0.000000 0.008236 0.000000
# 2 -0.002272 0.008534 -0.002380 0.000000 -0.003433 0.000000
# 3 0.000757 -0.002380 0.016677 0.000000 0.011382 0.000000
# 4 0.000000 0.000000 0.000000 0.036092 0.000000 0.010310
# 5 0.008236 -0.003433 0.011382 0.000000 0.060302 0.000000
# 6 0.000000 0.000000 0.000000 0.010310 0.000000 0.053030
#
#
# Mechanical properties :
#
#
# Convention : Reuss Voigt Hill
#
# Bulk Modulus (GPa) = 31.72324 40.17340 35.94832
# Shear Modulus (GPa) = 24.15052 29.80589 26.97820
#
# Velocity S-wave (km/s) = 3.43358 3.81448 3.62903
# Velocity P-wave (km/s) = 5.58619 6.24593 5.92525
#
# Compressibility (1/GPa) = 0.03152263
#
# Stress axis : x y z
#
# Youngs Moduli (GPa) = 70.91079 117.18044 59.96296
#
# Poissons Ratio (x) = 0.26621 -0.04538
# Poissons Ratio (y) = 0.16109 0.14273
# Poissons Ratio (z) = -0.05367 0.27892
#
# Static dielectric constant tensor:
#      x y z
#    x 3.576560 0.000000 -0.271820 
#    y 0.000000 4.101300 0.000000 
#    z -0.271820 0.000000 3.504630 
# 
# 
# High freq. dielectric constant tensor:
#      x y z
#    x 1.782440 0.000000 -0.027280 
#    y 0.000000 1.820820 0.000000 
#    z -0.027280 0.000000 1.783860 
# 
# From -- ./inp_files/85394.got.cif
#   From: 2010.06.25/outbox.cif.g09.slc.cpg/sg10_43_cif.got.tgz:85394.got - 2010.06.27 22:07:45.
