data_PCOD8059479
_publ_section_title
;
Structure prediction by ZEFSAII (Michael W. Deem and Ramdas Pophale) SiO2 
 PCOD8059479
Probable space group: P 2/M
;
_chemical_formula_sum "Si O2"
_cell_formula_units_Z 26
_cell_length_a 5.118175
_cell_length_b 13.428047
_cell_length_c 26.154597
_cell_angle_alpha 90.000000
_cell_angle_beta 119.820379
_cell_angle_gamma 90.000000
_cell_volume 1559.516128
_symmetry_space_group_name_H-M "P 2/M"
_symmetry_group_IT_number 10
_symmetry_cell_setting 'monoclinic'
loop_
_space_group_symop_operation_xyz
x,y,z
-x,y,-z
-x,-y,-z
x,-y,z
loop_
_atom_site_type_symbol
_atom_site_label
_atom_site_fract_x
_atom_site_fract_y
_atom_site_fract_z
Si Si1 0.807494 0.885852 0.232920
Si Si2 0.163869 0.118889 0.364070
Si Si3 0.157520 0.118702 0.566317
Si Si4 0.767544 0.802896 0.930759
Si Si5 0.104369 0.884593 0.160280
Si Si6 0.642725 0.000000 0.959029
Si Si7 0.645624 0.391868 0.960148
O O1 0.455385 0.874195 0.209032
O O2 0.986857 0.836793 0.297762
O O3 0.911136 0.838641 0.188507
O O4 0.909409 0.000000 0.239096
O O5 0.503342 0.158355 0.396657
O O6 0.015559 0.160496 0.401290
O O7 0.146616 0.000000 0.361936
O O8 0.000000 0.161329 0.500000
O O9 0.152479 0.000000 0.564451
O O10 0.948893 0.817355 0.895514
O O11 0.547526 0.900197 0.917893
O O12 0.578781 0.698959 0.913698
O O13 0.000000 0.798281 0.000000
O O14 0.019393 0.000000 0.139177
O O15 0.500000 0.000000 0.000000
O O16 0.000000 0.000000 0.000000
O O17 0.516609 0.500000 0.928704
O O18 0.500000 0.362646 0.000000
O O19 0.000000 0.403229 0.000000
#
# Coordination Sequence:
#
# PCOD8059479 Si02
#       7
#     4   4   4   4   4   2   4
#     4   9  18  29  40  51  70  99 132 158 190 233
#     4   9  15  24  35  46  64  92 119 150 190 232
#     4   9  15  21  32  50  68  85 113 154 198 233
#     4  10  20  33  46  64  83 106 128 164 212 256
#     4  10  19  30  40  56  75  98 128 163 194 239
#     4  10  20  30  42  60  82 104 126 150 193 256
#     4   9  18  32  48  64  81 102 128 156 193 248
#
# _framework density 16.671838000000001
#
# number of rings (size 3 to 8) (size 9 to 14) (size 15 to 20)
#    0.000    2.615    0.769    1.846    0.000   10.462 
#    0.000    0.000    0.000    0.000    0.000    0.000 
#    0.000    0.000    0.000    0.000    0.000    0.000 
#
# Total GULP energy -322220.815440 kJ/mol
# GULP energy per Si atom -12393.108286 kJ/mol
# Density = 1.663389 g / cm^3
# Si number density = 16.671838 Si / 1000 Ang^3
#
#
#
# Elastic Constant Matrix: (Units=GPa)
#
#
# Indices 1 2 3 4 5 6 
#
# 1 67.8678 3.0854 5.8032 0.0000 -23.3125 0.0000
# 2 3.0854 77.8532 7.4236 0.0000 -11.6344 0.0000
# 3 5.8032 7.4236 85.3113 0.0000 -17.0346 0.0000
# 4 0.0000 0.0000 0.0000 2.8635 0.0000 -2.8871
# 5 -23.3125 -11.6344 -17.0346 0.0000 30.6253 0.0000
# 6 0.0000 0.0000 0.0000 -2.8871 0.0000 11.0635
#
#
#
# Elastic Compliance Matrix: (Units=1/GPa)
#
#
# Indices 1 2 3 4 5 6 
#
# 1 0.020406 0.001579 0.001908 0.000000 0.017194 0.000000
# 2 0.001579 0.013742 -0.000023 0.000000 0.006409 0.000000
# 3 0.001908 -0.000023 0.013367 0.000000 0.008878 0.000000
# 4 0.000000 0.000000 0.000000 0.473910 0.000000 0.123672
# 5 0.017194 0.006409 0.008878 0.000000 0.053115 0.000000
# 6 0.000000 0.000000 0.000000 0.123672 0.000000 0.122661
#
#
# Mechanical properties :
#
#
# Convention : Reuss Voigt Hill
#
# Bulk Modulus (GPa) = 18.36834 29.29518 23.83176
# Shear Modulus (GPa) = 7.05796 23.22513 15.14155
#
# Velocity S-wave (km/s) = 2.05977 3.73644 3.01692
# Velocity P-wave (km/s) = 4.08636 6.01868 5.14407
#
# Compressibility (1/GPa) = 0.05444149
#
# Stress axis : x y z
#
# Youngs Moduli (GPa) = 49.00557 72.76867 74.81205
#
# Poissons Ratio (x) = -0.11490 -0.14273
# Poissons Ratio (y) = -0.07738 0.00175
# Poissons Ratio (z) = -0.09349 0.00170
#
# Static dielectric constant tensor:
#      x y z
#    x 3.345630 0.000000 -0.140640 
#    y 0.000000 3.917970 0.000000 
#    z -0.140640 0.000000 3.185160 
# 
# 
# High freq. dielectric constant tensor:
#      x y z
#    x 1.668650 0.000000 -0.008830 
#    y 0.000000 1.559810 0.000000 
#    z -0.008830 0.000000 1.630600 
# 
# From -- ./inp_files/12543.got.cif
#   From: 2010.06.25/outbox.cif.g09.slc.cpg/sg10_7_cif.got.tgz:12543.got - 2010.06.27 22:07:45.
