data_PCOD8059720
_publ_section_title
;
Structure prediction by ZEFSAII (Michael W. Deem and Ramdas Pophale) SiO2 
 PCOD8059720
Probable space group: P 2/M
;
_chemical_formula_sum "Si O2"
_cell_formula_units_Z 30
_cell_length_a 25.283392
_cell_length_b 12.182995
_cell_length_c 25.345913
_cell_angle_alpha 90.000000
_cell_angle_beta 11.543063
_cell_angle_gamma 90.000000
_cell_volume 1562.262256
_symmetry_space_group_name_H-M "P 2/M"
_symmetry_group_IT_number 10
_symmetry_cell_setting 'monoclinic'
loop_
_space_group_symop_operation_xyz
x,y,z
-x,y,-z
-x,-y,-z
x,-y,z
loop_
_atom_site_type_symbol
_atom_site_label
_atom_site_fract_x
_atom_site_fract_y
_atom_site_fract_z
Si Si1 0.130884 0.882656 0.162581
Si Si2 0.657778 0.808251 0.691890
Si Si3 0.777007 0.500000 0.260024
Si Si4 0.409377 0.869529 0.648663
Si Si5 0.088154 0.263809 0.820262
Si Si6 0.268606 0.127684 0.265975
Si Si7 0.383411 0.618303 0.348198
Si Si8 0.910204 0.305721 0.877627
O O1 0.115754 0.808655 0.126537
O O2 0.901710 0.870937 0.428779
O O3 0.111106 0.000000 0.154983
O O4 0.394952 0.876000 0.938471
O O5 0.700493 0.796280 0.712597
O O6 0.629026 0.691945 0.691514
O O7 0.500000 0.500000 0.500000
O O8 0.816869 0.385008 0.252720
O O9 0.000000 0.500000 0.000000
O O10 0.500000 0.855883 0.500000
O O11 0.653914 0.813459 0.441160
O O12 0.373367 0.000000 0.698435
O O13 0.134816 0.800974 0.926361
O O14 0.950669 0.283662 0.899111
O O15 0.000000 0.160350 0.500000
O O16 0.273465 0.000000 0.278147
O O17 0.500000 0.157419 0.000000
O O18 0.379414 0.500000 0.325946
O O19 0.144701 0.627531 0.622191
O O20 0.639020 0.630488 0.134930
#
# Coordination Sequence:
#
# PCOD8059720 Si02
#       8
#     4   4   2   4   4   4   4   4
#     4  10  19  33  54  78 113 148 180 226 275 344
#     4  10  20  34  52  80 107 148 194 224 281 334
#     4  12  26  42  64  90 120 160 194 244 298 354
#     4  11  24  43  67  90 119 160 202 244 289 352
#     4  12  24  42  64  93 124 155 198 247 302 358
#     4  10  19  30  48  75 108 144 182 230 281 331
#     4  10  21  38  61  79 113 146 191 239 276 344
#     4  10  23  38  56  91 111 147 187 230 292 335
#
# _framework density 19.202921
#
# number of rings (size 3 to 8) (size 9 to 14) (size 15 to 20)
#    0.000    1.467    0.000    6.000    1.867    3.200 
#    0.000    0.000    0.000    0.800    0.000    0.000 
#    0.000    0.000    0.000    0.000    0.000    0.000 
#
# Total GULP energy -371808.043581 kJ/mol
# GULP energy per Si atom -12393.601453 kJ/mol
# Density = 1.915921 g / cm^3
# Si number density = 19.202921 Si / 1000 Ang^3
#
#
#
# Elastic Constant Matrix: (Units=GPa)
#
#
# Indices 1 2 3 4 5 6 
#
# 1 130.2390 41.4951 79.1683 0.0000 26.2047 0.0000
# 2 41.4951 128.0303 112.0816 0.0000 52.4615 0.0000
# 3 79.1683 112.0816 -318.9060 0.0000 -480.8872 0.0000
# 4 0.0000 0.0000 0.0000 41.1159 0.0000 -14.0687
# 5 26.2047 52.4615 -480.8872 0.0000 -426.7943 0.0000
# 6 0.0000 0.0000 0.0000 -14.0687 0.0000 10.6217
#
#
#
# Elastic Compliance Matrix: (Units=1/GPa)
#
#
# Indices 1 2 3 4 5 6 
#
# 1 0.008936 -0.002414 -0.001416 0.000000 0.001848 0.000000
# 2 -0.002414 0.008856 -0.001567 0.000000 0.002706 0.000000
# 3 -0.001416 -0.001567 0.005173 0.000000 -0.006109 0.000000
# 4 0.000000 0.000000 0.000000 0.044481 0.000000 0.058916
# 5 0.001848 0.002706 -0.006109 0.000000 0.004986 0.000000
# 6 0.000000 0.000000 0.000000 0.058916 0.000000 0.172183
#
#
# Mechanical properties :
#
#
# Convention : Reuss Voigt Hill
#
# Bulk Modulus (GPa) = 82.15584 44.98369 63.56977
# Shear Modulus (GPa) = 19.27032 -94.57011 -37.64990
#
# Velocity S-wave (km/s) = 3.17126 -7.02529 -4.43271
# Velocity P-wave (km/s) = 7.50234 6.50615 2.64150
#
# Compressibility (1/GPa) = 0.01217199
#
# Stress axis : x y z
#
# Youngs Moduli (GPa) = 111.90245 112.92026 193.29542
#
# Poissons Ratio (x) = 0.27254 0.27380
# Poissons Ratio (y) = 0.27008 0.30286
# Poissons Ratio (z) = 0.15851 0.17692
#
# Static dielectric constant tensor:
#      x y z
#    x 3.353040 0.000000 -0.111560 
#    y 0.000000 3.896940 0.000000 
#    z -0.111560 0.000000 3.868860 
# 
# 
# High freq. dielectric constant tensor:
#      x y z
#    x 1.740210 0.000000 -0.007170 
#    y 0.000000 1.745390 0.000000 
#    z -0.007170 0.000000 1.773330 
# 
# From -- ./inp_files/94088.got.cif
#   From: 2010.06.25/outbox.cif.g09.slc.cpg/sg10_48_cif.got.tgz:94088.got - 2010.06.27 22:07:45.
