data_PCOD8059684
_publ_section_title
;
Structure prediction by ZEFSAII (Michael W. Deem and Ramdas Pophale) SiO2 
 PCOD8059684
Probable space group: P 2/M
;
_chemical_formula_sum "Si O2"
_cell_formula_units_Z 32
_cell_length_a 21.939913
_cell_length_b 9.237527
_cell_length_c 11.200090
_cell_angle_alpha 90.000000
_cell_angle_beta 49.023887
_cell_angle_gamma 90.000000
_cell_volume 1713.757326
_symmetry_space_group_name_H-M "P 2/M"
_symmetry_group_IT_number 10
_symmetry_cell_setting 'monoclinic'
loop_
_space_group_symop_operation_xyz
x,y,z
-x,y,-z
-x,-y,-z
x,-y,z
loop_
_atom_site_type_symbol
_atom_site_label
_atom_site_fract_x
_atom_site_fract_y
_atom_site_fract_z
Si Si1 0.202620 0.173244 0.005605
Si Si2 0.890218 0.169831 0.368620
Si Si3 0.753028 0.337353 0.659792
Si Si4 0.038293 0.829787 0.329150
Si Si5 0.520457 0.834143 0.109180
Si Si6 0.201558 0.169348 0.741142
Si Si7 0.671401 0.336178 0.011161
Si Si8 0.654850 0.834571 0.606449
O O1 0.127534 0.229207 0.183248
O O2 0.286834 0.242079 0.939316
O O3 0.210634 0.000000 0.999001
O O4 0.188135 0.234228 0.889794
O O5 0.834303 0.247002 0.537820
O O6 0.866366 0.226181 0.266179
O O7 0.982074 0.206174 0.286245
O O8 0.872511 0.000000 0.401462
O O9 0.764976 0.500000 0.596328
O O10 0.734069 0.335932 0.822848
O O11 0.678180 0.264950 0.687865
O O12 0.000000 0.760980 0.500000
O O13 0.044539 0.000000 0.340232
O O14 0.440425 0.815798 0.294316
O O15 0.551279 0.000000 0.070415
O O16 0.500000 0.786895 0.000000
O O17 0.586587 0.732071 0.082673
O O18 0.291475 0.209456 0.577658
O O19 0.190986 0.000000 0.767238
O O20 0.655518 0.500000 0.075938
O O21 0.674561 0.000000 0.617064
#
# Coordination Sequence:
#
# PCOD8059684 Si02
#       8
#     4   4   4   4   4   4   4   4
#     4  10  20  35  54  73  99 137 179 215 253 306
#     4   9  17  31  52  76 104 135 170 214 259 302
#     4  10  19  30  47  74 105 135 168 205 252 308
#     4   9  17  29  49  79 107 132 168 214 260 303
#     4  10  19  32  54  82 105 131 168 207 256 313
#     4   8  16  31  52  77 101 132 173 215 255 295
#     4  11  23  35  49  73 107 140 171 210 260 308
#     4   9  17  32  53  77 105 130 162 209 256 304
#
# _framework density 18.672422000000001
#
# number of rings (size 3 to 8) (size 9 to 14) (size 15 to 20)
#    0.000    2.500    1.250    2.250    0.000    3.750 
#    0.000    6.250    0.000    6.000    0.000    4.375 
#    0.000    0.000    0.000    0.000    0.000    0.000 
#
# Total GULP energy -396618.505637 kJ/mol
# GULP energy per Si atom -12394.328301 kJ/mol
# Density = 1.862992 g / cm^3
# Si number density = 18.672422 Si / 1000 Ang^3
#
#
#
# Elastic Constant Matrix: (Units=GPa)
#
#
# Indices 1 2 3 4 5 6 
#
# 1 120.3142 38.0343 48.6209 0.0000 -5.4278 0.0000
# 2 38.0343 58.9304 16.5245 0.0000 -4.6789 0.0000
# 3 48.6209 16.5245 80.0527 0.0000 3.4868 0.0000
# 4 0.0000 0.0000 0.0000 13.7421 0.0000 0.2426
# 5 -5.4278 -4.6789 3.4868 0.0000 30.1657 0.0000
# 6 0.0000 0.0000 0.0000 0.2426 0.0000 8.0598
#
#
#
# Elastic Compliance Matrix: (Units=1/GPa)
#
#
# Indices 1 2 3 4 5 6 
#
# 1 0.013179 -0.006437 -0.006770 0.000000 0.002156 0.000000
# 2 -0.006437 0.021476 -0.000621 0.000000 0.002245 0.000000
# 3 -0.006770 -0.000621 0.016874 0.000000 -0.003265 0.000000
# 4 0.000000 0.000000 0.000000 0.072808 0.000000 -0.002192
# 5 0.002156 0.002245 -0.003265 0.000000 0.034264 0.000000
# 6 0.000000 0.000000 0.000000 -0.002192 0.000000 0.124138
#
#
# Mechanical properties :
#
#
# Convention : Reuss Voigt Hill
#
# Bulk Modulus (GPa) = 41.88772 51.73966 46.81369
# Shear Modulus (GPa) = 15.70582 20.80135 18.25358
#
# Velocity S-wave (km/s) = 2.90336 3.34131 3.13000
# Velocity P-wave (km/s) = 5.80698 6.53108 6.17964
#
# Compressibility (1/GPa) = 0.02387334
#
# Stress axis : x y z
#
# Youngs Moduli (GPa) = 75.87577 46.56371 59.26255
#
# Poissons Ratio (x) = 0.29972 0.40120
# Poissons Ratio (y) = 0.48839 0.03683
# Poissons Ratio (z) = 0.51367 0.02894
#
# Static dielectric constant tensor:
#      x y z
#    x 3.464200 0.000000 0.008220 
#    y 0.000000 3.192230 0.000000 
#    z 0.008220 0.000000 3.545310 
# 
# 
# High freq. dielectric constant tensor:
#      x y z
#    x 1.722440 0.000000 -0.008570 
#    y 0.000000 1.690900 0.000000 
#    z -0.008570 0.000000 1.717170 
# 
# From -- ./inp_files/55217.got.cif
#   From: 2010.06.25/outbox.cif.g09.slc.cpg/sg10_28_cif.got.tgz:55217.got - 2010.06.27 22:07:45.
