data_PCOD8059634
_publ_section_title
;
Structure prediction by ZEFSAII (Michael W. Deem and Ramdas Pophale) SiO2 
 PCOD8059634
Probable space group: P 2/M
;
_chemical_formula_sum "Si O2"
_cell_formula_units_Z 32
_cell_length_a 12.417062
_cell_length_b 8.908249
_cell_length_c 23.075381
_cell_angle_alpha 90.000000
_cell_angle_beta 132.946410
_cell_angle_gamma 90.000000
_cell_volume 1868.383310
_symmetry_space_group_name_H-M "P 2/M"
_symmetry_group_IT_number 10
_symmetry_cell_setting 'monoclinic'
loop_
_space_group_symop_operation_xyz
x,y,z
-x,y,-z
-x,-y,-z
x,-y,z
loop_
_atom_site_type_symbol
_atom_site_label
_atom_site_fract_x
_atom_site_fract_y
_atom_site_fract_z
Si Si1 0.111240 0.177295 0.304076
Si Si2 0.369836 0.172306 0.833468
Si Si3 0.844237 0.677494 0.156082
Si Si4 0.395005 0.333828 0.016731
Si Si5 0.239029 0.827157 0.663077
Si Si6 0.049290 0.323759 0.402888
Si Si7 0.418712 0.673301 0.412317
Si Si8 0.674630 0.672161 0.417745
O O1 0.055193 0.235922 0.345094
O O2 0.274823 0.228790 0.349090
O O3 0.002363 0.242106 0.214888
O O4 0.102694 0.000000 0.300836
O O5 0.251022 0.270754 0.823744
O O6 0.536896 0.222580 0.910320
O O7 0.346520 0.197660 0.756852
O O8 0.348084 0.000000 0.843595
O O9 0.864295 0.500000 0.168410
O O10 0.763788 0.720815 0.065780
O O11 0.382271 0.500000 0.039599
O O12 0.500000 0.339445 0.000000
O O13 0.329363 0.776966 0.639861
O O14 0.093263 0.726323 0.613655
O O15 0.191310 0.000000 0.640162
O O16 0.043495 0.500000 0.387685
O O17 0.192192 0.279805 0.491914
O O18 0.500000 0.730234 0.500000
O O19 0.372479 0.500000 0.403652
O O20 0.522392 0.697163 0.395300
O O21 0.693306 0.500000 0.405306
#
# Coordination Sequence:
#
# PCOD8059634 Si02
#       8
#     4   4   4   4   4   4   4   4
#     4  12  23  33  51  80 107 135 171 212 265 313
#     4  10  19  30  46  72 105 139 169 204 254 307
#     4  10  19  32  50  72 101 137 172 210 252 302
#     4   8  16  29  46  70  98 132 172 206 246 301
#     4  11  23  35  49  76 110 140 172 213 258 306
#     4  11  21  36  55  74 100 138 179 216 255 305
#     4  10  20  39  59  75  98 132 175 219 260 306
#     4  10  22  38  56  75  96 134 182 217 255 306
#
# _framework density 17.127106999999999
#
# number of rings (size 3 to 8) (size 9 to 14) (size 15 to 20)
#    0.000    1.750    2.500    3.750    0.000    7.500 
#    0.000    0.000    0.000    0.000    0.000    0.875 
#    0.000    7.000    0.000    0.000    0.000    0.000 
#
# Total GULP energy -396859.675280 kJ/mol
# GULP energy per Si atom -12401.864852 kJ/mol
# Density = 1.708813 g / cm^3
# Si number density = 17.127107 Si / 1000 Ang^3
#
#
#
# Elastic Constant Matrix: (Units=GPa)
#
#
# Indices 1 2 3 4 5 6 
#
# 1 62.6841 31.8982 36.5811 0.0000 10.8273 0.0000
# 2 31.8982 98.1422 59.7304 0.0000 11.0873 0.0000
# 3 36.5811 59.7304 108.4726 0.0000 25.1874 0.0000
# 4 0.0000 0.0000 0.0000 24.9826 0.0000 -0.0623
# 5 10.8273 11.0873 25.1874 0.0000 18.8304 0.0000
# 6 0.0000 0.0000 0.0000 -0.0623 0.0000 21.6156
#
#
#
# Elastic Compliance Matrix: (Units=1/GPa)
#
#
# Indices 1 2 3 4 5 6 
#
# 1 0.021006 -0.003982 -0.003817 0.000000 -0.004629 0.000000
# 2 -0.003982 0.016221 -0.008563 0.000000 0.004192 0.000000
# 3 -0.003817 -0.008563 0.019641 0.000000 -0.019036 0.000000
# 4 0.000000 0.000000 0.000000 0.040028 0.000000 0.000115
# 5 -0.004629 0.004192 -0.019036 0.000000 0.078761 0.000000
# 6 0.000000 0.000000 0.000000 0.000115 0.000000 0.046263
#
#
# Mechanical properties :
#
#
# Convention : Reuss Voigt Hill
#
# Bulk Modulus (GPa) = 41.41456 58.41314 49.91385
# Shear Modulus (GPa) = 19.03371 22.49168 20.76270
#
# Velocity S-wave (km/s) = 3.33726 3.62777 3.48555
# Velocity P-wave (km/s) = 6.25164 7.19217 6.73833
#
# Compressibility (1/GPa) = 0.02414610
#
# Stress axis : x y z
#
# Youngs Moduli (GPa) = 47.60547 61.64748 50.91298
#
# Poissons Ratio (x) = 0.24545 0.19433
# Poissons Ratio (y) = 0.18954 0.43596
# Poissons Ratio (z) = 0.18170 0.52788
#
# Static dielectric constant tensor:
#      x y z
#    x 2.910930 0.000000 0.189810 
#    y 0.000000 3.255540 0.000000 
#    z 0.189810 0.000000 3.569730 
# 
# 
# High freq. dielectric constant tensor:
#      x y z
#    x 1.621250 0.000000 0.013650 
#    y 0.000000 1.669450 0.000000 
#    z 0.013650 0.000000 1.668140 
# 
# From -- ./inp_files/79920.got.cif
#   From: 2010.06.25/outbox.cif.g09.slc.cpg/sg10_40_cif.got.tgz:79920.got - 2010.06.27 22:07:45.
