data_PCOD8059229
_publ_section_title
;
Structure prediction by ZEFSAII (Michael W. Deem and Ramdas Pophale) SiO2 
 PCOD8059229
Probable space group: P 2/M
;
_chemical_formula_sum "Si O2"
_cell_formula_units_Z 28
_cell_length_a 9.137243
_cell_length_b 15.970711
_cell_length_c 21.647502
_cell_angle_alpha 90.000000
_cell_angle_beta 26.740634
_cell_angle_gamma 90.000000
_cell_volume 1421.391934
_symmetry_space_group_name_H-M "P 2/M"
_symmetry_group_IT_number 10
_symmetry_cell_setting 'monoclinic'
loop_
_space_group_symop_operation_xyz
x,y,z
-x,y,-z
-x,-y,-z
x,-y,z
loop_
_atom_site_type_symbol
_atom_site_label
_atom_site_fract_x
_atom_site_fract_y
_atom_site_fract_z
Si Si1 0.200737 0.793034 0.254913
Si Si2 0.269913 0.264167 0.032228
Si Si3 0.885598 0.407158 0.112670
Si Si4 0.734254 0.764050 0.320040
Si Si5 0.174837 0.338064 0.371059
Si Si6 0.712889 0.090458 0.479664
Si Si7 0.563552 0.592129 0.547997
O O1 0.247543 0.739115 0.298604
O O2 0.902299 0.760348 0.324297
O O3 0.085379 0.885264 0.320665
O O4 0.537367 0.794114 0.089614
O O5 0.133369 0.347060 0.053633
O O6 0.984149 0.209408 0.171545
O O7 0.500000 0.296842 0.000000
O O8 0.924881 0.500000 0.125683
O O9 0.510995 0.381815 0.261881
O O10 0.000000 0.405183 0.000000
O O11 0.444337 0.831942 0.423118
O O12 0.611386 0.669700 0.351266
O O13 0.000000 0.307573 0.500000
O O14 0.946661 0.403127 0.419693
O O15 0.500000 0.076510 0.500000
O O16 0.721323 0.000000 0.511954
O O17 0.500000 0.602492 0.500000
O O18 0.436199 0.500000 0.617774
#
# Coordination Sequence:
#
# PCOD8059229 Si02
#       7
#     4   4   4   4   4   4   4
#     4  10  19  37  55  84 118 147 191 236 286 346
#     4  10  22  38  60  81 110 157 194 237 293 343
#     4  11  24  40  55  79 117 156 200 248 289 340
#     4  10  18  35  59  86 116 146 193 243 283 337
#     4  12  23  37  57  82 113 154 194 240 291 338
#     4   9  17  32  60  90 118 148 184 238 297 344
#     4  11  21  35  58  85 116 155 196 244 292 336
#
# _framework density 19.699002
#
# number of rings (size 3 to 8) (size 9 to 14) (size 15 to 20)
#    0.000    1.571    4.286    1.714    0.000    3.143 
#    0.000    2.857    0.000    4.714    0.000    1.000 
#    0.000    0.000    0.000    0.000    0.000    0.000 
#
# Total GULP energy -346933.071763 kJ/mol
# GULP energy per Si atom -12390.466849 kJ/mol
# Density = 1.965417 g / cm^3
# Si number density = 19.699002 Si / 1000 Ang^3
#
#
#
# Elastic Constant Matrix: (Units=GPa)
#
#
# Indices 1 2 3 4 5 6 
#
# 1 57.6067 19.7020 30.6717 0.0000 2.3384 0.0000
# 2 19.7020 139.8977 64.9028 0.0000 -0.9518 0.0000
# 3 30.6717 64.9028 141.8740 0.0000 3.1096 0.0000
# 4 0.0000 0.0000 0.0000 1.1970 0.0000 10.1259
# 5 2.3384 -0.9518 3.1096 0.0000 28.6893 0.0000
# 6 0.0000 0.0000 0.0000 10.1259 0.0000 -13.2801
#
#
#
# Elastic Compliance Matrix: (Units=1/GPa)
#
#
# Indices 1 2 3 4 5 6 
#
# 1 0.019774 -0.001044 -0.003770 0.000000 -0.001238 0.000000
# 2 -0.001044 0.009145 -0.003976 0.000000 0.000819 0.000000
# 3 -0.003770 -0.003976 0.009702 0.000000 -0.000876 0.000000
# 4 0.000000 0.000000 0.000000 0.112133 0.000000 0.085501
# 5 -0.001238 0.000819 -0.000876 0.000000 0.035079 0.000000
# 6 0.000000 0.000000 0.000000 0.085501 0.000000 -0.010107
#
#
# Mechanical properties :
#
#
# Convention : Reuss Voigt Hill
#
# Bulk Modulus (GPa) = 47.52768 63.32572 55.42670
# Shear Modulus (GPa) = 24.96014 18.26139 21.61077
#
# Velocity S-wave (km/s) = 3.56346 3.04801 3.31577
# Velocity P-wave (km/s) = 6.41174 6.67859 6.54652
#
# Compressibility (1/GPa) = 0.02104037
#
# Stress axis : x y z
#
# Youngs Moduli (GPa) = 50.57212 109.34663 103.07577
#
# Poissons Ratio (x) = 0.11417 0.38861
# Poissons Ratio (y) = 0.05280 0.40982
# Poissons Ratio (z) = 0.19066 0.43475
#
# Static dielectric constant tensor:
#      x y z
#    x 3.571550 0.000000 -0.008160 
#    y 0.000000 3.653270 0.000000 
#    z -0.008160 0.000000 3.878510 
# 
# 
# High freq. dielectric constant tensor:
#      x y z
#    x 1.759900 0.000000 0.002230 
#    y 0.000000 1.739950 0.000000 
#    z 0.002230 0.000000 1.775490 
# 
# From -- ./inp_files/82881.got.cif
#   From: 2010.06.25/outbox.cif.g09.slc.cpg/sg10_42_cif.got.tgz:82881.got - 2010.06.27 22:07:45.
