data_PCOD8059732
_publ_section_title
;
Structure prediction by ZEFSAII (Michael W. Deem and Ramdas Pophale) SiO2 
 PCOD8059732
Probable space group: P 2/M
;
_chemical_formula_sum "Si O2"
_cell_formula_units_Z 30
_cell_length_a 14.559209
_cell_length_b 25.421025
_cell_length_c 12.549253
_cell_angle_alpha 90.000000
_cell_angle_beta 19.438333
_cell_angle_gamma 90.000000
_cell_volume 1545.687634
_symmetry_space_group_name_H-M "P 2/M"
_symmetry_group_IT_number 10
_symmetry_cell_setting 'monoclinic'
loop_
_space_group_symop_operation_xyz
x,y,z
-x,y,-z
-x,-y,-z
x,-y,z
loop_
_atom_site_type_symbol
_atom_site_label
_atom_site_fract_x
_atom_site_fract_y
_atom_site_fract_z
Si Si1 0.627755 0.059909 0.753737
Si Si2 0.259918 0.295833 0.848779
Si Si3 0.654578 0.740752 0.719192
Si Si4 0.301831 0.441309 0.622755
Si Si5 0.207732 0.209107 0.058195
Si Si6 0.808418 0.088832 0.940058
Si Si7 0.795070 0.000000 0.126757
Si Si8 0.298564 0.657373 0.499153
O O1 0.900959 0.092730 0.436736
O O2 0.716027 0.000000 0.677723
O O3 0.500000 0.084974 0.000000
O O4 0.421673 0.061904 0.880556
O O5 0.500000 0.297945 0.500000
O O6 0.396391 0.324943 0.799886
O O7 0.194924 0.236622 0.956437
O O8 0.963779 0.321902 0.142368
O O9 0.732478 0.682111 0.586173
O O10 0.932879 0.775642 0.426529
O O11 0.500000 0.732836 0.000000
O O12 0.469055 0.773529 0.840961
O O13 0.500000 0.417814 0.500000
O O14 0.403236 0.500000 0.479841
O O15 0.304339 0.405792 0.511958
O O16 0.000000 0.443727 0.000000
O O17 0.261237 0.149308 0.964379
O O18 0.840652 0.053445 0.010150
O O19 0.500000 0.000000 0.500000
O O20 0.000000 0.000000 0.000000
#
# Coordination Sequence:
#
# PCOD8059732 Si02
#       8
#     4   4   4   4   4   4   2   4
#     4  11  22  38  61  87 110 137 169 214 276 330
#     4  10  19  33  52  75 105 136 175 221 266 320
#     4  10  21  38  56  80 112 144 182 222 270 329
#     4  10  19  30  48  77 112 146 183 229 277 320
#     4  10  23  36  56  83 107 137 177 221 275 321
#     4  12  23  42  61  84 115 142 179 229 267 332
#     4  12  26  44  63  80 105 150 188 216 260 318
#     4  10  19  32  52  77 104 146 183 218 266 323
#
# _framework density 19.408837999999999
#
# number of rings (size 3 to 8) (size 9 to 14) (size 15 to 20)
#    0.000    1.467    1.333    4.800    0.000    4.800 
#    0.000    2.667    0.000    0.400    0.000    0.000 
#    0.000    9.600    0.000    0.000    0.000    2.667 
#
# Total GULP energy -371728.194013 kJ/mol
# GULP energy per Si atom -12390.939800 kJ/mol
# Density = 1.936466 g / cm^3
# Si number density = 19.408838 Si / 1000 Ang^3
#
#
#
# Elastic Constant Matrix: (Units=GPa)
#
#
# Indices 1 2 3 4 5 6 
#
# 1 108.6796 21.4996 34.0839 0.0000 0.4811 0.0000
# 2 21.4996 129.2353 19.7481 0.0000 14.0911 0.0000
# 3 34.0839 19.7481 99.5476 0.0000 -5.8764 0.0000
# 4 0.0000 0.0000 0.0000 33.8326 0.0000 -1.8324
# 5 0.4811 14.0911 -5.8764 0.0000 40.9683 0.0000
# 6 0.0000 0.0000 0.0000 -1.8324 0.0000 21.0704
#
#
#
# Elastic Compliance Matrix: (Units=1/GPa)
#
#
# Indices 1 2 3 4 5 6 
#
# 1 0.010497 -0.001211 -0.003365 0.000000 -0.000189 0.000000
# 2 -0.001211 0.008502 -0.001456 0.000000 -0.003119 0.000000
# 3 -0.003365 -0.001456 0.011617 0.000000 0.002207 0.000000
# 4 0.000000 0.000000 0.000000 0.029697 0.000000 0.002583
# 5 -0.000189 -0.003119 0.002207 0.000000 0.025801 0.000000
# 6 0.000000 0.000000 0.000000 0.002583 0.000000 0.047685
#
#
# Mechanical properties :
#
#
# Convention : Reuss Voigt Hill
#
# Bulk Modulus (GPa) = 53.90534 54.23618 54.07076
# Shear Modulus (GPa) = 32.88471 36.64964 34.76718
#
# Velocity S-wave (km/s) = 4.12067 4.35017 4.23697
# Velocity P-wave (km/s) = 7.10449 7.29635 7.20106
#
# Compressibility (1/GPa) = 0.01855104
#
# Stress axis : x y z
#
# Youngs Moduli (GPa) = 95.26375 117.62078 86.08344
#
# Poissons Ratio (x) = 0.14250 0.28967
# Poissons Ratio (y) = 0.11541 0.12533
# Poissons Ratio (z) = 0.32056 0.17124
#
# Static dielectric constant tensor:
#      x y z
#    x 3.794970 0.000000 -0.436270 
#    y 0.000000 3.694940 0.000000 
#    z -0.436270 0.000000 3.996590 
# 
# 
# High freq. dielectric constant tensor:
#      x y z
#    x 1.742340 0.000000 -0.026810 
#    y 0.000000 1.749070 0.000000 
#    z -0.026810 0.000000 1.766460 
# 
# From -- ./inp_files/52131.got.cif
#   From: 2010.06.25/outbox.cif.g09.slc.cpg/sg10_27_cif.got.tgz:52131.got - 2010.06.27 22:07:45.
