data_PCOD8059672
_publ_section_title
;
Structure prediction by ZEFSAII (Michael W. Deem and Ramdas Pophale) SiO2 
 PCOD8059672
Probable space group: P 2/M
;
_chemical_formula_sum "Si O2"
_cell_formula_units_Z 32
_cell_length_a 14.331798
_cell_length_b 8.988880
_cell_length_c 15.850026
_cell_angle_alpha 90.000000
_cell_angle_beta 63.151442
_cell_angle_gamma 90.000000
_cell_volume 1821.797511
_symmetry_space_group_name_H-M "P 2/M"
_symmetry_group_IT_number 10
_symmetry_cell_setting 'monoclinic'
loop_
_space_group_symop_operation_xyz
x,y,z
-x,y,-z
-x,-y,-z
x,-y,z
loop_
_atom_site_type_symbol
_atom_site_label
_atom_site_fract_x
_atom_site_fract_y
_atom_site_fract_z
Si Si1 0.954405 0.177250 0.899199
Si Si2 0.884255 0.827433 0.451185
Si Si3 0.854150 0.324175 0.094762
Si Si4 0.215755 0.324496 0.355865
Si Si5 0.349644 0.670315 0.723338
Si Si6 0.418164 0.671499 0.368474
Si Si7 0.326302 0.171655 0.558128
Si Si8 0.092630 0.825634 0.271464
O O1 0.914760 0.221340 0.822867
O O2 0.066479 0.254036 0.869429
O O3 0.965993 0.000000 0.905543
O O4 0.870103 0.242911 0.998927
O O5 0.870031 0.734762 0.542615
O O6 0.790318 0.795108 0.425632
O O7 0.987951 0.773323 0.361734
O O8 0.890185 0.000000 0.474328
O O9 0.875689 0.500000 0.077412
O O10 0.735808 0.289530 0.171186
O O11 0.208398 0.500000 0.352946
O O12 0.331771 0.269647 0.336946
O O13 0.191277 0.256425 0.273975
O O14 0.337051 0.500000 0.699442
O O15 0.465201 0.698240 0.715469
O O16 0.333910 0.771397 0.649196
O O17 0.395446 0.500000 0.395795
O O18 0.409668 0.751886 0.462127
O O19 0.354102 0.000000 0.546353
O O20 0.109699 0.000000 0.273263
#
# Coordination Sequence:
#
# PCOD8059672 Si02
#       8
#     4   4   4   4   4   4   4   4
#     4  10  20  35  54  75 101 130 155 187 240 297
#     4   9  18  32  47  66  98 133 159 189 233 285
#     4  10  20  34  53  77 101 125 157 197 238 282
#     4  10  20  32  48  70  95 125 163 204 238 272
#     4  10  20  33  50  70  96 131 164 196 239 289
#     4   9  19  35  49  65  96 134 166 197 240 287
#     4  10  19  30  47  73 101 128 163 202 237 280
#     4  10  20  33  50  70  94 128 163 192 233 289
#
# _framework density 17.565071
#
# number of rings (size 3 to 8) (size 9 to 14) (size 15 to 20)
#    0.000    2.250    0.000    3.750    0.000    8.000 
#    0.000    0.000    0.000    0.750    0.000    5.250 
#    0.000    0.000    0.000    0.000    0.000    0.000 
#
# Total GULP energy -396822.680430 kJ/mol
# GULP energy per Si atom -12400.708763 kJ/mol
# Density = 1.752509 g / cm^3
# Si number density = 17.565071 Si / 1000 Ang^3
#
#
#
# Elastic Constant Matrix: (Units=GPa)
#
#
# Indices 1 2 3 4 5 6 
#
# 1 98.5885 42.1462 76.2132 0.0000 3.8238 0.0000
# 2 42.1462 64.7856 43.4239 0.0000 4.3840 0.0000
# 3 76.2132 43.4239 107.3435 0.0000 2.8928 0.0000
# 4 0.0000 0.0000 0.0000 24.0258 0.0000 5.0288
# 5 3.8238 4.3840 2.8928 0.0000 33.9706 0.0000
# 6 0.0000 0.0000 0.0000 5.0288 0.0000 24.1507
#
#
#
# Elastic Compliance Matrix: (Units=1/GPa)
#
#
# Indices 1 2 3 4 5 6 
#
# 1 0.023960 -0.005693 -0.014689 0.000000 -0.000711 0.000000
# 2 -0.005693 0.022668 -0.005078 0.000000 -0.001852 0.000000
# 3 -0.014689 -0.005078 0.021787 0.000000 0.000453 0.000000
# 4 0.000000 0.000000 0.000000 0.043519 0.000000 -0.009062
# 5 -0.000711 -0.001852 0.000453 0.000000 0.029718 0.000000
# 6 0.000000 0.000000 0.000000 -0.009062 0.000000 0.043294
#
#
# Mechanical properties :
#
#
# Convention : Reuss Voigt Hill
#
# Bulk Modulus (GPa) = 57.16068 66.03158 61.59613
# Shear Modulus (GPa) = 20.68705 23.69172 22.18938
#
# Velocity S-wave (km/s) = 3.43554 3.67658 3.55810
# Velocity P-wave (km/s) = 6.95343 7.46305 7.21274
#
# Compressibility (1/GPa) = 0.01749454
#
# Stress axis : x y z
#
# Youngs Moduli (GPa) = 41.73632 44.11465 45.89889
#
# Poissons Ratio (x) = 0.25116 0.67421
# Poissons Ratio (y) = 0.23762 0.23307
# Poissons Ratio (z) = 0.61307 0.22401
#
# Static dielectric constant tensor:
#      x y z
#    x 3.437280 0.000000 -0.051130 
#    y 0.000000 3.286070 0.000000 
#    z -0.051130 0.000000 3.209290 
# 
# 
# High freq. dielectric constant tensor:
#      x y z
#    x 1.681560 0.000000 -0.000150 
#    y 0.000000 1.684800 0.000000 
#    z -0.000150 0.000000 1.658610 
# 
# From -- ./inp_files/66487.got.cif
#   From: 2010.06.25/outbox.cif.g09.slc.cpg/sg10_34_cif.got.tgz:66487.got - 2010.06.27 22:07:45.
