data_PCOD8059549
_publ_section_title
;
Structure prediction by ZEFSAII (Michael W. Deem and Ramdas Pophale) SiO2 
 PCOD8059549
Probable space group: P 2/M
;
_chemical_formula_sum "Si O2"
_cell_formula_units_Z 20
_cell_length_a 13.725684
_cell_length_b 14.649255
_cell_length_c 5.302240
_cell_angle_alpha 90.000000
_cell_angle_beta 78.863419
_cell_angle_gamma 90.000000
_cell_volume 1046.051284
_symmetry_space_group_name_H-M "P 2/M"
_symmetry_group_IT_number 10
_symmetry_cell_setting 'monoclinic'
loop_
_space_group_symop_operation_xyz
x,y,z
-x,y,-z
-x,-y,-z
x,-y,z
loop_
_atom_site_type_symbol
_atom_site_label
_atom_site_fract_x
_atom_site_fract_y
_atom_site_fract_z
Si Si1 0.530714 0.772788 0.734643
Si Si2 0.618414 0.600621 0.190793
Si Si3 0.117309 0.791462 0.441347
Si Si4 0.286843 0.338234 0.356578
Si Si5 0.882615 0.101810 0.058691
O O1 0.500000 0.829023 0.500000
O O2 0.469287 0.675658 0.765357
O O3 0.647192 0.754440 0.676405
O O4 0.500000 0.829023 0.000000
O O5 0.568513 0.500000 0.215743
O O6 0.688889 0.606700 0.401383
O O7 0.688889 0.606700 0.909729
O O8 0.172242 0.693568 0.413878
O O9 0.152361 0.846233 0.672154
O O10 0.000000 0.772621 0.500000
O O11 0.152361 0.846235 0.175490
O O12 0.836357 0.000000 0.081822
O O13 0.000000 0.094332 0.000000
#
# Coordination Sequence:
#
# PCOD8059549 Si02
#       5
#     4   4   4   4   4
#     4   8  16  27  42  64  89 110 142 185 234 278
#     4  10  19  31  48  68  90 116 152 201 247 276
#     4  10  19  31  48  69  97 128 151 180 221 270
#     4  10  19  30  45  67  94 121 153 185 230 282
#     4   9  17  30  49  72  95 119 149 186 228 268
#
# _framework density 19.119523000000001
#
# number of rings (size 3 to 8) (size 9 to 14) (size 15 to 20)
#    0.000    2.600    0.000    2.400    0.000    9.600 
#    0.000    0.000    0.000    3.600    0.000    0.000 
#    0.000  144.000    0.000    0.000    0.000    0.000 
#
# Total GULP energy -247815.015628 kJ/mol
# GULP energy per Si atom -12390.750781 kJ/mol
# Density = 1.907601 g / cm^3
# Si number density = 19.119523 Si / 1000 Ang^3
#
#
#
# Elastic Constant Matrix: (Units=GPa)
#
#
# Indices 1 2 3 4 5 6 
#
# 1 56.9903 19.6820 25.8834 0.0000 0.3215 0.0000
# 2 19.6820 36.4217 11.7710 0.0000 -1.7515 0.0000
# 3 25.8834 11.7710 174.8271 0.0000 25.7604 0.0000
# 4 0.0000 0.0000 0.0000 15.0056 0.0000 1.1408
# 5 0.3215 -1.7515 25.7604 0.0000 21.9111 0.0000
# 6 0.0000 0.0000 0.0000 1.1408 0.0000 9.8514
#
#
#
# Elastic Compliance Matrix: (Units=1/GPa)
#
#
# Indices 1 2 3 4 5 6 
#
# 1 0.022750 -0.011237 -0.002939 0.000000 0.002223 0.000000
# 2 -0.011237 0.034156 -0.001285 0.000000 0.004406 0.000000
# 3 -0.002939 -0.001285 0.007560 0.000000 -0.008948 0.000000
# 4 0.000000 0.000000 0.000000 0.067233 0.000000 -0.007786
# 5 0.002223 0.004406 -0.008948 0.000000 0.056478 0.000000
# 6 0.000000 0.000000 0.000000 -0.007786 0.000000 0.102410
#
#
# Mechanical properties :
#
#
# Convention : Reuss Voigt Hill
#
# Bulk Modulus (GPa) = 29.81265 42.54575 36.17920
# Shear Modulus (GPa) = 15.02890 23.41380 19.22135
#
# Velocity S-wave (km/s) = 2.80670 3.50323 3.17413
# Velocity P-wave (km/s) = 5.11176 6.21806 5.69185
#
# Compressibility (1/GPa) = 0.03354281
#
# Stress axis : x y z
#
# Youngs Moduli (GPa) = 43.95596 29.27752 132.27386
#
# Poissons Ratio (x) = 0.32900 0.38878
# Poissons Ratio (y) = 0.49394 0.17001
# Poissons Ratio (z) = 0.12920 0.03763
#
# Static dielectric constant tensor:
#      x y z
#    x 3.228680 0.000000 0.294600 
#    y 0.000000 3.012680 0.000000 
#    z 0.294600 0.000000 4.559610 
# 
# 
# High freq. dielectric constant tensor:
#      x y z
#    x 1.716110 0.000000 0.014910 
#    y 0.000000 1.683140 0.000000 
#    z 0.014910 0.000000 1.783450 
# 
# From -- ./inp_files/6701.got.cif
#   From: 2010.06.25/outbox.cif.g09.slc.cpg/sg10_4_cif.got.tgz:6701.got - 2010.06.27 22:07:45.
