data_PCOD8059436
_publ_section_title
;
Structure prediction by ZEFSAII (Michael W. Deem and Ramdas Pophale) SiO2 
 PCOD8059436
Probable space group: P 2/M
;
_chemical_formula_sum "Si O2"
_cell_formula_units_Z 32
_cell_length_a 27.817701
_cell_length_b 10.982014
_cell_length_c 12.458278
_cell_angle_alpha 90.000000
_cell_angle_beta 26.972584
_cell_angle_gamma 90.000000
_cell_volume 1726.235007
_symmetry_space_group_name_H-M "P 2/M"
_symmetry_group_IT_number 10
_symmetry_cell_setting 'monoclinic'
loop_
_space_group_symop_operation_xyz
x,y,z
-x,y,-z
-x,-y,-z
x,-y,z
loop_
_atom_site_type_symbol
_atom_site_label
_atom_site_fract_x
_atom_site_fract_y
_atom_site_fract_z
Si Si1 0.216742 0.138771 0.685441
Si Si2 0.899758 0.275965 0.262045
Si Si3 0.009973 0.135373 0.220544
Si Si4 0.231124 0.369857 0.295288
Si Si5 0.732851 0.138379 0.054276
Si Si6 0.391654 0.143162 0.496041
Si Si7 0.631004 0.140537 0.030408
Si Si8 0.087930 0.293266 0.400675
O O1 0.189228 0.227784 0.642884
O O2 0.330686 0.177334 0.507370
O O3 0.218780 0.000000 0.638955
O O4 0.134208 0.150919 0.948139
O O5 0.846490 0.373128 0.447384
O O6 0.944610 0.164041 0.242512
O O7 0.000000 0.336427 0.000000
O O8 0.978654 0.216221 0.382260
O O9 0.980074 0.000000 0.313852
O O10 0.295065 0.500000 0.172180
O O11 0.163927 0.380589 0.318209
O O12 0.296982 0.243532 0.171096
O O13 0.668807 0.199882 0.280574
O O14 0.653975 0.143667 0.110344
O O15 0.765697 0.000000 0.015279
O O16 0.841200 0.209435 0.817584
O O17 0.512150 0.188189 0.246688
O O18 0.394147 0.000000 0.510329
O O19 0.650184 0.000000 0.949222
O O20 0.000000 0.360751 0.500000
#
# Coordination Sequence:
#
# PCOD8059436 Si02
#       8
#     4   4   4   4   4   4   4   4
#     4   9  16  26  44  72 104 134 165 206 252 293
#     4   9  18  32  50  70  94 129 169 203 240 293
#     4   9  16  26  42  70 108 141 166 197 242 294
#     4  10  22  38  55  74  97 129 166 202 245 299
#     4   9  16  26  44  72 105 138 169 201 240 290
#     4   9  16  27  46  73 102 132 168 209 250 289
#     4   9  18  33  53  75 100 132 169 208 247 289
#     4  10  19  29  45  71 102 134 165 198 239 291
#
# _framework density 18.537452999999999
#
# number of rings (size 3 to 8) (size 9 to 14) (size 15 to 20)
#    0.000    2.750    0.000    1.875    0.000    9.000 
#    0.000    0.625    0.000    9.750    0.000    0.000 
#    0.000    0.000    0.000    0.000    0.000    0.000 
#
# Total GULP energy -396477.753231 kJ/mol
# GULP energy per Si atom -12389.929788 kJ/mol
# Density = 1.849526 g / cm^3
# Si number density = 18.537453 Si / 1000 Ang^3
#
#
#
# Elastic Constant Matrix: (Units=GPa)
#
#
# Indices 1 2 3 4 5 6 
#
# 1 77.1692 14.7735 44.6729 0.0000 -12.8853 0.0000
# 2 14.7735 75.5265 30.8036 0.0000 1.2333 0.0000
# 3 44.6729 30.8036 80.8774 0.0000 -3.4509 0.0000
# 4 0.0000 0.0000 0.0000 5.4698 0.0000 -4.8197
# 5 -12.8853 1.2333 -3.4509 0.0000 31.7087 0.0000
# 6 0.0000 0.0000 0.0000 -4.8197 0.0000 -3.3094
#
#
#
# Elastic Compliance Matrix: (Units=1/GPa)
#
#
# Indices 1 2 3 4 5 6 
#
# 1 0.020557 0.000438 -0.011218 0.000000 0.007116 0.000000
# 2 0.000438 0.015735 -0.006283 0.000000 -0.001118 0.000000
# 3 -0.011218 -0.006283 0.020866 0.000000 -0.002043 0.000000
# 4 0.000000 0.000000 0.000000 0.080070 0.000000 -0.116612
# 5 0.007116 -0.001118 -0.002043 0.000000 0.034250 0.000000
# 6 0.000000 0.000000 0.000000 -0.116612 0.000000 -0.132340
#
#
# Mechanical properties :
#
#
# Convention : Reuss Voigt Hill
#
# Bulk Modulus (GPa) = 43.41530 46.00812 44.71171
# Shear Modulus (GPa) = 61.77331 16.32868 39.05100
#
# Velocity S-wave (km/s) = 5.77892 2.97113 4.59475
# Velocity P-wave (km/s) = 8.24615 6.05335 7.23333
#
# Compressibility (1/GPa) = 0.02303335
#
# Stress axis : x y z
#
# Youngs Moduli (GPa) = 48.64575 63.55104 47.92418
#
# Poissons Ratio (x) = -0.02783 0.53760
# Poissons Ratio (y) = -0.02130 0.30109
# Poissons Ratio (z) = 0.54570 0.39927
#
# Static dielectric constant tensor:
#      x y z
#    x 3.489910 0.000000 -0.055110 
#    y 0.000000 2.987350 0.000000 
#    z -0.055110 0.000000 3.474500 
# 
# 
# High freq. dielectric constant tensor:
#      x y z
#    x 1.724620 0.000000 0.000070 
#    y 0.000000 1.672320 0.000000 
#    z 0.000070 0.000000 1.713040 
# 
# From -- ./inp_files/46680.got.cif
#   From: 2010.06.25/outbox.cif.g09.slc.cpg/sg10_24_cif.got.tgz:46680.got - 2010.06.27 22:07:45.
