data_PCOD8059305
_publ_section_title
;
Structure prediction by ZEFSAII (Michael W. Deem and Ramdas Pophale) SiO2 
 PCOD8059305
Probable space group: P 2/M
;
_chemical_formula_sum "Si O2"
_cell_formula_units_Z 32
_cell_length_a 16.346817
_cell_length_b 9.236805
_cell_length_c 23.129255
_cell_angle_alpha 90.000000
_cell_angle_beta 149.432965
_cell_angle_gamma 90.000000
_cell_volume 1776.016323
_symmetry_space_group_name_H-M "P 2/M"
_symmetry_group_IT_number 10
_symmetry_cell_setting 'monoclinic'
loop_
_space_group_symop_operation_xyz
x,y,z
-x,y,-z
-x,-y,-z
x,-y,z
loop_
_atom_site_type_symbol
_atom_site_label
_atom_site_fract_x
_atom_site_fract_y
_atom_site_fract_z
Si Si1 0.392685 0.669238 0.487994
Si Si2 0.494720 0.334478 0.773224
Si Si3 0.972797 0.665731 0.731329
Si Si4 0.269896 0.336462 0.984852
Si Si5 0.765874 0.669613 0.289005
Si Si6 0.603456 0.167517 0.394398
Si Si7 0.478591 0.844068 0.921580
Si Si8 0.978737 0.831221 0.619122
O O1 0.500000 0.723397 0.500000
O O2 0.418070 0.500000 0.515238
O O3 0.208045 0.707334 0.360631
O O4 0.450102 0.754251 0.579562
O O5 0.474704 0.500000 0.741156
O O6 0.666479 0.312051 0.910704
O O7 0.340221 0.290861 0.719017
O O8 0.499873 0.232696 0.720835
O O9 0.981353 0.500000 0.715081
O O10 0.031614 0.762383 0.712874
O O11 0.080551 0.686841 0.855382
O O12 0.321797 0.500000 0.998889
O O13 0.353392 0.218432 0.996661
O O14 0.799631 0.500000 0.305404
O O15 0.661664 0.726633 0.171763
O O16 0.935501 0.753725 0.384181
O O17 0.790448 0.194244 0.494944
O O18 0.561529 0.000000 0.375087
O O19 0.441352 0.000000 0.867961
O O20 0.500000 0.878704 0.000000
O O21 0.025381 0.000000 0.648479
#
# Coordination Sequence:
#
# PCOD8059305 Si02
#       8
#     4   4   4   4   4   4   4   4
#     4   9  18  34  58  85 107 127 154 192 241 296
#     4   9  19  34  49  67  94 130 172 211 243 282
#     4   9  17  31  52  76 102 130 161 200 247 297
#     4   9  18  31  47  68  94 127 165 203 243 288
#     4  10  20  32  46  65  91 128 172 213 251 289
#     4  10  21  35  52  74 100 131 164 200 245 296
#     4  10  19  28  40  61  90 125 165 209 252 290
#     4  10  20  32  46  69 100 130 165 210 255 295
#
# _framework density 18.017854
#
# number of rings (size 3 to 8) (size 9 to 14) (size 15 to 20)
#    0.000    2.500    0.000    3.000    0.000    8.250 
#    0.000    2.500    0.000    0.750    0.000    5.250 
#    0.000    0.000    0.000    0.000    0.000    0.000 
#
# Total GULP energy -396541.927871 kJ/mol
# GULP energy per Si atom -12391.935246 kJ/mol
# Density = 1.797684 g / cm^3
# Si number density = 18.017854 Si / 1000 Ang^3
#
#
#
# Elastic Constant Matrix: (Units=GPa)
#
#
# Indices 1 2 3 4 5 6 
#
# 1 84.3638 46.4600 37.3579 0.0000 -10.5547 0.0000
# 2 46.4600 89.2672 37.2803 0.0000 -12.8858 0.0000
# 3 37.3579 37.2803 83.2054 0.0000 -18.2554 0.0000
# 4 0.0000 0.0000 0.0000 20.0895 0.0000 -1.9791
# 5 -10.5547 -12.8858 -18.2554 0.0000 21.2841 0.0000
# 6 0.0000 0.0000 0.0000 -1.9791 0.0000 26.4146
#
#
#
# Elastic Compliance Matrix: (Units=1/GPa)
#
#
# Indices 1 2 3 4 5 6 
#
# 1 0.018049 -0.007363 -0.004704 0.000000 0.000458 0.000000
# 2 -0.007363 0.017033 -0.003528 0.000000 0.003634 0.000000
# 3 -0.004704 -0.003528 0.018146 0.000000 0.011095 0.000000
# 4 0.000000 0.000000 0.000000 0.050147 0.000000 0.003757
# 5 0.000458 0.003634 0.011095 0.000000 0.058927 0.000000
# 6 0.000000 0.000000 0.000000 0.003757 0.000000 0.038139
#
#
# Mechanical properties :
#
#
# Convention : Reuss Voigt Hill
#
# Bulk Modulus (GPa) = 45.37994 55.44809 50.41401
# Shear Modulus (GPa) = 20.92259 22.60686 21.76472
#
# Velocity S-wave (km/s) = 3.41136 3.54601 3.47933
# Velocity P-wave (km/s) = 6.38414 6.89973 6.64694
#
# Compressibility (1/GPa) = 0.02203617
#
# Stress axis : x y z
#
# Youngs Moduli (GPa) = 55.40589 58.71118 55.10990
#
# Poissons Ratio (x) = 0.43229 0.25924
# Poissons Ratio (y) = 0.40795 0.19444
# Poissons Ratio (z) = 0.26064 0.20715
#
# Static dielectric constant tensor:
#      x y z
#    x 3.081720 0.000000 0.033520 
#    y 0.000000 3.450620 0.000000 
#    z 0.033520 0.000000 3.343740 
# 
# 
# High freq. dielectric constant tensor:
#      x y z
#    x 1.657860 0.000000 -0.004640 
#    y 0.000000 1.708510 0.000000 
#    z -0.004640 0.000000 1.693380 
# 
# From -- ./inp_files/79941.got.cif
#   From: 2010.06.25/outbox.cif.g09.slc.cpg/sg10_40_cif.got.tgz:79941.got - 2010.06.27 22:07:45.
