data_PCOD8059387
_publ_section_title
;
Structure prediction by ZEFSAII (Michael W. Deem and Ramdas Pophale) SiO2 
 PCOD8059387
Probable space group: P 2/M
;
_chemical_formula_sum "Si O2"
_cell_formula_units_Z 32
_cell_length_a 29.200965
_cell_length_b 8.996162
_cell_length_c 15.776790
_cell_angle_alpha 90.000000
_cell_angle_beta 153.727392
_cell_angle_gamma 90.000000
_cell_volume 1834.536144
_symmetry_space_group_name_H-M "P 2/M"
_symmetry_group_IT_number 10
_symmetry_cell_setting 'monoclinic'
loop_
_space_group_symop_operation_xyz
x,y,z
-x,y,-z
-x,-y,-z
x,-y,z
loop_
_atom_site_type_symbol
_atom_site_label
_atom_site_fract_x
_atom_site_fract_y
_atom_site_fract_z
Si Si1 0.904231 0.175595 0.524565
Si Si2 0.864415 0.173169 0.121249
Si Si3 0.120857 0.334890 0.686488
Si Si4 0.730858 0.326191 0.330740
Si Si5 0.442859 0.326236 0.095191
Si Si6 0.458293 0.823896 0.295574
Si Si7 0.351646 0.173196 0.288395
Si Si8 0.411617 0.167710 0.783304
O O1 0.855907 0.234685 0.356623
O O2 0.842277 0.251964 0.498190
O O3 0.025239 0.223081 0.734082
O O4 0.889540 0.000000 0.504407
O O5 0.831735 0.258117 0.152321
O O6 0.870040 0.000000 0.154126
O O7 0.770650 0.208273 0.899726
O O8 0.168812 0.500000 0.752685
O O9 0.000000 0.347902 0.500000
O O10 0.745679 0.500000 0.369649
O O11 0.687259 0.255953 0.345025
O O12 0.655030 0.290763 0.126609
O O13 0.465206 0.500000 0.136572
O O14 0.418328 0.262378 0.146897
O O15 0.546078 0.247775 0.230510
O O16 0.576655 0.771147 0.514905
O O17 0.387988 0.766722 0.256965
O O18 0.449845 0.000000 0.264143
O O19 0.372811 0.000000 0.317795
O O20 0.378632 0.000000 0.705532
O O21 0.500000 0.169638 0.000000
#
# Coordination Sequence:
#
# PCOD8059387 Si02
#       8
#     4   4   4   4   4   4   4   4
#     4  10  19  29  43  64  90 121 160 195 224 269
#     4   9  17  30  46  64  87 120 158 196 234 271
#     4   9  17  28  40  57  85 118 152 189 227 269
#     4  10  20  32  46  67  99 129 153 186 230 274
#     4  10  20  32  47  69  97 125 153 187 232 278
#     4   9  17  31  50  70  91 119 158 197 234 279
#     4   8  16  31  49  68  91 120 156 200 241 272
#     4   9  17  31  50  71  93 120 155 188 224 273
#
# _framework density 17.443100999999999
#
# number of rings (size 3 to 8) (size 9 to 14) (size 15 to 20)
#    0.000    2.750    0.000    2.625    1.750    5.000 
#    0.000    1.875    0.000    0.000    0.000    0.875 
#    0.000    7.000    0.000    0.000    0.000    0.000 
#
# Total GULP energy -396633.736466 kJ/mol
# GULP energy per Si atom -12394.804265 kJ/mol
# Density = 1.740340 g / cm^3
# Si number density = 17.443101 Si / 1000 Ang^3
#
#
#
# Elastic Constant Matrix: (Units=GPa)
#
#
# Indices 1 2 3 4 5 6 
#
# 1 60.3209 25.1448 11.3510 0.0000 15.6981 0.0000
# 2 25.1448 76.6307 21.3145 0.0000 10.0019 0.0000
# 3 11.3510 21.3145 58.9230 0.0000 14.5254 0.0000
# 4 0.0000 0.0000 0.0000 13.5317 0.0000 2.1116
# 5 15.6981 10.0019 14.5254 0.0000 25.0885 0.0000
# 6 0.0000 0.0000 0.0000 2.1116 0.0000 23.9567
#
#
#
# Elastic Compliance Matrix: (Units=1/GPa)
#
#
# Indices 1 2 3 4 5 6 
#
# 1 0.021968 -0.005888 0.000826 0.000000 -0.011876 0.000000
# 2 -0.005888 0.016312 -0.004749 0.000000 -0.000069 0.000000
# 3 0.000826 -0.004749 0.021219 0.000000 -0.010908 0.000000
# 4 0.000000 0.000000 0.000000 0.074931 0.000000 -0.006605
# 5 -0.011876 -0.000069 -0.010908 0.000000 0.053633 0.000000
# 6 0.000000 0.000000 0.000000 -0.006605 0.000000 0.042324
#
#
# Mechanical properties :
#
#
# Convention : Reuss Voigt Hill
#
# Bulk Modulus (GPa) = 25.07791 34.61056 29.84424
# Shear Modulus (GPa) = 18.98965 21.71968 20.35467
#
# Velocity S-wave (km/s) = 3.30307 3.53253 3.41972
# Velocity P-wave (km/s) = 5.38100 6.04346 5.72183
#
# Compressibility (1/GPa) = 0.03987573
#
# Stress axis : x y z
#
# Youngs Moduli (GPa) = 45.52151 61.30632 47.12690
#
# Poissons Ratio (x) = 0.36096 -0.03891
# Poissons Ratio (y) = 0.26802 0.22381
# Poissons Ratio (z) = -0.03758 0.29115
#
# Static dielectric constant tensor:
#      x y z
#    x 3.156080 0.000000 0.169250 
#    y 0.000000 3.251160 0.000000 
#    z 0.169250 0.000000 3.173700 
# 
# 
# High freq. dielectric constant tensor:
#      x y z
#    x 1.654360 0.000000 0.022840 
#    y 0.000000 1.671960 0.000000 
#    z 0.022840 0.000000 1.647800 
# 
# From -- ./inp_files/72169.got.cif
#   From: 2010.06.25/outbox.cif.g09.slc.cpg/sg10_37_cif.got.tgz:72169.got - 2010.06.27 22:07:45.
