data_PCOD8059098
_publ_section_title
;
Structure prediction by ZEFSAII (Michael W. Deem and Ramdas Pophale) SiO2 
 PCOD8059098
Probable space group: P 2/M
;
_chemical_formula_sum "Si O2"
_cell_formula_units_Z 24
_cell_length_a 22.168650
_cell_length_b 8.973442
_cell_length_c 11.604433
_cell_angle_alpha 90.000000
_cell_angle_beta 148.447215
_cell_angle_gamma 90.000000
_cell_volume 1207.979513
_symmetry_space_group_name_H-M "P 2/M"
_symmetry_group_IT_number 10
_symmetry_cell_setting 'monoclinic'
loop_
_space_group_symop_operation_xyz
x,y,z
-x,y,-z
-x,-y,-z
x,-y,z
loop_
_atom_site_type_symbol
_atom_site_label
_atom_site_fract_x
_atom_site_fract_y
_atom_site_fract_z
Si Si1 0.541397 0.324517 0.368997
Si Si2 0.263943 0.172179 0.185916
Si Si3 0.295738 0.172188 0.980172
Si Si4 0.031448 0.822339 0.923649
Si Si5 0.612988 0.169229 0.259912
Si Si6 0.818501 0.176663 0.434939
O O1 0.534218 0.500000 0.365930
O O2 0.620082 0.264216 0.601168
O O3 0.413950 0.261042 0.169195
O O4 0.603051 0.276303 0.352078
O O5 0.232978 0.192480 0.000627
O O6 0.288359 0.000000 0.254346
O O7 0.157467 0.233676 0.089084
O O8 0.327126 0.000000 0.007018
O O9 0.208530 0.232508 0.739153
O O10 0.939011 0.759721 0.680146
O O11 0.029197 0.000000 0.920255
O O12 0.000000 0.761600 0.000000
O O13 0.717700 0.232297 0.355066
O O14 0.636483 0.000000 0.340521
O O15 0.500000 0.175924 0.000000
O O16 0.822796 0.000000 0.442557
#
# Coordination Sequence:
#
# PCOD8059098 Si02
#       6
#     4   4   4   4   4   4
#     4  12  24  36  54  80 114 149 186 232 278 328
#     4  10  21  36  57  81 108 147 190 230 274 328
#     4  10  20  36  56  81 111 144 187 232 277 331
#     4   9  17  31  54  84 113 140 178 228 278 329
#     4  10  18  33  58  83 110 144 180 221 274 328
#     4   9  17  31  55  85 114 142 176 226 281 328
#
# _framework density 19.867888000000001
#
# number of rings (size 3 to 8) (size 9 to 14) (size 15 to 20)
#    0.000    2.000    1.667    3.000    0.000    6.333 
#    0.000    3.333    0.000    5.500    0.000    2.333 
#    0.000    0.000    0.000    0.000    0.000    0.000 
#
# Total GULP energy -297587.003639 kJ/mol
# GULP energy per Si atom -12399.458485 kJ/mol
# Density = 1.982267 g / cm^3
# Si number density = 19.867888 Si / 1000 Ang^3
#
#
#
# Elastic Constant Matrix: (Units=GPa)
#
#
# Indices 1 2 3 4 5 6 
#
# 1 99.7273 26.7444 49.9130 0.0000 -15.8311 0.0000
# 2 26.7444 59.6089 32.7763 0.0000 -3.3238 0.0000
# 3 49.9130 32.7763 142.8759 0.0000 -10.2947 0.0000
# 4 0.0000 0.0000 0.0000 -12.9527 0.0000 -25.9719
# 5 -15.8311 -3.3238 -10.2947 0.0000 32.2367 0.0000
# 6 0.0000 0.0000 0.0000 -25.9719 0.0000 -35.9495
#
#
#
# Elastic Compliance Matrix: (Units=1/GPa)
#
#
# Indices 1 2 3 4 5 6 
#
# 1 0.013650 -0.003912 -0.003498 0.000000 0.005183 0.000000
# 2 -0.003912 0.020330 -0.003362 0.000000 -0.000899 0.000000
# 3 -0.003498 -0.003362 0.009052 0.000000 0.000826 0.000000
# 4 0.000000 0.000000 0.000000 0.172093 0.000000 -0.124329
# 5 0.005183 -0.000899 0.000826 0.000000 0.033737 0.000000
# 6 0.000000 0.000000 0.000000 -0.124329 0.000000 0.062006
#
#
# Mechanical properties :
#
#
# Convention : Reuss Voigt Hill
#
# Bulk Modulus (GPa) = 46.53705 57.89773 52.21739
# Shear Modulus (GPa) = 14.72443 9.51879 12.12161
#
# Velocity S-wave (km/s) = 2.72530 2.19122 2.47272
# Velocity P-wave (km/s) = 5.77729 5.96712 5.87297
#
# Compressibility (1/GPa) = 0.02148826
#
# Stress axis : x y z
#
# Youngs Moduli (GPa) = 73.26154 49.18942 110.47639
#
# Poissons Ratio (x) = 0.19243 0.38640
# Poissons Ratio (y) = 0.28660 0.37140
# Poissons Ratio (z) = 0.25624 0.16537
#
# Static dielectric constant tensor:
#      x y z
#    x 3.870930 0.000000 -0.179200 
#    y 0.000000 3.086690 0.000000 
#    z -0.179200 0.000000 3.931370 
# 
# 
# High freq. dielectric constant tensor:
#      x y z
#    x 1.784490 0.000000 -0.009430 
#    y 0.000000 1.713580 0.000000 
#    z -0.009430 0.000000 1.787670 
# 
# From -- ./inp_files/45251.got.cif
#   From: 2010.06.25/outbox.cif.g09.slc.cpg/sg10_23_cif.got.tgz:45251.got - 2010.06.27 22:07:45.
