data_PCOD8059602
_publ_section_title
;
Structure prediction by ZEFSAII (Michael W. Deem and Ramdas Pophale) SiO2 
 PCOD8059602
Probable space group: P 2/M
;
_chemical_formula_sum "Si O2"
_cell_formula_units_Z 24
_cell_length_a 24.994963
_cell_length_b 9.041999
_cell_length_c 17.072837
_cell_angle_alpha 90.000000
_cell_angle_beta 156.377627
_cell_angle_gamma 90.000000
_cell_volume 1546.142034
_symmetry_space_group_name_H-M "P 2/M"
_symmetry_group_IT_number 10
_symmetry_cell_setting 'monoclinic'
loop_
_space_group_symop_operation_xyz
x,y,z
-x,y,-z
-x,-y,-z
x,-y,z
loop_
_atom_site_type_symbol
_atom_site_label
_atom_site_fract_x
_atom_site_fract_y
_atom_site_fract_z
Si Si1 0.723945 0.175348 0.956204
Si Si2 0.786301 0.170475 0.741977
Si Si3 0.056700 0.168717 0.197161
Si Si4 0.475071 0.326493 0.556041
Si Si5 0.955263 0.333372 0.198011
Si Si6 0.917355 0.331936 0.316671
O O1 0.576063 0.238196 0.747418
O O2 0.721279 0.000000 0.951461
O O3 0.817723 0.236828 0.010929
O O4 0.784573 0.234400 0.120703
O O5 0.823402 0.207202 0.701388
O O6 0.672929 0.281390 0.617639
O O7 0.740135 0.000000 0.687971
O O8 0.915635 0.200830 0.967500
O O9 0.066288 0.267762 0.288387
O O10 0.067456 0.000000 0.238059
O O11 0.500000 0.280139 0.500000
O O12 0.495855 0.500000 0.596785
O O13 0.919845 0.500000 0.124849
O O14 0.008903 0.329815 0.360140
O O15 0.873676 0.500000 0.278263
O O16 0.000000 0.263096 0.500000
#
# Coordination Sequence:
#
# PCOD8059602 Si02
#       6
#     4   4   4   4   4   4
#     4  10  19  30  46  68  94 123 155 191 232 278
#     4   9  19  32  46  64  89 123 161 193 230 276
#     4   9  17  31  47  65  90 121 156 196 234 272
#     4  11  22  33  45  65  93 126 162 196 232 277
#     4   9  17  28  45  68  93 120 151 186 230 277
#     4   8  16  31  48  69  98 125 150 187 235 283
#
# _framework density 15.522505000000001
#
# number of rings (size 3 to 8) (size 9 to 14) (size 15 to 20)
#    1.000    1.667    0.000    4.000    0.000    5.667 
#    0.000    1.667    0.000    0.000    0.000    1.167 
#    0.000    9.333    0.000    0.000    0.000    0.000 
#
# Total GULP energy -297393.846184 kJ/mol
# GULP energy per Si atom -12391.410258 kJ/mol
# Density = 1.548717 g / cm^3
# Si number density = 15.522505 Si / 1000 Ang^3
#
#
#
# Elastic Constant Matrix: (Units=GPa)
#
#
# Indices 1 2 3 4 5 6 
#
# 1 79.1177 40.8385 33.8613 0.0000 1.9594 0.0000
# 2 40.8385 98.6042 43.1268 0.0000 -1.3081 0.0000
# 3 33.8613 43.1268 68.9827 0.0000 -3.9822 0.0000
# 4 0.0000 0.0000 0.0000 19.9819 0.0000 2.7419
# 5 1.9594 -1.3081 -3.9822 0.0000 20.5805 0.0000
# 6 0.0000 0.0000 0.0000 2.7419 0.0000 24.2000
#
#
#
# Elastic Compliance Matrix: (Units=1/GPa)
#
#
# Indices 1 2 3 4 5 6 
#
# 1 0.017711 -0.004811 -0.005867 0.000000 -0.003127 0.000000
# 2 -0.004811 0.015278 -0.007188 0.000000 0.000038 0.000000
# 3 -0.005867 -0.007188 0.022123 0.000000 0.004382 0.000000
# 4 0.000000 0.000000 0.000000 0.050836 0.000000 -0.005760
# 5 -0.003127 0.000038 0.004382 0.000000 0.049738 0.000000
# 6 0.000000 0.000000 0.000000 -0.005760 0.000000 0.041975
#
#
# Mechanical properties :
#
#
# Convention : Reuss Voigt Hill
#
# Bulk Modulus (GPa) = 51.59630 53.59532 52.59581
# Shear Modulus (GPa) = 20.84620 21.54436 21.19528
#
# Velocity S-wave (km/s) = 3.66863 3.72955 3.69921
# Velocity P-wave (km/s) = 7.15939 7.29030 7.22515
#
# Compressibility (1/GPa) = 0.01938124
#
# Stress axis : x y z
#
# Youngs Moduli (GPa) = 56.46248 65.45170 45.20204
#
# Poissons Ratio (x) = 0.31488 0.26518
# Poissons Ratio (y) = 0.27163 0.32492
# Poissons Ratio (z) = 0.33124 0.47047
#
# Static dielectric constant tensor:
#      x y z
#    x 2.965650 0.000000 -0.047180 
#    y 0.000000 2.934800 0.000000 
#    z -0.047180 0.000000 2.679140 
# 
# 
# High freq. dielectric constant tensor:
#      x y z
#    x 1.583410 0.000000 -0.004120 
#    y 0.000000 1.603910 0.000000 
#    z -0.004120 0.000000 1.558120 
# 
# From -- ./inp_files/80451.got.cif
#   From: 2010.06.25/outbox.cif.g09.slc.cpg/sg10_41_cif.got.tgz:80451.got - 2010.06.27 22:07:45.
