data_PCOD8059976
_publ_section_title
;
Structure prediction by ZEFSAII (Michael W. Deem and Ramdas Pophale) SiO2 
 PCOD8059976
Probable space group: P 2/M
;
_chemical_formula_sum "Si O2"
_cell_formula_units_Z 32
_cell_length_a 18.342967
_cell_length_b 13.039478
_cell_length_c 21.509030
_cell_angle_alpha 90.000000
_cell_angle_beta 158.868180
_cell_angle_gamma 90.000000
_cell_volume 1854.700598
_symmetry_space_group_name_H-M "P 2/M"
_symmetry_group_IT_number 10
_symmetry_cell_setting 'monoclinic'
loop_
_space_group_symop_operation_xyz
x,y,z
-x,y,-z
-x,-y,-z
x,-y,z
loop_
_atom_site_type_symbol
_atom_site_label
_atom_site_fract_x
_atom_site_fract_y
_atom_site_fract_z
Si Si1 0.013055 0.751545 0.378297
Si Si2 0.179895 0.878800 0.102161
Si Si3 0.910987 0.883315 0.676007
Si Si4 0.391216 0.248450 0.756459
Si Si5 0.706038 0.883317 0.941019
Si Si6 0.306359 0.120632 0.806359
Si Si7 0.368003 0.619559 0.956001
Si Si8 0.446688 0.121199 0.524422
O O1 0.895482 0.838609 0.322496
O O2 0.121471 0.806118 0.406491
O O3 0.191000 0.704628 0.563667
O O4 0.857667 0.663975 0.232543
O O5 0.173254 0.846657 0.024602
O O6 0.390600 0.838301 0.296868
O O7 0.161595 0.000000 0.093566
O O8 0.000000 0.828412 0.000000
O O9 0.772703 0.846654 0.624051
O O10 0.852248 0.000000 0.609887
O O11 0.144283 0.878835 0.881429
O O12 0.523466 0.193885 0.808485
O O13 0.323468 0.161386 0.750484
O O14 0.517699 0.336022 0.892577
O O15 0.625156 0.000000 0.867517
O O16 0.292254 0.000000 0.792261
O O17 0.500000 0.157681 0.000000
O O18 0.342618 0.500000 0.947550
O O19 0.500000 0.643392 0.000000
O O20 0.500000 0.171592 0.500000
O O21 0.457495 0.000000 0.525527
#
# Coordination Sequence:
#
# PCOD8059976 Si02
#       8
#     4   4   4   4   4   4   4   4
#     4  12  22  36  56  79 105 136 174 215 263 314
#     4   9  16  26  40  62  95 139 184 217 249 291
#     4  10  19  31  48  72 106 146 180 214 255 302
#     4  12  22  36  56  79 105 136 174 215 263 314
#     4  10  19  31  48  72 106 146 180 214 255 302
#     4  11  21  35  53  75 109 146 177 208 248 302
#     4  11  24  44  62  78 102 130 170 224 280 326
#     4   9  16  26  40  62  95 139 184 217 249 291
#
# _framework density 17.253457999999998
#
# number of rings (size 3 to 8) (size 9 to 14) (size 15 to 20)
#    0.000    1.500    3.750    2.625    0.000    9.000 
#    0.000    1.250    0.000    0.000    0.000    0.000 
#    0.000    1.000    0.500    0.000    0.000    0.000 
#
# Total GULP energy -396746.152041 kJ/mol
# GULP energy per Si atom -12398.317251 kJ/mol
# Density = 1.721419 g / cm^3
# Si number density = 17.253458 Si / 1000 Ang^3
#
#
#
# Elastic Constant Matrix: (Units=GPa)
#
#
# Indices 1 2 3 4 5 6 
#
# 1 108.7209 36.0102 34.6608 0.0000 5.2784 0.0000
# 2 36.0102 72.5032 38.4920 0.0000 -0.5869 0.0000
# 3 34.6608 38.4920 120.8060 0.0000 -8.1432 0.0000
# 4 0.0000 0.0000 0.0000 11.2520 0.0000 -0.9319
# 5 5.2784 -0.5869 -8.1432 0.0000 29.0788 0.0000
# 6 0.0000 0.0000 0.0000 -0.9319 0.0000 7.3236
#
#
#
# Elastic Compliance Matrix: (Units=1/GPa)
#
#
# Indices 1 2 3 4 5 6 
#
# 1 0.011519 -0.004683 -0.001998 0.000000 -0.002745 0.000000
# 2 -0.004683 0.018543 -0.004569 0.000000 -0.000055 0.000000
# 3 -0.001998 -0.004569 0.010524 0.000000 0.003217 0.000000
# 4 0.000000 0.000000 0.000000 0.089820 0.000000 0.011429
# 5 -0.002745 -0.000055 0.003217 0.000000 0.035787 0.000000
# 6 0.000000 0.000000 0.000000 0.011429 0.000000 0.138000
#
#
# Mechanical properties :
#
#
# Convention : Reuss Voigt Hill
#
# Bulk Modulus (GPa) = 55.28706 57.81734 56.55220
# Shear Modulus (GPa) = 15.02761 22.38867 18.70814
#
# Velocity S-wave (km/s) = 2.95446 3.60618 3.29646
# Velocity P-wave (km/s) = 6.61453 7.13601 6.88021
#
# Compressibility (1/GPa) = 0.01808742
#
# Stress axis : x y z
#
# Youngs Moduli (GPa) = 86.81254 53.92792 95.02514
#
# Poissons Ratio (x) = 0.25253 0.18986
# Poissons Ratio (y) = 0.40651 0.43413
# Poissons Ratio (z) = 0.17345 0.24637
#
# Static dielectric constant tensor:
#      x y z
#    x 3.367230 0.000000 -0.004960 
#    y 0.000000 2.719440 0.000000 
#    z -0.004960 0.000000 3.388120 
# 
# 
# High freq. dielectric constant tensor:
#      x y z
#    x 1.678000 0.000000 -0.000620 
#    y 0.000000 1.597850 0.000000 
#    z -0.000620 0.000000 1.680610 
# 
# From -- ./inp_files/85978.got.cif
#   From: 2010.06.25/outbox.cif.g09.slc.cpg/sg10_43_cif.got.tgz:85978.got - 2010.06.27 22:07:45.
