data_PCOD8059175
_publ_section_title
;
Structure prediction by ZEFSAII (Michael W. Deem and Ramdas Pophale) SiO2 
 PCOD8059175
Probable space group: P 2/M
;
_chemical_formula_sum "Si O2"
_cell_formula_units_Z 26
_cell_length_a 20.234742
_cell_length_b 9.412478
_cell_length_c 12.110210
_cell_angle_alpha 90.000000
_cell_angle_beta 34.861594
_cell_angle_gamma 90.000000
_cell_volume 1318.385724
_symmetry_space_group_name_H-M "P 2/M"
_symmetry_group_IT_number 10
_symmetry_cell_setting 'monoclinic'
loop_
_space_group_symop_operation_xyz
x,y,z
-x,y,-z
-x,-y,-z
x,-y,z
loop_
_atom_site_type_symbol
_atom_site_label
_atom_site_fract_x
_atom_site_fract_y
_atom_site_fract_z
Si Si1 0.500000 0.747090 0.000000
Si Si2 0.858913 0.668139 0.989546
Si Si3 0.917169 0.164110 0.350865
Si Si4 0.461501 0.158531 0.292227
Si Si5 0.672224 0.663635 0.065328
Si Si6 0.206545 0.163125 0.707162
Si Si7 0.743633 0.657394 0.727705
O O1 0.482531 0.843344 0.132032
O O2 0.387490 0.649841 0.137356
O O3 0.881394 0.500000 0.966365
O O4 0.748824 0.704884 0.065268
O O5 0.836832 0.731062 0.140026
O O6 0.968862 0.743698 0.783355
O O7 0.882196 0.178674 0.271564
O O8 0.815727 0.222787 0.567047
O O9 0.939003 0.000000 0.352233
O O10 0.551980 0.252817 0.235704
O O11 0.332821 0.213467 0.494605
O O12 0.477076 0.000000 0.315219
O O13 0.637086 0.500000 0.114460
O O14 0.744132 0.699405 0.856121
O O15 0.207060 0.000000 0.749046
O O16 0.797519 0.500000 0.636223
#
# Coordination Sequence:
#
# PCOD8059175 Si02
#       7
#     2   4   4   4   4   4   4
#     4  10  18  34  58  90 122 152 184 238 292 340
#     4  11  24  42  61  82 114 158 204 245 285 342
#     4  11  23  40  61  88 120 153 191 244 297 345
#     4  10  20  35  60  89 119 153 193 236 289 352
#     4   9  22  41  58  84 121 157 194 241 293 339
#     4  10  22  40  59  87 120 153 189 241 299 344
#     4  10  20  36  60  88 118 154 193 236 289 349
#
# _framework density 19.721087000000001
#
# number of rings (size 3 to 8) (size 9 to 14) (size 15 to 20)
#    0.000    1.846    1.538    1.846    0.000    9.231 
#    0.000    6.154    0.000    0.000    0.000    0.000 
#    0.000    0.000    0.000    0.000    0.000    0.000 
#
# Total GULP energy -322457.534303 kJ/mol
# GULP energy per Si atom -12402.212858 kJ/mol
# Density = 1.967620 g / cm^3
# Si number density = 19.721087 Si / 1000 Ang^3
#
#
#
# Elastic Constant Matrix: (Units=GPa)
#
#
# Indices 1 2 3 4 5 6 
#
# 1 52.9333 29.9040 3.4248 0.0000 -9.9200 0.0000
# 2 29.9040 96.4279 31.5181 0.0000 -8.7305 0.0000
# 3 3.4248 31.5181 66.2658 0.0000 -13.6985 0.0000
# 4 0.0000 0.0000 0.0000 32.8647 0.0000 -4.0949
# 5 -9.9200 -8.7305 -13.6985 0.0000 26.9450 0.0000
# 6 0.0000 0.0000 0.0000 -4.0949 0.0000 28.9624
#
#
#
# Elastic Compliance Matrix: (Units=1/GPa)
#
#
# Indices 1 2 3 4 5 6 
#
# 1 0.025015 -0.008447 0.004540 0.000000 0.008781 0.000000
# 2 -0.008447 0.015162 -0.007154 0.000000 -0.001834 0.000000
# 3 0.004540 -0.007154 0.020254 0.000000 0.009650 0.000000
# 4 0.000000 0.000000 0.000000 0.030973 0.000000 0.004379
# 5 0.008781 -0.001834 0.009650 0.000000 0.044657 0.000000
# 6 0.000000 0.000000 0.000000 0.004379 0.000000 0.035147
#
#
# Mechanical properties :
#
#
# Convention : Reuss Voigt Hill
#
# Bulk Modulus (GPa) = 26.10339 38.36898 32.23619
# Shear Modulus (GPa) = 24.26006 27.80644 26.03325
#
# Velocity S-wave (km/s) = 3.51117 3.75905 3.63722
# Velocity P-wave (km/s) = 5.45002 6.19182 5.83273
#
# Compressibility (1/GPa) = 0.03830920
#
# Stress axis : x y z
#
# Youngs Moduli (GPa) = 39.97552 65.95338 49.37363
#
# Poissons Ratio (x) = 0.55708 -0.22414
# Poissons Ratio (y) = 0.33765 0.35323
# Poissons Ratio (z) = -0.18148 0.47185
#
# Static dielectric constant tensor:
#      x y z
#    x 3.643560 0.000000 -0.059500 
#    y 0.000000 3.517800 0.000000 
#    z -0.059500 0.000000 3.558040 
# 
# 
# High freq. dielectric constant tensor:
#      x y z
#    x 1.766820 0.000000 -0.005660 
#    y 0.000000 1.770230 0.000000 
#    z -0.005660 0.000000 1.770740 
# 
# From -- ./inp_files/55097.got.cif
#   From: 2010.06.25/outbox.cif.g09.slc.cpg/sg10_28_cif.got.tgz:55097.got - 2010.06.27 22:07:45.
