data_PCOD8059413
_publ_section_title
;
Structure prediction by ZEFSAII (Michael W. Deem and Ramdas Pophale) SiO2 
 PCOD8059413
Probable space group: P 2/M
;
_chemical_formula_sum "Si O2"
_cell_formula_units_Z 28
_cell_length_a 15.990311
_cell_length_b 8.724914
_cell_length_c 15.943161
_cell_angle_alpha 90.000000
_cell_angle_beta 49.925757
_cell_angle_gamma 90.000000
_cell_volume 1702.055185
_symmetry_space_group_name_H-M "P 2/M"
_symmetry_group_IT_number 10
_symmetry_cell_setting 'monoclinic'
loop_
_space_group_symop_operation_xyz
x,y,z
-x,y,-z
-x,-y,-z
x,-y,z
loop_
_atom_site_type_symbol
_atom_site_label
_atom_site_fract_x
_atom_site_fract_y
_atom_site_fract_z
Si Si1 0.839328 0.320179 0.619812
Si Si2 0.795247 0.321732 0.022384
Si Si3 0.633572 0.823184 0.824725
Si Si4 0.021870 0.180614 0.610579
Si Si5 0.384263 0.176687 0.971594
Si Si6 0.884227 0.827945 0.119725
Si Si7 0.981211 0.320739 0.209872
O O1 0.855301 0.500000 0.596616
O O2 0.713246 0.282413 0.718764
O O3 0.876419 0.233578 0.511787
O O4 0.911453 0.264339 0.651892
O O5 0.801522 0.500000 0.037464
O O6 0.684238 0.281976 0.046403
O O7 0.794964 0.237451 0.112520
O O8 0.898311 0.271418 0.899105
O O9 0.511523 0.796103 0.869654
O O10 0.667370 0.000000 0.792649
O O11 0.641552 0.774638 0.916650
O O12 0.046702 0.225232 0.689567
O O13 0.005402 0.000000 0.612562
O O14 0.352412 0.000000 0.977951
O O15 0.890641 0.724081 0.198912
O O16 0.851099 0.000000 0.166591
O O17 0.000000 0.822968 0.000000
O O18 0.973731 0.500000 0.234158
#
# Coordination Sequence:
#
# PCOD8059413 Si02
#       7
#     4   4   4   4   4   4   4
#     4  11  21  33  48  68  94 122 153 193 235 271
#     4  10  19  29  44  67  96 126 154 189 232 274
#     4   9  18  33  49  67  92 123 157 192 230 271
#     4  11  21  33  49  68  91 123 159 190 225 274
#     4   9  18  31  48  68  92 123 158 192 226 271
#     4   9  17  29  45  65  90 122 157 189 225 273
#     4  10  19  31  46  68  97 124 152 190 233 274
#
# _framework density 16.450700000000001
#
# number of rings (size 3 to 8) (size 9 to 14) (size 15 to 20)
#    0.000    2.143    0.000    6.429    0.000    6.857 
#    0.000    1.429    0.000    0.000    0.000    1.000 
#    0.000    8.000    0.000    0.000    0.000    0.000 
#
# Total GULP energy -347269.777496 kJ/mol
# GULP energy per Si atom -12402.492053 kJ/mol
# Density = 1.641326 g / cm^3
# Si number density = 16.450700 Si / 1000 Ang^3
#
#
#
# Elastic Constant Matrix: (Units=GPa)
#
#
# Indices 1 2 3 4 5 6 
#
# 1 91.8205 25.1865 33.0754 0.0000 10.8888 0.0000
# 2 25.1865 71.1367 23.7682 0.0000 3.4473 0.0000
# 3 33.0754 23.7682 68.5064 0.0000 2.1856 0.0000
# 4 0.0000 0.0000 0.0000 24.6616 0.0000 3.0116
# 5 10.8888 3.4473 2.1856 0.0000 24.0046 0.0000
# 6 0.0000 0.0000 0.0000 3.0116 0.0000 29.7007
#
#
#
# Elastic Compliance Matrix: (Units=1/GPa)
#
#
# Indices 1 2 3 4 5 6 
#
# 1 0.014436 -0.002908 -0.005782 0.000000 -0.005604 0.000000
# 2 -0.002908 0.016563 -0.004321 0.000000 -0.000666 0.000000
# 3 -0.005782 -0.004321 0.018839 0.000000 0.001528 0.000000
# 4 0.000000 0.000000 0.000000 0.041057 0.000000 -0.004163
# 5 -0.005604 -0.000666 0.001528 0.000000 0.044157 0.000000
# 6 0.000000 0.000000 0.000000 -0.004163 0.000000 0.034091
#
#
# Mechanical properties :
#
#
# Convention : Reuss Voigt Hill
#
# Bulk Modulus (GPa) = 41.98877 43.94709 42.96793
# Shear Modulus (GPa) = 24.61778 25.63562 25.12670
#
# Velocity S-wave (km/s) = 3.87260 3.95185 3.91243
# Velocity P-wave (km/s) = 6.75096 6.89893 6.82535
#
# Compressibility (1/GPa) = 0.02381589
#
# Stress axis : x y z
#
# Youngs Moduli (GPa) = 69.27226 60.37533 53.08025
#
# Poissons Ratio (x) = 0.17555 0.30692
# Poissons Ratio (y) = 0.20142 0.22938
# Poissons Ratio (z) = 0.40054 0.26091
#
# Static dielectric constant tensor:
#      x y z
#    x 3.028030 0.000000 0.096080 
#    y 0.000000 3.137900 0.000000 
#    z 0.096080 0.000000 2.913430 
# 
# 
# High freq. dielectric constant tensor:
#      x y z
#    x 1.622720 0.000000 0.012210 
#    y 0.000000 1.645780 0.000000 
#    z 0.012210 0.000000 1.605690 
# 
# From -- ./inp_files/49619.got.cif
#   From: 2010.06.25/outbox.cif.g09.slc.cpg/sg10_25_cif.got.tgz:49619.got - 2010.06.27 22:07:45.
