data_PCOD8059959
_publ_section_title
;
Structure prediction by ZEFSAII (Michael W. Deem and Ramdas Pophale) SiO2 
 PCOD8059959
Probable space group: P 2/M
;
_chemical_formula_sum "Si O2"
_cell_formula_units_Z 32
_cell_length_a 17.839091
_cell_length_b 9.169730
_cell_length_c 22.822611
_cell_angle_alpha 90.000000
_cell_angle_beta 150.470127
_cell_angle_gamma 90.000000
_cell_volume 1840.065985
_symmetry_space_group_name_H-M "P 2/M"
_symmetry_group_IT_number 10
_symmetry_cell_setting 'monoclinic'
loop_
_space_group_symop_operation_xyz
x,y,z
-x,y,-z
-x,-y,-z
x,-y,z
loop_
_atom_site_type_symbol
_atom_site_label
_atom_site_fract_x
_atom_site_fract_y
_atom_site_fract_z
Si Si1 0.906878 0.163831 0.269629
Si Si2 0.055664 0.668294 0.472166
Si Si3 0.768699 0.840317 0.570418
Si Si4 0.673797 0.828742 0.901491
Si Si5 0.784365 0.336021 0.085868
Si Si6 0.054318 0.327460 0.972524
Si Si7 0.656235 0.171034 0.373514
Si Si8 0.113292 0.340298 0.252250
O O1 0.934184 0.249247 0.348618
O O2 0.061085 0.155254 0.337994
O O3 0.781738 0.251045 0.146123
O O4 0.847299 0.000000 0.242370
O O5 0.064996 0.500000 0.458769
O O6 0.222236 0.739419 0.581550
O O7 0.000000 0.684801 0.500000
O O8 0.662534 0.776445 0.446100
O O9 0.762293 0.750260 0.626531
O O10 0.711021 0.000000 0.548598
O O11 0.508527 0.796814 0.763536
O O12 0.707214 0.000000 0.931266
O O13 0.681324 0.752647 0.969892
O O14 0.792291 0.759899 0.936431
O O15 0.719213 0.500000 0.049741
O O16 0.954943 0.344906 0.178609
O O17 0.086616 0.500000 0.987081
O O18 0.921797 0.277794 0.836717
O O19 0.000000 0.285573 0.000000
O O20 0.700225 0.000000 0.400558
O O21 0.184877 0.500000 0.295348
#
# Coordination Sequence:
#
# PCOD8059959 Si02
#       8
#     4   4   4   4   4   4   4   4
#     4   9  16  27  45  68  93 122 156 194 235 276
#     4  10  20  32  48  72  99 126 158 196 237 282
#     4   8  14  25  41  62  87 114 147 186 226 267
#     4  10  19  31  48  71  97 123 157 198 238 282
#     4   9  16  27  44  67  94 122 154 192 235 280
#     4   9  18  32  48  67  94 126 157 192 238 289
#     4   9  19  33  48  68  95 127 159 193 235 285
#     4   8  14  24  40  63  87 112 146 187 227 268
#
# _framework density 17.390681000000001
#
# number of rings (size 3 to 8) (size 9 to 14) (size 15 to 20)
#    0.000    3.000    0.000    3.000    0.000    8.250 
#    0.000    0.000    0.000    1.500    0.000   10.500 
#    0.000    0.000    0.000    0.000    0.000    0.000 
#
# Total GULP energy -396626.552181 kJ/mol
# GULP energy per Si atom -12394.579756 kJ/mol
# Density = 1.735110 g / cm^3
# Si number density = 17.390681 Si / 1000 Ang^3
#
#
#
# Elastic Constant Matrix: (Units=GPa)
#
#
# Indices 1 2 3 4 5 6 
#
# 1 75.4950 53.4464 52.2023 0.0000 -26.3930 0.0000
# 2 53.4464 118.2662 67.5752 0.0000 -19.3741 0.0000
# 3 52.2023 67.5752 116.2339 0.0000 -29.4793 0.0000
# 4 0.0000 0.0000 0.0000 24.7664 0.0000 -11.8216
# 5 -26.3930 -19.3741 -29.4793 0.0000 23.9830 0.0000
# 6 0.0000 0.0000 0.0000 -11.8216 0.0000 18.3109
#
#
#
# Elastic Compliance Matrix: (Units=1/GPa)
#
#
# Indices 1 2 3 4 5 6 
#
# 1 0.027938 -0.007569 -0.002760 0.000000 0.021238 0.000000
# 2 -0.007569 0.014761 -0.006205 0.000000 -0.004032 0.000000
# 3 -0.002760 -0.006205 0.016576 0.000000 0.012325 0.000000
# 4 0.000000 0.000000 0.000000 0.058362 0.000000 0.037679
# 5 0.021238 -0.004032 0.012325 0.000000 0.076960 0.000000
# 6 0.000000 0.000000 0.000000 0.037679 0.000000 0.078938
#
#
# Mechanical properties :
#
#
# Convention : Reuss Voigt Hill
#
# Bulk Modulus (GPa) = 38.15910 72.93809 55.54860
# Shear Modulus (GPa) = 15.85591 22.53015 19.19303
#
# Velocity S-wave (km/s) = 3.02279 3.60325 3.32571
# Velocity P-wave (km/s) = 5.84576 7.70345 6.83799
#
# Compressibility (1/GPa) = 0.02620607
#
# Stress axis : x y z
#
# Youngs Moduli (GPa) = 35.79353 67.74650 60.32723
#
# Poissons Ratio (x) = 0.51279 0.16653
# Poissons Ratio (y) = 0.27093 0.37432
# Poissons Ratio (z) = 0.09881 0.42036
#
# Static dielectric constant tensor:
#      x y z
#    x 2.972310 0.000000 -0.458630 
#    y 0.000000 3.497290 0.000000 
#    z -0.458630 0.000000 3.240430 
# 
# 
# High freq. dielectric constant tensor:
#      x y z
#    x 1.634760 0.000000 -0.043660 
#    y 0.000000 1.681880 0.000000 
#    z -0.043660 0.000000 1.659460 
# 
# From -- ./inp_files/89971.got.cif
#   From: 2010.06.25/outbox.cif.g09.slc.cpg/sg10_45_cif.got.tgz:89971.got - 2010.06.27 22:07:45.
