data_PCOD8059543
_publ_section_title
;
Structure prediction by ZEFSAII (Michael W. Deem and Ramdas Pophale) SiO2 
 PCOD8059543
Probable space group: P 2/M
;
_chemical_formula_sum "Si O2"
_cell_formula_units_Z 28
_cell_length_a 17.712176
_cell_length_b 9.225228
_cell_length_c 18.870931
_cell_angle_alpha 90.000000
_cell_angle_beta 147.441371
_cell_angle_gamma 90.000000
_cell_volume 1659.417477
_symmetry_space_group_name_H-M "P 2/M"
_symmetry_group_IT_number 10
_symmetry_cell_setting 'monoclinic'
loop_
_space_group_symop_operation_xyz
x,y,z
-x,y,-z
-x,-y,-z
x,-y,z
loop_
_atom_site_type_symbol
_atom_site_label
_atom_site_fract_x
_atom_site_fract_y
_atom_site_fract_z
Si Si1 0.381944 0.836070 0.571804
Si Si2 0.420505 0.329799 0.367523
Si Si3 0.157312 0.338225 0.653960
Si Si4 0.894766 0.667871 0.853085
Si Si5 0.766392 0.166554 0.408674
Si Si6 0.017409 0.329606 0.680439
Si Si7 0.080476 0.829087 0.269774
O O1 0.510019 0.738072 0.647335
O O2 0.369644 0.821491 0.647828
O O3 0.236875 0.788235 0.419353
O O4 0.416314 0.000000 0.577358
O O5 0.500000 0.270545 0.500000
O O6 0.438504 0.500000 0.374918
O O7 0.259020 0.282820 0.243334
O O8 0.216607 0.500000 0.689478
O O9 0.258875 0.226802 0.691376
O O10 0.000000 0.326481 0.500000
O O11 0.150691 0.302094 0.733240
O O12 0.893871 0.500000 0.828754
O O13 0.945413 0.765786 0.828297
O O14 0.000000 0.696899 0.000000
O O15 0.881653 0.268166 0.534394
O O16 0.818091 0.000000 0.446342
O O17 0.996739 0.500000 0.678066
O O18 0.033564 0.245552 0.767807
O O19 0.054302 0.000000 0.249484
#
# Coordination Sequence:
#
# PCOD8059543 Si02
#       7
#     4   4   4   4   4   4   4
#     4   9  18  29  42  64  91 120 151 188 232 270
#     4  10  19  31  49  71  89 114 157 194 224 272
#     4   8  14  23  34  52  79 115 152 183 222 270
#     4  10  21  36  51  68  93 122 151 190 238 278
#     4   9  16  24  35  56  85 116 150 186 227 272
#     4   9  16  25  38  56  82 116 153 188 225 271
#     4  10  19  30  45  66  90 117 154 192 230 274
#
# _framework density 16.873391000000002
#
# number of rings (size 3 to 8) (size 9 to 14) (size 15 to 20)
#    0.000    2.714    1.429    3.000    0.000    7.143 
#    0.000    0.000    0.000    0.000    0.000    0.000 
#    0.000    1.143    0.000   12.857    0.000    9.286 
#
# Total GULP energy -346996.561470 kJ/mol
# GULP energy per Si atom -12392.734338 kJ/mol
# Density = 1.683499 g / cm^3
# Si number density = 16.873391 Si / 1000 Ang^3
#
#
#
# Elastic Constant Matrix: (Units=GPa)
#
#
# Indices 1 2 3 4 5 6 
#
# 1 155.7734 76.8361 33.5933 0.0000 -8.1474 0.0000
# 2 76.8361 88.4126 23.0311 0.0000 -7.5290 0.0000
# 3 33.5933 23.0311 48.1974 0.0000 -0.0020 0.0000
# 4 0.0000 0.0000 0.0000 9.9850 0.0000 -0.7873
# 5 -8.1474 -7.5290 -0.0020 0.0000 9.6638 0.0000
# 6 0.0000 0.0000 0.0000 -0.7873 0.0000 33.7146
#
#
#
# Elastic Compliance Matrix: (Units=1/GPa)
#
#
# Indices 1 2 3 4 5 6 
#
# 1 0.011895 -0.009051 -0.003966 0.000000 0.002976 0.000000
# 2 -0.009051 0.020865 -0.003661 0.000000 0.008624 0.000000
# 3 -0.003966 -0.003661 0.025261 0.000000 -0.006191 0.000000
# 4 0.000000 0.000000 0.000000 0.100335 0.000000 0.002343
# 5 0.002976 0.008624 -0.006191 0.000000 0.112706 0.000000
# 6 0.000000 0.000000 0.000000 0.002343 0.000000 0.029715
#
#
# Mechanical properties :
#
#
# Convention : Reuss Voigt Hill
#
# Bulk Modulus (GPa) = 40.54310 62.14493 51.34401
# Shear Modulus (GPa) = 14.60475 21.26753 17.93614
#
# Velocity S-wave (km/s) = 2.94521 3.55409 3.26388
# Velocity P-wave (km/s) = 5.97040 7.33159 6.68573
#
# Compressibility (1/GPa) = 0.02466511
#
# Stress axis : x y z
#
# Youngs Moduli (GPa) = 84.07004 47.92809 39.58623
#
# Poissons Ratio (x) = 0.43379 0.15698
# Poissons Ratio (y) = 0.76091 0.14494
# Poissons Ratio (z) = 0.33338 0.17548
#
# Static dielectric constant tensor:
#      x y z
#    x 3.871430 0.000000 -0.080350 
#    y 0.000000 3.213110 0.000000 
#    z -0.080350 0.000000 2.536900 
# 
# 
# High freq. dielectric constant tensor:
#      x y z
#    x 1.675420 0.000000 -0.005260 
#    y 0.000000 1.659100 0.000000 
#    z -0.005260 0.000000 1.564570 
# 
# From -- ./inp_files/79258.got.cif
#   From: 2010.06.25/outbox.cif.g09.slc.cpg/sg10_40_cif.got.tgz:79258.got - 2010.06.27 22:07:45.
