data_PCOD8059077
_publ_section_title
;
Structure prediction by ZEFSAII (Michael W. Deem and Ramdas Pophale) SiO2 
 PCOD8059077
Probable space group: P 2/M
;
_chemical_formula_sum "Si O2"
_cell_formula_units_Z 24
_cell_length_a 10.188960
_cell_length_b 7.764433
_cell_length_c 22.589380
_cell_angle_alpha 90.000000
_cell_angle_beta 135.696003
_cell_angle_gamma 90.000000
_cell_volume 1248.212982
_symmetry_space_group_name_H-M "P 2/M"
_symmetry_group_IT_number 10
_symmetry_cell_setting 'monoclinic'
loop_
_space_group_symop_operation_xyz
x,y,z
-x,y,-z
-x,-y,-z
x,-y,z
loop_
_atom_site_type_symbol
_atom_site_label
_atom_site_fract_x
_atom_site_fract_y
_atom_site_fract_z
Si Si1 0.925004 0.293341 0.795948
Si Si2 0.500028 0.696563 0.662029
Si Si3 0.666557 0.703805 0.510274
Si Si4 0.041483 0.000000 0.916518
Si Si5 0.989273 0.303604 0.307236
Si Si6 0.695799 0.000000 0.893536
Si Si7 0.634549 0.189318 0.258481
O O1 0.952599 0.500000 0.816819
O O2 0.709983 0.228063 0.734212
O O3 0.995067 0.230802 0.754012
O O4 0.044505 0.177433 0.880039
O O5 0.528143 0.500000 0.653651
O O6 0.380252 0.783025 0.569882
O O7 0.388536 0.712361 0.687233
O O8 0.500000 0.757756 0.500000
O O9 0.687601 0.500000 0.511674
O O10 0.860805 0.783764 0.599132
O O11 0.865232 0.000000 0.902839
O O12 0.233364 0.000000 0.016347
O O13 0.049630 0.500000 0.321078
O O14 0.777992 0.289008 0.262769
O O15 0.566591 0.170255 0.839993
O O16 0.717708 0.000000 0.299301
#
# Coordination Sequence:
#
# PCOD8059077 Si02
#       7
#     4   4   4   2   4   2   4
#     4  10  20  35  61  91 114 149 193 237 289 342
#     4  10  18  33  57  82 112 150 191 239 281 329
#     4   9  16  30  53  81 113 148 193 239 279 325
#     4  11  20  41  67  86 116 143 192 247 292 348
#     4  10  20  35  56  84 116 151 191 235 281 339
#     4   9  22  39  61  84 109 152 184 233 301 349
#     4  10  21  38  54  77 112 150 191 220 292 352
#
# _framework density 19.227488000000001
#
# number of rings (size 3 to 8) (size 9 to 14) (size 15 to 20)
#    0.500    1.667    3.333    0.500    1.167    0.667 
#    0.000    9.167    0.000    4.000    0.000    0.000 
#    0.000    0.000    0.000    0.000    0.000    0.000 
#
# Total GULP energy -297397.093163 kJ/mol
# GULP energy per Si atom -12391.545548 kJ/mol
# Density = 1.918373 g / cm^3
# Si number density = 19.227488 Si / 1000 Ang^3
#
#
#
# Elastic Constant Matrix: (Units=GPa)
#
#
# Indices 1 2 3 4 5 6 
#
# 1 123.0110 6.1581 54.8299 0.0000 -13.3930 0.0000
# 2 6.1581 44.9396 32.6366 0.0000 -8.9658 0.0000
# 3 54.8299 32.6366 158.8653 0.0000 -18.8623 0.0000
# 4 0.0000 0.0000 0.0000 36.1698 0.0000 -25.0641
# 5 -13.3930 -8.9658 -18.8623 0.0000 28.4266 0.0000
# 6 0.0000 0.0000 0.0000 -25.0641 0.0000 55.1289
#
#
#
# Elastic Compliance Matrix: (Units=1/GPa)
#
#
# Indices 1 2 3 4 5 6 
#
# 1 0.009885 0.001710 -0.003415 0.000000 0.002931 0.000000
# 2 0.001710 0.027145 -0.005487 0.000000 0.005727 0.000000
# 3 -0.003415 -0.005487 0.008906 0.000000 0.002570 0.000000
# 4 0.000000 0.000000 0.000000 0.040364 0.000000 0.018351
# 5 0.002931 0.005727 0.002570 0.000000 0.040070 0.000000
# 6 0.000000 0.000000 0.000000 0.018351 0.000000 0.026483
#
#
# Mechanical properties :
#
#
# Convention : Reuss Voigt Hill
#
# Bulk Modulus (GPa) = 31.69349 57.11834 44.40592
# Shear Modulus (GPa) = 28.12884 39.49114 33.80999
#
# Velocity S-wave (km/s) = 3.82900 4.53690 4.19790
# Velocity P-wave (km/s) = 6.00563 7.56411 6.82947
#
# Compressibility (1/GPa) = 0.03155222
#
# Stress axis : x y z
#
# Youngs Moduli (GPa) = 101.16334 36.83920 112.28889
#
# Poissons Ratio (x) = -0.06300 0.38347
# Poissons Ratio (y) = -0.17301 0.61612
# Poissons Ratio (z) = 0.34548 0.20213
#
# Static dielectric constant tensor:
#      x y z
#    x 3.307340 0.000000 -0.094320 
#    y 0.000000 3.188680 0.000000 
#    z -0.094320 0.000000 3.703900 
# 
# 
# High freq. dielectric constant tensor:
#      x y z
#    x 1.745720 0.000000 -0.009910 
#    y 0.000000 1.722940 0.000000 
#    z -0.009910 0.000000 1.742410 
# 
# From -- ./inp_files/82075.got.cif
#   From: 2010.06.25/outbox.cif.g09.slc.cpg/sg10_42_cif.got.tgz:82075.got - 2010.06.27 22:07:45.
