data_PCOD8059446
_publ_section_title
;
Structure prediction by ZEFSAII (Michael W. Deem and Ramdas Pophale) SiO2 
 PCOD8059446
Probable space group: P 2/M
;
_chemical_formula_sum "Si O2"
_cell_formula_units_Z 32
_cell_length_a 15.488037
_cell_length_b 8.872259
_cell_length_c 14.478543
_cell_angle_alpha 90.000000
_cell_angle_beta 91.248595
_cell_angle_gamma 90.000000
_cell_volume 1989.080312
_symmetry_space_group_name_H-M "P 2/M"
_symmetry_group_IT_number 10
_symmetry_cell_setting 'monoclinic'
loop_
_space_group_symop_operation_xyz
x,y,z
-x,y,-z
-x,-y,-z
x,-y,z
loop_
_atom_site_type_symbol
_atom_site_label
_atom_site_fract_x
_atom_site_fract_y
_atom_site_fract_z
Si Si1 0.988178 0.665889 0.390926
Si Si2 0.596187 0.177951 0.100527
Si Si3 0.177674 0.678446 0.389972
Si Si4 0.668278 0.821035 0.711586
Si Si5 0.491750 0.324469 0.392164
Si Si6 0.651632 0.823684 0.296788
Si Si7 0.179869 0.174921 0.586560
Si Si8 0.402308 0.821050 0.099628
O O1 0.965755 0.500000 0.350652
O O2 0.909957 0.778583 0.365646
O O3 0.000000 0.654299 0.500000
O O4 0.080609 0.723342 0.354179
O O5 0.655482 0.225371 0.188648
O O6 0.499640 0.240994 0.115258
O O7 0.589989 0.000000 0.093191
O O8 0.632775 0.236428 0.001803
O O9 0.189677 0.500000 0.391402
O O10 0.241952 0.752383 0.319200
O O11 0.197595 0.735336 0.493366
O O12 0.589881 0.767341 0.646266
O O13 0.655341 0.761864 0.816599
O O14 0.673082 0.000000 0.705121
O O15 0.500000 0.289974 0.500000
O O16 0.476788 0.500000 0.371917
O O17 0.579214 0.271756 0.346078
O O18 0.744429 0.785389 0.340664
O O19 0.628440 0.000000 0.306438
O O20 0.176404 0.000000 0.561681
O O21 0.402786 0.000000 0.103938
#
# Coordination Sequence:
#
# PCOD8059446 Si02
#       8
#     4   4   4   4   4   4   4   4
#     4   8  16  31  48  64  87 121 155 186 225 271
#     4   8  13  26  46  67  89 114 147 185 226 272
#     4  10  20  33  47  65  92 126 157 185 223 272
#     4  11  20  31  48  70  91 116 152 193 231 266
#     4  11  23  34  43  59  89 129 162 184 214 263
#     4  10  19  31  47  68  92 119 151 188 226 266
#     4  10  19  29  46  72  96 119 150 191 231 263
#     4   8  14  25  46  69  87 113 148 186 228 271
#
# _framework density 16.087837
#
# number of rings (size 3 to 8) (size 9 to 14) (size 15 to 20)
#    0.000    2.500    1.250    3.750    0.000    6.750 
#    0.000    0.000    0.000    2.250    0.000    0.875 
#    0.000    7.000    0.000    0.000    0.000    0.000 
#
# Total GULP energy -396590.794533 kJ/mol
# GULP energy per Si atom -12393.462329 kJ/mol
# Density = 1.605122 g / cm^3
# Si number density = 16.087837 Si / 1000 Ang^3
#
#
#
# Elastic Constant Matrix: (Units=GPa)
#
#
# Indices 1 2 3 4 5 6 
#
# 1 112.2274 36.0757 61.0236 0.0000 -19.5796 0.0000
# 2 36.0757 50.1198 33.4649 0.0000 -10.7549 0.0000
# 3 61.0236 33.4649 118.6578 0.0000 -15.1054 0.0000
# 4 0.0000 0.0000 0.0000 3.0276 0.0000 -2.7279
# 5 -19.5796 -10.7549 -15.1054 0.0000 12.0360 0.0000
# 6 0.0000 0.0000 0.0000 -2.7279 0.0000 24.4390
#
#
#
# Elastic Compliance Matrix: (Units=1/GPa)
#
#
# Indices 1 2 3 4 5 6 
#
# 1 0.015732 -0.004860 -0.004778 0.000000 0.015252 0.000000
# 2 -0.004860 0.028891 -0.004009 0.000000 0.012878 0.000000
# 3 -0.004778 -0.004009 0.012580 0.000000 0.004433 0.000000
# 4 0.000000 0.000000 0.000000 0.367231 0.000000 0.040990
# 5 0.015252 0.012878 0.004433 0.000000 0.124966 0.000000
# 6 0.000000 0.000000 0.000000 0.040990 0.000000 0.045494
#
#
# Mechanical properties :
#
#
# Convention : Reuss Voigt Hill
#
# Bulk Modulus (GPa) = 33.43664 60.23702 46.83683
# Shear Modulus (GPa) = 7.90942 17.92989 12.91966
#
# Velocity S-wave (km/s) = 2.21970 3.34203 2.83692
# Velocity P-wave (km/s) = 5.23434 7.23990 6.31722
#
# Compressibility (1/GPa) = 0.02990731
#
# Stress axis : x y z
#
# Youngs Moduli (GPa) = 63.56474 34.61300 79.49167
#
# Poissons Ratio (x) = 0.16823 0.37983
# Poissons Ratio (y) = 0.30895 0.31869
# Poissons Ratio (z) = 0.30373 0.13877
#
# Static dielectric constant tensor:
#      x y z
#    x 3.264510 0.000000 -0.080610 
#    y 0.000000 2.940870 0.000000 
#    z -0.080610 0.000000 3.288480 
# 
# 
# High freq. dielectric constant tensor:
#      x y z
#    x 1.607830 0.000000 -0.004430 
#    y 0.000000 1.606910 0.000000 
#    z -0.004430 0.000000 1.605030 
# 
# From -- ./inp_files/66159.got.cif
#   From: 2010.06.25/outbox.cif.g09.slc.cpg/sg10_34_cif.got.tgz:66159.got - 2010.06.27 22:07:45.
