data_PCOD8059337
_publ_section_title
;
Structure prediction by ZEFSAII (Michael W. Deem and Ramdas Pophale) SiO2 
 PCOD8059337
Probable space group: P 2/M
;
_chemical_formula_sum "Si O2"
_cell_formula_units_Z 24
_cell_length_a 16.264206
_cell_length_b 14.030246
_cell_length_c 17.775228
_cell_angle_alpha 90.000000
_cell_angle_beta 156.206319
_cell_angle_gamma 90.000000
_cell_volume 1636.428401
_symmetry_space_group_name_H-M "P 2/M"
_symmetry_group_IT_number 10
_symmetry_cell_setting 'monoclinic'
loop_
_space_group_symop_operation_xyz
x,y,z
-x,y,-z
-x,-y,-z
x,-y,z
loop_
_atom_site_type_symbol
_atom_site_label
_atom_site_fract_x
_atom_site_fract_y
_atom_site_fract_z
Si Si1 0.809976 0.261093 0.212757
Si Si2 0.096893 0.105177 0.500010
Si Si3 0.615511 0.738908 0.212735
Si Si4 0.815644 0.386895 0.499987
Si Si5 0.207215 0.613527 0.207217
Si Si6 0.369739 0.386873 0.499995
O O1 0.727079 0.276527 0.227081
O O2 0.939683 0.163330 0.315668
O O3 0.953208 0.350347 0.313483
O O4 0.627286 0.255652 0.000015
O O5 0.308375 0.163328 0.684358
O O6 0.000000 0.092976 0.500000
O O7 0.138331 0.000000 0.500011
O O8 0.673710 0.649655 0.313447
O O9 0.819093 0.500000 0.499993
O O10 0.722494 0.346593 0.499997
O O11 0.198169 0.500000 0.198157
O O12 0.397643 0.648937 0.316066
O O13 0.234426 0.648916 0.316022
O O14 0.000000 0.658016 0.000000
O O15 0.367393 0.500000 0.500025
#
# Coordination Sequence:
#
# PCOD8059337 Si02
#       6
#     4   4   4   4   4   4
#     4   9  18  30  41  56  79 105 135 171 206 236
#     4   8  14  26  44  62  77  95 122 159 205 253
#     4   9  18  30  41  56  79 105 135 171 206 236
#     4  10  19  29  40  54  76 108 145 177 198 222
#     4   8  13  23  38  53  71  92 115 153 202 242
#     4   8  15  25  36  53  72  93 127 164 196 232
#
# _framework density 14.666086
#
# number of rings (size 3 to 8) (size 9 to 14) (size 15 to 20)
#    0.000    3.333    0.000    2.500    0.000    4.000 
#    0.000    8.333    0.000    0.000    0.000    0.000 
#    0.000    0.000    0.000   48.000    0.000  109.333 
#
# Total GULP energy -297448.096342 kJ/mol
# GULP energy per Si atom -12393.670681 kJ/mol
# Density = 1.463271 g / cm^3
# Si number density = 14.666086 Si / 1000 Ang^3
#
#
#
# Elastic Constant Matrix: (Units=GPa)
#
#
# Indices 1 2 3 4 5 6 
#
# 1 61.4953 27.2677 48.1228 0.0000 1.0891 0.0000
# 2 27.2677 75.5532 43.6593 0.0000 2.3782 0.0000
# 3 48.1228 43.6593 155.3913 0.0000 12.5357 0.0000
# 4 0.0000 0.0000 0.0000 9.8715 0.0000 1.2852
# 5 1.0891 2.3782 12.5357 0.0000 12.1235 0.0000
# 6 0.0000 0.0000 0.0000 1.2852 0.0000 1.0237
#
#
#
# Elastic Compliance Matrix: (Units=1/GPa)
#
#
# Indices 1 2 3 4 5 6 
#
# 1 0.023244 -0.004953 -0.006237 0.000000 0.005332 0.000000
# 2 -0.004953 0.016886 -0.003250 0.000000 0.000493 0.000000
# 3 -0.006237 -0.003250 0.010019 0.000000 -0.009162 0.000000
# 4 0.000000 0.000000 0.000000 0.121095 0.000000 -0.152028
# 5 0.005332 0.000493 -0.009162 0.000000 0.091382 0.000000
# 6 0.000000 0.000000 0.000000 -0.152028 0.000000 1.167705
#
#
# Mechanical properties :
#
#
# Convention : Reuss Voigt Hill
#
# Bulk Modulus (GPa) = 47.01683 58.94882 52.98283
# Shear Modulus (GPa) = 3.40994 16.16308 9.78651
#
# Velocity S-wave (km/s) = 1.52647 3.32335 2.58600
# Velocity P-wave (km/s) = 5.93587 7.41670 6.71722
#
# Compressibility (1/GPa) = 0.02126898
#
# Stress axis : x y z
#
# Youngs Moduli (GPa) = 43.02244 59.22122 99.80801
#
# Poissons Ratio (x) = 0.29330 0.62250
# Poissons Ratio (y) = 0.21307 0.32441
# Poissons Ratio (z) = 0.26833 0.19249
#
# Static dielectric constant tensor:
#      x y z
#    x 2.865800 0.000000 0.037640 
#    y 0.000000 2.655890 0.000000 
#    z 0.037640 0.000000 3.124660 
# 
# 
# High freq. dielectric constant tensor:
#      x y z
#    x 1.540970 0.000000 0.004550 
#    y 0.000000 1.519360 0.000000 
#    z 0.004550 0.000000 1.572300 
# 
# From -- ./inp_files/67512.got.cif
#   From: 2010.06.25/outbox.cif.g09.slc.cpg/sg10_34_cif.got.tgz:67512.got - 2010.06.27 22:07:45.
