data_PCOD8059652
_publ_section_title
;
Structure prediction by ZEFSAII (Michael W. Deem and Ramdas Pophale) SiO2 
 PCOD8059652
Probable space group: P 2/M
;
_chemical_formula_sum "Si O2"
_cell_formula_units_Z 28
_cell_length_a 26.947117
_cell_length_b 9.142380
_cell_length_c 9.534978
_cell_angle_alpha 90.000000
_cell_angle_beta 39.458389
_cell_angle_gamma 90.000000
_cell_volume 1492.859362
_symmetry_space_group_name_H-M "P 2/M"
_symmetry_group_IT_number 10
_symmetry_cell_setting 'monoclinic'
loop_
_space_group_symop_operation_xyz
x,y,z
-x,y,-z
-x,-y,-z
x,-y,z
loop_
_atom_site_type_symbol
_atom_site_label
_atom_site_fract_x
_atom_site_fract_y
_atom_site_fract_z
Si Si1 0.718872 0.667451 0.702648
Si Si2 0.029084 0.165241 0.084140
Si Si3 0.312463 0.170818 0.657217
Si Si4 0.758551 0.171253 0.898601
Si Si5 0.069677 0.165323 0.438131
Si Si6 0.181473 0.331304 0.775814
Si Si7 0.587087 0.672149 0.772771
O O1 0.708663 0.500000 0.770561
O O2 0.725825 0.760245 0.827993
O O3 0.795249 0.688428 0.438484
O O4 0.643484 0.719636 0.777510
O O5 0.095017 0.274749 0.994379
O O6 0.062726 0.000000 0.998855
O O7 0.000000 0.224920 0.000000
O O8 0.954701 0.170051 0.347066
O O9 0.235827 0.234261 0.753680
O O10 0.388543 0.249048 0.425708
O O11 0.318106 0.000000 0.612568
O O12 0.304860 0.200588 0.840690
O O13 0.843808 0.238044 0.758383
O O14 0.770153 0.000000 0.844856
O O15 0.000000 0.244054 0.500000
O O16 0.076854 0.000000 0.363306
O O17 0.189167 0.500000 0.803967
O O18 0.594019 0.500000 0.730728
O O19 0.500000 0.721521 0.000000
#
# Coordination Sequence:
#
# PCOD8059652 Si02
#       7
#     4   4   4   4   4   4   4
#     4   9  19  34  53  77 103 135 173 212 256 308
#     4  10  19  30  47  70  95 129 175 224 271 314
#     4  10  20  34  55  81 105 133 172 213 256 308
#     4  10  20  34  53  77 105 138 175 217 265 314
#     4   9  17  30  47  67  95 132 173 216 260 305
#     4  10  20  34  51  72 101 138 179 220 264 315
#     4   9  19  38  61  83 108 138 172 208 251 309
#
# _framework density 18.755952000000001
#
# number of rings (size 3 to 8) (size 9 to 14) (size 15 to 20)
#    0.000    2.429    0.000    3.429    0.000    8.000 
#    0.000    1.429    0.000    6.000    0.000    0.000 
#    0.000    0.000    0.000    0.000    0.000    0.000 
#
# Total GULP energy -347112.793496 kJ/mol
# GULP energy per Si atom -12396.885482 kJ/mol
# Density = 1.871326 g / cm^3
# Si number density = 18.755952 Si / 1000 Ang^3
#
#
#
# Elastic Constant Matrix: (Units=GPa)
#
#
# Indices 1 2 3 4 5 6 
#
# 1 66.1102 23.9171 39.7263 0.0000 3.8837 0.0000
# 2 23.9171 50.0876 40.3307 0.0000 4.4384 0.0000
# 3 39.7263 40.3307 108.7541 0.0000 -5.8562 0.0000
# 4 0.0000 0.0000 0.0000 14.6457 0.0000 2.4733
# 5 3.8837 4.4384 -5.8562 0.0000 34.5201 0.0000
# 6 0.0000 0.0000 0.0000 2.4733 0.0000 26.2657
#
#
#
# Elastic Compliance Matrix: (Units=1/GPa)
#
#
# Indices 1 2 3 4 5 6 
#
# 1 0.020560 -0.004871 -0.005848 0.000000 -0.002679 0.000000
# 2 -0.004871 0.030693 -0.009876 0.000000 -0.005074 0.000000
# 3 -0.005848 -0.009876 0.015237 0.000000 0.004513 0.000000
# 4 0.000000 0.000000 0.000000 0.069383 0.000000 -0.006534
# 5 -0.002679 -0.005074 0.004513 0.000000 0.030688 0.000000
# 6 0.000000 0.000000 0.000000 -0.006534 0.000000 0.038688
#
#
# Mechanical properties :
#
#
# Convention : Reuss Voigt Hill
#
# Bulk Modulus (GPa) = 39.52737 48.09999 43.81368
# Shear Modulus (GPa) = 19.61770 23.15149 21.38460
#
# Velocity S-wave (km/s) = 3.23762 3.51715 3.38027
# Velocity P-wave (km/s) = 5.92423 6.49574 6.21656
#
# Compressibility (1/GPa) = 0.02529893
#
# Stress axis : x y z
#
# Youngs Moduli (GPa) = 48.63783 32.58089 65.63087
#
# Poissons Ratio (x) = 0.15871 0.38382
# Poissons Ratio (y) = 0.23693 0.64817
# Poissons Ratio (z) = 0.28444 0.32177
#
# Static dielectric constant tensor:
#      x y z
#    x 3.346890 0.000000 0.006150 
#    y 0.000000 3.273000 0.000000 
#    z 0.006150 0.000000 3.581180 
# 
# 
# High freq. dielectric constant tensor:
#      x y z
#    x 1.715730 0.000000 0.008240 
#    y 0.000000 1.708030 0.000000 
#    z 0.008240 0.000000 1.733060 
# 
# From -- ./inp_files/37024.got.cif
#   From: 2010.06.25/outbox.cif.g09.slc.cpg/sg10_19_cif.got.tgz:37024.got - 2010.06.27 22:07:45.
