data_PCOD8059481
_publ_section_title
;
Structure prediction by ZEFSAII (Michael W. Deem and Ramdas Pophale) SiO2 
 PCOD8059481
Probable space group: P 2/M
;
_chemical_formula_sum "Si O2"
_cell_formula_units_Z 32
_cell_length_a 21.408908
_cell_length_b 13.082801
_cell_length_c 20.188643
_cell_angle_alpha 90.000000
_cell_angle_beta 159.270207
_cell_angle_gamma 90.000000
_cell_volume 2001.511341
_symmetry_space_group_name_H-M "P 2/M"
_symmetry_group_IT_number 10
_symmetry_cell_setting 'monoclinic'
loop_
_space_group_symop_operation_xyz
x,y,z
-x,y,-z
-x,-y,-z
x,-y,z
loop_
_atom_site_type_symbol
_atom_site_label
_atom_site_fract_x
_atom_site_fract_y
_atom_site_fract_z
Si Si1 0.156446 0.881582 0.571590
Si Si2 0.292142 0.614765 0.294510
Si Si3 0.795014 0.380194 0.932874
Si Si4 0.488491 0.377692 0.725509
Si Si5 0.186101 0.619713 0.328776
Si Si6 0.444802 0.248414 0.811784
Si Si7 0.304304 0.389199 0.779999
Si Si8 0.793199 0.791448 0.238393
O O1 0.305559 0.845391 0.666226
O O2 0.228289 0.863248 0.717874
O O3 0.970014 0.822667 0.374458
O O4 0.119825 0.000000 0.523733
O O5 0.500000 0.613945 0.500000
O O6 0.214547 0.500000 0.218085
O O7 0.224866 0.670185 0.160319
O O8 0.226259 0.670825 0.296530
O O9 0.762365 0.500000 0.891429
O O10 0.651818 0.340750 0.842691
O O11 0.986979 0.354592 0.152711
O O12 0.492645 0.500000 0.746412
O O13 0.312946 0.342000 0.512821
O O14 0.503666 0.306757 0.804521
O O15 0.222472 0.500000 0.356840
O O16 0.323319 0.328811 0.730746
O O17 0.618591 0.202761 0.019951
O O18 0.214800 0.500000 0.680186
O O19 0.187046 0.325693 0.716451
O O20 0.500000 0.403913 0.000000
#
# Coordination Sequence:
#
# PCOD8059481 Si02
#       8
#     4   4   4   4   4   4   4   4
#     4  10  20  35  54  73  90 106 135 185 239 283
#     4   9  13  21  37  56  78 106 149 204 240 254
#     4   9  16  25  38  55  78 115 158 196 231 255
#     4  10  19  30  41  58  89 127 161 187 212 253
#     4   9  16  25  38  56  80 114 157 197 227 256
#     4  10  20  31  46  67  91 119 149 179 217 268
#     4   8  14  27  45  64  88 118 148 178 211 247
#     4   9  18  32  50  72  92 111 141 181 224 269
#
# _framework density 15.987918000000001
#
# number of rings (size 3 to 8) (size 9 to 14) (size 15 to 20)
#    0.000    2.750    1.250    2.625    0.000    4.500 
#    0.000    5.625    0.000    0.000    0.000    0.000 
#    0.000    0.000    0.000    2.250    0.000   11.000 
#
# Total GULP energy -396421.400981 kJ/mol
# GULP energy per Si atom -12388.168781 kJ/mol
# Density = 1.595153 g / cm^3
# Si number density = 15.987918 Si / 1000 Ang^3
#
#
#
# Elastic Constant Matrix: (Units=GPa)
#
#
# Indices 1 2 3 4 5 6 
#
# 1 65.2819 19.9676 40.1858 0.0000 0.2909 0.0000
# 2 19.9676 64.2832 31.2688 0.0000 5.0840 0.0000
# 3 40.1858 31.2688 102.9798 0.0000 9.0727 0.0000
# 4 0.0000 0.0000 0.0000 14.2391 0.0000 2.0717
# 5 0.2909 5.0840 9.0727 0.0000 14.2187 0.0000
# 6 0.0000 0.0000 0.0000 2.0717 0.0000 9.7137
#
#
#
# Elastic Compliance Matrix: (Units=1/GPa)
#
#
# Indices 1 2 3 4 5 6 
#
# 1 0.021036 -0.003222 -0.007729 0.000000 0.005653 0.000000
# 2 -0.003222 0.018881 -0.004118 0.000000 -0.004057 0.000000
# 3 -0.007729 -0.004118 0.014657 0.000000 -0.007722 0.000000
# 4 0.000000 0.000000 0.000000 0.072478 0.000000 -0.015458
# 5 0.005653 -0.004057 -0.007722 0.000000 0.076592 0.000000
# 6 0.000000 0.000000 0.000000 -0.015458 0.000000 0.106245
#
#
# Mechanical properties :
#
#
# Convention : Reuss Voigt Hill
#
# Bulk Modulus (GPa) = 40.92193 46.15437 43.53815
# Shear Modulus (GPa) = 14.36070 17.04248 15.70159
#
# Velocity S-wave (km/s) = 3.00029 3.26845 3.13723
# Velocity P-wave (km/s) = 6.13624 6.57074 6.35720
#
# Compressibility (1/GPa) = 0.02443678
#
# Stress axis : x y z
#
# Youngs Moduli (GPa) = 47.53758 52.96308 68.22504
#
# Poissons Ratio (x) = 0.17064 0.52729
# Poissons Ratio (y) = 0.15316 0.28097
# Poissons Ratio (z) = 0.36740 0.21812
#
# Static dielectric constant tensor:
#      x y z
#    x 3.065180 0.000000 0.026820 
#    y 0.000000 2.742150 0.000000 
#    z 0.026820 0.000000 3.115620 
# 
# 
# High freq. dielectric constant tensor:
#      x y z
#    x 1.600960 0.000000 0.010980 
#    y 0.000000 1.547800 0.000000 
#    z 0.010980 0.000000 1.627640 
# 
# From -- ./inp_files/86355.got.cif
#   From: 2010.06.25/outbox.cif.g09.slc.cpg/sg10_44_cif.got.tgz:86355.got - 2010.06.27 22:07:45.
