data_PCOD8059202
_publ_section_title
;
Structure prediction by ZEFSAII (Michael W. Deem and Ramdas Pophale) SiO2 
 PCOD8059202
Probable space group: P 2/M
;
_chemical_formula_sum "Si O2"
_cell_formula_units_Z 24
_cell_length_a 12.070807
_cell_length_b 8.923382
_cell_length_c 11.496400
_cell_angle_alpha 90.000000
_cell_angle_beta 109.417304
_cell_angle_gamma 90.000000
_cell_volume 1167.873140
_symmetry_space_group_name_H-M "P 2/M"
_symmetry_group_IT_number 10
_symmetry_cell_setting 'monoclinic'
loop_
_space_group_symop_operation_xyz
x,y,z
-x,y,-z
-x,-y,-z
x,-y,z
loop_
_atom_site_type_symbol
_atom_site_label
_atom_site_fract_x
_atom_site_fract_y
_atom_site_fract_z
Si Si1 0.187241 0.677130 0.303542
Si Si2 0.040108 0.676752 0.641325
Si Si3 0.471232 0.828545 0.793921
Si Si4 0.760602 0.828037 0.154070
Si Si5 0.387486 0.669113 0.541372
Si Si6 0.717100 0.677503 0.906611
O O1 0.202228 0.500000 0.306100
O O2 0.057031 0.724753 0.296966
O O3 0.279672 0.738224 0.430471
O O4 0.217274 0.739803 0.185838
O O5 0.060513 0.500000 0.647358
O O6 0.000000 0.732030 0.500000
O O7 0.161928 0.754394 0.717255
O O8 0.377160 0.811355 0.864576
O O9 0.406955 0.780717 0.653897
O O10 0.581148 0.723132 0.857529
O O11 0.514283 0.000000 0.798875
O O12 0.797291 0.000000 0.155155
O O13 0.784370 0.746869 0.040020
O O14 0.500000 0.664465 0.500000
O O15 0.360015 0.500000 0.577121
O O16 0.725086 0.500000 0.918167
#
# Coordination Sequence:
#
# PCOD8059202 Si02
#       6
#     4   4   4   4   4   4
#     4   9  19  36  59  90 121 148 189 248 297 336
#     4  10  21  40  66  90 114 150 197 242 288 350
#     4  11  23  38  57  85 123 159 194 242 296 350
#     4  11  25  42  58  83 121 159 197 243 294 347
#     4  10  18  34  60  88 118 151 192 240 289 344
#     4  11  22  39  62  87 117 154 198 245 295 350
#
# _framework density 20.550177000000001
#
# number of rings (size 3 to 8) (size 9 to 14) (size 15 to 20)
#    0.000    1.667    1.667    3.000    0.000    7.333 
#    0.000    5.833    0.000    0.000    0.000    0.000 
#    0.000    0.000    0.000    0.000    0.000    0.000 
#
# Total GULP energy -297680.443160 kJ/mol
# GULP energy per Si atom -12403.351798 kJ/mol
# Density = 2.050340 g / cm^3
# Si number density = 20.550177 Si / 1000 Ang^3
#
#
#
# Elastic Constant Matrix: (Units=GPa)
#
#
# Indices 1 2 3 4 5 6 
#
# 1 82.4467 26.4188 27.6336 0.0000 -0.5376 0.0000
# 2 26.4188 65.2511 37.6879 0.0000 -4.5631 0.0000
# 3 27.6336 37.6879 126.2430 0.0000 -6.4389 0.0000
# 4 0.0000 0.0000 0.0000 46.3663 0.0000 15.2051
# 5 -0.5376 -4.5631 -6.4389 0.0000 30.4579 0.0000
# 6 0.0000 0.0000 0.0000 15.2051 0.0000 26.7288
#
#
#
# Elastic Compliance Matrix: (Units=1/GPa)
#
#
# Indices 1 2 3 4 5 6 
#
# 1 0.014249 -0.004835 -0.001718 0.000000 -0.000836 0.000000
# 2 -0.004835 0.020239 -0.004886 0.000000 0.001914 0.000000
# 3 -0.001718 -0.004886 0.009823 0.000000 0.001314 0.000000
# 4 0.000000 0.000000 0.000000 0.026514 0.000000 -0.015083
# 5 -0.000836 0.001914 0.001314 0.000000 0.033382 0.000000
# 6 0.000000 0.000000 0.000000 -0.015083 0.000000 0.045993
#
#
# Mechanical properties :
#
#
# Convention : Reuss Voigt Hill
#
# Bulk Modulus (GPa) = 46.65891 50.82460 48.74176
# Shear Modulus (GPa) = 27.74356 32.85730 30.30043
#
# Velocity S-wave (km/s) = 3.67828 4.00294 3.84404
# Velocity P-wave (km/s) = 6.38700 6.79340 6.59333
#
# Compressibility (1/GPa) = 0.02143214
#
# Stress axis : x y z
#
# Youngs Moduli (GPa) = 70.18129 49.40960 101.80191
#
# Poissons Ratio (x) = 0.23890 0.17491
# Poissons Ratio (y) = 0.33934 0.49741
# Poissons Ratio (z) = 0.12058 0.24142
#
# Static dielectric constant tensor:
#      x y z
#    x 3.772470 0.000000 -0.144660 
#    y 0.000000 3.496080 0.000000 
#    z -0.144660 0.000000 3.915640 
# 
# 
# High freq. dielectric constant tensor:
#      x y z
#    x 1.805690 0.000000 -0.003720 
#    y 0.000000 1.780850 0.000000 
#    z -0.003720 0.000000 1.815920 
# 
# From -- ./inp_files/45014.got.cif
#   From: 2010.06.25/outbox.cif.g09.slc.cpg/sg10_23_cif.got.tgz:45014.got - 2010.06.27 22:07:45.
