data_PCOD8059724
_publ_section_title
;
Structure prediction by ZEFSAII (Michael W. Deem and Ramdas Pophale) SiO2 
 PCOD8059724
Probable space group: P 2/M
;
_chemical_formula_sum "Si O2"
_cell_formula_units_Z 20
_cell_length_a 21.271569
_cell_length_b 9.053264
_cell_length_c 14.099184
_cell_angle_alpha 90.000000
_cell_angle_beta 24.572024
_cell_angle_gamma 90.000000
_cell_volume 1129.071888
_symmetry_space_group_name_H-M "P 2/M"
_symmetry_group_IT_number 10
_symmetry_cell_setting 'monoclinic'
loop_
_space_group_symop_operation_xyz
x,y,z
-x,y,-z
-x,-y,-z
x,-y,z
loop_
_atom_site_type_symbol
_atom_site_label
_atom_site_fract_x
_atom_site_fract_y
_atom_site_fract_z
Si Si1 0.906142 0.829652 0.035348
Si Si2 0.442423 0.172097 0.476292
Si Si3 0.025329 0.673047 0.248372
Si Si4 0.314763 0.326693 0.975407
Si Si5 0.851744 0.166851 0.639668
O O1 0.732985 0.789446 0.293253
O O2 0.921191 0.000000 0.983569
O O3 0.973262 0.728900 0.860730
O O4 0.000000 0.793829 0.000000
O O5 0.500000 0.223774 0.500000
O O6 0.527548 0.264670 0.279186
O O7 0.477238 0.000000 0.412425
O O8 0.994601 0.500000 0.293149
O O9 0.887026 0.751731 0.492470
O O10 0.184557 0.713985 0.078561
O O11 0.327246 0.500000 0.974801
O O12 0.281422 0.251642 0.122495
O O13 0.000000 0.170684 0.500000
O O14 0.799516 0.000000 0.690217
#
# Coordination Sequence:
#
# PCOD8059724 Si02
#       5
#     4   4   4   4   4
#     4  10  21  36  53  74 102 137 175 212 252 301
#     4  10  19  32  52  75 101 134 172 212 253 300
#     4  10  19  31  49  74 105 136 169 210 255 303
#     4  10  19  30  48  76 107 134 166 210 258 303
#     4   9  17  29  48  73 102 135 170 208 253 303
#
# _framework density 17.713664999999999
#
# number of rings (size 3 to 8) (size 9 to 14) (size 15 to 20)
#    0.000    2.200    2.000    1.800    0.000    5.600 
#    0.000    0.000    0.000    1.200    0.000    8.400 
#    0.000    0.000    0.000    0.000    0.000    0.000 
#
# Total GULP energy -248075.267999 kJ/mol
# GULP energy per Si atom -12403.763400 kJ/mol
# Density = 1.767335 g / cm^3
# Si number density = 17.713665 Si / 1000 Ang^3
#
#
#
# Elastic Constant Matrix: (Units=GPa)
#
#
# Indices 1 2 3 4 5 6 
#
# 1 74.0274 44.1841 59.7602 0.0000 6.6218 0.0000
# 2 44.1841 99.9139 66.6656 0.0000 21.4953 0.0000
# 3 59.7602 66.6656 134.2731 0.0000 26.7380 0.0000
# 4 0.0000 0.0000 0.0000 26.2667 0.0000 9.3087
# 5 6.6218 21.4953 26.7380 0.0000 30.1219 0.0000
# 6 0.0000 0.0000 0.0000 9.3087 0.0000 18.9421
#
#
#
# Elastic Compliance Matrix: (Units=1/GPa)
#
#
# Indices 1 2 3 4 5 6 
#
# 1 0.023708 -0.006016 -0.008967 0.000000 0.007041 0.000000
# 2 -0.006016 0.017130 -0.004441 0.000000 -0.006959 0.000000
# 3 -0.008967 -0.004441 0.015329 0.000000 -0.008467 0.000000
# 4 0.000000 0.000000 0.000000 0.046100 0.000000 -0.022655
# 5 0.007041 -0.006959 -0.008467 0.000000 0.044132 0.000000
# 6 0.000000 0.000000 0.000000 -0.022655 0.000000 0.063926
#
#
# Mechanical properties :
#
#
# Convention : Reuss Voigt Hill
#
# Bulk Modulus (GPa) = 57.74142 72.15936 64.95039
# Shear Modulus (GPa) = 19.61201 24.23978 21.92590
#
# Velocity S-wave (km/s) = 3.33102 3.70323 3.52205
# Velocity P-wave (km/s) = 6.88928 7.68832 7.29974
#
# Compressibility (1/GPa) = 0.01731859
#
# Stress axis : x y z
#
# Youngs Moduli (GPa) = 42.17976 58.37830 65.23411
#
# Poissons Ratio (x) = 0.35121 0.58493
# Poissons Ratio (y) = 0.25376 0.28974
# Poissons Ratio (z) = 0.37821 0.25929
#
# Static dielectric constant tensor:
#      x y z
#    x 2.963290 0.000000 0.185530 
#    y 0.000000 3.295800 0.000000 
#    z 0.185530 0.000000 3.294810 
# 
# 
# High freq. dielectric constant tensor:
#      x y z
#    x 1.646720 0.000000 0.026210 
#    y 0.000000 1.692910 0.000000 
#    z 0.026210 0.000000 1.687960 
# 
# From -- ./inp_files/22153.got.cif
#   From: 2010.06.25/outbox.cif.g09.slc.cpg/sg10_12_cif.got.tgz:22153.got - 2010.06.27 22:07:45.
