data_PCOD8059168
_publ_section_title
;
Structure prediction by ZEFSAII (Michael W. Deem and Ramdas Pophale) SiO2 
 PCOD8059168
Probable space group: P 2/M
;
_chemical_formula_sum "Si O2"
_cell_formula_units_Z 24
_cell_length_a 14.843154
_cell_length_b 8.619862
_cell_length_c 15.168660
_cell_angle_alpha 90.000000
_cell_angle_beta 40.112275
_cell_angle_gamma 90.000000
_cell_volume 1250.412835
_symmetry_space_group_name_H-M "P 2/M"
_symmetry_group_IT_number 10
_symmetry_cell_setting 'monoclinic'
loop_
_space_group_symop_operation_xyz
x,y,z
-x,y,-z
-x,-y,-z
x,-y,z
loop_
_atom_site_type_symbol
_atom_site_label
_atom_site_fract_x
_atom_site_fract_y
_atom_site_fract_z
Si Si1 0.656867 0.315597 0.380838
Si Si2 0.145247 0.819322 0.115240
Si Si3 0.150809 0.315737 0.414397
Si Si4 0.851580 0.683782 0.388670
Si Si5 0.847859 0.318129 0.077144
Si Si6 0.661146 0.682718 0.886141
O O1 0.500000 0.247283 0.500000
O O2 0.653924 0.500000 0.389941
O O3 0.742585 0.245697 0.399672
O O4 0.732585 0.264965 0.234332
O O5 0.275109 0.771605 0.078664
O O6 0.008703 0.728065 0.247612
O O7 0.115539 0.000000 0.145929
O O8 0.184829 0.777145 0.985944
O O9 0.143772 0.500000 0.421104
O O10 0.189108 0.253997 0.483534
O O11 0.265843 0.258678 0.258568
O O12 0.000000 0.247500 0.500000
O O13 0.844086 0.500000 0.391045
O O14 0.838369 0.500000 0.062964
O O15 0.000000 0.274804 0.000000
O O16 0.683417 0.500000 0.883487
O O17 0.500000 0.728042 0.000000
#
# Coordination Sequence:
#
# PCOD8059168 Si02
#       6
#     4   4   4   4   4   4
#     4   9  18  32  55  87 115 138 175 232 287 328
#     4  12  24  36  55  83 115 152 191 230 278 333
#     4   9  16  29  56  86 109 136 178 231 279 324
#     4  10  18  34  58  81 109 144 187 232 278 331
#     4  10  19  35  60  87 111 144 188 234 280 328
#     4  10  21  38  60  87 114 144 185 234 284 333
#
# _framework density 19.193663000000001
#
# number of rings (size 3 to 8) (size 9 to 14) (size 15 to 20)
#    0.000    2.000    3.333    1.500    0.000    2.000 
#    0.000    6.667    0.000    4.000    0.000    0.000 
#    0.000    0.000    0.000    0.000    0.000    0.000 
#
# Total GULP energy -297621.393236 kJ/mol
# GULP energy per Si atom -12400.891385 kJ/mol
# Density = 1.914998 g / cm^3
# Si number density = 19.193663 Si / 1000 Ang^3
#
#
#
# Elastic Constant Matrix: (Units=GPa)
#
#
# Indices 1 2 3 4 5 6 
#
# 1 148.9368 13.5316 79.3710 0.0000 14.2444 0.0000
# 2 13.5316 9.8788 7.4840 0.0000 7.0740 0.0000
# 3 79.3710 7.4840 160.4812 0.0000 4.5587 0.0000
# 4 0.0000 0.0000 0.0000 2.5562 0.0000 -0.3102
# 5 14.2444 7.0740 4.5587 0.0000 40.9701 0.0000
# 6 0.0000 0.0000 0.0000 -0.3102 0.0000 6.7559
#
#
#
# Elastic Compliance Matrix: (Units=1/GPa)
#
#
# Indices 1 2 3 4 5 6 
#
# 1 0.010114 -0.009437 -0.004523 0.000000 -0.001384 0.000000
# 2 -0.009437 0.128179 -0.000777 0.000000 -0.018764 0.000000
# 3 -0.004523 -0.000777 0.008483 0.000000 0.000763 0.000000
# 4 0.000000 0.000000 0.000000 0.393390 0.000000 0.018061
# 5 -0.001384 -0.018764 0.000763 0.000000 0.028044 0.000000
# 6 0.000000 0.000000 0.000000 0.018061 0.000000 0.148847
#
#
# Mechanical properties :
#
#
# Convention : Reuss Voigt Hill
#
# Bulk Modulus (GPa) = 8.52499 57.78555 33.15527
# Shear Modulus (GPa) = 6.36430 24.65046 15.50738
#
# Velocity S-wave (km/s) = 1.82292 3.58760 2.84552
# Velocity P-wave (km/s) = 2.98025 6.87991 5.30165
#
# Compressibility (1/GPa) = 0.11730220
#
# Stress axis : x y z
#
# Youngs Moduli (GPa) = 98.86938 7.80158 117.88533
#
# Poissons Ratio (x) = 0.07362 0.53319
# Poissons Ratio (y) = 0.93300 0.09164
# Poissons Ratio (z) = 0.44718 0.00606
#
# Static dielectric constant tensor:
#      x y z
#    x 3.830170 0.000000 0.161330 
#    y 0.000000 2.994180 0.000000 
#    z 0.161330 0.000000 3.698510 
# 
# 
# High freq. dielectric constant tensor:
#      x y z
#    x 1.758450 0.000000 0.010600 
#    y 0.000000 1.696780 0.000000 
#    z 0.010600 0.000000 1.754990 
# 
# From -- ./inp_files/66298.got.cif
#   From: 2010.06.25/outbox.cif.g09.slc.cpg/sg10_34_cif.got.tgz:66298.got - 2010.06.27 22:07:45.
