data_PCOD8059814
_publ_section_title
;
Structure prediction by ZEFSAII (Michael W. Deem and Ramdas Pophale) SiO2 
 PCOD8059814
Probable space group: P 2/M
;
_chemical_formula_sum "Si O2"
_cell_formula_units_Z 32
_cell_length_a 12.042066
_cell_length_b 9.026038
_cell_length_c 24.224424
_cell_angle_alpha 90.000000
_cell_angle_beta 49.200477
_cell_angle_gamma 90.000000
_cell_volume 1993.185797
_symmetry_space_group_name_H-M "P 2/M"
_symmetry_group_IT_number 10
_symmetry_cell_setting 'monoclinic'
loop_
_space_group_symop_operation_xyz
x,y,z
-x,y,-z
-x,-y,-z
x,-y,z
loop_
_atom_site_type_symbol
_atom_site_label
_atom_site_fract_x
_atom_site_fract_y
_atom_site_fract_z
Si Si1 0.828428 0.329291 0.993536
Si Si2 0.400634 0.675485 0.192802
Si Si3 0.334776 0.333580 0.382572
Si Si4 0.450803 0.171490 0.954018
Si Si5 0.103026 0.834083 0.519820
Si Si6 0.840642 0.329410 0.118589
Si Si7 0.435273 0.175450 0.760140
Si Si8 0.125538 0.664060 0.345186
O O1 0.788590 0.500000 0.994864
O O2 0.992065 0.293463 0.918964
O O3 0.716574 0.224614 0.997479
O O4 0.816832 0.295852 0.061993
O O5 0.429239 0.500000 0.188585
O O6 0.440250 0.733201 0.119523
O O7 0.503442 0.756665 0.203290
O O8 0.228764 0.712617 0.260339
O O9 0.381878 0.500000 0.383357
O O10 0.249662 0.261239 0.461979
O O11 0.478427 0.238076 0.321095
O O12 0.228128 0.334971 0.365215
O O13 0.461889 0.000000 0.933668
O O14 0.500000 0.199829 0.000000
O O15 0.000000 0.828803 0.500000
O O16 0.012677 0.772192 0.601773
O O17 0.151783 0.000000 0.517987
O O18 0.803476 0.500000 0.143459
O O19 0.734691 0.224319 0.189045
O O20 0.451125 0.000000 0.756017
O O21 0.061550 0.500000 0.356477
#
# Coordination Sequence:
#
# PCOD8059814 Si02
#       8
#     4   4   4   4   4   4   4   4
#     4   9  18  32  50  67  85 111 145 181 218 265
#     4  10  19  31  45  60  80 109 147 183 215 259
#     4   9  16  25  36  50  75 110 143 174 206 247
#     4  11  23  35  47  66  91 115 143 184 228 267
#     4   9  15  22  33  51  74 101 135 173 210 250
#     4   9  17  30  47  67  88 111 142 182 221 259
#     4  11  19  26  40  63  87 112 141 178 220 260
#     4   8  15  25  37  52  71 100 137 175 211 248
#
# _framework density 16.054701000000001
#
# number of rings (size 3 to 8) (size 9 to 14) (size 15 to 20)
#    0.000    2.500    1.250    4.125    0.000    6.500 
#    0.000    1.250    0.000    0.000    0.000    0.000 
#    0.000    0.000    0.000    1.125    0.000   21.125 
#
# Total GULP energy -396712.347326 kJ/mol
# GULP energy per Si atom -12397.260854 kJ/mol
# Density = 1.601816 g / cm^3
# Si number density = 16.054701 Si / 1000 Ang^3
#
#
#
# Elastic Constant Matrix: (Units=GPa)
#
#
# Indices 1 2 3 4 5 6 
#
# 1 42.4322 30.6775 33.2260 0.0000 -7.8758 0.0000
# 2 30.6775 122.1304 71.3100 0.0000 -15.4077 0.0000
# 3 33.2260 71.3100 127.1737 0.0000 -30.0891 0.0000
# 4 0.0000 0.0000 0.0000 26.0575 0.0000 -4.1411
# 5 -7.8758 -15.4077 -30.0891 0.0000 15.4066 0.0000
# 6 0.0000 0.0000 0.0000 -4.1411 0.0000 15.1927
#
#
#
# Elastic Compliance Matrix: (Units=1/GPa)
#
#
# Indices 1 2 3 4 5 6 
#
# 1 0.031271 -0.004601 -0.005385 0.000000 0.000868 0.000000
# 2 -0.004601 0.012889 -0.006566 0.000000 -0.002285 0.000000
# 3 -0.005385 -0.006566 0.019978 0.000000 0.029699 0.000000
# 4 0.000000 0.000000 0.000000 0.040114 0.000000 0.010934
# 5 0.000868 -0.002285 0.029699 0.000000 0.121068 0.000000
# 6 0.000000 0.000000 0.000000 0.010934 0.000000 0.068801
#
#
# Mechanical properties :
#
#
# Convention : Reuss Voigt Hill
#
# Bulk Modulus (GPa) = 32.22146 62.46258 47.34202
# Shear Modulus (GPa) = 14.81170 21.76620 18.28895
#
# Velocity S-wave (km/s) = 3.04069 3.68605 3.37881
# Velocity P-wave (km/s) = 5.69571 7.55688 6.69132
#
# Compressibility (1/GPa) = 0.03103522
#
# Stress axis : x y z
#
# Youngs Moduli (GPa) = 31.97834 77.58449 50.05393
#
# Poissons Ratio (x) = 0.35700 0.26952
# Poissons Ratio (y) = 0.14715 0.32865
# Poissons Ratio (z) = 0.17219 0.50941
#
# Static dielectric constant tensor:
#      x y z
#    x 2.505210 0.000000 -0.321230 
#    y 0.000000 3.146230 0.000000 
#    z -0.321230 0.000000 3.287980 
# 
# 
# High freq. dielectric constant tensor:
#      x y z
#    x 1.541320 0.000000 -0.035640 
#    y 0.000000 1.628520 0.000000 
#    z -0.035640 0.000000 1.625020 
# 
# From -- ./inp_files/88529.got.cif
#   From: 2010.06.25/outbox.cif.g09.slc.cpg/sg10_45_cif.got.tgz:88529.got - 2010.06.27 22:07:45.
