data_PCOD8059037
_publ_section_title
;
Structure prediction by ZEFSAII (Michael W. Deem and Ramdas Pophale) SiO2 
 PCOD8059037
Probable space group: P 2/M
;
_chemical_formula_sum "Si O2"
_cell_formula_units_Z 32
_cell_length_a 18.730220
_cell_length_b 9.172479
_cell_length_c 21.679596
_cell_angle_alpha 90.000000
_cell_angle_beta 152.458597
_cell_angle_gamma 90.000000
_cell_volume 1722.220357
_symmetry_space_group_name_H-M "P 2/M"
_symmetry_group_IT_number 10
_symmetry_cell_setting 'monoclinic'
loop_
_space_group_symop_operation_xyz
x,y,z
-x,y,-z
-x,-y,-z
x,-y,z
loop_
_atom_site_type_symbol
_atom_site_label
_atom_site_fract_x
_atom_site_fract_y
_atom_site_fract_z
Si Si1 0.906490 0.670356 0.218683
Si Si2 0.048275 0.828177 0.106402
Si Si3 0.546340 0.328575 0.277019
Si Si4 0.323266 0.328134 0.376547
Si Si5 0.751826 0.672830 0.545465
Si Si6 0.772210 0.170844 0.365233
Si Si7 0.195682 0.670358 0.993995
Si Si8 0.898833 0.170443 0.332431
O O1 0.902337 0.500000 0.228864
O O2 0.815171 0.709985 0.086598
O O3 0.832131 0.749722 0.220804
O O4 0.080563 0.729526 0.345351
O O5 0.215323 0.755876 0.245364
O O6 0.924120 0.762974 0.058474
O O7 0.059031 0.000000 0.125604
O O8 0.000000 0.789744 0.000000
O O9 0.569135 0.500000 0.286078
O O10 0.627028 0.268768 0.400887
O O11 0.622832 0.253706 0.276272
O O12 0.367370 0.287625 0.146334
O O13 0.500000 0.289249 0.500000
O O14 0.291274 0.500000 0.345201
O O15 0.285905 0.267037 0.415833
O O16 0.747157 0.500000 0.544399
O O17 0.788150 0.208789 0.305079
O O18 0.926851 0.223352 0.519026
O O19 0.748592 0.000000 0.356767
O O20 0.157474 0.500000 0.975025
O O21 0.898331 0.000000 0.319330
#
# Coordination Sequence:
#
# PCOD8059037 Si02
#       8
#     4   4   4   4   4   4   4   4
#     4  10  18  33  55  80 108 138 177 230 274 316
#     4  11  25  42  58  81 117 155 190 229 276 333
#     4  10  20  34  55  82 110 140 178 227 278 326
#     4  10  21  38  63  90 114 145 187 234 282 332
#     4   9  17  32  53  82 111 133 176 232 270 317
#     4   9  18  33  51  76 111 142 178 226 269 321
#     4  10  22  39  59  81 110 146 184 227 277 330
#     4   9  18  32  52  78 107 143 182 221 269 325
#
# _framework density 18.580665
#
# number of rings (size 3 to 8) (size 9 to 14) (size 15 to 20)
#    0.000    2.250    2.500    1.125    1.750    2.750 
#    0.000    2.500    0.000    3.750    0.000    0.000 
#    0.000    0.000    0.000    0.000    0.000    0.000 
#
# Total GULP energy -396822.319941 kJ/mol
# GULP energy per Si atom -12400.697498 kJ/mol
# Density = 1.853837 g / cm^3
# Si number density = 18.580665 Si / 1000 Ang^3
#
#
#
# Elastic Constant Matrix: (Units=GPa)
#
#
# Indices 1 2 3 4 5 6 
#
# 1 102.5729 44.5829 43.1715 0.0000 -14.5267 0.0000
# 2 44.5829 52.8948 39.9623 0.0000 -3.3397 0.0000
# 3 43.1715 39.9623 120.1606 0.0000 -8.8034 0.0000
# 4 0.0000 0.0000 0.0000 21.7678 0.0000 -1.7971
# 5 -14.5267 -3.3397 -8.8034 0.0000 30.6350 0.0000
# 6 0.0000 0.0000 0.0000 -1.7971 0.0000 30.1065
#
#
#
# Elastic Compliance Matrix: (Units=1/GPa)
#
#
# Indices 1 2 3 4 5 6 
#
# 1 0.016688 -0.012672 -0.001331 0.000000 0.006149 0.000000
# 2 -0.012672 0.034876 -0.007363 0.000000 -0.004323 0.000000
# 3 -0.001331 -0.007363 0.011384 0.000000 0.001838 0.000000
# 4 0.000000 0.000000 0.000000 0.046167 0.000000 0.002756
# 5 0.006149 -0.004323 0.001838 0.000000 0.035615 0.000000
# 6 0.000000 0.000000 0.000000 0.002756 0.000000 0.033380
#
#
# Mechanical properties :
#
#
# Convention : Reuss Voigt Hill
#
# Bulk Modulus (GPa) = 49.46455 59.00685 54.23570
# Shear Modulus (GPa) = 21.97041 26.36265 24.16653
#
# Velocity S-wave (km/s) = 3.44238 3.77081 3.61033
# Velocity P-wave (km/s) = 6.51762 7.12634 6.82877
#
# Compressibility (1/GPa) = 0.02021650
#
# Stress axis : x y z
#
# Youngs Moduli (GPa) = 59.92346 28.67321 87.84581
#
# Poissons Ratio (x) = 0.36334 0.11690
# Poissons Ratio (y) = 0.75935 0.64678
# Poissons Ratio (z) = 0.07975 0.21111
#
# Static dielectric constant tensor:
#      x y z
#    x 3.478930 0.000000 -0.133770 
#    y 0.000000 3.152890 0.000000 
#    z -0.133770 0.000000 3.486430 
# 
# 
# High freq. dielectric constant tensor:
#      x y z
#    x 1.729500 0.000000 -0.008710 
#    y 0.000000 1.698870 0.000000 
#    z -0.008710 0.000000 1.717200 
# 
# From -- ./inp_files/85753.got.cif
#   From: 2010.06.25/outbox.cif.g09.slc.cpg/sg10_43_cif.got.tgz:85753.got - 2010.06.27 22:07:45.
