data_PCOD8059947
_publ_section_title
;
Structure prediction by ZEFSAII (Michael W. Deem and Ramdas Pophale) SiO2 
 PCOD8059947
Probable space group: P 2/M
;
_chemical_formula_sum "Si O2"
_cell_formula_units_Z 28
_cell_length_a 9.237415
_cell_length_b 9.349197
_cell_length_c 29.354126
_cell_angle_alpha 90.000000
_cell_angle_beta 38.572542
_cell_angle_gamma 90.000000
_cell_volume 1580.643237
_symmetry_space_group_name_H-M "P 2/M"
_symmetry_group_IT_number 10
_symmetry_cell_setting 'monoclinic'
loop_
_space_group_symop_operation_xyz
x,y,z
-x,y,-z
-x,-y,-z
x,-y,z
loop_
_atom_site_type_symbol
_atom_site_label
_atom_site_fract_x
_atom_site_fract_y
_atom_site_fract_z
Si Si1 0.732085 0.667806 0.074148
Si Si2 0.420953 0.330967 0.067855
Si Si3 0.105569 0.666122 0.799177
Si Si4 0.231848 0.836869 0.352891
Si Si5 0.503527 0.663675 0.638056
Si Si6 0.381725 0.165538 0.807804
Si Si7 0.190458 0.841811 0.493202
O O1 0.691110 0.500000 0.092809
O O2 0.590167 0.726444 0.065640
O O3 0.638741 0.753219 0.140070
O O4 0.000000 0.702494 0.000000
O O5 0.445592 0.500000 0.059576
O O6 0.158327 0.284890 0.143416
O O7 0.500000 0.264474 0.000000
O O8 0.122015 0.500000 0.810906
O O9 0.233680 0.686388 0.718551
O O10 0.213732 0.764176 0.811771
O O11 0.354993 0.722540 0.354283
O O12 0.346849 0.821127 0.274705
O O13 0.952264 0.806191 0.424634
O O14 0.274903 0.000000 0.360461
O O15 0.566038 0.500000 0.615514
O O16 0.585981 0.741414 0.571116
O O17 0.310311 0.000000 0.831091
O O18 0.000000 0.825796 0.500000
O O19 0.294976 0.000000 0.469890
#
# Coordination Sequence:
#
# PCOD8059947 Si02
#       7
#     4   4   4   4   4   4   4
#     4  10  20  34  53  74  94 119 153 191 230 275
#     4   9  17  31  52  73  91 117 154 191 226 270
#     4   9  17  30  47  68  95 125 157 192 230 275
#     4   8  15  26  38  55  83 120 154 182 219 267
#     4   9  15  21  34  59  88 115 145 186 230 266
#     4  10  19  31  48  70  97 126 155 190 232 275
#     4   8  13  22  35  52  80 117 152 183 219 266
#
# _framework density 17.714307000000002
#
# number of rings (size 3 to 8) (size 9 to 14) (size 15 to 20)
#    0.000    3.000    0.000    2.571    0.000    6.286 
#    0.000    0.714    0.000    1.714    0.000    1.000 
#    0.000    8.000    0.000    0.000    0.000    0.000 
#
# Total GULP energy -346874.949286 kJ/mol
# GULP energy per Si atom -12388.391046 kJ/mol
# Density = 1.767399 g / cm^3
# Si number density = 17.714307 Si / 1000 Ang^3
#
#
#
# Elastic Constant Matrix: (Units=GPa)
#
#
# Indices 1 2 3 4 5 6 
#
# 1 77.4416 30.8953 62.6844 0.0000 1.6190 0.0000
# 2 30.8953 76.5732 69.6900 0.0000 1.5705 0.0000
# 3 62.6844 69.6900 184.6362 0.0000 0.2148 0.0000
# 4 0.0000 0.0000 0.0000 30.5687 0.0000 5.2873
# 5 1.6190 1.5705 0.2148 0.0000 17.3560 0.0000
# 6 0.0000 0.0000 0.0000 5.2873 0.0000 6.7193
#
#
#
# Elastic Compliance Matrix: (Units=1/GPa)
#
#
# Indices 1 2 3 4 5 6 
#
# 1 0.018176 -0.002575 -0.005197 0.000000 -0.001398 0.000000
# 2 -0.002575 0.020308 -0.006789 0.000000 -0.001513 0.000000
# 3 -0.005197 -0.006789 0.009742 0.000000 0.000979 0.000000
# 4 0.000000 0.000000 0.000000 0.037867 0.000000 -0.029797
# 5 -0.001398 -0.001513 0.000979 0.000000 0.057872 0.000000
# 6 0.000000 0.000000 0.000000 -0.029797 0.000000 0.172273
#
#
# Mechanical properties :
#
#
# Convention : Reuss Voigt Hill
#
# Bulk Modulus (GPa) = 52.34602 73.91005 63.12803
# Shear Modulus (GPa) = 14.21543 22.62089 18.41816
#
# Velocity S-wave (km/s) = 2.83589 3.57737 3.22799
# Velocity P-wave (km/s) = 6.35116 7.67316 7.04325
#
# Compressibility (1/GPa) = 0.01910365
#
# Stress axis : x y z
#
# Youngs Moduli (GPa) = 55.01627 49.24070 102.64720
#
# Poissons Ratio (x) = 0.12678 0.53351
# Poissons Ratio (y) = 0.14165 0.69691
# Poissons Ratio (z) = 0.28595 0.33432
#
# Static dielectric constant tensor:
#      x y z
#    x 2.823460 0.000000 0.002230 
#    y 0.000000 3.213440 0.000000 
#    z 0.002230 0.000000 4.032310 
# 
# 
# High freq. dielectric constant tensor:
#      x y z
#    x 1.616880 0.000000 0.001340 
#    y 0.000000 1.674140 0.000000 
#    z 0.001340 0.000000 1.718190 
# 
# From -- ./inp_files/86532.got.cif
#   From: 2010.06.25/outbox.cif.g09.slc.cpg/sg10_44_cif.got.tgz:86532.got - 2010.06.27 22:07:45.
