data_PCOD8059124
_publ_section_title
;
Structure prediction by ZEFSAII (Michael W. Deem and Ramdas Pophale) SiO2 
 PCOD8059124
Probable space group: P 2/M
;
_chemical_formula_sum "Si O2"
_cell_formula_units_Z 32
_cell_length_a 11.607787
_cell_length_b 14.365432
_cell_length_c 17.541999
_cell_angle_alpha 90.000000
_cell_angle_beta 31.279959
_cell_angle_gamma 90.000000
_cell_volume 1518.793705
_symmetry_space_group_name_H-M "P 2/M"
_symmetry_group_IT_number 10
_symmetry_cell_setting 'monoclinic'
loop_
_space_group_symop_operation_xyz
x,y,z
-x,y,-z
-x,-y,-z
x,-y,z
loop_
_atom_site_type_symbol
_atom_site_label
_atom_site_fract_x
_atom_site_fract_y
_atom_site_fract_z
Si Si1 0.213356 0.390949 0.828378
Si Si2 0.964154 0.601987 0.233881
Si Si3 0.382013 0.779969 0.213928
Si Si4 0.982250 0.773600 0.336363
Si Si5 0.223226 0.889610 0.077511
Si Si6 0.461156 0.398905 0.937019
Si Si7 0.118725 0.102222 0.853588
Si Si8 0.518979 0.774616 0.672931
O O1 0.264072 0.500000 0.812777
O O2 0.183123 0.367684 0.755400
O O3 0.429751 0.331417 0.730717
O O4 0.000000 0.360344 0.000000
O O5 0.884321 0.500000 0.310166
O O6 0.979694 0.675173 0.293745
O O7 0.205611 0.589777 0.061683
O O8 0.444675 0.671448 0.177779
O O9 0.414319 0.815606 0.281890
O O10 0.125953 0.777790 0.332612
O O11 0.537613 0.840280 0.068677
O O12 0.728169 0.789995 0.500355
O O13 0.091808 0.856132 0.225936
O O14 0.065490 0.855881 0.098318
O O15 0.263323 0.000000 0.058116
O O16 0.580675 0.500000 0.863052
O O17 0.500000 0.357677 0.000000
O O18 0.330004 0.167140 0.738057
O O19 0.195222 0.000000 0.781990
O O20 0.000000 0.094036 0.000000
#
# Coordination Sequence:
#
# PCOD8059124 Si02
#       8
#     4   4   4   4   4   4   4   4
#     4  10  22  40  64  95 129 167 217 269 315 370
#     4  10  20  37  62  90 125 165 208 261 315 364
#     4  12  23  42  65  90 127 172 218 255 305 374
#     4  12  26  42  58  96 134 169 209 256 313 380
#     4  11  24  44  72  97 121 158 210 268 318 373
#     4  10  18  33  61  93 120 157 212 268 305 346
#     4  10  21  42  70  96 118 152 207 261 313 375
#     4  12  26  40  64  92 134 172 205 255 321 377
#
# _framework density 21.069353
#
# number of rings (size 3 to 8) (size 9 to 14) (size 15 to 20)
#    0.000    1.125    3.750    2.625    0.000    5.500 
#    0.000    2.500    0.000    4.500    0.000    0.000 
#    0.000    0.000    0.000    0.000    0.000    0.000 
#
# Total GULP energy -396639.131077 kJ/mol
# GULP energy per Si atom -12394.972846 kJ/mol
# Density = 2.102140 g / cm^3
# Si number density = 21.069353 Si / 1000 Ang^3
#
#
#
# Elastic Constant Matrix: (Units=GPa)
#
#
# Indices 1 2 3 4 5 6 
#
# 1 88.4802 21.7722 18.6234 0.0000 -9.8896 0.0000
# 2 21.7722 92.0852 32.8874 0.0000 -11.2613 0.0000
# 3 18.6234 32.8874 99.6072 0.0000 -16.7614 0.0000
# 4 0.0000 0.0000 0.0000 13.0477 0.0000 0.1115
# 5 -9.8896 -11.2613 -16.7614 0.0000 26.5555 0.0000
# 6 0.0000 0.0000 0.0000 0.1115 0.0000 26.2834
#
#
#
# Elastic Compliance Matrix: (Units=1/GPa)
#
#
# Indices 1 2 3 4 5 6 
#
# 1 0.012403 -0.002174 -0.001096 0.000000 0.003006 0.000000
# 2 -0.002174 0.012905 -0.003435 0.000000 0.002495 0.000000
# 3 -0.001096 -0.003435 0.012379 0.000000 0.005949 0.000000
# 4 0.000000 0.000000 0.000000 0.076644 0.000000 -0.000325
# 5 0.003006 0.002495 0.005949 0.000000 0.043590 0.000000
# 6 0.000000 0.000000 0.000000 -0.000325 0.000000 0.038048
#
#
# Mechanical properties :
#
#
# Convention : Reuss Voigt Hill
#
# Bulk Modulus (GPa) = 41.18575 47.41540 44.30058
# Shear Modulus (GPa) = 22.99151 26.96996 24.98074
#
# Velocity S-wave (km/s) = 3.30696 3.58167 3.44705
# Velocity P-wave (km/s) = 5.84564 6.29744 6.07574
#
# Compressibility (1/GPa) = 0.02428024
#
# Stress axis : x y z
#
# Youngs Moduli (GPa) = 80.62297 77.48780 80.77949
#
# Poissons Ratio (x) = 0.16844 0.08850
# Poissons Ratio (y) = 0.17525 0.27745
# Poissons Ratio (z) = 0.08832 0.26614
#
# Static dielectric constant tensor:
#      x y z
#    x 3.025500 0.000000 0.085820 
#    y 0.000000 4.116940 0.000000 
#    z 0.085820 0.000000 3.521690 
# 
# 
# High freq. dielectric constant tensor:
#      x y z
#    x 1.843370 0.000000 -0.008440 
#    y 0.000000 1.829180 0.000000 
#    z -0.008440 0.000000 1.791630 
# 
# From -- ./inp_files/76971.got.cif
#   From: 2010.06.25/outbox.cif.g09.slc.cpg/sg10_39_cif.got.tgz:76971.got - 2010.06.27 22:07:45.
