data_PCOD8059600
_publ_section_title
;
Structure prediction by ZEFSAII (Michael W. Deem and Ramdas Pophale) SiO2 
 PCOD8059600
Probable space group: P 2/M
;
_chemical_formula_sum "Si O2"
_cell_formula_units_Z 26
_cell_length_a 14.154938
_cell_length_b 25.393125
_cell_length_c 5.186362
_cell_angle_alpha 90.000000
_cell_angle_beta 123.992406
_cell_angle_gamma 90.000000
_cell_volume 1545.610225
_symmetry_space_group_name_H-M "P 2/M"
_symmetry_group_IT_number 10
_symmetry_cell_setting 'monoclinic'
loop_
_space_group_symop_operation_xyz
x,y,z
-x,y,-z
-x,-y,-z
x,-y,z
loop_
_atom_site_type_symbol
_atom_site_label
_atom_site_fract_x
_atom_site_fract_y
_atom_site_fract_z
Si Si1 0.135799 0.059410 0.708420
Si Si2 0.136128 0.879761 0.209125
Si Si3 0.133523 0.237770 0.200553
Si Si4 0.763894 0.586875 0.193066
Si Si5 0.880007 0.440874 0.869191
Si Si6 0.863865 0.697199 0.295142
Si Si7 0.423340 0.500000 0.133042
O O1 0.182432 0.089213 0.528035
O O2 0.000000 0.058608 0.500000
O O3 0.183599 0.000000 0.784507
O O4 0.182366 0.090301 0.028030
O O5 0.187630 0.820621 0.292648
O O6 0.000000 0.878674 0.000000
O O7 0.171604 0.271951 0.502630
O O8 0.170187 0.266535 0.995907
O O9 0.000000 0.230176 0.000000
O O10 0.789658 0.585038 0.537614
O O11 0.776009 0.648141 0.136378
O O12 0.851553 0.559546 0.127688
O O13 0.646853 0.555088 0.969883
O O14 0.889792 0.500000 0.782619
O O15 0.000000 0.411301 0.000000
O O16 0.000000 0.681726 0.500000
O O17 0.500000 0.500000 0.500000
O O18 0.500000 0.500000 0.000000
#
# Coordination Sequence:
#
# PCOD8059600 Si02
#       7
#     4   4   4   4   4   4   2
#     4   9  15  21  30  46  66  93 137 189 229 252
#     4   9  15  23  34  46  68 103 137 172 218 263
#     4   9  17  28  40  58  84 114 142 168 211 273
#     4  12  22  38  54  74  96 123 150 183 229 272
#     4  11  20  32  51  77 103 122 140 167 213 282
#     4  10  19  30  46  68  92 112 136 173 219 277
#     4  12  26  44  59  72  91 120 158 194 228 272
#
# _framework density 16.821836000000001
#
# number of rings (size 3 to 8) (size 9 to 14) (size 15 to 20)
#    0.000    1.846    1.538    4.615    0.000    8.000 
#    0.000    0.000    0.000    0.000    0.000    0.000 
#    0.000    0.000    0.000    0.000    0.000    0.000 
#
# Total GULP energy -322142.707178 kJ/mol
# GULP energy per Si atom -12390.104122 kJ/mol
# Density = 1.678355 g / cm^3
# Si number density = 16.821836 Si / 1000 Ang^3
#
#
#
# Elastic Constant Matrix: (Units=GPa)
#
#
# Indices 1 2 3 4 5 6 
#
# 1 65.5935 38.7052 37.4953 0.0000 -20.3344 0.0000
# 2 38.7052 148.2387 52.2465 0.0000 -10.8959 0.0000
# 3 37.4953 52.2465 82.5973 0.0000 -28.9634 0.0000
# 4 0.0000 0.0000 0.0000 42.2955 0.0000 -50.0297
# 5 -20.3344 -10.8959 -28.9634 0.0000 30.6276 0.0000
# 6 0.0000 0.0000 0.0000 -50.0297 0.0000 89.5937
#
#
#
# Elastic Compliance Matrix: (Units=1/GPa)
#
#
# Indices 1 2 3 4 5 6 
#
# 1 0.023096 -0.003612 -0.004897 0.000000 0.009418 0.000000
# 2 -0.003612 0.009454 -0.005987 0.000000 -0.004697 0.000000
# 3 -0.004897 -0.005987 0.024282 0.000000 0.017582 0.000000
# 4 0.000000 0.000000 0.000000 0.069645 0.000000 0.038890
# 5 0.009418 -0.004697 0.017582 0.000000 0.053858 0.000000
# 6 0.000000 0.000000 0.000000 0.038890 0.000000 0.032878
#
#
# Mechanical properties :
#
#
# Convention : Reuss Voigt Hill
#
# Bulk Modulus (GPa) = 35.92094 61.48038 48.70066
# Shear Modulus (GPa) = 19.88181 43.70219 31.79200
#
# Velocity S-wave (km/s) = 3.44161 5.10253 4.35204
# Velocity P-wave (km/s) = 6.09861 8.44640 7.36664
#
# Compressibility (1/GPa) = 0.02783892
#
# Stress axis : x y z
#
# Youngs Moduli (GPa) = 43.29804 105.77533 41.18198
#
# Poissons Ratio (x) = 0.38207 0.20168
# Poissons Ratio (y) = 0.15640 0.24657
# Poissons Ratio (z) = 0.21204 0.63332
#
# Static dielectric constant tensor:
#      x y z
#    x 2.546560 0.000000 -0.402300 
#    y 0.000000 3.427140 0.000000 
#    z -0.402300 0.000000 3.045570 
# 
# 
# High freq. dielectric constant tensor:
#      x y z
#    x 1.601710 0.000000 -0.063710 
#    y 0.000000 1.661590 0.000000 
#    z -0.063710 0.000000 1.624260 
# 
# From -- ./inp_files/10101.got.cif
#   From: 2010.06.25/outbox.cif.g09.slc.cpg/sg10_6_cif.got.tgz:10101.got - 2010.06.27 22:07:45.
