data_PCOD8059900
_publ_section_title
;
Structure prediction by ZEFSAII (Michael W. Deem and Ramdas Pophale) SiO2 
 PCOD8059900
Probable space group: P 2/M
;
_chemical_formula_sum "Si O2"
_cell_formula_units_Z 32
_cell_length_a 33.402083
_cell_length_b 9.379778
_cell_length_c 12.174704
_cell_angle_alpha 90.000000
_cell_angle_beta 25.991086
_cell_angle_gamma 90.000000
_cell_volume 1671.582913
_symmetry_space_group_name_H-M "P 2/M"
_symmetry_group_IT_number 10
_symmetry_cell_setting 'monoclinic'
loop_
_space_group_symop_operation_xyz
x,y,z
-x,y,-z
-x,-y,-z
x,-y,z
loop_
_atom_site_type_symbol
_atom_site_label
_atom_site_fract_x
_atom_site_fract_y
_atom_site_fract_z
Si Si1 0.508278 0.832141 0.162977
Si Si2 0.773039 0.669206 0.768799
Si Si3 0.900171 0.162698 0.288853
Si Si4 0.068955 0.667840 0.182289
Si Si5 0.128394 0.332078 0.262634
Si Si6 0.634108 0.832102 0.657220
Si Si7 0.828491 0.838644 0.233300
Si Si8 0.435309 0.332164 0.761532
O O1 0.408523 0.796743 0.357006
O O2 0.521640 0.746514 0.241134
O O3 0.519815 0.000000 0.158712
O O4 0.577427 0.772479 0.900392
O O5 0.783039 0.500000 0.728337
O O6 0.852167 0.741475 0.500080
O O7 0.791514 0.715306 0.850848
O O8 0.669707 0.719495 0.997134
O O9 0.829977 0.168933 0.360746
O O10 0.910763 0.000000 0.306181
O O11 0.000000 0.217699 0.000000
O O12 0.072625 0.500000 0.153930
O O13 0.138541 0.716678 0.109985
O O14 0.968365 0.725061 0.456173
O O15 0.091365 0.744060 0.013425
O O16 0.121525 0.500000 0.277820
O O17 0.735269 0.769237 0.417080
O O18 0.635343 0.000000 0.672001
O O19 0.840757 0.000000 0.161843
O O20 0.500000 0.291102 0.500000
O O21 0.437633 0.500000 0.777303
#
# Coordination Sequence:
#
# PCOD8059900 Si02
#       8
#     4   4   4   4   4   4   4   4
#     4   9  17  34  57  74  92 125 170 209 247 303
#     4  10  20  35  55  75 100 139 180 211 247 306
#     4  10  21  35  52  78 111 141 168 207 258 303
#     4   9  17  31  51  72  95 125 164 206 242 286
#     4   8  16  32  51  70  94 127 166 206 246 286
#     4   8  16  31  52  75  97 125 159 202 254 301
#     4  10  19  31  47  71 104 132 156 195 250 302
#     4  10  22  37  51  73 107 140 169 211 265 308
#
# _framework density 19.143529999999998
#
# number of rings (size 3 to 8) (size 9 to 14) (size 15 to 20)
#    0.000    2.750    0.000    3.000    0.000    3.500 
#    0.000    5.625    0.000    0.000    0.000    0.000 
#    0.000    0.000    0.000    0.000    0.000    0.000 
#
# Total GULP energy -396473.780793 kJ/mol
# GULP energy per Si atom -12389.805650 kJ/mol
# Density = 1.909996 g / cm^3
# Si number density = 19.143530 Si / 1000 Ang^3
#
#
#
# Elastic Constant Matrix: (Units=GPa)
#
#
# Indices 1 2 3 4 5 6 
#
# 1 110.0517 26.8551 25.0476 0.0000 -6.9455 0.0000
# 2 26.8551 33.4389 19.1118 0.0000 3.8034 0.0000
# 3 25.0476 19.1118 71.7942 0.0000 -6.4470 0.0000
# 4 0.0000 0.0000 0.0000 22.4316 0.0000 0.1480
# 5 -6.9455 3.8034 -6.4470 0.0000 31.9291 0.0000
# 6 0.0000 0.0000 0.0000 0.1480 0.0000 27.4446
#
#
#
# Elastic Compliance Matrix: (Units=1/GPa)
#
#
# Indices 1 2 3 4 5 6 
#
# 1 0.011837 -0.009085 -0.001408 0.000000 0.003373 0.000000
# 2 -0.009085 0.043497 -0.009219 0.000000 -0.009019 0.000000
# 3 -0.001408 -0.009219 0.017258 0.000000 0.004277 0.000000
# 4 0.000000 0.000000 0.000000 0.044582 0.000000 -0.000240
# 5 0.003373 -0.009019 0.004277 0.000000 0.033991 0.000000
# 6 0.000000 0.000000 0.000000 -0.000240 0.000000 0.036438
#
#
# Mechanical properties :
#
#
# Convention : Reuss Voigt Hill
#
# Bulk Modulus (GPa) = 30.15081 39.70152 34.92616
# Shear Modulus (GPa) = 21.00101 25.97905 23.49003
#
# Velocity S-wave (km/s) = 3.31574 3.68784 3.50672
# Velocity P-wave (km/s) = 5.51751 6.23838 5.88898
#
# Compressibility (1/GPa) = 0.03316661
#
# Stress axis : x y z
#
# Youngs Moduli (GPa) = 84.48088 22.99025 57.94322
#
# Poissons Ratio (x) = 0.20887 0.08161
# Poissons Ratio (y) = 0.76752 0.53419
# Poissons Ratio (z) = 0.11898 0.21195
#
# Static dielectric constant tensor:
#      x y z
#    x 3.870810 0.000000 -0.276740 
#    y 0.000000 3.115700 0.000000 
#    z -0.276740 0.000000 3.633800 
# 
# 
# High freq. dielectric constant tensor:
#      x y z
#    x 1.762750 0.000000 -0.009380 
#    y 0.000000 1.706990 0.000000 
#    z -0.009380 0.000000 1.736420 
# 
# From -- ./inp_files/58136.got.cif
#   From: 2010.06.25/outbox.cif.g09.slc.cpg/sg10_30_cif.got.tgz:58136.got - 2010.06.27 22:07:45.
