data_PCOD8059228
_publ_section_title
;
Structure prediction by ZEFSAII (Michael W. Deem and Ramdas Pophale) SiO2 
 PCOD8059228
Probable space group: P 2/M
;
_chemical_formula_sum "Si O2"
_cell_formula_units_Z 24
_cell_length_a 15.080960
_cell_length_b 8.703096
_cell_length_c 14.860910
_cell_angle_alpha 90.000000
_cell_angle_beta 139.757562
_cell_angle_gamma 90.000000
_cell_volume 1260.074748
_symmetry_space_group_name_H-M "P 2/M"
_symmetry_group_IT_number 10
_symmetry_cell_setting 'monoclinic'
loop_
_space_group_symop_operation_xyz
x,y,z
-x,y,-z
-x,-y,-z
x,-y,z
loop_
_atom_site_type_symbol
_atom_site_label
_atom_site_fract_x
_atom_site_fract_y
_atom_site_fract_z
Si Si1 0.634353 0.316930 0.850481
Si Si2 0.824427 0.318795 0.636045
Si Si3 0.654683 0.819808 0.342914
Si Si4 0.871862 0.682063 0.163350
Si Si5 0.847723 0.679117 0.348489
Si Si6 0.363189 0.680962 0.348976
O O1 0.633132 0.500000 0.851565
O O2 0.493057 0.257592 0.782220
O O3 0.656726 0.252074 0.766644
O O4 0.758505 0.251334 0.007416
O O5 0.818784 0.500000 0.612161
O O6 0.727953 0.239853 0.488822
O O7 0.768868 0.278693 0.692560
O O8 0.978455 0.253081 0.747916
O O9 0.741153 0.778891 0.321843
O O10 0.635758 0.000000 0.335375
O O11 0.877743 0.500000 0.161531
O O12 0.834178 0.732816 0.234967
O O13 0.813006 0.500000 0.334398
O O14 0.000000 0.715265 0.500000
O O15 0.500000 0.752886 0.500000
O O16 0.383457 0.500000 0.356671
#
# Coordination Sequence:
#
# PCOD8059228 Si02
#       6
#     4   4   4   4   4   4
#     4  10  20  37  57  82 115 145 181 228 275 328
#     4  10  18  35  59  84 112 143 184 229 274 329
#     4  12  24  36  54  83 112 148 190 227 273 323
#     4   9  19  34  58  87 110 140 181 227 281 329
#     4  10  19  36  61  84 108 142 183 228 275 327
#     4   9  16  28  55  87 110 141 181 224 275 322
#
# _framework density 19.046488
#
# number of rings (size 3 to 8) (size 9 to 14) (size 15 to 20)
#    0.000    2.000    3.333    1.500    0.000    1.667 
#    0.000   10.000    0.000    0.000    0.000    2.333 
#    0.000    0.000    0.000    0.000    0.000    0.000 
#
# Total GULP energy -297617.969431 kJ/mol
# GULP energy per Si atom -12400.748726 kJ/mol
# Density = 1.900314 g / cm^3
# Si number density = 19.046488 Si / 1000 Ang^3
#
#
#
# Elastic Constant Matrix: (Units=GPa)
#
#
# Indices 1 2 3 4 5 6 
#
# 1 100.6108 13.7589 45.4609 0.0000 -9.9870 0.0000
# 2 13.7589 24.0575 21.3585 0.0000 -0.9667 0.0000
# 3 45.4609 21.3585 144.9188 0.0000 -7.9252 0.0000
# 4 0.0000 0.0000 0.0000 0.2648 0.0000 -2.0623
# 5 -9.9870 -0.9667 -7.9252 0.0000 35.5327 0.0000
# 6 0.0000 0.0000 0.0000 -2.0623 0.0000 4.8434
#
#
#
# Elastic Compliance Matrix: (Units=1/GPa)
#
#
# Indices 1 2 3 4 5 6 
#
# 1 0.012146 -0.004125 -0.003059 0.000000 0.002619 0.000000
# 2 -0.004125 0.049229 -0.006025 0.000000 -0.001164 0.000000
# 3 -0.003059 -0.006025 0.008799 0.000000 0.000939 0.000000
# 4 0.000000 0.000000 0.000000 -1.630496 0.000000 -0.694265
# 5 0.002619 -0.001164 0.000939 0.000000 0.029057 0.000000
# 6 0.000000 0.000000 0.000000 -0.694265 0.000000 -0.089149
#
#
# Mechanical properties :
#
#
# Convention : Reuss Voigt Hill
#
# Bulk Modulus (GPa) = 22.85440 47.86042 35.35741
# Shear Modulus (GPa) = -3.16574 20.72876 8.78151
#
# Velocity S-wave (km/s) = -1.29063 3.30256 2.14955
# Velocity P-wave (km/s) = 3.13119 6.30280 4.97643
#
# Compressibility (1/GPa) = 0.04375524
#
# Stress axis : x y z
#
# Youngs Moduli (GPa) = 82.33450 20.31333 113.64558
#
# Poissons Ratio (x) = 0.08380 0.34762
# Poissons Ratio (y) = 0.33966 0.68471
# Poissons Ratio (z) = 0.25185 0.12239
#
# Static dielectric constant tensor:
#      x y z
#    x 3.759830 0.000000 -0.032120 
#    y 0.000000 3.004390 0.000000 
#    z -0.032120 0.000000 3.722210 
# 
# 
# High freq. dielectric constant tensor:
#      x y z
#    x 1.758960 0.000000 -0.000650 
#    y 0.000000 1.690580 0.000000 
#    z -0.000650 0.000000 1.742990 
# 
# From -- ./inp_files/60369.got.cif
#   From: 2010.06.25/outbox.cif.g09.slc.cpg/sg10_31_cif.got.tgz:60369.got - 2010.06.27 22:07:45.
