data_PCOD8059053
_publ_section_title
;
Structure prediction by ZEFSAII (Michael W. Deem and Ramdas Pophale) SiO2 
 PCOD8059053
Probable space group: P 2/M
;
_chemical_formula_sum "Si O2"
_cell_formula_units_Z 32
_cell_length_a 26.226797
_cell_length_b 8.651316
_cell_length_c 20.321281
_cell_angle_alpha 90.000000
_cell_angle_beta 158.803792
_cell_angle_gamma 90.000000
_cell_volume 1667.102608
_symmetry_space_group_name_H-M "P 2/M"
_symmetry_group_IT_number 10
_symmetry_cell_setting 'monoclinic'
loop_
_space_group_symop_operation_xyz
x,y,z
-x,y,-z
-x,-y,-z
x,-y,z
loop_
_atom_site_type_symbol
_atom_site_label
_atom_site_fract_x
_atom_site_fract_y
_atom_site_fract_z
Si Si1 0.346002 0.683101 0.299283
Si Si2 0.383478 0.316202 0.712047
Si Si3 0.812078 0.684118 0.404871
Si Si4 0.837774 0.682844 0.801258
Si Si5 0.636424 0.182079 0.453505
Si Si6 0.691688 0.316153 0.123389
Si Si7 0.656277 0.683180 0.850140
Si Si8 0.128568 0.315976 0.782349
O O1 0.500000 0.753431 0.500000
O O2 0.353187 0.500000 0.312147
O O3 0.234888 0.744733 0.219109
O O4 0.299734 0.734727 0.170466
O O5 0.383553 0.500000 0.704977
O O6 0.272843 0.258743 0.633686
O O7 0.337328 0.242986 0.588115
O O8 0.537402 0.254405 0.918355
O O9 0.814513 0.500000 0.404778
O O10 0.736243 0.749590 0.248141
O O11 0.970896 0.750551 0.599565
O O12 0.818708 0.500000 0.769990
O O13 0.769083 0.765016 0.656141
O O14 0.000000 0.731469 0.000000
O O15 0.494238 0.248909 0.312823
O O16 0.626023 0.000000 0.440020
O O17 0.688946 0.500000 0.121846
O O18 0.804457 0.257032 0.205411
O O19 0.641446 0.500000 0.838469
O O20 0.776624 0.747294 0.043528
O O21 0.125644 0.500000 0.780303
#
# Coordination Sequence:
#
# PCOD8059053 Si02
#       8
#     4   4   4   4   4   4   4   4
#     4   9  16  29  55  84 109 135 170 217 259 301
#     4  10  19  33  54  79 106 141 182 222 265 319
#     4   9  17  27  45  79 115 138 170 223 278 324
#     4  10  21  38  61  88 113 140 174 214 262 318
#     4  12  24  37  55  78 108 144 181 222 267 314
#     4   9  15  26  47  77 111 142 171 216 275 324
#     4  10  18  33  56  79 105 139 182 222 264 313
#     4   9  16  26  46  78 112 140 168 215 273 321
#
# _framework density 19.194979
#
# number of rings (size 3 to 8) (size 9 to 14) (size 15 to 20)
#    0.000    2.250    2.500    1.875    0.000    4.250 
#    0.000    5.000    0.000    3.750    0.000    0.875 
#    0.000    0.000    0.000    0.000    0.000    0.000 
#
# Total GULP energy -396788.936175 kJ/mol
# GULP energy per Si atom -12399.654255 kJ/mol
# Density = 1.915129 g / cm^3
# Si number density = 19.194979 Si / 1000 Ang^3
#
#
#
# Elastic Constant Matrix: (Units=GPa)
#
#
# Indices 1 2 3 4 5 6 
#
# 1 187.9373 18.2853 95.1097 0.0000 -6.1282 0.0000
# 2 18.2853 18.8431 9.7262 0.0000 -5.9669 0.0000
# 3 95.1097 9.7262 134.5486 0.0000 -4.6393 0.0000
# 4 0.0000 0.0000 0.0000 2.7563 0.0000 0.0009
# 5 -6.1282 -5.9669 -4.6393 0.0000 43.3939 0.0000
# 6 0.0000 0.0000 0.0000 0.0009 0.0000 2.4591
#
#
#
# Elastic Compliance Matrix: (Units=1/GPa)
#
#
# Indices 1 2 3 4 5 6 
#
# 1 0.008809 -0.005587 -0.005828 0.000000 -0.000147 0.000000
# 2 -0.005587 0.060993 -0.000199 0.000000 0.007577 0.000000
# 3 -0.005828 -0.000199 0.011580 0.000000 0.000388 0.000000
# 4 0.000000 0.000000 0.000000 0.362799 0.000000 -0.000126
# 5 -0.000147 0.007577 0.000388 0.000000 0.024107 0.000000
# 6 0.000000 0.000000 0.000000 -0.000126 0.000000 0.406655
#
#
# Mechanical properties :
#
#
# Convention : Reuss Voigt Hill
#
# Bulk Modulus (GPa) = 17.19550 65.28572 41.24061
# Shear Modulus (GPa) = 5.44926 24.26904 14.85915
#
# Velocity S-wave (km/s) = 1.68673 3.55962 2.78531
# Velocity P-wave (km/s) = 3.57368 7.14004 5.64586
#
# Compressibility (1/GPa) = 0.05815474
#
# Stress axis : x y z
#
# Youngs Moduli (GPa) = 113.51760 16.39534 86.35667
#
# Poissons Ratio (x) = 0.09160 0.50331
# Poissons Ratio (y) = 0.63419 0.01716
# Poissons Ratio (z) = 0.66161 0.00326
#
# Static dielectric constant tensor:
#      x y z
#    x 3.821420 0.000000 -0.062700 
#    y 0.000000 2.867770 0.000000 
#    z -0.062700 0.000000 3.723730 
# 
# 
# High freq. dielectric constant tensor:
#      x y z
#    x 1.764500 0.000000 -0.005400 
#    y 0.000000 1.680180 0.000000 
#    z -0.005400 0.000000 1.756100 
# 
# From -- ./inp_files/86872.got.cif
#   From: 2010.06.25/outbox.cif.g09.slc.cpg/sg10_44_cif.got.tgz:86872.got - 2010.06.27 22:07:45.
