data_PCOD8059759
_publ_section_title
;
Structure prediction by ZEFSAII (Michael W. Deem and Ramdas Pophale) SiO2 
 PCOD8059759
Probable space group: P 2/M
;
_chemical_formula_sum "Si O2"
_cell_formula_units_Z 30
_cell_length_a 12.576591
_cell_length_b 14.723572
_cell_length_c 20.665489
_cell_angle_alpha 90.000000
_cell_angle_beta 25.104993
_cell_angle_gamma 90.000000
_cell_volume 1623.576159
_symmetry_space_group_name_H-M "P 2/M"
_symmetry_group_IT_number 10
_symmetry_cell_setting 'monoclinic'
loop_
_space_group_symop_operation_xyz
x,y,z
-x,y,-z
-x,-y,-z
x,-y,z
loop_
_atom_site_type_symbol
_atom_site_label
_atom_site_fract_x
_atom_site_fract_y
_atom_site_fract_z
Si Si1 0.956725 0.101980 0.877763
Si Si2 0.468790 0.894399 0.789614
Si Si3 0.921605 0.241972 0.404508
Si Si4 0.000000 0.804592 0.500000
Si Si5 0.857444 0.599911 0.351071
Si Si6 0.352692 0.782063 0.731028
Si Si7 0.225186 0.896284 0.162924
Si Si8 0.287638 0.600341 0.709262
O O1 0.936056 0.114343 0.812793
O O2 0.180486 0.165609 0.775821
O O3 0.034804 0.000000 0.853086
O O4 0.688002 0.123764 0.058741
O O5 0.757276 0.868556 0.641434
O O6 0.335329 0.828755 0.810561
O O7 0.453161 0.000000 0.776372
O O8 0.004612 0.327656 0.314762
O O9 0.635189 0.214315 0.548695
O O10 0.965808 0.261124 0.456554
O O11 0.091632 0.156170 0.294165
O O12 0.978258 0.500000 0.294922
O O13 0.573147 0.596753 0.530339
O O14 0.875123 0.625939 0.265117
O O15 0.256125 0.676568 0.782917
O O16 0.247881 0.000000 0.173697
O O17 0.500000 0.855175 0.000000
O O18 0.208353 0.500000 0.779204
#
# Coordination Sequence:
#
# PCOD8059759 Si02
#       8
#     4   4   4   2   4   4   4   4
#     4  10  20  33  49  70  98 131 164 200 247 297
#     4  10  20  34  51  70  97 134 173 206 240 289
#     4  10  20  33  50  74 100 125 162 207 247 292
#     4  10  21  34  51  72  96 130 171 208 243 284
#     4   8  14  27  48  72  98 127 158 195 242 295
#     4  10  19  30  49  77 103 127 158 201 251 295
#     4  10  21  35  50  69  95 131 171 207 243 286
#     4   8  14  26  46  72 100 129 159 192 237 295
#
# _framework density 18.477727999999999
#
# number of rings (size 3 to 8) (size 9 to 14) (size 15 to 20)
#    0.000    2.533    0.000    3.400    0.000    6.933 
#    0.000    1.667    0.000    2.800    0.000    1.867 
#    0.000    0.000    0.000    0.000    0.000    0.000 
#
# Total GULP energy -371847.609889 kJ/mol
# GULP energy per Si atom -12394.920330 kJ/mol
# Density = 1.843567 g / cm^3
# Si number density = 18.477728 Si / 1000 Ang^3
#
#
#
# Elastic Constant Matrix: (Units=GPa)
#
#
# Indices 1 2 3 4 5 6 
#
# 1 78.9868 52.8975 24.7399 0.0000 -4.2807 0.0000
# 2 52.8975 108.2362 25.4096 0.0000 1.4296 0.0000
# 3 24.7399 25.4096 47.7015 0.0000 -5.2839 0.0000
# 4 0.0000 0.0000 0.0000 7.5719 0.0000 9.5473
# 5 -4.2807 1.4296 -5.2839 0.0000 23.9039 0.0000
# 6 0.0000 0.0000 0.0000 9.5473 0.0000 26.2571
#
#
#
# Elastic Compliance Matrix: (Units=1/GPa)
#
#
# Indices 1 2 3 4 5 6 
#
# 1 0.020400 -0.008687 -0.005628 0.000000 0.002929 0.000000
# 2 -0.008687 0.014346 -0.003489 0.000000 -0.003185 0.000000
# 3 -0.005628 -0.003489 0.026297 0.000000 0.005014 0.000000
# 4 0.000000 0.000000 0.000000 0.243880 0.000000 -0.088676
# 5 0.002929 -0.003185 0.005014 0.000000 0.043657 0.000000
# 6 0.000000 0.000000 0.000000 -0.088676 0.000000 0.070328
#
#
# Mechanical properties :
#
#
# Convention : Reuss Voigt Hill
#
# Bulk Modulus (GPa) = 39.31850 49.00205 44.16028
# Shear Modulus (GPa) = 10.79928 20.33841 15.56885
#
# Velocity S-wave (km/s) = 2.42016 3.32128 2.90586
# Velocity P-wave (km/s) = 5.39765 6.42534 5.93378
#
# Compressibility (1/GPa) = 0.02543332
#
# Stress axis : x y z
#
# Youngs Moduli (GPa) = 49.02026 69.70664 38.02780
#
# Poissons Ratio (x) = 0.60556 0.21403
# Poissons Ratio (y) = 0.42585 0.13268
# Poissons Ratio (z) = 0.27590 0.24321
#
# Static dielectric constant tensor:
#      x y z
#    x 3.462400 0.000000 0.007330 
#    y 0.000000 3.704610 0.000000 
#    z 0.007330 0.000000 3.126020 
# 
# 
# High freq. dielectric constant tensor:
#      x y z
#    x 1.716770 0.000000 -0.000460 
#    y 0.000000 1.710830 0.000000 
#    z -0.000460 0.000000 1.689330 
# 
# From -- ./inp_files/89795.got.cif
#   From: 2010.06.25/outbox.cif.g09.slc.cpg/sg10_45_cif.got.tgz:89795.got - 2010.06.27 22:07:45.
