data_PCOD8059526
_publ_section_title
;
Structure prediction by ZEFSAII (Michael W. Deem and Ramdas Pophale) SiO2 
 PCOD8059526
Probable space group: P 2/M
;
_chemical_formula_sum "Si O2"
_cell_formula_units_Z 32
_cell_length_a 17.190596
_cell_length_b 9.061263
_cell_length_c 11.764737
_cell_angle_alpha 90.000000
_cell_angle_beta 93.678599
_cell_angle_gamma 90.000000
_cell_volume 1828.799828
_symmetry_space_group_name_H-M "P 2/M"
_symmetry_group_IT_number 10
_symmetry_cell_setting 'monoclinic'
loop_
_space_group_symop_operation_xyz
x,y,z
-x,y,-z
-x,-y,-z
x,-y,z
loop_
_atom_site_type_symbol
_atom_site_label
_atom_site_fract_x
_atom_site_fract_y
_atom_site_fract_z
Si Si1 0.584225 0.674240 0.961034
Si Si2 0.676320 0.171007 0.798830
Si Si3 0.964467 0.673035 0.376029
Si Si4 0.786445 0.325093 0.365754
Si Si5 0.761294 0.831976 0.588777
Si Si6 0.726995 0.327494 0.124561
Si Si7 0.819866 0.671768 0.923684
Si Si8 0.090510 0.826230 0.246528
O O1 0.592639 0.500000 0.939037
O O2 0.595797 0.763085 0.842496
O O3 0.500000 0.716115 0.000000
O O4 0.648495 0.734510 0.057818
O O5 0.684957 0.184776 0.662805
O O6 0.741365 0.275820 0.857016
O O7 0.688148 0.000000 0.835634
O O8 0.972698 0.500000 0.353037
O O9 0.875690 0.727239 0.366145
O O10 0.000000 0.717895 0.500000
O O11 0.009819 0.759109 0.281916
O O12 0.782207 0.500000 0.370186
O O13 0.746588 0.264374 0.475796
O O14 0.740713 0.260301 0.251492
O O15 0.838986 0.779178 0.662873
O O16 0.772495 0.000000 0.551263
O O17 0.714250 0.500000 0.136722
O O18 0.805303 0.297570 0.056585
O O19 0.833543 0.500000 0.900290
O O20 0.892546 0.761777 0.878288
O O21 0.083191 0.000000 0.235452
#
# Coordination Sequence:
#
# PCOD8059526 Si02
#       8
#     4   4   4   4   4   4   4   4
#     4   9  17  31  53  78 100 122 152 191 231 274
#     4   9  17  29  46  72 101 125 154 192 232 277
#     4  10  19  30  44  67  92 119 161 204 238 278
#     4  10  19  31  48  67  92 124 158 195 235 282
#     4   9  18  30  44  66  94 123 156 194 233 273
#     4   8  16  31  49  71  95 121 152 189 235 281
#     4   9  16  29  49  68  91 122 158 199 238 279
#     4  10  19  30  46  67  92 122 158 202 247 282
#
# _framework density 17.497813000000001
#
# number of rings (size 3 to 8) (size 9 to 14) (size 15 to 20)
#    0.000    2.750    1.250    2.625    0.000    3.500 
#    0.000    3.750    0.000    4.500    0.000    5.250 
#    0.000    0.000    0.000    0.000    0.000    0.000 
#
# Total GULP energy -396577.575247 kJ/mol
# GULP energy per Si atom -12393.049226 kJ/mol
# Density = 1.745799 g / cm^3
# Si number density = 17.497813 Si / 1000 Ang^3
#
#
#
# Elastic Constant Matrix: (Units=GPa)
#
#
# Indices 1 2 3 4 5 6 
#
# 1 84.1926 27.9923 54.0797 0.0000 -21.4654 0.0000
# 2 27.9923 44.7858 39.0788 0.0000 -12.5457 0.0000
# 3 54.0797 39.0788 113.8817 0.0000 -18.0276 0.0000
# 4 0.0000 0.0000 0.0000 18.5435 0.0000 -9.4643
# 5 -21.4654 -12.5457 -18.0276 0.0000 28.1888 0.0000
# 6 0.0000 0.0000 0.0000 -9.4643 0.0000 16.7211
#
#
#
# Elastic Compliance Matrix: (Units=1/GPa)
#
#
# Indices 1 2 3 4 5 6 
#
# 1 0.019744 -0.004108 -0.006537 0.000000 0.009025 0.000000
# 2 -0.004108 0.034435 -0.008829 0.000000 0.006551 0.000000
# 3 -0.006537 -0.008829 0.015026 0.000000 0.000702 0.000000
# 4 0.000000 0.000000 0.000000 0.075834 0.000000 0.042923
# 5 0.009025 0.006551 0.000702 0.000000 0.045713 0.000000
# 6 0.000000 0.000000 0.000000 0.042923 0.000000 0.084099
#
#
# Mechanical properties :
#
#
# Convention : Reuss Voigt Hill
#
# Bulk Modulus (GPa) = 33.05011 53.90685 43.47848
# Shear Modulus (GPa) = 15.43763 20.80463 18.12113
#
# Velocity S-wave (km/s) = 2.97351 3.45191 3.22160
# Velocity P-wave (km/s) = 5.54240 6.83829 6.22416
#
# Compressibility (1/GPa) = 0.03025709
#
# Stress axis : x y z
#
# Youngs Moduli (GPa) = 50.64949 29.04047 66.54993
#
# Poissons Ratio (x) = 0.11929 0.43507
# Poissons Ratio (y) = 0.20805 0.58755
# Poissons Ratio (z) = 0.33112 0.25639
#
# Static dielectric constant tensor:
#      x y z
#    x 3.177250 0.000000 -0.298610 
#    y 0.000000 3.143560 0.000000 
#    z -0.298610 0.000000 3.523740 
# 
# 
# High freq. dielectric constant tensor:
#      x y z
#    x 1.644180 0.000000 -0.031160 
#    y 0.000000 1.667310 0.000000 
#    z -0.031160 0.000000 1.672220 
# 
# From -- ./inp_files/52693.got.cif
#   From: 2010.06.25/outbox.cif.g09.slc.cpg/sg10_27_cif.got.tgz:52693.got - 2010.06.27 22:07:45.
