data_PCOD8059184
_publ_section_title
;
Structure prediction by ZEFSAII (Michael W. Deem and Ramdas Pophale) SiO2 
 PCOD8059184
Probable space group: P 2/M
;
_chemical_formula_sum "Si O2"
_cell_formula_units_Z 32
_cell_length_a 24.565406
_cell_length_b 9.068377
_cell_length_c 19.151277
_cell_angle_alpha 90.000000
_cell_angle_beta 23.359651
_cell_angle_gamma 90.000000
_cell_volume 1691.593754
_symmetry_space_group_name_H-M "P 2/M"
_symmetry_group_IT_number 10
_symmetry_cell_setting 'monoclinic'
loop_
_space_group_symop_operation_xyz
x,y,z
-x,y,-z
-x,-y,-z
x,-y,z
loop_
_atom_site_type_symbol
_atom_site_label
_atom_site_fract_x
_atom_site_fract_y
_atom_site_fract_z
Si Si1 0.661414 0.171714 0.495141
Si Si2 0.893561 0.173478 0.451336
Si Si3 0.350232 0.167420 0.648710
Si Si4 0.172984 0.323966 0.128902
Si Si5 0.182835 0.662210 0.958896
Si Si6 0.564533 0.171483 0.126469
Si Si7 0.589350 0.174762 0.831177
Si Si8 0.126378 0.664475 0.665783
O O1 0.647374 0.228226 0.432658
O O2 0.519261 0.197684 0.703607
O O3 0.776748 0.278474 0.387964
O O4 0.703980 0.000000 0.450763
O O5 0.748336 0.220355 0.657915
O O6 0.870383 0.215113 0.398597
O O7 0.024659 0.260272 0.328820
O O8 0.921783 0.000000 0.425278
O O9 0.500000 0.191462 0.500000
O O10 0.247773 0.243877 0.821753
O O11 0.302969 0.000000 0.703331
O O12 0.165146 0.500000 0.143237
O O13 0.200523 0.271656 0.016490
O O14 0.292928 0.261501 0.037046
O O15 0.249787 0.500000 0.879146
O O16 0.024367 0.654488 0.124976
O O17 0.473525 0.232321 0.168519
O O18 0.601480 0.000000 0.072765
O O19 0.580420 0.000000 0.839626
O O20 0.500000 0.240531 0.000000
O O21 0.171067 0.500000 0.587250
#
# Coordination Sequence:
#
# PCOD8059184 Si02
#       8
#     4   4   4   4   4   4   4   4
#     4  10  20  34  53  79 106 137 183 230 274 325
#     4  10  18  34  59  84 111 146 183 225 274 324
#     4  10  21  35  51  72 101 135 176 228 279 324
#     4  10  21  36  55  82 113 148 188 230 270 324
#     4   9  20  36  51  71 103 140 181 222 267 324
#     4  10  19  35  58  84 111 142 184 231 273 325
#     4   9  18  34  59  89 115 140 178 228 276 324
#     4  10  20  34  53  78 107 141 180 224 270 324
#
# _framework density 18.917071
#
# number of rings (size 3 to 8) (size 9 to 14) (size 15 to 20)
#    0.000    2.250    1.250    2.625    0.000    5.750 
#    0.000    3.125    0.000    7.125    0.000    0.000 
#    0.000    0.000    0.000    0.000    0.000    0.000 
#
# Total GULP energy -396646.014719 kJ/mol
# GULP energy per Si atom -12395.187960 kJ/mol
# Density = 1.887402 g / cm^3
# Si number density = 18.917071 Si / 1000 Ang^3
#
#
#
# Elastic Constant Matrix: (Units=GPa)
#
#
# Indices 1 2 3 4 5 6 
#
# 1 58.5574 23.3645 42.7138 0.0000 -12.2806 0.0000
# 2 23.3645 59.2884 39.8664 0.0000 -6.8796 0.0000
# 3 42.7138 39.8664 112.4395 0.0000 -0.9067 0.0000
# 4 0.0000 0.0000 0.0000 32.6693 0.0000 -6.3323
# 5 -12.2806 -6.8796 -0.9067 0.0000 36.3231 0.0000
# 6 0.0000 0.0000 0.0000 -6.3323 0.0000 19.3022
#
#
#
# Elastic Compliance Matrix: (Units=1/GPa)
#
#
# Indices 1 2 3 4 5 6 
#
# 1 0.026616 -0.003671 -0.008744 0.000000 0.008085 0.000000
# 2 -0.003671 0.023250 -0.006825 0.000000 0.002992 0.000000
# 3 -0.008744 -0.006825 0.014604 0.000000 -0.003884 0.000000
# 4 0.000000 0.000000 0.000000 0.032688 0.000000 0.010724
# 5 0.008085 0.002992 -0.003884 0.000000 0.030734 0.000000
# 6 0.000000 0.000000 0.000000 0.010724 0.000000 0.055325
#
#
# Mechanical properties :
#
#
# Convention : Reuss Voigt Hill
#
# Bulk Modulus (GPa) = 38.47676 49.13052 43.80364
# Shear Modulus (GPa) = 21.70518 25.94831 23.82675
#
# Velocity S-wave (km/s) = 3.39098 3.70765 3.55285
# Velocity P-wave (km/s) = 5.97625 6.66009 6.32741
#
# Compressibility (1/GPa) = 0.02598972
#
# Stress axis : x y z
#
# Youngs Moduli (GPa) = 37.57160 43.01157 68.47517
#
# Poissons Ratio (x) = 0.15789 0.59876
# Poissons Ratio (y) = 0.13792 0.46732
# Poissons Ratio (z) = 0.32853 0.29354
#
# Static dielectric constant tensor:
#      x y z
#    x 3.424910 0.000000 -0.043190 
#    y 0.000000 3.380400 0.000000 
#    z -0.043190 0.000000 3.527320 
# 
# 
# High freq. dielectric constant tensor:
#      x y z
#    x 1.723760 0.000000 -0.012530 
#    y 0.000000 1.722450 0.000000 
#    z -0.012530 0.000000 1.738490 
# 
# From -- ./inp_files/86769.got.cif
#   From: 2010.06.25/outbox.cif.g09.slc.cpg/sg10_44_cif.got.tgz:86769.got - 2010.06.27 22:07:45.
