data_PCOD8059011
_publ_section_title
;
Structure prediction by ZEFSAII (Michael W. Deem and Ramdas Pophale) SiO2 
 PCOD8059011
Probable space group: P 2/M
;
_chemical_formula_sum "Si O2"
_cell_formula_units_Z 28
_cell_length_a 19.444536
_cell_length_b 13.952113
_cell_length_c 9.186088
_cell_angle_alpha 90.000000
_cell_angle_beta 38.937799
_cell_angle_gamma 90.000000
_cell_volume 1566.235647
_symmetry_space_group_name_H-M "P 2/M"
_symmetry_group_IT_number 10
_symmetry_cell_setting 'monoclinic'
loop_
_space_group_symop_operation_xyz
x,y,z
-x,y,-z
-x,-y,-z
x,-y,z
loop_
_atom_site_type_symbol
_atom_site_label
_atom_site_fract_x
_atom_site_fract_y
_atom_site_fract_z
Si Si1 0.611973 0.895349 0.897148
Si Si2 0.021683 0.105617 0.794295
Si Si3 0.062923 0.607586 0.257169
Si Si4 0.908134 0.395274 0.252830
Si Si5 0.388420 0.111996 0.764160
Si Si6 0.777652 0.778232 0.455176
Si Si7 0.812427 0.212654 0.060472
O O1 0.668667 0.810775 0.713838
O O2 0.672711 0.000000 0.788846
O O3 0.500000 0.908922 0.000000
O O4 0.596205 0.865673 0.090686
O O5 0.127638 0.171528 0.605211
O O6 0.044387 0.000000 0.692487
O O7 0.000000 0.098131 0.000000
O O8 0.922536 0.150138 0.864029
O O9 0.113439 0.500000 0.200300
O O10 0.000000 0.650507 0.500000
O O11 0.959573 0.595772 0.324035
O O12 0.157616 0.678473 0.039230
O O13 0.880199 0.500000 0.231931
O O14 0.796113 0.335605 0.440648
O O15 0.000000 0.342480 0.000000
O O16 0.500000 0.144758 0.500000
O O17 0.284565 0.172672 0.880030
O O18 0.366083 0.000000 0.769915
O O19 0.772349 0.799576 0.292554
#
# Coordination Sequence:
#
# PCOD8059011 Si02
#       7
#     4   4   4   4   4   4   4
#     4  10  22  39  58  79 105 140 183 228 270 318
#     4   9  17  28  44  73 109 141 170 206 259 318
#     4  10  21  35  52  78 113 149 182 219 267 322
#     4  10  18  33  54  79 111 145 184 221 259 318
#     4  10  22  39  57  78 105 142 185 225 268 318
#     4  11  19  32  52  81 109 142 178 221 270 318
#     4  11  20  32  54  80 110 142 178 223 268 320
#
# _framework density 17.877258000000001
#
# number of rings (size 3 to 8) (size 9 to 14) (size 15 to 20)
#    0.000    1.857    2.857    2.143    2.000    2.857 
#    0.000    0.000    0.000    4.286    0.000    0.000 
#    0.000    0.000    0.000    0.000    0.000    0.000 
#
# Total GULP energy -346952.937857 kJ/mol
# GULP energy per Si atom -12391.176352 kJ/mol
# Density = 1.783657 g / cm^3
# Si number density = 17.877258 Si / 1000 Ang^3
#
#
#
# Elastic Constant Matrix: (Units=GPa)
#
#
# Indices 1 2 3 4 5 6 
#
# 1 101.7674 31.3390 32.7713 0.0000 1.8360 0.0000
# 2 31.3390 102.5263 42.6475 0.0000 -3.0538 0.0000
# 3 32.7713 42.6475 91.7753 0.0000 11.9303 0.0000
# 4 0.0000 0.0000 0.0000 23.8357 0.0000 4.6537
# 5 1.8360 -3.0538 11.9303 0.0000 27.3705 0.0000
# 6 0.0000 0.0000 0.0000 4.6537 0.0000 11.6369
#
#
#
# Elastic Compliance Matrix: (Units=1/GPa)
#
#
# Indices 1 2 3 4 5 6 
#
# 1 0.011507 -0.002205 -0.003129 0.000000 0.000346 0.000000
# 2 -0.002205 0.012947 -0.005762 0.000000 0.004104 0.000000
# 3 -0.003129 -0.005762 0.015633 0.000000 -0.007247 0.000000
# 4 0.000000 0.000000 0.000000 0.045507 0.000000 -0.018199
# 5 0.000346 0.004104 -0.007247 0.000000 0.040129 0.000000
# 6 0.000000 0.000000 0.000000 -0.018199 0.000000 0.093211
#
#
# Mechanical properties :
#
#
# Convention : Reuss Voigt Hill
#
# Bulk Modulus (GPa) = 55.88615 56.62050 56.25333
# Shear Modulus (GPa) = 20.23531 25.18937 22.71234
#
# Velocity S-wave (km/s) = 3.36803 3.75776 3.56822
# Velocity P-wave (km/s) = 6.81569 7.11114 6.96498
#
# Compressibility (1/GPa) = 0.01789352
#
# Stress axis : x y z
#
# Youngs Moduli (GPa) = 86.90474 77.23845 63.96584
#
# Poissons Ratio (x) = 0.17034 0.20015
# Poissons Ratio (y) = 0.19166 0.36859
# Poissons Ratio (z) = 0.27193 0.44508
#
# Static dielectric constant tensor:
#      x y z
#    x 3.307080 0.000000 0.124600 
#    y 0.000000 3.553850 0.000000 
#    z 0.124600 0.000000 3.181480 
# 
# 
# High freq. dielectric constant tensor:
#      x y z
#    x 1.687390 0.000000 0.016420 
#    y 0.000000 1.692200 0.000000 
#    z 0.016420 0.000000 1.668920 
# 
# From -- ./inp_files/32771.got.cif
#   From: 2010.06.25/outbox.cif.g09.slc.cpg/sg10_17_cif.got.tgz:32771.got - 2010.06.27 22:07:45.
