data_PCOD8059117
_publ_section_title
;
Structure prediction by ZEFSAII (Michael W. Deem and Ramdas Pophale) SiO2 
 PCOD8059117
Probable space group: P 2/M
;
_chemical_formula_sum "Si O2"
_cell_formula_units_Z 28
_cell_length_a 11.475950
_cell_length_b 9.915979
_cell_length_c 13.079208
_cell_angle_alpha 90.000000
_cell_angle_beta 60.295553
_cell_angle_gamma 90.000000
_cell_volume 1292.772323
_symmetry_space_group_name_H-M "P 2/M"
_symmetry_group_IT_number 10
_symmetry_cell_setting 'monoclinic'
loop_
_space_group_symop_operation_xyz
x,y,z
-x,y,-z
-x,-y,-z
x,-y,z
loop_
_atom_site_type_symbol
_atom_site_label
_atom_site_fract_x
_atom_site_fract_y
_atom_site_fract_z
Si Si1 0.613438 0.785569 0.213234
Si Si2 0.288281 0.852050 0.613585
Si Si3 0.614534 0.352013 0.585975
Si Si4 0.982435 0.843630 0.722439
Si Si5 0.870686 0.157427 0.992478
Si Si6 0.204507 0.342631 0.304674
Si Si7 0.414452 0.853723 0.135068
O O1 0.663683 0.864317 0.290948
O O2 0.525625 0.656899 0.289595
O O3 0.509420 0.872610 0.192285
O O4 0.743660 0.752954 0.086105
O O5 0.382295 0.753433 0.507692
O O6 0.134943 0.802807 0.679384
O O7 0.301234 0.000000 0.558019
O O8 0.621706 0.500000 0.534285
O O9 0.744967 0.328343 0.601000
O O10 0.894839 0.817250 0.862315
O O11 0.932191 0.742428 0.654355
O O12 0.971640 0.000000 0.692462
O O13 0.838932 0.000000 0.028169
O O14 0.000000 0.203799 0.000000
O O15 0.186354 0.500000 0.282272
O O16 0.312510 0.269657 0.185613
O O17 0.340584 0.000000 0.153869
O O18 0.500000 0.817938 0.000000
#
# Coordination Sequence:
#
# PCOD8059117 Si02
#       7
#     4   4   4   4   4   4   4
#     4  11  21  36  62  92 126 159 196 243 300 362
#     4  11  23  38  61  94 124 156 200 253 305 356
#     4  10  25  45  62  83 118 165 209 254 304 356
#     4  10  21  38  62  93 127 159 197 246 303 362
#     4  10  18  33  59  90 127 159 187 231 298 366
#     4  10  22  40  59  82 115 160 208 251 300 353
#     4  10  20  35  59  91 122 156 199 245 298 359
#
# _framework density 21.658878999999999
#
# number of rings (size 3 to 8) (size 9 to 14) (size 15 to 20)
#    0.000    1.714    1.429    3.000    0.000    9.429 
#    0.000    6.429    0.000    0.857    0.000    0.000 
#    0.000    0.000    0.000    0.000    0.000    0.000 
#
# Total GULP energy -347014.536966 kJ/mol
# GULP energy per Si atom -12393.376320 kJ/mol
# Density = 2.160958 g / cm^3
# Si number density = 21.658879 Si / 1000 Ang^3
#
#
#
# Elastic Constant Matrix: (Units=GPa)
#
#
# Indices 1 2 3 4 5 6 
#
# 1 118.3180 34.5993 18.0486 0.0000 -5.4324 0.0000
# 2 34.5993 106.7484 35.2223 0.0000 -0.5230 0.0000
# 3 18.0486 35.2223 81.2491 0.0000 -8.4585 0.0000
# 4 0.0000 0.0000 0.0000 11.9455 0.0000 0.6206
# 5 -5.4324 -0.5230 -8.4585 0.0000 28.6403 0.0000
# 6 0.0000 0.0000 0.0000 0.6206 0.0000 20.3633
#
#
#
# Elastic Compliance Matrix: (Units=1/GPa)
#
#
# Indices 1 2 3 4 5 6 
#
# 1 0.009456 -0.002820 -0.000719 0.000000 0.001530 0.000000
# 2 -0.002820 0.011815 -0.004672 0.000000 -0.001699 0.000000
# 3 -0.000719 -0.004672 0.014929 0.000000 0.004187 0.000000
# 4 0.000000 0.000000 0.000000 0.083846 0.000000 -0.002555
# 5 0.001530 -0.001699 0.004187 0.000000 0.036412 0.000000
# 6 0.000000 0.000000 0.000000 -0.002555 0.000000 0.049186
#
#
# Mechanical properties :
#
#
# Convention : Reuss Voigt Hill
#
# Bulk Modulus (GPa) = 50.56204 53.56176 52.06190
# Shear Modulus (GPa) = 21.86652 26.75284 24.30968
#
# Velocity S-wave (km/s) = 3.18085 3.51834 3.35384
# Velocity P-wave (km/s) = 6.07337 6.42560 6.25196
#
# Compressibility (1/GPa) = 0.01977768
#
# Stress axis : x y z
#
# Youngs Moduli (GPa) = 105.74816 84.63570 66.98382
#
# Poissons Ratio (x) = 0.23870 0.04814
# Poissons Ratio (y) = 0.29825 0.31298
# Poissons Ratio (z) = 0.07600 0.39546
#
# Static dielectric constant tensor:
#      x y z
#    x 4.192030 0.000000 0.008450 
#    y 0.000000 3.597760 0.000000 
#    z 0.008450 0.000000 3.816450 
# 
# 
# High freq. dielectric constant tensor:
#      x y z
#    x 1.874210 0.000000 0.001930 
#    y 0.000000 1.816560 0.000000 
#    z 0.001930 0.000000 1.843210 
# 
# From -- ./inp_files/63632.got.cif
#   From: 2010.06.25/outbox.cif.g09.slc.cpg/sg10_32_cif.got.tgz:63632.got - 2010.06.27 22:07:45.
