data_PCOD8059861
_publ_section_title
;
Structure prediction by ZEFSAII (Michael W. Deem and Ramdas Pophale) SiO2 
 PCOD8059861
Probable space group: P 2/M
;
_chemical_formula_sum "Si O2"
_cell_formula_units_Z 32
_cell_length_a 31.022331
_cell_length_b 8.754533
_cell_length_c 20.610495
_cell_angle_alpha 90.000000
_cell_angle_beta 158.999302
_cell_angle_gamma 90.000000
_cell_volume 2006.036257
_symmetry_space_group_name_H-M "P 2/M"
_symmetry_group_IT_number 10
_symmetry_cell_setting 'monoclinic'
loop_
_space_group_symop_operation_xyz
x,y,z
-x,y,-z
-x,-y,-z
x,-y,z
loop_
_atom_site_type_symbol
_atom_site_label
_atom_site_fract_x
_atom_site_fract_y
_atom_site_fract_z
Si Si1 0.119908 0.171813 0.710400
Si Si2 0.010860 0.322392 0.362377
Si Si3 0.953059 0.821466 0.722120
Si Si4 0.284798 0.317068 0.555642
Si Si5 0.515043 0.179767 0.946602
Si Si6 0.072726 0.672550 0.003793
Si Si7 0.246705 0.678143 0.775986
Si Si8 0.819361 0.670228 0.718678
O O1 0.098716 0.272363 0.744945
O O2 0.226704 0.244040 0.817857
O O3 0.000000 0.173708 0.500000
O O4 0.155492 0.000000 0.780364
O O5 0.997724 0.500000 0.327024
O O6 0.000700 0.222351 0.283714
O O7 0.137663 0.285555 0.574298
O O8 0.829805 0.731896 0.562863
O O9 0.060615 0.777458 0.923198
O O10 0.926565 0.000000 0.689475
O O11 0.293019 0.500000 0.569621
O O12 0.403182 0.241863 0.749549
O O13 0.272176 0.256030 0.462678
O O14 0.524866 0.000000 0.951175
O O15 0.500000 0.226468 0.000000
O O16 0.634546 0.256842 0.088926
O O17 0.111099 0.500000 0.037681
O O18 0.945358 0.665478 0.859378
O O19 0.166048 0.746345 0.188788
O O20 0.260884 0.500000 0.808243
O O21 0.775083 0.500000 0.671264
#
# Coordination Sequence:
#
# PCOD8059861 Si02
#       8
#     4   4   4   4   4   4   4   4
#     4   9  17  30  48  68  89 112 139 177 225 268
#     4  10  19  31  47  66  88 116 150 183 217 261
#     4  11  20  28  40  63  93 120 147 180 221 264
#     4  10  19  32  47  62  83 115 154 189 221 260
#     4  11  23  35  46  63  89 119 151 188 227 261
#     4   8  13  25  42  59  81 111 144 175 213 260
#     4  10  20  33  49  66  85 114 152 188 219 258
#     4   7  12  24  43  61  78 106 144 182 216 255
#
# _framework density 15.951855
#
# number of rings (size 3 to 8) (size 9 to 14) (size 15 to 20)
#    0.000    2.500    0.000    5.250    0.000    6.000 
#    0.000    5.625    0.000    0.000    0.000    0.000 
#    0.000    1.000    0.000   10.750    0.000    5.000 
#
# Total GULP energy -396536.869703 kJ/mol
# GULP energy per Si atom -12391.777178 kJ/mol
# Density = 1.591555 g / cm^3
# Si number density = 15.951855 Si / 1000 Ang^3
#
#
#
# Elastic Constant Matrix: (Units=GPa)
#
#
# Indices 1 2 3 4 5 6 
#
# 1 115.4249 60.8358 62.9737 0.0000 0.2247 0.0000
# 2 60.8358 95.4697 50.4552 0.0000 3.8440 0.0000
# 3 62.9737 50.4552 73.1613 0.0000 -8.6630 0.0000
# 4 0.0000 0.0000 0.0000 15.9645 0.0000 3.8254
# 5 0.2247 3.8440 -8.6630 0.0000 26.1085 0.0000
# 6 0.0000 0.0000 0.0000 3.8254 0.0000 24.7094
#
#
#
# Elastic Compliance Matrix: (Units=1/GPa)
#
#
# Indices 1 2 3 4 5 6 
#
# 1 0.018110 -0.004589 -0.012867 0.000000 -0.003750 0.000000
# 2 -0.004589 0.018759 -0.009690 0.000000 -0.005938 0.000000
# 3 -0.012867 -0.009690 0.032902 0.000000 0.012454 0.000000
# 4 0.000000 0.000000 0.000000 0.065052 0.000000 -0.010071
# 5 -0.003750 -0.005938 0.012454 0.000000 0.043341 0.000000
# 6 0.000000 0.000000 0.000000 -0.010071 0.000000 0.042030
#
#
# Mechanical properties :
#
#
# Convention : Reuss Voigt Hill
#
# Bulk Modulus (GPa) = 64.61014 70.28727 67.44871
# Shear Modulus (GPa) = 17.87984 20.67590 19.27787
#
# Velocity S-wave (km/s) = 3.35156 3.60411 3.48012
# Velocity P-wave (km/s) = 7.45442 7.84074 7.65002
#
# Compressibility (1/GPa) = 0.01547745
#
# Stress axis : x y z
#
# Youngs Moduli (GPa) = 55.21924 53.30807 30.39362
#
# Poissons Ratio (x) = 0.24461 0.39109
# Poissons Ratio (y) = 0.25338 0.29452
# Poissons Ratio (z) = 0.71053 0.51657
#
# Static dielectric constant tensor:
#      x y z
#    x 3.239110 0.000000 -0.377770 
#    y 0.000000 3.063980 0.000000 
#    z -0.377770 0.000000 3.002520 
# 
# 
# High freq. dielectric constant tensor:
#      x y z
#    x 1.610180 0.000000 -0.023750 
#    y 0.000000 1.614870 0.000000 
#    z -0.023750 0.000000 1.573030 
# 
# From -- ./inp_files/66212.got.cif
#   From: 2010.06.25/outbox.cif.g09.slc.cpg/sg10_34_cif.got.tgz:66212.got - 2010.06.27 22:07:45.
