data_PCOD8059386
_publ_section_title
;
Structure prediction by ZEFSAII (Michael W. Deem and Ramdas Pophale) SiO2 
 PCOD8059386
Probable space group: P 2/M
;
_chemical_formula_sum "Si O2"
_cell_formula_units_Z 24
_cell_length_a 16.733053
_cell_length_b 8.777782
_cell_length_c 23.296842
_cell_angle_alpha 90.000000
_cell_angle_beta 156.068015
_cell_angle_gamma 90.000000
_cell_volume 1388.067373
_symmetry_space_group_name_H-M "P 2/M"
_symmetry_group_IT_number 10
_symmetry_cell_setting 'monoclinic'
loop_
_space_group_symop_operation_xyz
x,y,z
-x,y,-z
-x,-y,-z
x,-y,z
loop_
_atom_site_type_symbol
_atom_site_label
_atom_site_fract_x
_atom_site_fract_y
_atom_site_fract_z
Si Si1 0.971563 0.679215 0.417629
Si Si2 0.367011 0.175351 0.078881
Si Si3 0.276206 0.675768 0.201841
Si Si4 0.438436 0.319419 0.897799
Si Si5 0.394925 0.677756 0.662785
Si Si6 0.962144 0.824608 0.055050
O O1 0.939786 0.500000 0.402440
O O2 0.776351 0.748945 0.259966
O O3 0.000000 0.748914 0.500000
O O4 0.163641 0.718032 0.505351
O O5 0.138378 0.200057 0.948732
O O6 0.409336 0.000000 0.093269
O O7 0.399919 0.270576 0.042881
O O8 0.514082 0.225947 0.225735
O O9 0.255856 0.500000 0.204804
O O10 0.501250 0.715721 0.330555
O O11 0.193715 0.773663 0.202451
O O12 0.148584 0.714735 0.061928
O O13 0.432756 0.500000 0.896568
O O14 0.500000 0.252178 0.000000
O O15 0.425309 0.500000 0.698241
O O16 0.939366 0.000000 0.021251
#
# Coordination Sequence:
#
# PCOD8059386 Si02
#       6
#     4   4   4   4   4   4
#     4   9  15  27  48  68  88 118 149 181 224 267
#     4  10  19  29  43  64  90 120 151 184 224 265
#     4   9  15  22  36  60  86 112 143 181 218 256
#     4  10  20  33  49  68  89 117 154 189 221 264
#     4   9  16  27  44  65  90 119 150 182 221 268
#     4   9  16  25  37  55  84 119 146 173 217 268
#
# _framework density 17.290227999999999
#
# number of rings (size 3 to 8) (size 9 to 14) (size 15 to 20)
#    0.000    2.667    1.667    2.500    0.000    3.000 
#    0.000    1.667    0.000    0.000    0.000    1.167 
#    0.000    9.333    0.000    0.000    0.000    0.000 
#
# Total GULP energy -297330.770638 kJ/mol
# GULP energy per Si atom -12388.782110 kJ/mol
# Density = 1.725087 g / cm^3
# Si number density = 17.290228 Si / 1000 Ang^3
#
#
#
# Elastic Constant Matrix: (Units=GPa)
#
#
# Indices 1 2 3 4 5 6 
#
# 1 134.6939 22.3726 69.2085 0.0000 29.9353 0.0000
# 2 22.3726 24.3791 17.3944 0.0000 5.0643 0.0000
# 3 69.2085 17.3944 80.5011 0.0000 12.0313 0.0000
# 4 0.0000 0.0000 0.0000 6.5793 0.0000 5.9595
# 5 29.9353 5.0643 12.0313 0.0000 30.9195 0.0000
# 6 0.0000 0.0000 0.0000 5.9595 0.0000 20.9813
#
#
#
# Elastic Compliance Matrix: (Units=1/GPa)
#
#
# Indices 1 2 3 4 5 6 
#
# 1 0.016560 -0.004673 -0.011621 0.000000 -0.010745 0.000000
# 2 -0.004673 0.050309 -0.006687 0.000000 -0.001114 0.000000
# 3 -0.011621 -0.006687 0.023372 0.000000 0.003252 0.000000
# 4 0.000000 0.000000 0.000000 0.204645 0.000000 -0.058128
# 5 -0.010745 -0.001114 0.003252 0.000000 0.041662 0.000000
# 6 0.000000 0.000000 0.000000 -0.058128 0.000000 0.064172
#
#
# Mechanical properties :
#
#
# Convention : Reuss Voigt Hill
#
# Bulk Modulus (GPa) = 22.58385 50.83611 36.70998
# Shear Modulus (GPa) = 10.83560 20.40258 15.61909
#
# Velocity S-wave (km/s) = 2.50609 3.43885 3.00884
# Velocity P-wave (km/s) = 4.63292 6.72555 5.77482
#
# Compressibility (1/GPa) = 0.04427943
#
# Stress axis : x y z
#
# Youngs Moduli (GPa) = 60.38772 19.87701 42.78645
#
# Poissons Ratio (x) = 0.09289 0.49722
# Poissons Ratio (y) = 0.28219 0.28610
# Poissons Ratio (z) = 0.70177 0.13291
#
# Static dielectric constant tensor:
#      x y z
#    x 3.707160 0.000000 0.608640 
#    y 0.000000 3.056890 0.000000 
#    z 0.608640 0.000000 3.172280 
# 
# 
# High freq. dielectric constant tensor:
#      x y z
#    x 1.673610 0.000000 0.049760 
#    y 0.000000 1.655050 0.000000 
#    z 0.049760 0.000000 1.614260 
# 
# From -- ./inp_files/89983.got.cif
#   From: 2010.06.25/outbox.cif.g09.slc.cpg/sg10_45_cif.got.tgz:89983.got - 2010.06.27 22:07:45.
