data_PCOD8059997
_publ_section_title
;
Structure prediction by ZEFSAII (Michael W. Deem and Ramdas Pophale) SiO2 
 PCOD8059997
Probable space group: P 2/M
;
_chemical_formula_sum "Si O2"
_cell_formula_units_Z 24
_cell_length_a 9.408620
_cell_length_b 11.665743
_cell_length_c 25.552089
_cell_angle_alpha 90.000000
_cell_angle_beta 150.647242
_cell_angle_gamma 90.000000
_cell_volume 1374.753962
_symmetry_space_group_name_H-M "P 2/M"
_symmetry_group_IT_number 10
_symmetry_cell_setting 'monoclinic'
loop_
_space_group_symop_operation_xyz
x,y,z
-x,y,-z
-x,-y,-z
x,-y,z
loop_
_atom_site_type_symbol
_atom_site_label
_atom_site_fract_x
_atom_site_fract_y
_atom_site_fract_z
Si Si1 0.937695 0.739591 0.199787
Si Si2 0.604732 0.130696 0.942767
Si Si3 0.810919 0.132903 0.622672
Si Si4 0.959304 0.500000 0.048074
Si Si5 0.347586 0.500000 0.894678
Si Si6 0.389301 0.870768 0.756527
Si Si7 0.151675 0.261934 0.154332
O O1 0.635522 0.808376 0.098084
O O2 0.859576 0.607104 0.182182
O O3 0.132199 0.785559 0.309705
O O4 0.125098 0.755010 0.207728
O O5 0.527672 0.145830 0.857721
O O6 0.616609 0.000000 0.964281
O O7 0.917134 0.185425 0.049529
O O8 0.500000 0.164442 0.500000
O O9 0.046295 0.155123 0.652310
O O10 0.830968 0.000000 0.647556
O O11 0.107335 0.392903 0.123983
O O12 0.000000 0.500000 0.000000
O O13 0.611995 0.500000 0.939410
O O14 0.500000 0.500000 0.000000
O O15 0.530652 0.781637 0.761274
O O16 0.441235 0.000000 0.752651
#
# Coordination Sequence:
#
# PCOD8059997 Si02
#       7
#     4   4   4   2   2   4   4
#     4  11  21  34  55  78 108 147 187 227 271 327
#     4  10  19  31  48  74 111 149 179 214 265 332
#     4   9  20  41  63  81 105 140 187 239 287 335
#     4  12  24  34  52  77 112 160 191 213 259 317
#     4  12  20  40  53  79 120 155 185 223 266 318
#     4   9  19  33  51  77 108 141 176 222 277 327
#     4  12  21  32  49  79 115 144 183 224 267 327
#
# _framework density 17.457668999999999
#
# number of rings (size 3 to 8) (size 9 to 14) (size 15 to 20)
#    0.000    1.500    3.333    4.000    2.333    4.667 
#    0.000    1.250    0.000    3.000    0.000    2.333 
#    0.000    0.000    0.000    0.000    0.000    0.000 
#
# Total GULP energy -297643.707819 kJ/mol
# GULP energy per Si atom -12401.821159 kJ/mol
# Density = 1.741793 g / cm^3
# Si number density = 17.457669 Si / 1000 Ang^3
#
#
#
# Elastic Constant Matrix: (Units=GPa)
#
#
# Indices 1 2 3 4 5 6 
#
# 1 131.2030 53.1789 40.4883 0.0000 16.0347 0.0000
# 2 53.1789 130.8823 45.8667 0.0000 8.5541 0.0000
# 3 40.4883 45.8667 94.5777 0.0000 17.9042 0.0000
# 4 0.0000 0.0000 0.0000 18.7401 0.0000 3.2687
# 5 16.0347 8.5541 17.9042 0.0000 20.2812 0.0000
# 6 0.0000 0.0000 0.0000 3.2687 0.0000 26.6521
#
#
#
# Elastic Compliance Matrix: (Units=1/GPa)
#
#
# Indices 1 2 3 4 5 6 
#
# 1 0.010068 -0.003115 -0.001851 0.000000 -0.005012 0.000000
# 2 -0.003115 0.010168 -0.003905 0.000000 0.001621 0.000000
# 3 -0.001851 -0.003905 0.015213 0.000000 -0.010320 0.000000
# 4 0.000000 0.000000 0.000000 0.054528 0.000000 -0.006688
# 5 -0.005012 0.001621 -0.010320 0.000000 0.061696 0.000000
# 6 0.000000 0.000000 0.000000 -0.006688 0.000000 0.038341
#
#
# Mechanical properties :
#
#
# Convention : Reuss Voigt Hill
#
# Bulk Modulus (GPa) = 56.46818 70.63675 63.55247
# Shear Modulus (GPa) = 23.40197 27.60994 25.50595
#
# Velocity S-wave (km/s) = 3.66525 3.98117 3.82647
# Velocity P-wave (km/s) = 7.09423 7.85382 7.48367
#
# Compressibility (1/GPa) = 0.01770909
#
# Stress axis : x y z
#
# Youngs Moduli (GPa) = 99.32622 98.34389 65.73375
#
# Poissons Ratio (x) = 0.30629 0.12165
# Poissons Ratio (y) = 0.30935 0.25668
# Poissons Ratio (z) = 0.18382 0.38401
#
# Static dielectric constant tensor:
#      x y z
#    x 3.421700 0.000000 0.243910 
#    y 0.000000 3.385600 0.000000 
#    z 0.243910 0.000000 3.052580 
# 
# 
# High freq. dielectric constant tensor:
#      x y z
#    x 1.685000 0.000000 0.011500 
#    y 0.000000 1.683250 0.000000 
#    z 0.011500 0.000000 1.637470 
# 
# From -- ./inp_files/27796.got.cif
#   From: 2010.06.25/outbox.cif.g09.slc.cpg/sg10_14_cif.got.tgz:27796.got - 2010.06.27 22:07:45.
