data_PCOD8059417
_publ_section_title
;
Structure prediction by ZEFSAII (Michael W. Deem and Ramdas Pophale) SiO2 
 PCOD8059417
Probable space group: P 2/M
;
_chemical_formula_sum "Si O2"
_cell_formula_units_Z 32
_cell_length_a 14.770735
_cell_length_b 14.333272
_cell_length_c 9.162813
_cell_angle_alpha 90.000000
_cell_angle_beta 96.574905
_cell_angle_gamma 90.000000
_cell_volume 1927.127675
_symmetry_space_group_name_H-M "P 2/M"
_symmetry_group_IT_number 10
_symmetry_cell_setting 'monoclinic'
loop_
_space_group_symop_operation_xyz
x,y,z
-x,y,-z
-x,-y,-z
x,-y,z
loop_
_atom_site_type_symbol
_atom_site_label
_atom_site_fract_x
_atom_site_fract_y
_atom_site_fract_z
Si Si1 0.870508 0.398678 0.342850
Si Si2 0.479195 0.110782 0.834697
Si Si3 0.962419 0.224205 0.838731
Si Si4 0.084536 0.602206 0.328680
Si Si5 0.190642 0.108152 0.079815
Si Si6 0.696846 0.889706 0.371519
Si Si7 0.842138 0.208245 0.221617
Si Si8 0.644548 0.890652 0.678370
O O1 0.829336 0.500000 0.291287
O O2 0.857775 0.381378 0.513356
O O3 0.820465 0.318444 0.239701
O O4 0.977339 0.398463 0.334734
O O5 0.378307 0.139271 0.763435
O O6 0.551682 0.151029 0.730215
O O7 0.489485 0.000000 0.842546
O O8 0.500000 0.151949 0.000000
O O9 0.897628 0.308777 0.771319
O O10 0.900949 0.132004 0.847247
O O11 0.047576 0.195381 0.750354
O O12 0.000000 0.260021 0.000000
O O13 0.112134 0.500000 0.267036
O O14 0.275755 0.132795 0.194876
O O15 0.188657 0.000000 0.032859
O O16 0.198114 0.172041 0.938029
O O17 0.794521 0.847510 0.344557
O O18 0.666439 0.847933 0.523046
O O19 0.708776 0.000000 0.382607
O O20 0.632508 0.000000 0.654027
#
# Coordination Sequence:
#
# PCOD8059417 Si02
#       8
#     4   4   4   4   4   4   4   4
#     4   8  15  28  46  66  87 113 145 192 245 283
#     4   9  16  28  47  67  89 118 150 187 233 280
#     4   9  19  30  43  65  89 126 163 193 228 267
#     4   8  14  27  46  65  87 112 144 191 246 289
#     4  10  20  33  45  60  91 132 167 193 228 266
#     4  10  19  29  44  69  95 120 154 191 227 270
#     4  10  19  30  46  67  88 123 160 195 225 275
#     4   9  18  31  45  63  90 123 153 193 235 267
#
# _framework density 16.605022999999999
#
# number of rings (size 3 to 8) (size 9 to 14) (size 15 to 20)
#    0.000    2.875    0.000    2.250    1.750    6.500 
#    0.000    1.875    0.000    2.250    0.000    0.000 
#    0.000    7.500    0.000    0.000    0.000    0.250 
#
# Total GULP energy -396512.216509 kJ/mol
# GULP energy per Si atom -12391.006766 kJ/mol
# Density = 1.656723 g / cm^3
# Si number density = 16.605023 Si / 1000 Ang^3
#
#
#
# Elastic Constant Matrix: (Units=GPa)
#
#
# Indices 1 2 3 4 5 6 
#
# 1 64.0275 31.4369 30.7883 0.0000 -15.9535 0.0000
# 2 31.4369 74.1763 45.9687 0.0000 10.5683 0.0000
# 3 30.7883 45.9687 79.4868 0.0000 -7.2007 0.0000
# 4 0.0000 0.0000 0.0000 25.1317 0.0000 3.1174
# 5 -15.9535 10.5683 -7.2007 0.0000 24.3282 0.0000
# 6 0.0000 0.0000 0.0000 3.1174 0.0000 2.0678
#
#
#
# Elastic Compliance Matrix: (Units=1/GPa)
#
#
# Indices 1 2 3 4 5 6 
#
# 1 0.030876 -0.017536 0.000726 0.000000 0.028080 0.000000
# 2 -0.017536 0.035985 -0.016930 0.000000 -0.032143 0.000000
# 3 0.000726 -0.016930 0.023428 0.000000 0.014765 0.000000
# 4 0.000000 0.000000 0.000000 0.048943 0.000000 -0.073783
# 5 0.028080 -0.032143 0.014765 0.000000 0.077851 0.000000
# 6 0.000000 0.000000 0.000000 -0.073783 0.000000 0.594828
#
#
# Mechanical properties :
#
#
# Convention : Reuss Voigt Hill
#
# Bulk Modulus (GPa) = 43.84412 48.23092 46.03752
# Shear Modulus (GPa) = 5.63701 17.60531 11.62116
#
# Velocity S-wave (km/s) = 1.84449 3.25967 2.64835
# Velocity P-wave (km/s) = 5.56755 6.57847 6.09401
#
# Compressibility (1/GPa) = 0.02280807
#
# Stress axis : x y z
#
# Youngs Moduli (GPa) = 32.38774 27.78939 42.68361
#
# Poissons Ratio (x) = 0.48732 -0.03098
# Poissons Ratio (y) = 0.56795 0.72264
# Poissons Ratio (z) = -0.02351 0.47048
#
# Static dielectric constant tensor:
#      x y z
#    x 3.015340 0.000000 -0.106880 
#    y 0.000000 3.225040 0.000000 
#    z -0.106880 0.000000 3.314880 
# 
# 
# High freq. dielectric constant tensor:
#      x y z
#    x 1.612980 0.000000 -0.004790 
#    y 0.000000 1.603810 0.000000 
#    z -0.004790 0.000000 1.645720 
# 
# From -- ./inp_files/29081.got.cif
#   From: 2010.06.25/outbox.cif.g09.slc.cpg/sg10_15_cif.got.tgz:29081.got - 2010.06.27 22:07:45.
