data_PCOD8059663
_publ_section_title
;
Structure prediction by ZEFSAII (Michael W. Deem and Ramdas Pophale) SiO2 
 PCOD8059663
Probable space group: P 2/M
;
_chemical_formula_sum "Si O2"
_cell_formula_units_Z 32
_cell_length_a 15.286586
_cell_length_b 14.556754
_cell_length_c 12.109235
_cell_angle_alpha 90.000000
_cell_angle_beta 142.345680
_cell_angle_gamma 90.000000
_cell_volume 1646.110772
_symmetry_space_group_name_H-M "P 2/M"
_symmetry_group_IT_number 10
_symmetry_cell_setting 'monoclinic'
loop_
_space_group_symop_operation_xyz
x,y,z
-x,y,-z
-x,-y,-z
x,-y,z
loop_
_atom_site_type_symbol
_atom_site_label
_atom_site_fract_x
_atom_site_fract_y
_atom_site_fract_z
Si Si1 0.725453 0.602345 0.721619
Si Si2 0.379653 0.895032 0.755496
Si Si3 0.492448 0.602783 0.678234
Si Si4 0.427583 0.724547 0.033741
Si Si5 0.154821 0.788423 0.119022
Si Si6 0.223261 0.896977 0.381450
Si Si7 0.910759 0.895489 0.145850
Si Si8 0.844622 0.188685 0.304456
O O1 0.793512 0.500000 0.792682
O O2 0.606739 0.612046 0.696290
O O3 0.660362 0.621277 0.534058
O O4 0.843455 0.678000 0.870717
O O5 0.517752 0.830889 0.913169
O O6 0.349536 0.887865 0.595447
O O7 0.238656 0.861200 0.679726
O O8 0.416647 0.000000 0.825494
O O9 0.495151 0.500000 0.731208
O O10 0.524508 0.673864 0.807572
O O11 0.500000 0.674136 0.000000
O O12 0.255139 0.727905 0.843270
O O13 0.263198 0.831656 0.317570
O O14 0.186233 0.827328 0.027749
O O15 0.000000 0.825926 0.000000
O O16 0.076218 0.868467 0.295397
O O17 0.211148 0.000000 0.323305
O O18 0.870003 0.883835 0.232364
O O19 0.879255 0.000000 0.079594
O O20 0.000000 0.226969 0.500000
#
# Coordination Sequence:
#
# PCOD8059663 Si02
#       8
#     4   4   4   4   4   4   4   4
#     4   9  18  33  55  79  99 127 167 208 252 309
#     4  10  20  34  51  74 106 141 176 216 258 297
#     4   9  18  36  60  79  98 128 169 212 257 313
#     4  10  22  35  52  80 107 135 168 219 262 307
#     4  10  19  30  47  74 106 136 162 208 258 306
#     4   9  17  30  48  69  99 138 175 209 249 300
#     4  10  19  30  47  71  99 137 183 216 244 294
#     4  11  21  34  52  73 102 142 182 217 254 299
#
# _framework density 19.439761000000001
#
# number of rings (size 3 to 8) (size 9 to 14) (size 15 to 20)
#    0.000    2.250    1.250    3.000    0.000    5.250 
#    0.000    0.000    0.000    0.375    0.000    7.875 
#    0.000    0.000    0.000    0.000    0.000    0.000 
#
# Total GULP energy -396568.524502 kJ/mol
# GULP energy per Si atom -12392.766391 kJ/mol
# Density = 1.939551 g / cm^3
# Si number density = 19.439761 Si / 1000 Ang^3
#
#
#
# Elastic Constant Matrix: (Units=GPa)
#
#
# Indices 1 2 3 4 5 6 
#
# 1 45.2437 23.6926 33.8385 0.0000 -10.4311 0.0000
# 2 23.6926 95.9784 45.7207 0.0000 -13.5007 0.0000
# 3 33.8385 45.7207 98.9573 0.0000 -11.7383 0.0000
# 4 0.0000 0.0000 0.0000 28.7144 0.0000 -2.5442
# 5 -10.4311 -13.5007 -11.7383 0.0000 30.6693 0.0000
# 6 0.0000 0.0000 0.0000 -2.5442 0.0000 18.5735
#
#
#
# Elastic Compliance Matrix: (Units=1/GPa)
#
#
# Indices 1 2 3 4 5 6 
#
# 1 0.031524 -0.002729 -0.008788 0.000000 0.006157 0.000000
# 2 -0.002729 0.014006 -0.005150 0.000000 0.003266 0.000000
# 3 -0.008788 -0.005150 0.015574 0.000000 0.000704 0.000000
# 4 0.000000 0.000000 0.000000 0.035254 0.000000 0.004829
# 5 0.006157 0.003266 0.000704 0.000000 0.036407 0.000000
# 6 0.000000 0.000000 0.000000 0.004829 0.000000 0.054502
#
#
# Mechanical properties :
#
#
# Convention : Reuss Voigt Hill
#
# Bulk Modulus (GPa) = 36.01336 49.63143 42.82239
# Shear Modulus (GPa) = 21.75261 24.71994 23.23628
#
# Velocity S-wave (km/s) = 3.34874 3.56984 3.46106
# Velocity P-wave (km/s) = 5.78946 6.52518 6.16830
#
# Compressibility (1/GPa) = 0.02776747
#
# Stress axis : x y z
#
# Youngs Moduli (GPa) = 31.72168 71.40046 64.21108
#
# Poissons Ratio (x) = 0.19488 0.56431
# Poissons Ratio (y) = 0.08658 0.33070
# Poissons Ratio (z) = 0.27878 0.36773
#
# Static dielectric constant tensor:
#      x y z
#    x 3.419760 0.000000 -0.255200 
#    y 0.000000 3.429250 0.000000 
#    z -0.255200 0.000000 3.781110 
# 
# 
# High freq. dielectric constant tensor:
#      x y z
#    x 1.742230 0.000000 -0.022130 
#    y 0.000000 1.735280 0.000000 
#    z -0.022130 0.000000 1.762170 
# 
# From -- ./inp_files/51665.got.cif
#   From: 2010.06.25/outbox.cif.g09.slc.cpg/sg10_26_cif.got.tgz:51665.got - 2010.06.27 22:07:45.
