data_PCOD8059653
_publ_section_title
;
Structure prediction by ZEFSAII (Michael W. Deem and Ramdas Pophale) SiO2 
 PCOD8059653
Probable space group: P 2/M
;
_chemical_formula_sum "Si O2"
_cell_formula_units_Z 32
_cell_length_a 14.417781
_cell_length_b 8.964965
_cell_length_c 25.899138
_cell_angle_alpha 90.000000
_cell_angle_beta 32.689900
_cell_angle_gamma 90.000000
_cell_volume 1808.006779
_symmetry_space_group_name_H-M "P 2/M"
_symmetry_group_IT_number 10
_symmetry_cell_setting 'monoclinic'
loop_
_space_group_symop_operation_xyz
x,y,z
-x,y,-z
-x,-y,-z
x,-y,z
loop_
_atom_site_type_symbol
_atom_site_label
_atom_site_fract_x
_atom_site_fract_y
_atom_site_fract_z
Si Si1 0.227246 0.176894 0.109721
Si Si2 0.441650 0.675075 0.645483
Si Si3 0.715667 0.823677 0.715835
Si Si4 0.614369 0.824484 0.649691
Si Si5 0.051854 0.665904 0.534529
Si Si6 0.555559 0.176029 0.895948
Si Si7 0.339601 0.166780 0.537740
Si Si8 0.870389 0.324241 0.281064
O O1 0.299393 0.230560 0.131584
O O2 0.054124 0.263960 0.177467
O O3 0.192961 0.000000 0.124223
O O4 0.365744 0.228643 0.001658
O O5 0.462566 0.500000 0.640759
O O6 0.449184 0.748642 0.699299
O O7 0.605467 0.737864 0.537439
O O8 0.263166 0.718675 0.701750
O O9 0.622529 0.776639 0.706043
O O10 0.596631 0.768121 0.818871
O O11 0.898865 0.744650 0.637549
O O12 0.748133 0.000000 0.701542
O O13 0.779979 0.767400 0.540585
O O14 0.600515 0.000000 0.650391
O O15 0.086180 0.500000 0.541064
O O16 0.000000 0.652845 0.500000
O O17 0.557278 0.000000 0.897812
O O18 0.500000 0.158383 0.500000
O O19 0.182056 0.247281 0.640426
O O20 0.282495 0.000000 0.547923
O O21 0.874332 0.500000 0.288256
#
# Coordination Sequence:
#
# PCOD8059653 Si02
#       8
#     4   4   4   4   4   4   4   4
#     4   9  17  32  54  75  95 122 157 196 240 292
#     4  10  20  33  48  67  97 134 166 199 239 282
#     4   9  17  31  50  71  97 127 161 202 245 289
#     4  10  19  30  47  70  96 129 167 204 240 281
#     4   9  17  29  44  64  93 127 161 195 233 281
#     4   8  16  32  53  75  96 120 153 196 246 293
#     4   9  17  30  48  69  93 123 161 199 232 273
#     4  10  20  33  49  71 100 131 161 196 241 287
#
# _framework density 17.699048000000001
#
# number of rings (size 3 to 8) (size 9 to 14) (size 15 to 20)
#    0.000    2.750    0.000    2.625    0.000    6.000 
#    0.000    6.250    0.000    0.750    0.000    5.250 
#    0.000    0.000    0.000    0.000    0.000    0.000 
#
# Total GULP energy -396673.537732 kJ/mol
# GULP energy per Si atom -12396.048054 kJ/mol
# Density = 1.765876 g / cm^3
# Si number density = 17.699048 Si / 1000 Ang^3
#
#
#
# Elastic Constant Matrix: (Units=GPa)
#
#
# Indices 1 2 3 4 5 6 
#
# 1 96.7736 38.9462 59.9448 0.0000 4.0231 0.0000
# 2 38.9462 73.0050 38.6872 0.0000 -1.1506 0.0000
# 3 59.9448 38.6872 121.9319 0.0000 3.3660 0.0000
# 4 0.0000 0.0000 0.0000 17.9365 0.0000 -3.3117
# 5 4.0231 -1.1506 3.3660 0.0000 23.9398 0.0000
# 6 0.0000 0.0000 0.0000 -3.3117 0.0000 24.6659
#
#
#
# Elastic Compliance Matrix: (Units=1/GPa)
#
#
# Indices 1 2 3 4 5 6 
#
# 1 0.016567 -0.005515 -0.006335 0.000000 -0.002158 0.000000
# 2 -0.005515 0.018358 -0.003176 0.000000 0.002256 0.000000
# 3 -0.006335 -0.003176 0.012346 0.000000 -0.000824 0.000000
# 4 0.000000 0.000000 0.000000 0.057169 0.000000 0.007676
# 5 -0.002158 0.002256 -0.000824 0.000000 0.042358 0.000000
# 6 0.000000 0.000000 0.000000 0.007676 0.000000 0.041572
#
#
# Mechanical properties :
#
#
# Convention : Reuss Voigt Hill
#
# Bulk Modulus (GPa) = 58.07389 62.98521 60.52955
# Shear Modulus (GPa) = 22.30517 23.58392 22.94455
#
# Velocity S-wave (km/s) = 3.55385 3.65430 3.60442
# Velocity P-wave (km/s) = 7.05144 7.31227 7.18304
#
# Compressibility (1/GPa) = 0.01721944
#
# Stress axis : x y z
#
# Youngs Moduli (GPa) = 60.36156 54.47164 80.99575
#
# Poissons Ratio (x) = 0.30040 0.51314
# Poissons Ratio (y) = 0.33288 0.25723
# Poissons Ratio (z) = 0.38241 0.17300
#
# Static dielectric constant tensor:
#      x y z
#    x 3.401020 0.000000 0.114390 
#    y 0.000000 3.270680 0.000000 
#    z 0.114390 0.000000 3.330460 
# 
# 
# High freq. dielectric constant tensor:
#      x y z
#    x 1.681720 0.000000 0.000500 
#    y 0.000000 1.681420 0.000000 
#    z 0.000500 0.000000 1.660270 
# 
# From -- ./inp_files/72207.got.cif
#   From: 2010.06.25/outbox.cif.g09.slc.cpg/sg10_37_cif.got.tgz:72207.got - 2010.06.27 22:07:45.
