data_PCOD8059948
_publ_section_title
;
Structure prediction by ZEFSAII (Michael W. Deem and Ramdas Pophale) SiO2 
 PCOD8059948
Probable space group: P 2/M
;
_chemical_formula_sum "Si O2"
_cell_formula_units_Z 28
_cell_length_a 18.120696
_cell_length_b 8.823876
_cell_length_c 29.134667
_cell_angle_alpha 90.000000
_cell_angle_beta 20.843689
_cell_angle_gamma 90.000000
_cell_volume 1657.579220
_symmetry_space_group_name_H-M "P 2/M"
_symmetry_group_IT_number 10
_symmetry_cell_setting 'monoclinic'
loop_
_space_group_symop_operation_xyz
x,y,z
-x,y,-z
-x,-y,-z
x,-y,z
loop_
_atom_site_type_symbol
_atom_site_label
_atom_site_fract_x
_atom_site_fract_y
_atom_site_fract_z
Si Si1 0.285346 0.325162 0.747003
Si Si2 0.579573 0.822601 0.503735
Si Si3 0.686330 0.822154 0.990458
Si Si4 0.979264 0.679155 0.745605
Si Si5 0.754796 0.170845 0.137244
Si Si6 0.354562 0.333444 0.128259
Si Si7 0.201946 0.675122 0.980432
O O1 0.352151 0.500000 0.704083
O O2 0.404503 0.223442 0.641299
O O3 0.343596 0.265813 0.763807
O O4 0.044114 0.302888 0.876851
O O5 0.500000 0.775665 0.500000
O O6 0.786646 0.732002 0.394703
O O7 0.625464 0.000000 0.480488
O O8 0.869332 0.753212 0.853369
O O9 0.701337 0.760209 0.032802
O O10 0.715333 0.000000 0.973809
O O11 0.456484 0.781388 0.105262
O O12 0.967334 0.500000 0.759908
O O13 0.866067 0.725615 0.763377
O O14 0.665701 0.000000 0.189310
O O15 0.000000 0.168411 0.000000
O O16 0.694252 0.252732 0.125116
O O17 0.331595 0.500000 0.164634
O O18 0.500000 0.348223 0.000000
O O19 0.263498 0.500000 0.946685
#
# Coordination Sequence:
#
# PCOD8059948 Si02
#       7
#     4   4   4   4   4   4   4
#     4  10  20  33  49  68  93 128 165 196 231 279
#     4  11  23  35  48  69  97 128 162 199 236 274
#     4  11  20  29  46  72  99 125 155 194 240 284
#     4  10  20  34  50  67  92 127 163 197 234 280
#     4   9  17  30  48  69  94 122 154 195 240 282
#     4   8  16  31  48  66  90 121 156 193 235 282
#     4  10  19  31  48  70  97 127 159 195 235 281
#
# _framework density 16.892102999999999
#
# number of rings (size 3 to 8) (size 9 to 14) (size 15 to 20)
#    0.000    2.143    0.000    5.143    0.000   10.000 
#    0.000    0.000    0.000    0.000    0.000    1.000 
#    0.000    8.000    0.000    0.000    0.000    0.000 
#
# Total GULP energy -347200.818690 kJ/mol
# GULP energy per Si atom -12400.029239 kJ/mol
# Density = 1.685366 g / cm^3
# Si number density = 16.892103 Si / 1000 Ang^3
#
#
#
# Elastic Constant Matrix: (Units=GPa)
#
#
# Indices 1 2 3 4 5 6 
#
# 1 107.7538 60.9854 46.2838 0.0000 11.5927 0.0000
# 2 60.9854 99.0669 23.1147 0.0000 1.1921 0.0000
# 3 46.2838 23.1147 44.0650 0.0000 7.3456 0.0000
# 4 0.0000 0.0000 0.0000 24.9911 0.0000 4.2494
# 5 11.5927 1.1921 7.3456 0.0000 27.2420 0.0000
# 6 0.0000 0.0000 0.0000 4.2494 0.0000 28.2918
#
#
#
# Elastic Compliance Matrix: (Units=1/GPa)
#
#
# Indices 1 2 3 4 5 6 
#
# 1 0.023431 -0.010031 -0.018596 0.000000 -0.004518 0.000000
# 2 -0.010031 0.015832 0.001712 0.000000 0.003114 0.000000
# 3 -0.018596 0.001712 0.041905 0.000000 -0.003461 0.000000
# 4 0.000000 0.000000 0.000000 0.041063 0.000000 -0.006168
# 5 -0.004518 0.003114 -0.003461 0.000000 0.039428 0.000000
# 6 0.000000 0.000000 0.000000 -0.006168 0.000000 0.036272
#
#
# Mechanical properties :
#
#
# Convention : Reuss Voigt Hill
#
# Bulk Modulus (GPa) = 36.57861 56.85038 46.71450
# Shear Modulus (GPa) = 19.16625 24.13843 21.65234
#
# Velocity S-wave (km/s) = 3.37208 3.78428 3.58411
# Velocity P-wave (km/s) = 6.07145 7.26791 6.69645
#
# Compressibility (1/GPa) = 0.02733838
#
# Stress axis : x y z
#
# Youngs Moduli (GPa) = 42.67778 63.16191 23.86335
#
# Poissons Ratio (x) = 0.63358 0.44377
# Poissons Ratio (y) = 0.42810 -0.04085
# Poissons Ratio (z) = 0.79365 -0.10813
#
# Static dielectric constant tensor:
#      x y z
#    x 3.435550 0.000000 -0.062250 
#    y 0.000000 3.311790 0.000000 
#    z -0.062250 0.000000 2.925100 
# 
# 
# High freq. dielectric constant tensor:
#      x y z
#    x 1.654030 0.000000 0.006280 
#    y 0.000000 1.668220 0.000000 
#    z 0.006280 0.000000 1.610250 
# 
# From -- ./inp_files/95618.got.cif
#   From: 2010.06.25/outbox.cif.g09.slc.cpg/sg10_48_cif.got.tgz:95618.got - 2010.06.27 22:07:45.
