data_PCOD8059658
_publ_section_title
;
Structure prediction by ZEFSAII (Michael W. Deem and Ramdas Pophale) SiO2 
 PCOD8059658
Probable space group: P 2/M
;
_chemical_formula_sum "Si O2"
_cell_formula_units_Z 28
_cell_length_a 10.012779
_cell_length_b 9.343593
_cell_length_c 30.729831
_cell_angle_alpha 90.000000
_cell_angle_beta 145.463375
_cell_angle_gamma 90.000000
_cell_volume 1629.897879
_symmetry_space_group_name_H-M "P 2/M"
_symmetry_group_IT_number 10
_symmetry_cell_setting 'monoclinic'
loop_
_space_group_symop_operation_xyz
x,y,z
-x,y,-z
-x,-y,-z
x,-y,z
loop_
_atom_site_type_symbol
_atom_site_label
_atom_site_fract_x
_atom_site_fract_y
_atom_site_fract_z
Si Si1 0.014779 0.333113 0.053173
Si Si2 0.801948 0.833239 0.770444
Si Si3 0.318495 0.157110 0.490500
Si Si4 0.014803 0.331545 0.653481
Si Si5 0.542423 0.665395 0.771207
Si Si6 0.246818 0.831409 0.341356
Si Si7 0.245109 0.833307 0.946598
O O1 0.957810 0.500000 0.041144
O O2 0.271935 0.296005 0.141149
O O3 0.814042 0.250702 0.025509
O O4 0.000000 0.278117 0.000000
O O5 0.598336 0.753095 0.742546
O O6 0.802982 0.780573 0.720989
O O7 0.058062 0.796664 0.858645
O O8 0.743268 0.000000 0.757531
O O9 0.500000 0.146792 0.500000
O O10 0.118281 0.272580 0.425381
O O11 0.476940 0.203107 0.574597
O O12 0.202697 0.000000 0.467004
O O13 0.967651 0.500000 0.644399
O O14 0.925892 0.255778 0.673381
O O15 0.288129 0.293683 0.721483
O O16 0.556054 0.500000 0.761907
O O17 0.196085 0.000000 0.334518
O O18 0.245368 0.000000 0.958007
O O19 0.500000 0.780105 0.000000
#
# Coordination Sequence:
#
# PCOD8059658 Si02
#       7
#     4   4   4   4   4   4   4
#     4   9  18  33  51  69  92 124 159 192 226 269
#     4   9  18  33  51  69  92 125 159 188 227 278
#     4   8  15  29  47  66  91 121 153 192 232 268
#     4  10  19  30  47  71  96 122 153 190 233 278
#     4   9  19  34  48  67  97 126 153 190 232 272
#     4   9  18  32  49  70  94 120 155 196 231 269
#     4   9  18  32  49  71  98 123 150 190 235 275
#
# _framework density 17.178989999999999
#
# number of rings (size 3 to 8) (size 9 to 14) (size 15 to 20)
#    0.000    3.000    0.000    1.286    0.000    6.000 
#    0.000    0.714    0.000    4.286    0.000    0.000 
#    0.000    0.000    0.000    0.000    0.000    0.000 
#
# Total GULP energy -347160.490090 kJ/mol
# GULP energy per Si atom -12398.588932 kJ/mol
# Density = 1.713989 g / cm^3
# Si number density = 17.178990 Si / 1000 Ang^3
#
#
#
# Elastic Constant Matrix: (Units=GPa)
#
#
# Indices 1 2 3 4 5 6 
#
# 1 127.5826 63.6845 84.2690 0.0000 -5.2796 0.0000
# 2 63.6845 66.0912 50.7691 0.0000 2.6078 0.0000
# 3 84.2690 50.7691 104.2587 0.0000 -5.4899 0.0000
# 4 0.0000 0.0000 0.0000 24.5803 0.0000 1.4406
# 5 -5.2796 2.6078 -5.4899 0.0000 30.4566 0.0000
# 6 0.0000 0.0000 0.0000 1.4406 0.0000 30.4876
#
#
#
# Elastic Compliance Matrix: (Units=1/GPa)
#
#
# Indices 1 2 3 4 5 6 
#
# 1 0.021460 -0.012096 -0.011312 0.000000 0.002717 0.000000
# 2 -0.012096 0.031543 -0.005892 0.000000 -0.005860 0.000000
# 3 -0.011312 -0.005892 0.021734 0.000000 0.002461 0.000000
# 4 0.000000 0.000000 0.000000 0.040796 0.000000 -0.001928
# 5 0.002717 -0.005860 0.002461 0.000000 0.034250 0.000000
# 6 0.000000 0.000000 0.000000 -0.001928 0.000000 0.032891
#
#
# Mechanical properties :
#
#
# Convention : Reuss Voigt Hill
#
# Bulk Modulus (GPa) = 61.97074 77.26420 69.61747
# Shear Modulus (GPa) = 20.27130 23.71888 21.99509
#
# Velocity S-wave (km/s) = 3.43885 3.71980 3.58208
# Velocity P-wave (km/s) = 7.20551 7.97012 7.59744
#
# Compressibility (1/GPa) = 0.01613665
#
# Stress axis : x y z
#
# Youngs Moduli (GPa) = 46.59746 31.70231 46.01182
#
# Poissons Ratio (x) = 0.38348 0.52050
# Poissons Ratio (y) = 0.56366 0.27109
# Poissons Ratio (z) = 0.52713 0.18678
#
# Static dielectric constant tensor:
#      x y z
#    x 3.074820 0.000000 -0.104680 
#    y 0.000000 3.181800 0.000000 
#    z -0.104680 0.000000 3.541940 
# 
# 
# High freq. dielectric constant tensor:
#      x y z
#    x 1.645330 0.000000 -0.003750 
#    y 0.000000 1.660720 0.000000 
#    z -0.003750 0.000000 1.669290 
# 
# From -- ./inp_files/37901.got.cif
#   From: 2010.06.25/outbox.cif.g09.slc.cpg/sg10_19_cif.got.tgz:37901.got - 2010.06.27 22:07:45.
