data_PCOD8059128
_publ_section_title
;
Structure prediction by ZEFSAII (Michael W. Deem and Ramdas Pophale) SiO2 
 PCOD8059128
Probable space group: P 2/M
;
_chemical_formula_sum "Si O2"
_cell_formula_units_Z 32
_cell_length_a 12.027623
_cell_length_b 15.720994
_cell_length_c 14.679992
_cell_angle_alpha 90.000000
_cell_angle_beta 137.739840
_cell_angle_gamma 90.000000
_cell_volume 1866.709171
_symmetry_space_group_name_H-M "P 2/M"
_symmetry_group_IT_number 10
_symmetry_cell_setting 'monoclinic'
loop_
_space_group_symop_operation_xyz
x,y,z
-x,y,-z
-x,-y,-z
x,-y,z
loop_
_atom_site_type_symbol
_atom_site_label
_atom_site_fract_x
_atom_site_fract_y
_atom_site_fract_z
Si Si1 0.278346 0.758453 0.178045
Si Si2 0.095735 0.204679 0.251060
Si Si3 0.886796 0.092083 0.017881
Si Si4 0.889088 0.352810 0.209115
Si Si5 0.313159 0.596131 0.079937
Si Si6 0.206817 0.593899 0.500437
Si Si7 0.403519 0.741288 0.529744
Si Si8 0.677589 0.598383 0.236099
O O1 0.150943 0.757693 0.185790
O O2 0.239188 0.830521 0.078616
O O3 0.266713 0.663801 0.129873
O O4 0.465381 0.782847 0.321633
O O5 0.257259 0.192206 0.413482
O O6 0.964271 0.263634 0.222830
O O7 0.002103 0.116018 0.174922
O O8 0.800550 0.000000 0.986153
O O9 0.000000 0.079125 0.000000
O O10 0.738119 0.341984 0.189349
O O11 0.026133 0.406426 0.346654
O O12 0.825334 0.402951 0.082344
O O13 0.319207 0.500000 0.124346
O O14 0.489815 0.623037 0.145881
O O15 0.283834 0.500000 0.537146
O O16 0.329235 0.655970 0.523861
O O17 0.203183 0.617113 0.605314
O O18 0.500000 0.709994 0.500000
O O19 0.687887 0.500000 0.211230
#
# Coordination Sequence:
#
# PCOD8059128 Si02
#       8
#     4   4   4   4   4   4   4   4
#     4  10  18  34  51  72 104 130 164 201 243 300
#     4   9  19  33  51  73 100 127 161 205 248 292
#     4   9  17  32  56  78  99 127 157 195 251 306
#     4  11  20  32  47  68  97 130 167 213 248 283
#     4  11  21  32  48  69  99 137 168 206 247 287
#     4  10  19  31  46  66  94 131 176 214 243 277
#     4   9  18  31  48  68  99 134 159 201 246 288
#     4  10  20  33  47  65  94 133 176 213 244 282
#
# _framework density 17.142467
#
# number of rings (size 3 to 8) (size 9 to 14) (size 15 to 20)
#    0.000    2.125    2.500    1.875    0.000    2.250 
#    0.000    7.500    0.000    3.750    0.000    1.750 
#    0.000    2.250    0.000    0.000    0.000    0.000 
#
# Total GULP energy -396543.520202 kJ/mol
# GULP energy per Si atom -12391.985006 kJ/mol
# Density = 1.710345 g / cm^3
# Si number density = 17.142467 Si / 1000 Ang^3
#
#
#
# Elastic Constant Matrix: (Units=GPa)
#
#
# Indices 1 2 3 4 5 6 
#
# 1 52.0720 26.0722 18.2417 0.0000 2.4988 0.0000
# 2 26.0722 91.5795 39.7587 0.0000 -1.0882 0.0000
# 3 18.2417 39.7587 106.8347 0.0000 -6.4061 0.0000
# 4 0.0000 0.0000 0.0000 11.0338 0.0000 5.9421
# 5 2.4988 -1.0882 -6.4061 0.0000 19.7898 0.0000
# 6 0.0000 0.0000 0.0000 5.9421 0.0000 -5.7787
#
#
#
# Elastic Compliance Matrix: (Units=1/GPa)
#
#
# Indices 1 2 3 4 5 6 
#
# 1 0.022955 -0.005700 -0.002030 0.000000 -0.003869 0.000000
# 2 -0.005700 0.014454 -0.004400 0.000000 0.000090 0.000000
# 3 -0.002030 -0.004400 0.011570 0.000000 0.003760 0.000000
# 4 0.000000 0.000000 0.000000 0.058330 0.000000 0.059979
# 5 -0.003869 0.000090 0.003760 0.000000 0.052241 0.000000
# 6 0.000000 0.000000 0.000000 0.059979 0.000000 -0.111374
#
#
# Mechanical properties :
#
#
# Convention : Reuss Voigt Hill
#
# Bulk Modulus (GPa) = 40.45670 46.51460 43.48565
# Shear Modulus (GPa) = 61.97667 16.10322 39.03995
#
# Velocity S-wave (km/s) = 6.01933 3.06825 4.77737
# Velocity P-wave (km/s) = 8.48300 6.30438 7.47351
#
# Compressibility (1/GPa) = 0.02471778
#
# Stress axis : x y z
#
# Youngs Moduli (GPa) = 43.56372 69.18702 86.43078
#
# Poissons Ratio (x) = 0.39434 0.17548
# Poissons Ratio (y) = 0.24830 0.38032
# Poissons Ratio (z) = 0.08845 0.30445
#
# Static dielectric constant tensor:
#      x y z
#    x 3.069960 0.000000 0.026430 
#    y 0.000000 3.062210 0.000000 
#    z 0.026430 0.000000 3.701170 
# 
# 
# High freq. dielectric constant tensor:
#      x y z
#    x 1.640390 0.000000 0.001360 
#    y 0.000000 1.620900 0.000000 
#    z 0.001360 0.000000 1.688150 
# 
# From -- ./inp_files/61822.got.cif
#   From: 2010.06.25/outbox.cif.g09.slc.cpg/sg10_31_cif.got.tgz:61822.got - 2010.06.27 22:07:45.
