data_PCOD8059848
_publ_section_title
;
Structure prediction by ZEFSAII (Michael W. Deem and Ramdas Pophale) SiO2 
 PCOD8059848
Probable space group: P 2/M
;
_chemical_formula_sum "Si O2"
_cell_formula_units_Z 32
_cell_length_a 14.233828
_cell_length_b 9.338672
_cell_length_c 25.619374
_cell_angle_alpha 90.000000
_cell_angle_beta 144.556796
_cell_angle_gamma 90.000000
_cell_volume 1974.809488
_symmetry_space_group_name_H-M "P 2/M"
_symmetry_group_IT_number 10
_symmetry_cell_setting 'monoclinic'
loop_
_space_group_symop_operation_xyz
x,y,z
-x,y,-z
-x,-y,-z
x,-y,z
loop_
_atom_site_type_symbol
_atom_site_label
_atom_site_fract_x
_atom_site_fract_y
_atom_site_fract_z
Si Si1 0.279060 0.832752 0.727726
Si Si2 0.946983 0.159689 0.633373
Si Si3 0.329006 0.333546 0.539252
Si Si4 0.439429 0.333500 0.890111
Si Si5 0.752875 0.334826 0.094660
Si Si6 0.813132 0.666465 0.412063
Si Si7 0.051428 0.839186 0.246426
Si Si8 0.419889 0.169341 0.408664
O O1 0.408295 0.760923 0.824885
O O2 0.287292 0.758366 0.675169
O O3 0.099640 0.803658 0.667219
O O4 0.319850 0.000000 0.741198
O O5 0.810585 0.276629 0.561884
O O6 0.001443 0.167807 0.717482
O O7 0.878929 0.000000 0.590097
O O8 0.354307 0.500000 0.539531
O O9 0.278299 0.303445 0.575450
O O10 0.493552 0.249899 0.600037
O O11 0.408741 0.500000 0.863367
O O12 0.323552 0.283341 0.884974
O O13 0.625351 0.307403 0.990637
O O14 0.797194 0.500000 0.119109
O O15 0.918734 0.253032 0.155247
O O16 0.807582 0.500000 0.393662
O O17 0.000000 0.717996 0.500000
O O18 0.233446 0.779905 0.322511
O O19 0.042568 0.000000 0.220680
O O20 0.500000 0.214807 0.500000
O O21 0.436148 0.000000 0.408254
#
# Coordination Sequence:
#
# PCOD8059848 Si02
#       8
#     4   4   4   4   4   4   4   4
#     4  11  21  31  49  75  98 129 170 206 239 284
#     4  10  19  31  46  68 101 133 164 200 242 287
#     4  11  22  34  50  71  95 128 170 210 243 281
#     4   9  18  32  48  69 101 135 162 196 247 294
#     4   9  18  31  48  71  99 132 166 200 240 290
#     4  10  21  36  50  68  98 132 164 202 249 294
#     4  10  19  32  49  70  98 135 168 199 243 288
#     4  10  20  35  51  68  98 135 165 199 246 294
#
# _framework density 16.204094999999999
#
# number of rings (size 3 to 8) (size 9 to 14) (size 15 to 20)
#    0.000    2.000    3.750    1.500    0.000    3.500 
#    0.000    1.250    0.000    0.000    0.000    0.875 
#    0.000    7.000    0.000    0.000    0.000    0.000 
#
# Total GULP energy -396810.798391 kJ/mol
# GULP energy per Si atom -12400.337450 kJ/mol
# Density = 1.616721 g / cm^3
# Si number density = 16.204095 Si / 1000 Ang^3
#
#
#
# Elastic Constant Matrix: (Units=GPa)
#
#
# Indices 1 2 3 4 5 6 
#
# 1 71.0596 40.1795 36.7119 0.0000 7.1420 0.0000
# 2 40.1795 68.7226 54.8993 0.0000 3.5343 0.0000
# 3 36.7119 54.8993 105.5019 0.0000 7.8921 0.0000
# 4 0.0000 0.0000 0.0000 30.9557 0.0000 1.9421
# 5 7.1420 3.5343 7.8921 0.0000 24.9380 0.0000
# 6 0.0000 0.0000 0.0000 1.9421 0.0000 25.1889
#
#
#
# Elastic Compliance Matrix: (Units=1/GPa)
#
#
# Indices 1 2 3 4 5 6 
#
# 1 0.021591 -0.011392 -0.001274 0.000000 -0.004166 0.000000
# 2 -0.011392 0.030922 -0.012335 0.000000 0.002784 0.000000
# 3 -0.001274 -0.012335 0.016575 0.000000 -0.003132 0.000000
# 4 0.000000 0.000000 0.000000 0.032461 0.000000 -0.002503
# 5 -0.004166 0.002784 -0.003132 0.000000 0.041889 0.000000
# 6 0.000000 0.000000 0.000000 -0.002503 0.000000 0.039893
#
#
# Mechanical properties :
#
#
# Convention : Reuss Voigt Hill
#
# Bulk Modulus (GPa) = 52.39135 56.54061 54.46598
# Shear Modulus (GPa) = 20.85994 23.78274 22.32134
#
# Velocity S-wave (km/s) = 3.59182 3.83521 3.71551
# Velocity P-wave (km/s) = 7.04301 7.38785 7.21749
#
# Compressibility (1/GPa) = 0.01908712
#
# Stress axis : x y z
#
# Youngs Moduli (GPa) = 46.31656 32.33919 60.33282
#
# Poissons Ratio (x) = 0.36839 0.07684
# Poissons Ratio (y) = 0.52762 0.74421
# Poissons Ratio (z) = 0.05899 0.39891
#
# Static dielectric constant tensor:
#      x y z
#    x 2.917240 0.000000 0.065470 
#    y 0.000000 3.091100 0.000000 
#    z 0.065470 0.000000 2.950590 
# 
# 
# High freq. dielectric constant tensor:
#      x y z
#    x 1.598030 0.000000 0.004830 
#    y 0.000000 1.627030 0.000000 
#    z 0.004830 0.000000 1.612120 
# 
# From -- ./inp_files/66578.got.cif
#   From: 2010.06.25/outbox.cif.g09.slc.cpg/sg10_34_cif.got.tgz:66578.got - 2010.06.27 22:07:45.
