data_PCOD8059993
_publ_section_title
;
Structure prediction by ZEFSAII (Michael W. Deem and Ramdas Pophale) SiO2 
 PCOD8059993
Probable space group: P 2/M
;
_chemical_formula_sum "Si O2"
_cell_formula_units_Z 28
_cell_length_a 15.200406
_cell_length_b 9.594668
_cell_length_c 18.190132
_cell_angle_alpha 90.000000
_cell_angle_beta 35.982929
_cell_angle_gamma 90.000000
_cell_volume 1558.696361
_symmetry_space_group_name_H-M "P 2/M"
_symmetry_group_IT_number 10
_symmetry_cell_setting 'monoclinic'
loop_
_space_group_symop_operation_xyz
x,y,z
-x,y,-z
-x,-y,-z
x,-y,z
loop_
_atom_site_type_symbol
_atom_site_label
_atom_site_fract_x
_atom_site_fract_y
_atom_site_fract_z
Si Si1 0.330232 0.165867 0.609431
Si Si2 0.963432 0.664350 0.440935
Si Si3 0.424459 0.156337 0.793222
Si Si4 0.160534 0.164779 0.867009
Si Si5 0.532768 0.335394 0.094438
Si Si6 0.733628 0.842561 0.508780
Si Si7 0.729789 0.664268 0.829897
O O1 0.500000 0.226545 0.500000
O O2 0.223928 0.225486 0.746695
O O3 0.252388 0.210139 0.584910
O O4 0.340343 0.000000 0.607712
O O5 0.933285 0.500000 0.454357
O O6 0.819019 0.743634 0.508332
O O7 0.000000 0.704953 0.500000
O O8 0.102688 0.717480 0.297401
O O9 0.274900 0.205495 0.853800
O O10 0.455186 0.262840 0.836622
O O11 0.558000 0.161231 0.644649
O O12 0.406358 0.000000 0.837235
O O13 0.146363 0.000000 0.868010
O O14 0.000000 0.229056 0.000000
O O15 0.525348 0.500000 0.112229
O O16 0.383792 0.277562 0.155022
O O17 0.676098 0.293203 0.947582
O O18 0.796038 0.000000 0.475107
O O19 0.723674 0.500000 0.825097
#
# Coordination Sequence:
#
# PCOD8059993 Si02
#       7
#     4   4   4   4   4   4   4
#     4   9  15  29  50  68  93 132 169 199 243 305
#     4  10  20  34  52  74 102 134 168 207 250 299
#     4  10  19  31  48  74 103 126 159 208 254 294
#     4   9  17  29  47  71  98 128 164 206 247 295
#     4   9  17  32  54  72  92 129 170 202 241 301
#     4  10  20  32  51  77 101 132 171 210 253 298
#     4   8  16  32  51  71  95 128 169 205 240 293
#
# _framework density 17.963729000000001
#
# number of rings (size 3 to 8) (size 9 to 14) (size 15 to 20)
#    0.000    2.714    1.429    1.714    0.000    3.143 
#    0.000    4.286    0.000    1.714    0.000    0.000 
#    0.000    0.000    0.000    0.000    0.000    0.000 
#
# Total GULP energy -347074.064631 kJ/mol
# GULP energy per Si atom -12395.502308 kJ/mol
# Density = 1.792284 g / cm^3
# Si number density = 17.963729 Si / 1000 Ang^3
#
#
#
# Elastic Constant Matrix: (Units=GPa)
#
#
# Indices 1 2 3 4 5 6 
#
# 1 95.7663 31.7955 39.8550 0.0000 4.4471 0.0000
# 2 31.7955 32.4451 15.1199 0.0000 4.4552 0.0000
# 3 39.8550 15.1199 96.3185 0.0000 1.6404 0.0000
# 4 0.0000 0.0000 0.0000 22.8939 0.0000 -15.2323
# 5 4.4471 4.4552 1.6404 0.0000 34.6132 0.0000
# 6 0.0000 0.0000 0.0000 -15.2323 0.0000 62.7394
#
#
#
# Elastic Compliance Matrix: (Units=1/GPa)
#
#
# Indices 1 2 3 4 5 6 
#
# 1 0.017366 -0.014734 -0.004871 0.000000 -0.000104 0.000000
# 2 -0.014734 0.046328 -0.001107 0.000000 -0.004017 0.000000
# 3 -0.004871 -0.001107 0.012569 0.000000 0.000173 0.000000
# 4 0.000000 0.000000 0.000000 0.052095 0.000000 0.012648
# 5 -0.000104 -0.004017 0.000173 0.000000 0.029413 0.000000
# 6 0.000000 0.000000 0.000000 0.012648 0.000000 0.019010
#
#
# Mechanical properties :
#
#
# Convention : Reuss Voigt Hill
#
# Bulk Modulus (GPa) = 28.70451 44.23009 36.46730
# Shear Modulus (GPa) = 21.75638 33.23326 27.49482
#
# Velocity S-wave (km/s) = 3.48390 4.30585 3.91650
# Velocity P-wave (km/s) = 5.67426 7.02822 6.38722
#
# Compressibility (1/GPa) = 0.03483774
#
# Stress axis : x y z
#
# Youngs Moduli (GPa) = 57.58399 21.58524 79.56284
#
# Poissons Ratio (x) = 0.31804 0.38756
# Poissons Ratio (y) = 0.84844 0.08811
# Poissons Ratio (z) = 0.28050 0.02390
#
# Static dielectric constant tensor:
#      x y z
#    x 3.254150 0.000000 -0.068710 
#    y 0.000000 2.815940 0.000000 
#    z -0.068710 0.000000 3.871200 
# 
# 
# High freq. dielectric constant tensor:
#      x y z
#    x 1.697110 0.000000 0.003840 
#    y 0.000000 1.640080 0.000000 
#    z 0.003840 0.000000 1.710220 
# 
# From -- ./inp_files/46079.got.cif
#   From: 2010.06.25/outbox.cif.g09.slc.cpg/sg10_24_cif.got.tgz:46079.got - 2010.06.27 22:07:45.
