data_PCOD8059091
_publ_section_title
;
Structure prediction by ZEFSAII (Michael W. Deem and Ramdas Pophale) SiO2 
 PCOD8059091
Probable space group: P 2/M
;
_chemical_formula_sum "Si O2"
_cell_formula_units_Z 32
_cell_length_a 27.103782
_cell_length_b 8.826359
_cell_length_c 21.325755
_cell_angle_alpha 90.000000
_cell_angle_beta 160.743658
_cell_angle_gamma 90.000000
_cell_volume 1682.519687
_symmetry_space_group_name_H-M "P 2/M"
_symmetry_group_IT_number 10
_symmetry_cell_setting 'monoclinic'
loop_
_space_group_symop_operation_xyz
x,y,z
-x,y,-z
-x,-y,-z
x,-y,z
loop_
_atom_site_type_symbol
_atom_site_label
_atom_site_fract_x
_atom_site_fract_y
_atom_site_fract_z
Si Si1 0.346845 0.680517 0.285741
Si Si2 0.044355 0.680043 0.985323
Si Si3 0.680476 0.680829 0.889383
Si Si4 0.489999 0.822625 0.764901
Si Si5 0.823243 0.325929 0.612339
Si Si6 0.727504 0.679760 0.294603
Si Si7 0.001803 0.325848 0.304795
Si Si8 0.440409 0.320939 0.026577
O O1 0.500000 0.742997 0.500000
O O2 0.344813 0.500000 0.284206
O O3 0.336949 0.739747 0.202577
O O4 0.205109 0.743963 0.155237
O O5 0.054499 0.500000 0.999663
O O6 0.913230 0.730131 0.781038
O O7 0.000000 0.746772 0.000000
O O8 0.677832 0.500000 0.887317
O O9 0.544821 0.744774 0.767013
O O10 0.835977 0.746064 0.105378
O O11 0.317617 0.780998 0.567185
O O12 0.585564 0.762787 0.938899
O O13 0.511320 0.000000 0.784897
O O14 0.769246 0.500000 0.554115
O O15 0.933059 0.307148 0.686057
O O16 0.729347 0.500000 0.303459
O O17 0.885752 0.749397 0.508713
O O18 0.595089 0.736945 0.181237
O O19 0.694642 0.724445 0.182996
O O20 0.984564 0.500000 0.302281
O O21 0.443236 0.500000 0.042153
#
# Coordination Sequence:
#
# PCOD8059091 Si02
#       8
#     4   4   4   4   4   4   4   4
#     4   9  17  29  48  81 116 139 167 212 265 318
#     4   9  17  28  48  85 119 136 161 215 275 317
#     4  10  20  35  56  79 106 144 183 220 265 317
#     4  12  25  37  50  75 111 147 184 225 265 312
#     4  10  18  33  58  82 107 139 179 225 270 317
#     4   8  14  26  53  86 108 129 166 222 274 322
#     4   9  15  29  55  84 106 129 175 227 266 312
#     4   9  16  31  55  81 107 136 172 217 272 323
#
# _framework density 19.019095
#
# number of rings (size 3 to 8) (size 9 to 14) (size 15 to 20)
#    0.000    2.500    2.500    1.875    1.750    0.000 
#    0.000    2.500    0.000    4.500    0.000    0.000 
#    0.000    0.000    0.000    0.000    0.000    0.000 
#
# Total GULP energy -396657.398437 kJ/mol
# GULP energy per Si atom -12395.543701 kJ/mol
# Density = 1.897581 g / cm^3
# Si number density = 19.019095 Si / 1000 Ang^3
#
#
#
# Elastic Constant Matrix: (Units=GPa)
#
#
# Indices 1 2 3 4 5 6 
#
# 1 89.5541 16.2953 35.0013 0.0000 -17.3097 0.0000
# 2 16.2953 24.1753 19.5328 0.0000 -3.9643 0.0000
# 3 35.0013 19.5328 105.1705 0.0000 -23.3876 0.0000
# 4 0.0000 0.0000 0.0000 5.1169 0.0000 1.1868
# 5 -17.3097 -3.9643 -23.3876 0.0000 30.7228 0.0000
# 6 0.0000 0.0000 0.0000 1.1868 0.0000 2.0469
#
#
#
# Elastic Compliance Matrix: (Units=1/GPa)
#
#
# Indices 1 2 3 4 5 6 
#
# 1 0.014379 -0.006955 -0.002277 0.000000 0.005471 0.000000
# 2 -0.006955 0.052045 -0.008101 0.000000 -0.003370 0.000000
# 3 -0.002277 -0.008101 0.013546 0.000000 0.007984 0.000000
# 4 0.000000 0.000000 0.000000 0.225797 0.000000 -0.130923
# 5 0.005471 -0.003370 0.007984 0.000000 0.041274 0.000000
# 6 0.000000 0.000000 0.000000 -0.130923 0.000000 0.564467
#
#
# Mechanical properties :
#
#
# Convention : Reuss Voigt Hill
#
# Bulk Modulus (GPa) = 22.07300 40.06208 31.06754
# Shear Modulus (GPa) = 5.20141 17.44868 11.32505
#
# Velocity S-wave (km/s) = 1.65553 3.03220 2.44285
# Velocity P-wave (km/s) = 3.90964 5.77657 4.93224
#
# Compressibility (1/GPa) = 0.04530422
#
# Stress axis : x y z
#
# Youngs Moduli (GPa) = 69.54350 19.21401 73.82185
#
# Poissons Ratio (x) = 0.13364 0.16811
# Poissons Ratio (y) = 0.48371 0.59801
# Poissons Ratio (z) = 0.15837 0.15565
#
# Static dielectric constant tensor:
#      x y z
#    x 3.550050 0.000000 -0.196170 
#    y 0.000000 2.818950 0.000000 
#    z -0.196170 0.000000 3.882120 
# 
# 
# High freq. dielectric constant tensor:
#      x y z
#    x 1.738590 0.000000 -0.013640 
#    y 0.000000 1.666270 0.000000 
#    z -0.013640 0.000000 1.753730 
# 
# From -- ./inp_files/86965.got.cif
#   From: 2010.06.25/outbox.cif.g09.slc.cpg/sg10_44_cif.got.tgz:86965.got - 2010.06.27 22:07:45.
