data_PCOD8059093
_publ_section_title
;
Structure prediction by ZEFSAII (Michael W. Deem and Ramdas Pophale) SiO2 
 PCOD8059093
Probable space group: P 2/M
;
_chemical_formula_sum "Si O2"
_cell_formula_units_Z 32
_cell_length_a 25.448046
_cell_length_b 8.817357
_cell_length_c 19.816821
_cell_angle_alpha 90.000000
_cell_angle_beta 21.553774
_cell_angle_gamma 90.000000
_cell_volume 1633.561977
_symmetry_space_group_name_H-M "P 2/M"
_symmetry_group_IT_number 10
_symmetry_cell_setting 'monoclinic'
loop_
_space_group_symop_operation_xyz
x,y,z
-x,y,-z
-x,-y,-z
x,-y,z
loop_
_atom_site_type_symbol
_atom_site_label
_atom_site_fract_x
_atom_site_fract_y
_atom_site_fract_z
Si Si1 0.518699 0.179500 0.673530
Si Si2 0.197626 0.179709 0.082698
Si Si3 0.038253 0.180553 0.740624
Si Si4 0.663825 0.678806 0.624856
Si Si5 0.616791 0.819868 0.410213
Si Si6 0.848799 0.820074 0.710490
Si Si7 0.433053 0.679101 0.009376
Si Si8 0.931977 0.819316 0.012116
O O1 0.618813 0.266902 0.605337
O O2 0.580161 0.231920 0.528905
O O3 0.532156 0.000000 0.669700
O O4 0.355600 0.235504 0.874172
O O5 0.160767 0.241660 0.201351
O O6 0.086388 0.242257 0.160036
O O7 0.191437 0.000000 0.089843
O O8 0.185475 0.246235 0.536003
O O9 0.010972 0.238987 0.849976
O O10 0.044587 0.000000 0.731547
O O11 0.682287 0.500000 0.605471
O O12 0.543039 0.735182 0.820976
O O13 0.500000 0.747864 0.500000
O O14 0.613684 0.000000 0.409289
O O15 0.770174 0.758590 0.203561
O O16 0.720984 0.754464 0.817843
O O17 0.000000 0.764536 0.500000
O O18 0.835980 0.000000 0.723761
O O19 0.410975 0.500000 0.034024
O O20 0.500000 0.733214 0.000000
O O21 0.937275 0.000000 0.007218
O O22 0.000000 0.754218 0.000000
#
# Coordination Sequence:
#
# PCOD8059093 Si02
#       8
#     4   4   4   4   4   4   4   4
#     4  10  18  33  58  82 108 144 181 224 277 328
#     4   9  18  33  53  81 112 138 174 221 268 324
#     4  10  20  34  55  80 109 146 182 222 275 325
#     4  11  23  38  55  79 109 142 185 230 269 317
#     4   9  16  26  47  80 109 134 173 223 271 318
#     4  10  21  37  58  86 116 142 172 216 271 330
#     4  10  23  42  60  80 109 145 185 227 269 319
#     4   9  16  27  44  72 106 136 173 219 262 311
#
# _framework density 19.589092999999998
#
# number of rings (size 3 to 8) (size 9 to 14) (size 15 to 20)
#    0.000    2.250    1.250    1.875    1.750    6.000 
#    0.000    1.250    0.000    3.750    0.000    0.000 
#    0.000    0.000    0.000    0.000    0.000    0.000 
#
# Total GULP energy -396806.684505 kJ/mol
# GULP energy per Si atom -12400.208891 kJ/mol
# Density = 1.954451 g / cm^3
# Si number density = 19.589093 Si / 1000 Ang^3
#
#
#
# Elastic Constant Matrix: (Units=GPa)
#
#
# Indices 1 2 3 4 5 6 
#
# 1 129.5036 17.9792 45.9168 0.0000 -9.5210 0.0000
# 2 17.9792 17.9211 20.9586 0.0000 -0.4980 0.0000
# 3 45.9168 20.9586 138.7913 0.0000 -6.8509 0.0000
# 4 0.0000 0.0000 0.0000 15.1754 0.0000 1.3777
# 5 -9.5210 -0.4980 -6.8509 0.0000 40.5170 0.0000
# 6 0.0000 0.0000 0.0000 1.3777 0.0000 8.9697
#
#
#
# Elastic Compliance Matrix: (Units=1/GPa)
#
#
# Indices 1 2 3 4 5 6 
#
# 1 0.009562 -0.007223 -0.001983 0.000000 0.001823 0.000000
# 2 -0.007223 0.073258 -0.008785 0.000000 -0.002282 0.000000
# 3 -0.001983 -0.008785 0.009236 0.000000 0.000988 0.000000
# 4 0.000000 0.000000 0.000000 0.066828 0.000000 -0.010264
# 5 0.001823 -0.002282 0.000988 0.000000 0.025248 0.000000
# 6 0.000000 0.000000 0.000000 -0.010264 0.000000 0.113063
#
#
# Mechanical properties :
#
#
# Convention : Reuss Voigt Hill
#
# Bulk Modulus (GPa) = 17.83385 50.65837 34.24611
# Shear Modulus (GPa) = 14.20985 26.35651 20.28318
#
# Velocity S-wave (km/s) = 2.69624 3.67204 3.22130
# Velocity P-wave (km/s) = 4.33782 6.62534 5.59964
#
# Compressibility (1/GPa) = 0.05607313
#
# Stress axis : x y z
#
# Youngs Moduli (GPa) = 104.58553 13.65042 108.26739
#
# Poissons Ratio (x) = 0.09860 0.21464
# Poissons Ratio (y) = 0.75545 0.95118
# Poissons Ratio (z) = 0.20734 0.11993
#
# Static dielectric constant tensor:
#      x y z
#    x 3.826310 0.000000 -0.000010 
#    y 0.000000 3.015950 0.000000 
#    z -0.000010 0.000000 3.830230 
# 
# 
# High freq. dielectric constant tensor:
#      x y z
#    x 1.778830 0.000000 -0.001850 
#    y 0.000000 1.706440 0.000000 
#    z -0.001850 0.000000 1.781200 
# 
# From -- ./inp_files/86814.got.cif
#   From: 2010.06.25/outbox.cif.g09.slc.cpg/sg10_44_cif.got.tgz:86814.got - 2010.06.27 22:07:45.
