data_PCOD8059275
_publ_section_title
;
Structure prediction by ZEFSAII (Michael W. Deem and Ramdas Pophale) SiO2 
 PCOD8059275
Probable space group: P 2/M
;
_chemical_formula_sum "Si O2"
_cell_formula_units_Z 24
_cell_length_a 9.031511
_cell_length_b 15.175231
_cell_length_c 16.182037
_cell_angle_alpha 90.000000
_cell_angle_beta 34.036472
_cell_angle_gamma 90.000000
_cell_volume 1241.366852
_symmetry_space_group_name_H-M "P 2/M"
_symmetry_group_IT_number 10
_symmetry_cell_setting 'monoclinic'
loop_
_space_group_symop_operation_xyz
x,y,z
-x,y,-z
-x,-y,-z
x,-y,z
loop_
_atom_site_type_symbol
_atom_site_label
_atom_site_fract_x
_atom_site_fract_y
_atom_site_fract_z
Si Si1 0.791819 0.209383 0.361105
Si Si2 0.283862 0.500000 0.827606
Si Si3 0.075541 0.308318 0.368988
Si Si4 0.657838 0.246225 0.105355
Si Si5 0.763985 0.101290 0.929583
Si Si6 0.167903 0.500000 0.340497
Si Si7 0.831173 0.680993 0.186762
O O1 0.500000 0.166492 0.500000
O O2 0.783857 0.290918 0.301869
O O3 0.865323 0.250742 0.415785
O O4 0.993600 0.134422 0.238638
O O5 0.518678 0.500000 0.785636
O O6 0.310073 0.586861 0.759030
O O7 0.000000 0.500000 0.000000
O O8 0.359122 0.265869 0.219824
O O9 0.089171 0.409732 0.329436
O O10 0.000000 0.303837 0.500000
O O11 0.698767 0.246699 0.185593
O O12 0.745078 0.153447 0.024825
O O13 0.852471 0.322782 0.978786
O O14 0.809912 0.000000 0.930829
O O15 0.500000 0.116617 0.000000
O O16 0.000000 0.500000 0.500000
#
# Coordination Sequence:
#
# PCOD8059275 Si02
#       7
#     4   2   4   4   4   2   4
#     4  11  24  39  59  89 121 156 194 247 298 352
#     4  12  18  35  57  85 116 162 198 251 284 338
#     4  11  21  37  59  82 120 163 202 241 289 347
#     4  10  18  37  59  87 113 153 195 238 290 360
#     4  10  21  40  67  91 114 148 192 245 301 360
#     4  10  22  33  55  83 113 157 207 237 278 330
#     4  10  21  34  59  87 121 155 201 239 298 342
#
# _framework density 19.333528000000001
#
# number of rings (size 3 to 8) (size 9 to 14) (size 15 to 20)
#    0.000    1.500    5.000    1.000    2.333    1.000 
#    0.000    7.500    0.000    8.000    0.000    0.000 
#    0.000    0.000    0.000    0.000    0.000    0.000 
#
# Total GULP energy -297522.065394 kJ/mol
# GULP energy per Si atom -12396.752725 kJ/mol
# Density = 1.928952 g / cm^3
# Si number density = 19.333528 Si / 1000 Ang^3
#
#
#
# Elastic Constant Matrix: (Units=GPa)
#
#
# Indices 1 2 3 4 5 6 
#
# 1 92.5225 47.0102 38.5361 0.0000 -5.1245 0.0000
# 2 47.0102 128.5428 36.7077 0.0000 1.1935 0.0000
# 3 38.5361 36.7077 86.7972 0.0000 -15.4488 0.0000
# 4 0.0000 0.0000 0.0000 17.6315 0.0000 -1.4383
# 5 -5.1245 1.1935 -15.4488 0.0000 43.7390 0.0000
# 6 0.0000 0.0000 0.0000 -1.4383 0.0000 23.0643
#
#
#
# Elastic Compliance Matrix: (Units=1/GPa)
#
#
# Indices 1 2 3 4 5 6 
#
# 1 0.014911 -0.004061 -0.004879 0.000000 0.000135 0.000000
# 2 -0.004061 0.010070 -0.002763 0.000000 -0.001726 0.000000
# 3 -0.004879 -0.002763 0.015758 0.000000 0.005070 0.000000
# 4 0.000000 0.000000 0.000000 0.057007 0.000000 0.003555
# 5 0.000135 -0.001726 0.005070 0.000000 0.024716 0.000000
# 6 0.000000 0.000000 0.000000 0.003555 0.000000 0.043579
#
#
# Mechanical properties :
#
#
# Convention : Reuss Voigt Hill
#
# Bulk Modulus (GPa) = 57.69260 61.37449 59.53355
# Shear Modulus (GPa) = 25.61163 29.26088 27.43626
#
# Velocity S-wave (km/s) = 3.64363 3.89457 3.77118
# Velocity P-wave (km/s) = 6.89977 7.21371 7.05848
#
# Compressibility (1/GPa) = 0.01733325
#
# Stress axis : x y z
#
# Youngs Moduli (GPa) = 67.06381 99.30698 63.46027
#
# Poissons Ratio (x) = 0.40332 0.30960
# Poissons Ratio (y) = 0.27237 0.17533
# Poissons Ratio (z) = 0.32718 0.27436
#
# Static dielectric constant tensor:
#      x y z
#    x 3.509940 0.000000 -0.224210 
#    y 0.000000 3.602640 0.000000 
#    z -0.224210 0.000000 3.571950 
# 
# 
# High freq. dielectric constant tensor:
#      x y z
#    x 1.749860 0.000000 -0.019740 
#    y 0.000000 1.734570 0.000000 
#    z -0.019740 0.000000 1.756620 
# 
# From -- ./inp_files/61694.got.cif
#   From: 2010.06.25/outbox.cif.g09.slc.cpg/sg10_31_cif.got.tgz:61694.got - 2010.06.27 22:07:45.
