data_PCOD8059050
_publ_section_title
;
Structure prediction by ZEFSAII (Michael W. Deem and Ramdas Pophale) SiO2 
 PCOD8059050
Probable space group: P 2/M
;
_chemical_formula_sum "Si O2"
_cell_formula_units_Z 28
_cell_length_a 19.655630
_cell_length_b 8.870176
_cell_length_c 18.091811
_cell_angle_alpha 90.000000
_cell_angle_beta 151.126844
_cell_angle_gamma 90.000000
_cell_volume 1523.117525
_symmetry_space_group_name_H-M "P 2/M"
_symmetry_group_IT_number 10
_symmetry_cell_setting 'monoclinic'
loop_
_space_group_symop_operation_xyz
x,y,z
-x,y,-z
-x,-y,-z
x,-y,z
loop_
_atom_site_type_symbol
_atom_site_label
_atom_site_fract_x
_atom_site_fract_y
_atom_site_fract_z
Si Si1 0.337446 0.677447 0.340497
Si Si2 0.004522 0.673770 0.589465
Si Si3 0.313193 0.672814 0.866853
Si Si4 0.206608 0.823543 0.503177
Si Si5 0.896135 0.170758 0.970024
Si Si6 0.133401 0.677306 0.279740
Si Si7 0.592987 0.321980 0.200503
O O1 0.500000 0.735081 0.500000
O O2 0.334784 0.500000 0.323997
O O3 0.254595 0.753326 0.192783
O O4 0.254710 0.722314 0.336455
O O5 0.953909 0.500000 0.550997
O O6 0.166156 0.696407 0.768459
O O7 0.000000 0.721575 0.500000
O O8 0.915582 0.783790 0.555271
O O9 0.357257 0.500000 0.902709
O O10 0.309457 0.725531 0.777323
O O11 0.437151 0.743990 0.034418
O O12 0.183123 0.739112 0.404767
O O13 0.354046 0.767435 0.677369
O O14 0.209736 0.000000 0.491235
O O15 0.866376 0.000000 0.966333
O O16 0.000000 0.179469 0.000000
O O17 0.978769 0.255899 0.114160
O O18 0.114706 0.500000 0.266150
O O19 0.599141 0.500000 0.223963
#
# Coordination Sequence:
#
# PCOD8059050 Si02
#       7
#     4   4   4   4   4   4   4
#     4   9  18  34  58  87 112 137 177 222 259 304
#     4  10  18  33  56  78  99 131 177 223 265 314
#     4   8  15  29  54  79  96 122 170 224 264 311
#     4  12  24  35  49  75 110 143 176 219 271 319
#     4   9  17  31  53  81 112 142 172 209 257 312
#     4  10  20  36  57  78 104 142 182 218 260 313
#     4   9  16  32  54  75  98 130 172 216 264 316
#
# _framework density 18.383348999999999
#
# number of rings (size 3 to 8) (size 9 to 14) (size 15 to 20)
#    0.000    2.429    1.429    3.000    0.000    2.857 
#    0.000    3.571    0.000    3.429    0.000    0.000 
#    0.000    0.000    0.000    0.000    0.000    0.000 
#
# Total GULP energy -347047.392997 kJ/mol
# GULP energy per Si atom -12394.549750 kJ/mol
# Density = 1.834151 g / cm^3
# Si number density = 18.383349 Si / 1000 Ang^3
#
#
#
# Elastic Constant Matrix: (Units=GPa)
#
#
# Indices 1 2 3 4 5 6 
#
# 1 49.7862 15.8373 43.8038 0.0000 -3.7462 0.0000
# 2 15.8373 36.2420 35.5211 0.0000 0.5053 0.0000
# 3 43.8038 35.5211 146.6136 0.0000 -7.6868 0.0000
# 4 0.0000 0.0000 0.0000 11.0746 0.0000 -2.6966
# 5 -3.7462 0.5053 -7.6868 0.0000 30.1296 0.0000
# 6 0.0000 0.0000 0.0000 -2.6966 0.0000 18.1528
#
#
#
# Elastic Compliance Matrix: (Units=1/GPa)
#
#
# Indices 1 2 3 4 5 6 
#
# 1 0.028098 -0.005467 -0.006976 0.000000 0.001806 0.000000
# 2 -0.005467 0.037497 -0.007622 0.000000 -0.003253 0.000000
# 3 -0.006976 -0.007622 0.010858 0.000000 0.002031 0.000000
# 4 0.000000 0.000000 0.000000 0.093686 0.000000 0.013917
# 5 0.001806 -0.003253 0.002031 0.000000 0.033987 0.000000
# 6 0.000000 0.000000 0.000000 0.013917 0.000000 0.057155
#
#
# Mechanical properties :
#
#
# Convention : Reuss Voigt Hill
#
# Bulk Modulus (GPa) = 27.52990 46.99624 37.26307
# Shear Modulus (GPa) = 15.94805 21.03671 18.49238
#
# Velocity S-wave (km/s) = 2.94858 3.38647 3.17508
# Velocity P-wave (km/s) = 5.15753 6.39617 5.80995
#
# Compressibility (1/GPa) = 0.03632414
#
# Stress axis : x y z
#
# Youngs Moduli (GPa) = 35.58926 26.66898 92.09905
#
# Poissons Ratio (x) = 0.14579 0.64247
# Poissons Ratio (y) = 0.19456 0.70196
# Poissons Ratio (z) = 0.24826 0.20327
#
# Static dielectric constant tensor:
#      x y z
#    x 3.152850 0.000000 0.093470 
#    y 0.000000 3.190960 0.000000 
#    z 0.093470 0.000000 3.728070 
# 
# 
# High freq. dielectric constant tensor:
#      x y z
#    x 1.677330 0.000000 0.004740 
#    y 0.000000 1.691720 0.000000 
#    z 0.004740 0.000000 1.735530 
# 
# From -- ./inp_files/79306.got.cif
#   From: 2010.06.25/outbox.cif.g09.slc.cpg/sg10_40_cif.got.tgz:79306.got - 2010.06.27 22:07:45.
