data_PCOD8059957
_publ_section_title
;
Structure prediction by ZEFSAII (Michael W. Deem and Ramdas Pophale) SiO2 
 PCOD8059957
Probable space group: P 2/M
;
_chemical_formula_sum "Si O2"
_cell_formula_units_Z 28
_cell_length_a 15.836415
_cell_length_b 8.924851
_cell_length_c 20.157596
_cell_angle_alpha 90.000000
_cell_angle_beta 147.804216
_cell_angle_gamma 90.000000
_cell_volume 1518.001569
_symmetry_space_group_name_H-M "P 2/M"
_symmetry_group_IT_number 10
_symmetry_cell_setting 'monoclinic'
loop_
_space_group_symop_operation_xyz
x,y,z
-x,y,-z
-x,-y,-z
x,-y,z
loop_
_atom_site_type_symbol
_atom_site_label
_atom_site_fract_x
_atom_site_fract_y
_atom_site_fract_z
Si Si1 0.180240 0.823991 0.130917
Si Si2 0.354788 0.668001 0.132645
Si Si3 0.553373 0.321318 0.609402
Si Si4 0.661285 0.331655 0.415256
Si Si5 0.971704 0.323552 0.554768
Si Si6 0.261701 0.831369 0.802571
Si Si7 0.589809 0.831628 0.958665
O O1 0.263822 0.784814 0.117822
O O2 0.274068 0.745078 0.254893
O O3 0.185309 0.000000 0.148071
O O4 0.000000 0.767563 0.000000
O O5 0.286050 0.500000 0.095979
O O6 0.539514 0.671730 0.273484
O O7 0.336215 0.718000 0.044741
O O8 0.500000 0.271427 0.500000
O O9 0.568837 0.500000 0.625429
O O10 0.419598 0.259291 0.572376
O O11 0.706961 0.500000 0.465965
O O12 0.819737 0.250640 0.492287
O O13 0.944664 0.500000 0.530708
O O14 0.000000 0.254801 0.500000
O O15 0.124206 0.287075 0.699405
O O16 0.413906 0.779898 0.861813
O O17 0.211214 0.000000 0.748583
O O18 0.296210 0.826616 0.902998
O O19 0.584049 0.000000 0.925658
#
# Coordination Sequence:
#
# PCOD8059957 Si02
#       7
#     4   4   4   4   4   4   4
#     4  10  21  37  56  80 112 144 177 221 271 325
#     4  10  19  33  56  80 101 131 175 218 259 312
#     4   9  18  35  58  80 106 143 182 226 274 322
#     4   8  16  31  49  72 102 131 166 210 258 311
#     4  10  19  31  48  71 102 135 167 212 263 303
#     4   9  19  34  50  70 100 138 175 211 252 306
#     4   9  18  34  52  70 100 138 172 211 261 307
#
# _framework density 18.445304
#
# number of rings (size 3 to 8) (size 9 to 14) (size 15 to 20)
#    0.000    2.714    0.000    3.429    0.000    4.000 
#    2.571    5.000    0.000    0.000    0.000    0.000 
#    0.000    0.000    0.000    0.000    0.000    0.000 
#
# Total GULP energy -347018.436487 kJ/mol
# GULP energy per Si atom -12393.515589 kJ/mol
# Density = 1.840332 g / cm^3
# Si number density = 18.445304 Si / 1000 Ang^3
#
#
#
# Elastic Constant Matrix: (Units=GPa)
#
#
# Indices 1 2 3 4 5 6 
#
# 1 99.8905 21.9015 61.9768 0.0000 -6.0716 0.0000
# 2 21.9015 32.1371 30.1754 0.0000 -2.0999 0.0000
# 3 61.9768 30.1754 110.2443 0.0000 8.1021 0.0000
# 4 0.0000 0.0000 0.0000 29.4523 0.0000 0.9168
# 5 -6.0716 -2.0999 8.1021 0.0000 30.3990 0.0000
# 6 0.0000 0.0000 0.0000 0.9168 0.0000 19.9565
#
#
#
# Elastic Compliance Matrix: (Units=1/GPa)
#
#
# Indices 1 2 3 4 5 6 
#
# 1 0.016457 -0.002405 -0.008999 0.000000 0.005519 0.000000
# 2 -0.002405 0.043358 -0.010914 0.000000 0.005424 0.000000
# 3 -0.008999 -0.010914 0.017651 0.000000 -0.007256 0.000000
# 4 0.000000 0.000000 0.000000 0.034002 0.000000 -0.001562
# 5 0.005519 0.005424 -0.007256 0.000000 0.036307 0.000000
# 6 0.000000 0.000000 0.000000 -0.001562 0.000000 0.050181
#
#
# Mechanical properties :
#
#
# Convention : Reuss Voigt Hill
#
# Bulk Modulus (GPa) = 30.46101 52.26438 41.36270
# Shear Modulus (GPa) = 19.72109 24.50943 22.11526
#
# Velocity S-wave (km/s) = 3.27336 3.64917 3.46636
# Velocity P-wave (km/s) = 5.55307 6.79350 6.20436
#
# Compressibility (1/GPa) = 0.03282885
#
# Stress axis : x y z
#
# Youngs Moduli (GPa) = 60.76319 23.06367 56.65551
#
# Poissons Ratio (x) = 0.05547 0.50986
# Poissons Ratio (y) = 0.14615 0.61835
# Poissons Ratio (z) = 0.54682 0.25172
#
# Static dielectric constant tensor:
#      x y z
#    x 3.495020 0.000000 0.037030 
#    y 0.000000 3.191970 0.000000 
#    z 0.037030 0.000000 3.327540 
# 
# 
# High freq. dielectric constant tensor:
#      x y z
#    x 1.716310 0.000000 -0.001780 
#    y 0.000000 1.693830 0.000000 
#    z -0.001780 0.000000 1.709400 
# 
# From -- ./inp_files/85662.got.cif
#   From: 2010.06.25/outbox.cif.g09.slc.cpg/sg10_43_cif.got.tgz:85662.got - 2010.06.27 22:07:45.
