data_PCOD8059615
_publ_section_title
;
Structure prediction by ZEFSAII (Michael W. Deem and Ramdas Pophale) SiO2 
 PCOD8059615
Probable space group: P 2/M
;
_chemical_formula_sum "Si O2"
_cell_formula_units_Z 28
_cell_length_a 26.732267
_cell_length_b 8.822400
_cell_length_c 9.642023
_cell_angle_alpha 90.000000
_cell_angle_beta 140.855157
_cell_angle_gamma 90.000000
_cell_volume 1435.538311
_symmetry_space_group_name_H-M "P 2/M"
_symmetry_group_IT_number 10
_symmetry_cell_setting 'monoclinic'
loop_
_space_group_symop_operation_xyz
x,y,z
-x,y,-z
-x,-y,-z
x,-y,z
loop_
_atom_site_type_symbol
_atom_site_label
_atom_site_fract_x
_atom_site_fract_y
_atom_site_fract_z
Si Si1 0.428287 0.679364 0.437801
Si Si2 0.784998 0.820356 0.713546
Si Si3 0.176694 0.826516 0.648596
Si Si4 0.250346 0.319332 0.065416
Si Si5 0.907589 0.325515 0.777023
Si Si6 0.675861 0.830081 0.231453
Si Si7 0.518015 0.321949 0.891379
O O1 0.500000 0.750163 0.500000
O O2 0.428899 0.500000 0.418987
O O3 0.339418 0.739749 0.216928
O O4 0.449338 0.729436 0.639292
O O5 0.774483 0.738706 0.837104
O O6 0.864318 0.763666 0.807840
O O7 0.710805 0.777601 0.455144
O O8 0.791807 0.000000 0.749223
O O9 0.110584 0.743201 0.414098
O O10 0.258804 0.816056 0.745200
O O11 0.150594 0.000000 0.616741
O O12 0.187431 0.745146 0.819882
O O13 0.247075 0.500000 0.058827
O O14 0.880059 0.500000 0.720355
O O15 0.000000 0.308077 0.000000
O O16 0.643655 0.000000 0.174284
O O17 0.604901 0.724628 0.027293
O O18 0.518327 0.500000 0.905237
O O19 0.500000 0.243662 0.000000
#
# Coordination Sequence:
#
# PCOD8059615 Si02
#       7
#     4   4   4   4   4   4   4
#     4   9  18  31  47  71 103 140 184 233 282 327
#     4  10  21  37  57  82 115 151 185 225 276 334
#     4  10  21  37  57  82 113 146 180 219 269 331
#     4  11  21  35  57  82 111 148 191 237 280 325
#     4  10  21  39  64  92 117 141 177 223 267 321
#     4   9  19  34  51  73 102 140 184 226 271 327
#     4  10  19  30  46  69  97 132 178 230 278 323
#
# _framework density 19.504878000000001
#
# number of rings (size 3 to 8) (size 9 to 14) (size 15 to 20)
#    0.000    2.143    0.000    4.286    0.000    7.143 
#    0.000    2.143    0.000    8.143    0.000    0.000 
#    0.000    0.000    0.000    0.000    0.000    0.000 
#
# Total GULP energy -347128.783725 kJ/mol
# GULP energy per Si atom -12397.456562 kJ/mol
# Density = 1.946048 g / cm^3
# Si number density = 19.504878 Si / 1000 Ang^3
#
#
#
# Elastic Constant Matrix: (Units=GPa)
#
#
# Indices 1 2 3 4 5 6 
#
# 1 54.6754 22.9962 29.5008 0.0000 -10.4268 0.0000
# 2 22.9962 68.0835 47.6561 0.0000 -9.3107 0.0000
# 3 29.5008 47.6561 106.1758 0.0000 -5.8567 0.0000
# 4 0.0000 0.0000 0.0000 23.5359 0.0000 -4.5036
# 5 -10.4268 -9.3107 -5.8567 0.0000 30.8860 0.0000
# 6 0.0000 0.0000 0.0000 -4.5036 0.0000 27.1507
#
#
#
# Elastic Compliance Matrix: (Units=1/GPa)
#
#
# Indices 1 2 3 4 5 6 
#
# 1 0.023480 -0.004065 -0.004375 0.000000 0.005871 0.000000
# 2 -0.004065 0.022812 -0.008899 0.000000 0.003817 0.000000
# 3 -0.004375 -0.008899 0.014551 0.000000 -0.001400 0.000000
# 4 0.000000 0.000000 0.000000 0.043881 0.000000 0.007279
# 5 0.005871 0.003817 -0.001400 0.000000 0.035244 0.000000
# 6 0.000000 0.000000 0.000000 0.007279 0.000000 0.038039
#
#
# Mechanical properties :
#
#
# Convention : Reuss Voigt Hill
#
# Bulk Modulus (GPa) = 38.22045 47.69344 42.95694
# Shear Modulus (GPa) = 22.58284 24.89997 23.74140
#
# Velocity S-wave (km/s) = 3.40634 3.57683 3.49263
# Velocity P-wave (km/s) = 5.92527 6.44697 6.19162
#
# Compressibility (1/GPa) = 0.02616401
#
# Stress axis : x y z
#
# Youngs Moduli (GPa) = 42.58927 43.83706 68.72393
#
# Poissons Ratio (x) = 0.17820 0.30070
# Poissons Ratio (y) = 0.17313 0.61156
# Poissons Ratio (z) = 0.18635 0.39010
#
# Static dielectric constant tensor:
#      x y z
#    x 3.535890 0.000000 -0.185590 
#    y 0.000000 3.500100 0.000000 
#    z -0.185590 0.000000 3.700200 
# 
# 
# High freq. dielectric constant tensor:
#      x y z
#    x 1.750280 0.000000 -0.012510 
#    y 0.000000 1.750330 0.000000 
#    z -0.012510 0.000000 1.765690 
# 
# From -- ./inp_files/37074.got.cif
#   From: 2010.06.25/outbox.cif.g09.slc.cpg/sg10_19_cif.got.tgz:37074.got - 2010.06.27 22:07:45.
