data_PCOD8059687
_publ_section_title
;
Structure prediction by ZEFSAII (Michael W. Deem and Ramdas Pophale) SiO2 
 PCOD8059687
Probable space group: P 2/M
;
_chemical_formula_sum "Si O2"
_cell_formula_units_Z 28
_cell_length_a 9.462568
_cell_length_b 13.190123
_cell_length_c 13.890466
_cell_angle_alpha 90.000000
_cell_angle_beta 121.654669
_cell_angle_gamma 90.000000
_cell_volume 1475.773993
_symmetry_space_group_name_H-M "P 2/M"
_symmetry_group_IT_number 10
_symmetry_cell_setting 'monoclinic'
loop_
_space_group_symop_operation_xyz
x,y,z
-x,y,-z
-x,-y,-z
x,-y,z
loop_
_atom_site_type_symbol
_atom_site_label
_atom_site_fract_x
_atom_site_fract_y
_atom_site_fract_z
Si Si1 0.975946 0.383170 0.779430
Si Si2 0.170439 0.745615 0.104648
Si Si3 0.684602 0.296680 0.041558
Si Si4 0.637364 0.882051 0.687341
Si Si5 0.866452 0.205874 0.625382
Si Si6 0.803118 0.882905 0.204258
Si Si7 0.262328 0.882370 0.602598
O O1 0.934417 0.500000 0.749254
O O2 0.875877 0.343830 0.837234
O O3 0.909707 0.323600 0.661011
O O4 0.174571 0.368071 0.860744
O O5 0.261217 0.839198 0.186296
O O6 0.290780 0.702147 0.064708
O O7 0.000000 0.789444 0.000000
O O8 0.703631 0.182507 0.090149
O O9 0.500000 0.337901 0.000000
O O10 0.690294 0.826299 0.607827
O O11 0.445739 0.859152 0.633088
O O12 0.674019 0.000000 0.691510
O O13 0.863736 0.181494 0.510549
O O14 0.000431 0.137902 0.732331
O O15 0.750762 0.846462 0.292322
O O16 0.760603 0.000000 0.169794
O O17 0.213307 0.000000 0.575272
#
# Coordination Sequence:
#
# PCOD8059687 Si02
#       7
#     4   4   4   4   4   4   4
#     4   9  20  38  56  74  95 124 167 212 258 310
#     4   9  19  33  51  74 100 136 168 200 248 295
#     4  10  20  33  51  77 104 131 166 206 248 289
#     4  10  19  30  47  75 106 133 166 204 241 288
#     4  10  19  32  52  73  96 127 169 214 250 289
#     4  10  20  32  48  73 106 142 173 196 229 290
#     4  10  19  31  50  75 104 139 169 197 240 289
#
# _framework density 18.973095000000001
#
# number of rings (size 3 to 8) (size 9 to 14) (size 15 to 20)
#    0.000    2.286    0.000    3.857    0.000    6.286 
#    0.000    0.000    0.000   13.714    0.000    0.000 
#    0.000    0.000    0.000    0.000    0.000    0.000 
#
# Total GULP energy -347182.999647 kJ/mol
# GULP energy per Si atom -12399.392845 kJ/mol
# Density = 1.892991 g / cm^3
# Si number density = 18.973095 Si / 1000 Ang^3
#
#
#
# Elastic Constant Matrix: (Units=GPa)
#
#
# Indices 1 2 3 4 5 6 
#
# 1 91.9866 24.3389 19.8553 0.0000 -4.8475 0.0000
# 2 24.3389 100.7129 41.2163 0.0000 -2.1939 0.0000
# 3 19.8553 41.2163 65.4319 0.0000 -6.3240 0.0000
# 4 0.0000 0.0000 0.0000 21.2095 0.0000 -1.2233
# 5 -4.8475 -2.1939 -6.3240 0.0000 24.9943 0.0000
# 6 0.0000 0.0000 0.0000 -1.2233 0.0000 15.6688
#
#
#
# Elastic Compliance Matrix: (Units=1/GPa)
#
#
# Indices 1 2 3 4 5 6 
#
# 1 0.011952 -0.001930 -0.002259 0.000000 0.001577 0.000000
# 2 -0.001930 0.013713 -0.008172 0.000000 -0.001238 0.000000
# 3 -0.002259 -0.008172 0.021531 0.000000 0.004292 0.000000
# 4 0.000000 0.000000 0.000000 0.047362 0.000000 0.003698
# 5 0.001577 -0.001238 0.004292 0.000000 0.041292 0.000000
# 6 0.000000 0.000000 0.000000 0.003698 0.000000 0.064110
#
#
# Mechanical properties :
#
#
# Convention : Reuss Voigt Hill
#
# Bulk Modulus (GPa) = 44.49388 47.66139 46.07763
# Shear Modulus (GPa) = 21.53560 23.88926 22.71243
#
# Velocity S-wave (km/s) = 3.37272 3.55225 3.46365
# Velocity P-wave (km/s) = 6.21844 6.48071 6.35093
#
# Compressibility (1/GPa) = 0.02247500
#
# Stress axis : x y z
#
# Youngs Moduli (GPa) = 83.66492 72.92375 46.44446
#
# Poissons Ratio (x) = 0.14072 0.10492
# Poissons Ratio (y) = 0.16144 0.37955
# Poissons Ratio (z) = 0.18900 0.59594
#
# Static dielectric constant tensor:
#      x y z
#    x 3.735430 0.000000 -0.083140 
#    y 0.000000 3.123350 0.000000 
#    z -0.083140 0.000000 3.467660 
# 
# 
# High freq. dielectric constant tensor:
#      x y z
#    x 1.754270 0.000000 -0.002020 
#    y 0.000000 1.698460 0.000000 
#    z -0.002020 0.000000 1.734320 
# 
# From -- ./inp_files/28186.got.cif
#   From: 2010.06.25/outbox.cif.g09.slc.cpg/sg10_15_cif.got.tgz:28186.got - 2010.06.27 22:07:45.
