data_PCOD8059189
_publ_section_title
;
Structure prediction by ZEFSAII (Michael W. Deem and Ramdas Pophale) SiO2 
 PCOD8059189
Probable space group: P 2/M
;
_chemical_formula_sum "Si O2"
_cell_formula_units_Z 28
_cell_length_a 24.181454
_cell_length_b 8.561692
_cell_length_c 17.805418
_cell_angle_alpha 90.000000
_cell_angle_beta 22.531229
_cell_angle_gamma 90.000000
_cell_volume 1412.553410
_symmetry_space_group_name_H-M "P 2/M"
_symmetry_group_IT_number 10
_symmetry_cell_setting 'monoclinic'
loop_
_space_group_symop_operation_xyz
x,y,z
-x,y,-z
-x,-y,-z
x,-y,z
loop_
_atom_site_type_symbol
_atom_site_label
_atom_site_fract_x
_atom_site_fract_y
_atom_site_fract_z
Si Si1 0.366232 0.315056 0.452585
Si Si2 0.693429 0.314082 0.055052
Si Si3 0.189674 0.315250 0.533605
Si Si4 0.879861 0.181772 0.951008
Si Si5 0.158965 0.685847 0.282754
Si Si6 0.149750 0.316766 0.851996
Si Si7 0.338238 0.686369 0.197938
O O1 0.364684 0.500000 0.447466
O O2 0.529741 0.253760 0.250042
O O3 0.284483 0.243489 0.482644
O O4 0.281168 0.264025 0.633949
O O5 0.699642 0.500000 0.056147
O O6 0.753342 0.234426 0.054344
O O7 0.786743 0.256590 0.866534
O O8 0.203883 0.500000 0.516690
O O9 0.248745 0.248132 0.380984
O O10 0.023607 0.273991 0.750182
O O11 0.909736 0.000000 0.905047
O O12 0.830471 0.220482 0.096973
O O13 0.156686 0.500000 0.287234
O O14 0.266779 0.750237 0.211246
O O15 0.000000 0.752663 0.500000
O O16 0.153683 0.500000 0.865900
O O17 0.000000 0.272353 0.000000
O O18 0.338411 0.500000 0.197873
O O19 0.500000 0.752041 0.000000
#
# Coordination Sequence:
#
# PCOD8059189 Si02
#       7
#     4   4   4   4   4   4   4
#     4   9  18  33  58  87 109 138 181 229 275 331
#     4  10  20  36  57  81 112 147 185 227 276 328
#     4  10  18  34  59  85 113 146 185 229 281 333
#     4  12  25  38  54  80 113 147 190 230 271 326
#     4   9  16  27  46  76 109 141 176 216 264 317
#     4  10  19  37  62  85 110 138 179 227 278 337
#     4   9  16  26  48  84 116 137 169 227 286 329
#
# _framework density 19.82226
#
# number of rings (size 3 to 8) (size 9 to 14) (size 15 to 20)
#    0.000    2.143    1.429    3.000    0.000    6.571 
#    0.000    4.286    0.000    4.286    0.000    0.000 
#    0.000    0.000    0.000    0.000    0.000    0.000 
#
# Total GULP energy -347237.415305 kJ/mol
# GULP energy per Si atom -12401.336261 kJ/mol
# Density = 1.977714 g / cm^3
# Si number density = 19.822260 Si / 1000 Ang^3
#
#
#
# Elastic Constant Matrix: (Units=GPa)
#
#
# Indices 1 2 3 4 5 6 
#
# 1 142.8741 15.2369 50.5525 0.0000 3.0312 0.0000
# 2 15.2369 11.1985 7.0144 0.0000 6.5876 0.0000
# 3 50.5525 7.0144 133.5245 0.0000 2.4522 0.0000
# 4 0.0000 0.0000 0.0000 1.2537 0.0000 0.1285
# 5 3.0312 6.5876 2.4522 0.0000 40.5640 0.0000
# 6 0.0000 0.0000 0.0000 0.1285 0.0000 0.2249
#
#
#
# Elastic Compliance Matrix: (Units=1/GPa)
#
#
# Indices 1 2 3 4 5 6 
#
# 1 0.009232 -0.011535 -0.002914 0.000000 0.001360 0.000000
# 2 -0.011535 0.116450 -0.001420 0.000000 -0.017964 0.000000
# 3 -0.002914 -0.001420 0.008669 0.000000 -0.000076 0.000000
# 4 0.000000 0.000000 0.000000 0.847282 0.000000 -0.484273
# 5 0.001360 -0.017964 -0.000076 0.000000 0.027473 0.000000
# 6 0.000000 0.000000 0.000000 -0.484273 0.000000 4.723760
#
#
# Mechanical properties :
#
#
# Convention : Reuss Voigt Hill
#
# Bulk Modulus (GPa) = 9.74558 48.13386 28.93972
# Shear Modulus (GPa) = 0.86225 22.72807 11.79516
#
# Velocity S-wave (km/s) = 0.66025 3.38981 2.44200
# Velocity P-wave (km/s) = 2.34700 6.29734 4.75210
#
# Compressibility (1/GPa) = 0.10261058
#
# Stress axis : x y z
#
# Youngs Moduli (GPa) = 108.32380 8.58741 115.35971
#
# Poissons Ratio (x) = 0.09906 0.33617
# Poissons Ratio (y) = 1.24954 0.16384
# Poissons Ratio (z) = 0.31566 0.01220
#
# Static dielectric constant tensor:
#      x y z
#    x 3.863740 0.000000 0.051570 
#    y 0.000000 2.973850 0.000000 
#    z 0.051570 0.000000 3.821890 
# 
# 
# High freq. dielectric constant tensor:
#      x y z
#    x 1.789570 0.000000 0.003400 
#    y 0.000000 1.709840 0.000000 
#    z 0.003400 0.000000 1.787500 
# 
# From -- ./inp_files/70212.got.cif
#   From: 2010.06.25/outbox.cif.g09.slc.cpg/sg10_36_cif.got.tgz:70212.got - 2010.06.27 22:07:45.
