data_PCOD8059636
_publ_section_title
;
Structure prediction by ZEFSAII (Michael W. Deem and Ramdas Pophale) SiO2 
 PCOD8059636
Probable space group: P 2/M
;
_chemical_formula_sum "Si O2"
_cell_formula_units_Z 32
_cell_length_a 21.304744
_cell_length_b 9.000861
_cell_length_c 15.499526
_cell_angle_alpha 90.000000
_cell_angle_beta 34.379884
_cell_angle_gamma 90.000000
_cell_volume 1678.336754
_symmetry_space_group_name_H-M "P 2/M"
_symmetry_group_IT_number 10
_symmetry_cell_setting 'monoclinic'
loop_
_space_group_symop_operation_xyz
x,y,z
-x,y,-z
-x,-y,-z
x,-y,z
loop_
_atom_site_type_symbol
_atom_site_label
_atom_site_fract_x
_atom_site_fract_y
_atom_site_fract_z
Si Si1 0.588383 0.666724 0.093642
Si Si2 0.671964 0.832856 0.837187
Si Si3 0.870229 0.822390 0.388167
Si Si4 0.927940 0.832076 0.507179
Si Si5 0.900488 0.324170 0.177180
Si Si6 0.433058 0.676174 0.694832
Si Si7 0.667565 0.676435 0.365510
Si Si8 0.346100 0.666911 0.309662
O O1 0.633905 0.500000 0.024973
O O2 0.619185 0.725407 0.154456
O O3 0.455196 0.665253 0.243650
O O4 0.641342 0.778337 0.966446
O O5 0.802905 0.823931 0.680293
O O6 0.617461 0.731437 0.824980
O O7 0.628060 0.000000 0.874915
O O8 0.936046 0.766184 0.400275
O O9 0.926146 0.752987 0.239942
O O10 0.743247 0.767923 0.540054
O O11 0.869573 0.000000 0.383934
O O12 0.000000 0.747501 0.500000
O O13 0.971979 0.000000 0.451229
O O14 0.895814 0.500000 0.197342
O O15 0.783545 0.260762 0.272218
O O16 0.000000 0.280323 0.000000
O O17 0.443478 0.500000 0.678871
O O18 0.559501 0.737362 0.539600
O O19 0.349459 0.730519 0.714384
O O20 0.675085 0.500000 0.361240
O O21 0.298697 0.500000 0.351884
#
# Coordination Sequence:
#
# PCOD8059636 Si02
#       8
#     4   4   4   4   4   4   4   4
#     4  10  19  30  46  73 104 134 165 202 252 303
#     4  10  20  32  48  72 101 133 169 207 249 298
#     4  10  20  34  55  80 101 130 173 215 255 303
#     4   8  16  34  55  71  92 129 174 211 248 301
#     4  10  20  34  52  76 107 138 169 211 263 312
#     4   8  14  26  47  71  93 125 171 211 245 296
#     4   8  14  28  49  70  94 128 169 210 251 296
#     4  10  19  32  52  74 101 134 167 204 250 303
#
# _framework density 19.066496000000001
#
# number of rings (size 3 to 8) (size 9 to 14) (size 15 to 20)
#    0.000    2.750    0.000    3.750    0.000    4.750 
#    2.250    0.000    0.000   13.500    0.000    2.625 
#    0.000    0.000    0.000    0.000    0.000    0.000 
#
# Total GULP energy -396566.495208 kJ/mol
# GULP energy per Si atom -12392.702975 kJ/mol
# Density = 1.902310 g / cm^3
# Si number density = 19.066496 Si / 1000 Ang^3
#
#
#
# Elastic Constant Matrix: (Units=GPa)
#
#
# Indices 1 2 3 4 5 6 
#
# 1 122.1875 26.2643 51.2567 0.0000 20.1673 0.0000
# 2 26.2643 55.1072 29.6851 0.0000 10.6090 0.0000
# 3 51.2567 29.6851 92.7588 0.0000 30.8930 0.0000
# 4 0.0000 0.0000 0.0000 22.4791 0.0000 3.8824
# 5 20.1673 10.6090 30.8930 0.0000 29.7573 0.0000
# 6 0.0000 0.0000 0.0000 3.8824 0.0000 15.6089
#
#
#
# Elastic Compliance Matrix: (Units=1/GPa)
#
#
# Indices 1 2 3 4 5 6 
#
# 1 0.010954 -0.002342 -0.004752 0.000000 -0.001655 0.000000
# 2 -0.002342 0.022440 -0.005734 0.000000 -0.000460 0.000000
# 3 -0.004752 -0.005734 0.020616 0.000000 -0.016138 0.000000
# 4 0.000000 0.000000 0.000000 0.046483 0.000000 -0.011562
# 5 -0.001655 -0.000460 -0.016138 0.000000 0.051646 0.000000
# 6 0.000000 0.000000 0.000000 -0.011562 0.000000 0.066942
#
#
# Mechanical properties :
#
#
# Convention : Reuss Voigt Hill
#
# Bulk Modulus (GPa) = 35.26812 53.82950 44.54881
# Shear Modulus (GPa) = 19.67040 24.42554 22.04797
#
# Velocity S-wave (km/s) = 3.21545 3.58309 3.40424
# Velocity P-wave (km/s) = 5.68534 6.73883 6.23438
#
# Compressibility (1/GPa) = 0.02835422
#
# Stress axis : x y z
#
# Youngs Moduli (GPa) = 91.28774 44.56313 48.50492
#
# Poissons Ratio (x) = 0.10438 0.23051
# Poissons Ratio (y) = 0.21382 0.27812
# Poissons Ratio (z) = 0.43382 0.25552
#
# Static dielectric constant tensor:
#      x y z
#    x 3.888480 0.000000 0.241240 
#    y 0.000000 3.205140 0.000000 
#    z 0.241240 0.000000 3.417780 
# 
# 
# High freq. dielectric constant tensor:
#      x y z
#    x 1.750030 0.000000 0.018420 
#    y 0.000000 1.700660 0.000000 
#    z 0.018420 0.000000 1.730900 
# 
# From -- ./inp_files/69956.got.cif
#   From: 2010.06.25/outbox.cif.g09.slc.cpg/sg10_35_cif.got.tgz:69956.got - 2010.06.27 22:07:45.
