data_PCOD8059637
_publ_section_title
;
Structure prediction by ZEFSAII (Michael W. Deem and Ramdas Pophale) SiO2 
 PCOD8059637
Probable space group: P 2/M
;
_chemical_formula_sum "Si O2"
_cell_formula_units_Z 32
_cell_length_a 19.980213
_cell_length_b 8.539474
_cell_length_c 11.733182
_cell_angle_alpha 90.000000
_cell_angle_beta 121.128419
_cell_angle_gamma 90.000000
_cell_volume 1713.666368
_symmetry_space_group_name_H-M "P 2/M"
_symmetry_group_IT_number 10
_symmetry_cell_setting 'monoclinic'
loop_
_space_group_symop_operation_xyz
x,y,z
-x,y,-z
-x,-y,-z
x,-y,z
loop_
_atom_site_type_symbol
_atom_site_label
_atom_site_fract_x
_atom_site_fract_y
_atom_site_fract_z
Si Si1 0.179368 0.319658 0.883969
Si Si2 0.082082 0.183703 0.620433
Si Si3 0.459296 0.183820 0.576774
Si Si4 0.601448 0.816913 0.848627
Si Si5 0.220666 0.319328 0.597091
Si Si6 0.738898 0.678863 0.823694
Si Si7 0.685784 0.821228 0.137710
Si Si8 0.715444 0.182634 0.567790
O O1 0.199357 0.500000 0.870567
O O2 0.096311 0.271153 0.755170
O O3 0.240136 0.201637 0.879126
O O4 0.186002 0.295756 0.026324
O O5 0.149943 0.221795 0.589383
O O6 0.000000 0.246235 0.500000
O O7 0.078750 0.000000 0.639963
O O8 0.500000 0.256827 0.500000
O O9 0.512537 0.222153 0.734014
O O10 0.372628 0.253551 0.516960
O O11 0.449346 0.000000 0.548526
O O12 0.659624 0.717837 0.821425
O O13 0.620409 0.000000 0.844828
O O14 0.611192 0.774918 0.992218
O O15 0.199657 0.500000 0.587972
O O16 0.301787 0.282671 0.737775
O O17 0.230746 0.272249 0.475060
O O18 0.734112 0.500000 0.778469
O O19 0.750132 0.788187 0.723991
O O20 0.679495 0.000000 0.172820
O O21 0.717763 0.000000 0.541261
#
# Coordination Sequence:
#
# PCOD8059637 Si02
#       8
#     4   4   4   4   4   4   4   4
#     4   9  17  29  48  75 106 136 166 203 246 296
#     4  10  20  35  58  86 110 131 162 204 246 293
#     4   9  16  29  49  73  98 128 174 222 262 303
#     4   9  16  29  49  72  96 128 172 221 263 301
#     4  11  22  36  53  74 105 137 169 206 251 309
#     4  10  19  30  46  73 105 135 171 212 255 300
#     4   9  16  28  49  72  96 128 170 214 256 300
#     4  11  21  34  53  72  99 138 177 217 259 304
#
# _framework density 18.673411999999999
#
# number of rings (size 3 to 8) (size 9 to 14) (size 15 to 20)
#    0.000    2.250    1.250    4.500    0.000    3.000 
#    0.000    2.500    0.000    4.500    0.000    5.250 
#    0.000    0.000    0.000    0.000    0.000    0.000 
#
# Total GULP energy -396602.364058 kJ/mol
# GULP energy per Si atom -12393.823877 kJ/mol
# Density = 1.863091 g / cm^3
# Si number density = 18.673412 Si / 1000 Ang^3
#
#
#
# Elastic Constant Matrix: (Units=GPa)
#
#
# Indices 1 2 3 4 5 6 
#
# 1 48.8180 8.6176 41.5957 0.0000 0.8942 0.0000
# 2 8.6176 44.0408 23.9420 0.0000 2.0900 0.0000
# 3 41.5957 23.9420 142.8186 0.0000 10.6832 0.0000
# 4 0.0000 0.0000 0.0000 28.2237 0.0000 -5.2482
# 5 0.8942 2.0900 10.6832 0.0000 27.8877 0.0000
# 6 0.0000 0.0000 0.0000 -5.2482 0.0000 11.1214
#
#
#
# Elastic Compliance Matrix: (Units=1/GPa)
#
#
# Indices 1 2 3 4 5 6 
#
# 1 0.027433 -0.001144 -0.007967 0.000000 0.002258 0.000000
# 2 -0.001144 0.025033 -0.003836 0.000000 -0.000370 0.000000
# 3 -0.007967 -0.003836 0.010217 0.000000 -0.003371 0.000000
# 4 0.000000 0.000000 0.000000 0.038839 0.000000 0.018328
# 5 0.002258 -0.000370 -0.003371 0.000000 0.037105 0.000000
# 6 0.000000 0.000000 0.000000 0.018328 0.000000 0.098566
#
#
# Mechanical properties :
#
#
# Convention : Reuss Voigt Hill
#
# Bulk Modulus (GPa) = 27.18113 42.66533 34.92323
# Shear Modulus (GPa) = 18.15870 24.21470 21.18670
#
# Velocity S-wave (km/s) = 3.12177 3.60494 3.37202
# Velocity P-wave (km/s) = 5.25182 6.34234 5.82267
#
# Compressibility (1/GPa) = 0.03679024
#
# Stress axis : x y z
#
# Youngs Moduli (GPa) = 36.45219 39.94763 97.87171
#
# Poissons Ratio (x) = 0.04570 0.77975
# Poissons Ratio (y) = 0.04170 0.37540
# Poissons Ratio (z) = 0.29042 0.15322
#
# Static dielectric constant tensor:
#      x y z
#    x 2.966120 0.000000 0.127340 
#    y 0.000000 3.299000 0.000000 
#    z 0.127340 0.000000 4.018270 
# 
# 
# High freq. dielectric constant tensor:
#      x y z
#    x 1.662680 0.000000 0.000140 
#    y 0.000000 1.719550 0.000000 
#    z 0.000140 0.000000 1.747400 
# 
# From -- ./inp_files/54911.got.cif
#   From: 2010.06.25/outbox.cif.g09.slc.cpg/sg10_28_cif.got.tgz:54911.got - 2010.06.27 22:07:45.
