data_PCOD8059301
_publ_section_title
;
Structure prediction by ZEFSAII (Michael W. Deem and Ramdas Pophale) SiO2 
 PCOD8059301
Probable space group: P 2/M
;
_chemical_formula_sum "Si O2"
_cell_formula_units_Z 32
_cell_length_a 26.706466
_cell_length_b 9.122366
_cell_length_c 13.651602
_cell_angle_alpha 90.000000
_cell_angle_beta 140.034524
_cell_angle_gamma 90.000000
_cell_volume 2136.303602
_symmetry_space_group_name_H-M "P 2/M"
_symmetry_group_IT_number 10
_symmetry_cell_setting 'monoclinic'
loop_
_space_group_symop_operation_xyz
x,y,z
-x,y,-z
-x,-y,-z
x,-y,z
loop_
_atom_site_type_symbol
_atom_site_label
_atom_site_fract_x
_atom_site_fract_y
_atom_site_fract_z
Si Si1 0.756120 0.670149 0.030620
Si Si2 0.928829 0.329916 0.289883
Si Si3 0.378707 0.328306 0.861290
Si Si4 0.466039 0.170979 0.600022
Si Si5 0.070996 0.829855 0.502600
Si Si6 0.378749 0.828231 0.275081
Si Si7 0.466047 0.329125 0.798094
Si Si8 0.243739 0.170268 0.762221
O O1 0.737448 0.500000 0.020260
O O2 0.697938 0.736468 0.863847
O O3 0.842985 0.690299 0.114462
O O4 0.745799 0.749720 0.118703
O O5 0.949149 0.500000 0.333841
O O6 0.925078 0.248307 0.387289
O O7 0.000133 0.251129 0.336312
O O8 0.360839 0.500000 0.845049
O O9 0.403581 0.289153 0.788045
O O10 0.302215 0.235892 0.770425
O O11 0.447762 0.280854 0.038451
O O12 0.552327 0.219118 0.695438
O O13 0.403711 0.211637 0.422915
O O14 0.441177 0.249792 0.661866
O O15 0.465261 0.000000 0.619046
O O16 0.157027 0.808969 0.585513
O O17 0.050096 0.000000 0.482404
O O18 0.361073 0.000000 0.238453
O O19 0.465519 0.500000 0.776597
O O20 0.261927 0.000000 0.807474
#
# Coordination Sequence:
#
# PCOD8059301 Si02
#       8
#     4   4   4   4   4   4   4   4
#     4  10  19  28  40  60  84 110 140 172 204 240
#     4   9  16  25  37  54  77 105 136 166 197 236
#     4   9  18  31  44  60  83 109 138 171 205 242
#     4   9  18  31  45  61  82 108 138 172 207 242
#     4   9  16  25  37  54  77 105 136 166 197 236
#     4   9  18  31  44  60  83 109 138 171 205 242
#     4   9  18  31  45  61  82 108 138 172 207 242
#     4  10  19  28  40  60  84 110 140 172 204 240
#
# _framework density 14.979145000000001
#
# number of rings (size 3 to 8) (size 9 to 14) (size 15 to 20)
#    0.000    2.750    0.000    4.500    0.000    7.000 
#    0.000    2.500    0.000    0.000    0.000    0.000 
#    0.000    1.000    0.000   11.000    0.000    8.000 
#
# Total GULP energy -396566.774160 kJ/mol
# GULP energy per Si atom -12392.711692 kJ/mol
# Density = 1.494505 g / cm^3
# Si number density = 14.979145 Si / 1000 Ang^3
#
#
#
# Elastic Constant Matrix: (Units=GPa)
#
#
# Indices 1 2 3 4 5 6 
#
# 1 70.4264 43.5937 67.3569 0.0000 5.5074 0.0000
# 2 43.5937 88.8411 62.0029 0.0000 11.2764 0.0000
# 3 67.3569 62.0029 88.7315 0.0000 19.2962 0.0000
# 4 0.0000 0.0000 0.0000 30.9428 0.0000 5.3086
# 5 5.5074 11.2764 19.2962 0.0000 26.5666 0.0000
# 6 0.0000 0.0000 0.0000 5.3086 0.0000 27.5578
#
#
#
# Elastic Compliance Matrix: (Units=1/GPa)
#
#
# Indices 1 2 3 4 5 6 
#
# 1 0.066060 0.006381 -0.060612 0.000000 0.027622 0.000000
# 2 0.006381 0.022693 -0.021754 0.000000 0.004846 0.000000
# 3 -0.060612 -0.021754 0.080449 0.000000 -0.036634 0.000000
# 4 0.000000 0.000000 0.000000 0.033422 0.000000 -0.006438
# 5 0.027622 0.004846 -0.036634 0.000000 0.056467 0.000000
# 6 0.000000 0.000000 0.000000 -0.006438 0.000000 0.037528
#
#
# Mechanical properties :
#
#
# Convention : Reuss Voigt Hill
#
# Bulk Modulus (GPa) = 58.03851 65.98956 62.01403
# Shear Modulus (GPa) = 11.00512 22.01646 16.51079
#
# Velocity S-wave (km/s) = 2.71347 3.83797 3.32362
# Velocity P-wave (km/s) = 6.97478 7.98686 7.49791
#
# Compressibility (1/GPa) = 0.01722994
#
# Stress axis : x y z
#
# Youngs Moduli (GPa) = 15.13769 44.06737 12.43020
#
# Poissons Ratio (x) = -0.28117 0.75342
# Poissons Ratio (y) = -0.09659 0.27041
# Poissons Ratio (z) = 0.91753 0.95865
#
# Static dielectric constant tensor:
#      x y z
#    x 2.950240 0.000000 0.460040 
#    y 0.000000 2.933570 0.000000 
#    z 0.460040 0.000000 3.207950 
# 
# 
# High freq. dielectric constant tensor:
#      x y z
#    x 1.543580 0.000000 0.028810 
#    y 0.000000 1.585510 0.000000 
#    z 0.028810 0.000000 1.559920 
# 
# From -- ./inp_files/72043.got.cif
#   From: 2010.06.25/outbox.cif.g09.slc.cpg/sg10_37_cif.got.tgz:72043.got - 2010.06.27 22:07:45.
