data_PCOD8059369
_publ_section_title
;
Structure prediction by ZEFSAII (Michael W. Deem and Ramdas Pophale) SiO2 
 PCOD8059369
Probable space group: P 2/M
;
_chemical_formula_sum "Si O2"
_cell_formula_units_Z 32
_cell_length_a 15.000944
_cell_length_b 9.430418
_cell_length_c 13.803617
_cell_angle_alpha 90.000000
_cell_angle_beta 91.191693
_cell_angle_gamma 90.000000
_cell_volume 1952.308700
_symmetry_space_group_name_H-M "P 2/M"
_symmetry_group_IT_number 10
_symmetry_cell_setting 'monoclinic'
loop_
_space_group_symop_operation_xyz
x,y,z
-x,y,-z
-x,-y,-z
x,-y,z
loop_
_atom_site_type_symbol
_atom_site_label
_atom_site_fract_x
_atom_site_fract_y
_atom_site_fract_z
Si Si1 0.598744 0.162961 0.493748
Si Si2 0.135632 0.338228 0.224355
Si Si3 0.017555 0.838153 0.684397
Si Si4 0.824320 0.843163 0.158242
Si Si5 0.101128 0.664207 0.006468
Si Si6 0.744035 0.660368 0.606217
Si Si7 0.870596 0.336169 0.443781
Si Si8 0.727387 0.161033 0.334143
O O1 0.500000 0.229939 0.500000
O O2 0.665404 0.237310 0.570729
O O3 0.630385 0.178672 0.381969
O O4 0.596401 0.000000 0.526260
O O5 0.101171 0.500000 0.237950
O O6 0.146348 0.305795 0.110916
O O7 0.231522 0.317421 0.279746
O O8 0.066930 0.228402 0.266515
O O9 0.098689 0.824115 0.760741
O O10 0.042325 0.753963 0.585593
O O11 0.996285 0.000000 0.656720
O O12 0.731111 0.819508 0.216732
O O13 0.827051 0.000000 0.112553
O O14 0.834787 0.734556 0.071264
O O15 0.097406 0.500000 0.979791
O O16 0.000000 0.726379 0.000000
O O17 0.712216 0.500000 0.584250
O O18 0.839351 0.688698 0.553957
O O19 0.891782 0.500000 0.422478
O O20 0.786533 0.284638 0.380192
O O21 0.763483 0.000000 0.358777
#
# Coordination Sequence:
#
# PCOD8059369 Si02
#       8
#     4   4   4   4   4   4   4   4
#     4   9  17  31  53  77  99 121 144 176 220 273
#     4  10  20  33  45  60  87 120 156 194 233 271
#     4  10  19  29  42  62  86 118 156 192 231 265
#     4   9  17  28  43  62  88 119 150 190 230 266
#     4  10  19  30  45  64  84 115 159 203 238 264
#     4   9  19  33  47  65  91 122 150 183 225 271
#     4   9  16  27  43  61  84 117 154 185 218 262
#     4   8  15  28  44  67  95 119 145 178 222 270
#
# _framework density 16.39085
#
# number of rings (size 3 to 8) (size 9 to 14) (size 15 to 20)
#    0.000    2.750    1.250    1.500    0.000    4.500 
#    0.000    2.500    0.000    0.000    0.000    0.875 
#    0.000    7.000    0.000    0.000    0.000    0.000 
#
# Total GULP energy -396496.668149 kJ/mol
# GULP energy per Si atom -12390.520880 kJ/mol
# Density = 1.635354 g / cm^3
# Si number density = 16.390850 Si / 1000 Ang^3
#
#
#
# Elastic Constant Matrix: (Units=GPa)
#
#
# Indices 1 2 3 4 5 6 
#
# 1 65.1249 27.6387 44.6003 0.0000 -12.8649 0.0000
# 2 27.6387 74.4794 45.6504 0.0000 -5.3940 0.0000
# 3 44.6003 45.6504 103.9046 0.0000 -7.1804 0.0000
# 4 0.0000 0.0000 0.0000 21.2857 0.0000 -5.2494
# 5 -12.8649 -5.3940 -7.1804 0.0000 17.2171 0.0000
# 6 0.0000 0.0000 0.0000 -5.2494 0.0000 17.2138
#
#
#
# Elastic Compliance Matrix: (Units=1/GPa)
#
#
# Indices 1 2 3 4 5 6 
#
# 1 0.025368 -0.003156 -0.008506 0.000000 0.014419 0.000000
# 2 -0.003156 0.018869 -0.006888 0.000000 0.000681 0.000000
# 3 -0.008506 -0.006888 0.016180 0.000000 -0.001766 0.000000
# 4 0.000000 0.000000 0.000000 0.050801 0.000000 0.015492
# 5 0.014419 0.000681 -0.001766 0.000000 0.068333 0.000000
# 6 0.000000 0.000000 0.000000 0.015492 0.000000 0.062817
#
#
# Mechanical properties :
#
#
# Convention : Reuss Voigt Hill
#
# Bulk Modulus (GPa) = 42.88891 53.25418 48.07154
# Shear Modulus (GPa) = 17.40701 19.51795 18.46248
#
# Velocity S-wave (km/s) = 3.26236 3.45452 3.35981
# Velocity P-wave (km/s) = 6.35719 6.96220 6.66656
#
# Compressibility (1/GPa) = 0.02331605
#
# Stress axis : x y z
#
# Youngs Moduli (GPa) = 39.41938 52.99686 61.80588
#
# Poissons Ratio (x) = 0.16726 0.52572
# Poissons Ratio (y) = 0.12441 0.42574
# Poissons Ratio (z) = 0.33530 0.36506
#
# Static dielectric constant tensor:
#      x y z
#    x 2.876990 0.000000 -0.245990 
#    y 0.000000 3.148430 0.000000 
#    z -0.245990 0.000000 3.229680 
# 
# 
# High freq. dielectric constant tensor:
#      x y z
#    x 1.585040 0.000000 -0.017670 
#    y 0.000000 1.638070 0.000000 
#    z -0.017670 0.000000 1.624210 
# 
# From -- ./inp_files/66145.got.cif
#   From: 2010.06.25/outbox.cif.g09.slc.cpg/sg10_34_cif.got.tgz:66145.got - 2010.06.27 22:07:45.
