data_PCOD8059097
_publ_section_title
;
Structure prediction by ZEFSAII (Michael W. Deem and Ramdas Pophale) SiO2 
 PCOD8059097
Probable space group: P 2/M
;
_chemical_formula_sum "Si O2"
_cell_formula_units_Z 32
_cell_length_a 23.403052
_cell_length_b 9.136609
_cell_length_c 24.045823
_cell_angle_alpha 90.000000
_cell_angle_beta 161.575424
_cell_angle_gamma 90.000000
_cell_volume 1625.029458
_symmetry_space_group_name_H-M "P 2/M"
_symmetry_group_IT_number 10
_symmetry_cell_setting 'monoclinic'
loop_
_space_group_symop_operation_xyz
x,y,z
-x,y,-z
-x,-y,-z
x,-y,z
loop_
_atom_site_type_symbol
_atom_site_label
_atom_site_fract_x
_atom_site_fract_y
_atom_site_fract_z
Si Si1 0.202044 0.826639 0.546847
Si Si2 0.365919 0.327550 0.229331
Si Si3 0.390933 0.827339 0.454970
Si Si4 0.435730 0.829063 0.179782
Si Si5 0.026977 0.670914 0.088531
Si Si6 0.187715 0.830342 0.848849
Si Si7 0.668624 0.669284 0.119631
Si Si8 0.188106 0.846151 0.658274
O O1 0.377855 0.772645 0.675802
O O2 0.213092 0.770589 0.620629
O O3 0.017703 0.768406 0.346694
O O4 0.196986 0.000000 0.543084
O O5 0.401845 0.500000 0.267410
O O6 0.502658 0.245652 0.396355
O O7 0.404177 0.272126 0.203220
O O8 0.158058 0.289965 0.050889
O O9 0.500000 0.789415 0.500000
O O10 0.188943 0.762924 0.265271
O O11 0.376954 0.000000 0.452498
O O12 0.449291 0.000000 0.209041
O O13 0.264750 0.802721 0.981446
O O14 0.076361 0.500000 0.138580
O O15 0.000000 0.718514 0.000000
O O16 0.322615 0.750542 0.930960
O O17 0.192446 0.000000 0.837668
O O18 0.667019 0.500000 0.104882
O O19 0.818890 0.718985 0.301243
O O20 0.500000 0.725975 0.000000
O O21 0.000000 0.916729 0.500000
O O22 0.308638 0.000000 0.773363
#
# Coordination Sequence:
#
# PCOD8059097 Si02
#       8
#     4   4   4   4   4   4   4   4
#     4   9  18  35  58  85 113 145 192 244 297 356
#     4  11  24  42  64  90 126 168 210 250 296 365
#     4  11  23  38  63  98 132 163 202 254 306 356
#     4  10  22  39  60  85 116 154 201 252 298 346
#     4  10  21  39  64  93 128 170 205 241 296 359
#     4  10  20  38  61  80 106 150 198 246 297 349
#     4  11  23  35  50  79 117 149 183 234 297 361
#     4  10  18  33  58  83 108 140 184 237 289 353
#
# _framework density 19.691951
#
# number of rings (size 3 to 8) (size 9 to 14) (size 15 to 20)
#    0.000    1.750    2.500    1.875    0.000    5.500 
#    0.000    2.500    0.000    0.000    0.000    0.000 
#    0.000    0.000    0.000    0.000    0.000    0.000 
#
# Total GULP energy -396441.048700 kJ/mol
# GULP energy per Si atom -12388.782772 kJ/mol
# Density = 1.964713 g / cm^3
# Si number density = 19.691951 Si / 1000 Ang^3
#
#
#
# Elastic Constant Matrix: (Units=GPa)
#
#
# Indices 1 2 3 4 5 6 
#
# 1 129.2847 41.5639 39.1736 0.0000 -0.4367 0.0000
# 2 41.5639 51.5310 37.2129 0.0000 1.7971 0.0000
# 3 39.1736 37.2129 93.3368 0.0000 -0.7545 0.0000
# 4 0.0000 0.0000 0.0000 3.9385 0.0000 4.1156
# 5 -0.4367 1.7971 -0.7545 0.0000 29.2346 0.0000
# 6 0.0000 0.0000 0.0000 4.1156 0.0000 29.2667
#
#
#
# Elastic Compliance Matrix: (Units=1/GPa)
#
#
# Indices 1 2 3 4 5 6 
#
# 1 0.010592 -0.007523 -0.001442 0.000000 0.000583 0.000000
# 2 -0.007523 0.032707 -0.009902 0.000000 -0.002379 0.000000
# 3 -0.001442 -0.009902 0.015275 0.000000 0.000981 0.000000
# 4 0.000000 0.000000 0.000000 0.297640 0.000000 -0.041855
# 5 0.000583 -0.002379 0.000981 0.000000 0.034386 0.000000
# 6 0.000000 0.000000 0.000000 -0.041855 0.000000 0.040054
#
#
# Mechanical properties :
#
#
# Convention : Reuss Voigt Hill
#
# Bulk Modulus (GPa) = 47.98167 56.67259 52.32713
# Shear Modulus (GPa) = 10.51891 22.90143 16.71017
#
# Velocity S-wave (km/s) = 2.31373 3.41396 2.91620
# Velocity P-wave (km/s) = 5.61754 6.66199 6.16194
#
# Compressibility (1/GPa) = 0.02084129
#
# Stress axis : x y z
#
# Youngs Moduli (GPa) = 94.40981 30.57433 65.46750
#
# Poissons Ratio (x) = 0.23000 0.09437
# Poissons Ratio (y) = 0.71022 0.64827
# Poissons Ratio (z) = 0.13610 0.30275
#
# Static dielectric constant tensor:
#      x y z
#    x 3.600420 0.000000 0.082260 
#    y 0.000000 3.354610 0.000000 
#    z 0.082260 0.000000 3.779490 
# 
# 
# High freq. dielectric constant tensor:
#      x y z
#    x 1.765590 0.000000 0.003250 
#    y 0.000000 1.755850 0.000000 
#    z 0.003250 0.000000 1.775300 
# 
# From -- ./inp_files/90666.got.cif
#   From: 2010.06.25/outbox.cif.g09.slc.cpg/sg10_46_cif.got.tgz:90666.got - 2010.06.27 22:07:45.
