data_PCOD8059745
_publ_section_title
;
Structure prediction by ZEFSAII (Michael W. Deem and Ramdas Pophale) SiO2 
 PCOD8059745
Probable space group: P 2/M
;
_chemical_formula_sum "Si O2"
_cell_formula_units_Z 32
_cell_length_a 23.150566
_cell_length_b 8.915730
_cell_length_c 16.737663
_cell_angle_alpha 90.000000
_cell_angle_beta 31.941182
_cell_angle_gamma 90.000000
_cell_volume 1827.716158
_symmetry_space_group_name_H-M "P 2/M"
_symmetry_group_IT_number 10
_symmetry_cell_setting 'monoclinic'
loop_
_space_group_symop_operation_xyz
x,y,z
-x,y,-z
-x,-y,-z
x,-y,z
loop_
_atom_site_type_symbol
_atom_site_label
_atom_site_fract_x
_atom_site_fract_y
_atom_site_fract_z
Si Si1 0.895100 0.179527 0.445543
Si Si2 0.437842 0.324023 0.391856
Si Si3 0.128639 0.163295 0.355814
Si Si4 0.117221 0.328362 0.832963
Si Si5 0.324027 0.669659 0.690149
Si Si6 0.344320 0.176573 0.830858
Si Si7 0.763362 0.823010 0.447681
Si Si8 0.139371 0.179408 0.171603
O O1 0.849146 0.245301 0.584726
O O2 0.815394 0.236130 0.469353
O O3 0.019701 0.236184 0.283416
O O4 0.896553 0.000000 0.448105
O O5 0.440928 0.500000 0.373271
O O6 0.400200 0.285980 0.526169
O O7 0.556353 0.253459 0.238268
O O8 0.353513 0.254612 0.427352
O O9 0.167771 0.245051 0.227765
O O10 0.000000 0.141440 0.500000
O O11 0.185628 0.000000 0.292275
O O12 0.116021 0.500000 0.803089
O O13 0.198273 0.313957 0.812692
O O14 0.152785 0.220000 0.720336
O O15 0.000000 0.273833 0.000000
O O16 0.350103 0.500000 0.687657
O O17 0.348412 0.781710 0.733157
O O18 0.356322 0.000000 0.825862
O O19 0.231192 0.236197 0.002089
O O20 0.746641 0.000000 0.467461
O O21 0.138990 0.000000 0.177182
#
# Coordination Sequence:
#
# PCOD8059745 Si02
#       8
#     4   4   4   4   4   4   4   4
#     4   8  14  25  44  71 101 128 153 186 231 287
#     4  10  21  38  53  63  88 129 171 202 233 284
#     4   7  10  21  41  63  94 133 158 174 217 287
#     4   9  19  34  48  64  95 136 169 192 223 279
#     4   9  19  34  49  65  87 124 168 201 231 275
#     4  11  21  30  48  75 100 120 152 204 249 284
#     4  10  19  30  49  75  98 119 156 205 247 280
#     4   8  15  26  41  69 104 129 149 183 236 288
#
# _framework density 17.508189999999999
#
# number of rings (size 3 to 8) (size 9 to 14) (size 15 to 20)
#    0.000    3.000    0.000    3.750    1.750    4.250 
#    0.000    0.000    0.000    0.750    0.000    8.750 
#    0.000   12.000    0.000    0.000    0.000    0.000 
#
# Total GULP energy -396549.223103 kJ/mol
# GULP energy per Si atom -12392.163222 kJ/mol
# Density = 1.746834 g / cm^3
# Si number density = 17.508190 Si / 1000 Ang^3
#
#
#
# Elastic Constant Matrix: (Units=GPa)
#
#
# Indices 1 2 3 4 5 6 
#
# 1 132.8288 35.1606 50.8398 0.0000 -0.7061 0.0000
# 2 35.1606 44.4886 23.6501 0.0000 -1.6303 0.0000
# 3 50.8398 23.6501 66.7880 0.0000 -8.2998 0.0000
# 4 0.0000 0.0000 0.0000 13.1224 0.0000 -9.9103
# 5 -0.7061 -1.6303 -8.2998 0.0000 18.6563 0.0000
# 6 0.0000 0.0000 0.0000 -9.9103 0.0000 10.3904
#
#
#
# Elastic Compliance Matrix: (Units=1/GPa)
#
#
# Indices 1 2 3 4 5 6 
#
# 1 0.011826 -0.005497 -0.007473 0.000000 -0.003357 0.000000
# 2 -0.005497 0.030320 -0.006614 0.000000 -0.000501 0.000000
# 3 -0.007473 -0.006614 0.024236 0.000000 0.009921 0.000000
# 4 0.000000 0.000000 0.000000 0.272474 0.000000 0.259883
# 5 -0.003357 -0.000501 0.009921 0.000000 0.057844 0.000000
# 6 0.000000 0.000000 0.000000 0.259883 0.000000 0.344116
#
#
# Mechanical properties :
#
#
# Convention : Reuss Voigt Hill
#
# Bulk Modulus (GPa) = 36.74598 51.48961 44.11780
# Shear Modulus (GPa) = 6.33669 17.39750 11.86709
#
# Velocity S-wave (km/s) = 1.90450 3.15569 2.60629
# Velocity P-wave (km/s) = 5.08622 6.53839 5.85748
#
# Compressibility (1/GPa) = 0.02721386
#
# Stress axis : x y z
#
# Youngs Moduli (GPa) = 84.56046 32.98169 41.26054
#
# Poissons Ratio (x) = 0.18130 0.30833
# Poissons Ratio (y) = 0.46482 0.27292
# Poissons Ratio (z) = 0.63190 0.21816
#
# Static dielectric constant tensor:
#      x y z
#    x 3.485690 0.000000 0.072080 
#    y 0.000000 2.893860 0.000000 
#    z 0.072080 0.000000 3.357250 
# 
# 
# High freq. dielectric constant tensor:
#      x y z
#    x 1.678190 0.000000 -0.001390 
#    y 0.000000 1.641310 0.000000 
#    z -0.001390 0.000000 1.662480 
# 
# From -- ./inp_files/56444.got.cif
#   From: 2010.06.25/outbox.cif.g09.slc.cpg/sg10_29_cif.got.tgz:56444.got - 2010.06.27 22:07:45.
