data_PCOD8059183
_publ_section_title
;
Structure prediction by ZEFSAII (Michael W. Deem and Ramdas Pophale) SiO2 
 PCOD8059183
Probable space group: P 2/M
;
_chemical_formula_sum "Si O2"
_cell_formula_units_Z 32
_cell_length_a 24.130630
_cell_length_b 8.560765
_cell_length_c 14.356253
_cell_angle_alpha 90.000000
_cell_angle_beta 147.156380
_cell_angle_gamma 90.000000
_cell_volume 1608.423360
_symmetry_space_group_name_H-M "P 2/M"
_symmetry_group_IT_number 10
_symmetry_cell_setting 'monoclinic'
loop_
_space_group_symop_operation_xyz
x,y,z
-x,y,-z
-x,-y,-z
x,-y,z
loop_
_atom_site_type_symbol
_atom_site_label
_atom_site_fract_x
_atom_site_fract_y
_atom_site_fract_z
Si Si1 0.037641 0.185634 0.811614
Si Si2 0.904580 0.814303 0.308013
Si Si3 0.808384 0.186134 0.492739
Si Si4 0.536961 0.681395 0.807531
Si Si5 0.685696 0.815282 0.495999
Si Si6 0.598496 0.179722 0.702971
Si Si7 0.281392 0.185407 0.830530
Si Si8 0.771658 0.814360 0.809777
O O1 0.086999 0.248438 0.785332
O O2 0.923801 0.253495 0.665005
O O3 0.031346 0.000000 0.798243
O O4 0.112773 0.238643 0.001633
O O5 0.799556 0.757120 0.206184
O O6 0.000000 0.745449 0.500000
O O7 0.908527 0.000000 0.316767
O O8 0.742562 0.253633 0.485621
O O9 0.757337 0.243723 0.324838
O O10 0.811625 0.000000 0.498499
O O11 0.512917 0.500000 0.780939
O O12 0.432588 0.774464 0.672741
O O13 0.588249 0.719171 0.781147
O O14 0.611340 0.732708 0.996197
O O15 0.740003 0.744017 0.664935
O O16 0.696698 0.000000 0.512345
O O17 0.500000 0.197864 0.500000
O O18 0.694588 0.245781 0.780829
O O19 0.614955 0.000000 0.756472
O O20 0.295967 0.000000 0.852728
O O21 0.762056 0.000000 0.792599
#
# Coordination Sequence:
#
# PCOD8059183 Si02
#       8
#     4   4   4   4   4   4   4   4
#     4   9  15  25  44  80 116 138 167 214 271 325
#     4   9  14  24  48  80 112 137 166 215 273 324
#     4   9  18  31  52  80 109 139 180 229 271 313
#     4  12  25  38  54  79 108 143 182 227 274 320
#     4  10  20  37  55  76 107 144 183 226 272 320
#     4  10  18  34  59  84 110 143 177 214 265 326
#     4  10  19  34  56  82 109 143 181 222 270 323
#     4   9  17  29  51  81 113 143 170 209 269 329
#
# _framework density 19.89526
#
# number of rings (size 3 to 8) (size 9 to 14) (size 15 to 20)
#    0.000    2.250    2.500    1.875    0.000    3.250 
#    0.000    5.625    0.000    0.375    0.000    3.500 
#    0.000    0.000    0.000    0.000    0.000    0.000 
#
# Total GULP energy -396754.148451 kJ/mol
# GULP energy per Si atom -12398.567139 kJ/mol
# Density = 1.984998 g / cm^3
# Si number density = 19.895260 Si / 1000 Ang^3
#
#
#
# Elastic Constant Matrix: (Units=GPa)
#
#
# Indices 1 2 3 4 5 6 
#
# 1 154.1889 4.7866 74.5131 0.0000 -1.2749 0.0000
# 2 4.7866 11.2838 0.9480 0.0000 -3.0669 0.0000
# 3 74.5131 0.9480 162.2494 0.0000 -4.0282 0.0000
# 4 0.0000 0.0000 0.0000 0.5208 0.0000 -2.1784
# 5 -1.2749 -3.0669 -4.0282 0.0000 14.6237 0.0000
# 6 0.0000 0.0000 0.0000 -2.1784 0.0000 4.5734
#
#
#
# Elastic Compliance Matrix: (Units=1/GPa)
#
#
# Indices 1 2 3 4 5 6 
#
# 1 0.008470 -0.003559 -0.003896 0.000000 -0.001081 0.000000
# 2 -0.003559 0.095476 0.001577 0.000000 0.020147 0.000000
# 3 -0.003896 0.001577 0.007998 0.000000 0.002194 0.000000
# 4 0.000000 0.000000 0.000000 -1.934650 0.000000 -0.921534
# 5 -0.001081 0.020147 0.002194 0.000000 0.073118 0.000000
# 6 0.000000 0.000000 0.000000 -0.921534 0.000000 -0.220299
#
#
# Mechanical properties :
#
#
# Convention : Reuss Voigt Hill
#
# Bulk Modulus (GPa) = 9.98135 54.24641 32.11388
# Shear Modulus (GPa) = -2.59776 20.44186 8.92205
#
# Velocity S-wave (km/s) = -1.14392 3.20890 2.11996
# Velocity P-wave (km/s) = 1.81193 6.40738 4.70838
#
# Compressibility (1/GPa) = 0.10018681
#
# Stress axis : x y z
#
# Youngs Moduli (GPa) = 118.06669 10.47386 125.03506
#
# Poissons Ratio (x) = 0.03728 0.48711
# Poissons Ratio (y) = 0.42025 -0.19718
# Poissons Ratio (z) = 0.45996 -0.01652
#
# Static dielectric constant tensor:
#      x y z
#    x 3.845550 0.000000 -0.052920 
#    y 0.000000 2.903680 0.000000 
#    z -0.052920 0.000000 3.843310 
# 
# 
# High freq. dielectric constant tensor:
#      x y z
#    x 1.777900 0.000000 -0.001530 
#    y 0.000000 1.702970 0.000000 
#    z -0.001530 0.000000 1.795890 
# 
# From -- ./inp_files/71584.got.cif
#   From: 2010.06.25/outbox.cif.g09.slc.cpg/sg10_36_cif.got.tgz:71584.got - 2010.06.27 22:07:45.
