data_PCOD8059656
_publ_section_title
;
Structure prediction by ZEFSAII (Michael W. Deem and Ramdas Pophale) SiO2 
 PCOD8059656
Probable space group: P 2/M
;
_chemical_formula_sum "Si O2"
_cell_formula_units_Z 24
_cell_length_a 25.267657
_cell_length_b 9.260420
_cell_length_c 19.138121
_cell_angle_alpha 90.000000
_cell_angle_beta 162.165606
_cell_angle_gamma 90.000000
_cell_volume 1371.497048
_symmetry_space_group_name_H-M "P 2/M"
_symmetry_group_IT_number 10
_symmetry_cell_setting 'monoclinic'
loop_
_space_group_symop_operation_xyz
x,y,z
-x,y,-z
-x,-y,-z
x,-y,z
loop_
_atom_site_type_symbol
_atom_site_label
_atom_site_fract_x
_atom_site_fract_y
_atom_site_fract_z
Si Si1 0.519212 0.158982 0.106919
Si Si2 0.143513 0.830113 0.625973
Si Si3 0.834734 0.331504 0.836396
Si Si4 0.155041 0.330952 0.496389
Si Si5 0.166995 0.666706 0.004283
Si Si6 0.500858 0.163300 0.584164
O O1 0.667260 0.271698 0.314679
O O2 0.569124 0.000000 0.198591
O O3 0.500000 0.152387 0.000000
O O4 0.329297 0.206873 0.895265
O O5 0.112264 0.744353 0.515539
O O6 0.000000 0.779052 0.500000
O O7 0.131934 0.000000 0.594111
O O8 0.797840 0.500000 0.778236
O O9 0.870303 0.295450 0.961990
O O10 0.667745 0.245191 0.598499
O O11 0.000000 0.279717 0.000000
O O12 0.176547 0.500000 0.536116
O O13 0.003814 0.293324 0.252712
O O14 0.217998 0.500000 0.060060
O O15 0.325122 0.758443 0.171047
O O16 0.500000 0.168856 0.500000
O O17 0.499538 0.000000 0.610926
#
# Coordination Sequence:
#
# PCOD8059656 Si02
#       6
#     4   4   4   4   4   4
#     4   8  15  29  48  67  88 119 156 188 223 273
#     4   9  18  33  51  69  92 123 157 191 228 275
#     4   9  17  31  51  70  91 124 160 191 229 278
#     4  10  19  30  47  71  96 121 152 192 233 274
#     4   9  18  32  48  68  94 123 155 190 231 279
#     4   9  17  29  47  70  93 120 156 195 232 272
#
# _framework density 17.499126
#
# number of rings (size 3 to 8) (size 9 to 14) (size 15 to 20)
#    0.000    3.000    0.000    2.000    0.000    7.000 
#    0.000    1.667    0.000    6.000    0.000    0.000 
#    0.000    0.000    0.000    0.000    0.000    0.000 
#
# Total GULP energy -297535.739094 kJ/mol
# GULP energy per Si atom -12397.322462 kJ/mol
# Density = 1.745930 g / cm^3
# Si number density = 17.499126 Si / 1000 Ang^3
#
#
#
# Elastic Constant Matrix: (Units=GPa)
#
#
# Indices 1 2 3 4 5 6 
#
# 1 68.5155 41.7819 61.4985 0.0000 26.1812 0.0000
# 2 41.7819 93.0400 78.7886 0.0000 12.4558 0.0000
# 3 61.4985 78.7886 155.6989 0.0000 26.2843 0.0000
# 4 0.0000 0.0000 0.0000 29.3791 0.0000 6.4720
# 5 26.1812 12.4558 26.2843 0.0000 33.4315 0.0000
# 6 0.0000 0.0000 0.0000 6.4720 0.0000 16.8244
#
#
#
# Elastic Compliance Matrix: (Units=1/GPa)
#
#
# Indices 1 2 3 4 5 6 
#
# 1 0.030041 -0.006287 -0.005890 0.000000 -0.016553 0.000000
# 2 -0.006287 0.020132 -0.008381 0.000000 0.004012 0.000000
# 3 -0.005890 -0.008381 0.013473 0.000000 -0.002857 0.000000
# 4 0.000000 0.000000 0.000000 0.037189 0.000000 -0.014306
# 5 -0.016553 0.004012 -0.002857 0.000000 0.043626 0.000000
# 6 0.000000 0.000000 0.000000 -0.014306 0.000000 0.064941
#
#
# Mechanical properties :
#
#
# Convention : Reuss Voigt Hill
#
# Bulk Modulus (GPa) = 44.38729 75.71025 60.04877
# Shear Modulus (GPa) = 19.37770 24.93934 22.15852
#
# Velocity S-wave (km/s) = 3.33130 3.77925 3.56232
# Velocity P-wave (km/s) = 6.34171 7.89954 7.16310
#
# Compressibility (1/GPa) = 0.02252897
#
# Stress axis : x y z
#
# Youngs Moduli (GPa) = 33.28766 49.67259 74.22407
#
# Poissons Ratio (x) = 0.31228 0.43718
# Poissons Ratio (y) = 0.20928 0.62211
# Poissons Ratio (z) = 0.19606 0.41633
#
# Static dielectric constant tensor:
#      x y z
#    x 3.074310 0.000000 0.389100 
#    y 0.000000 3.289890 0.000000 
#    z 0.389100 0.000000 3.564300 
# 
# 
# High freq. dielectric constant tensor:
#      x y z
#    x 1.641020 0.000000 0.023120 
#    y 0.000000 1.677260 0.000000 
#    z 0.023120 0.000000 1.683850 
# 
# From -- ./inp_files/74201.got.cif
#   From: 2010.06.25/outbox.cif.g09.slc.cpg/sg10_38_cif.got.tgz:74201.got - 2010.06.27 22:07:45.
