data_PCOD8059657
_publ_section_title
;
Structure prediction by ZEFSAII (Michael W. Deem and Ramdas Pophale) SiO2 
 PCOD8059657
Probable space group: P 2/M
;
_chemical_formula_sum "Si O2"
_cell_formula_units_Z 24
_cell_length_a 18.730803
_cell_length_b 9.272792
_cell_length_c 24.626221
_cell_angle_alpha 90.000000
_cell_angle_beta 161.091764
_cell_angle_gamma 90.000000
_cell_volume 1386.057615
_symmetry_space_group_name_H-M "P 2/M"
_symmetry_group_IT_number 10
_symmetry_cell_setting 'monoclinic'
loop_
_space_group_symop_operation_xyz
x,y,z
-x,y,-z
-x,-y,-z
x,-y,z
loop_
_atom_site_type_symbol
_atom_site_label
_atom_site_fract_x
_atom_site_fract_y
_atom_site_fract_z
Si Si1 0.976569 0.666169 0.321728
Si Si2 0.825545 0.668906 0.829473
Si Si3 0.674756 0.664773 0.514958
Si Si4 0.592492 0.158250 0.006349
Si Si5 0.123233 0.169958 0.642228
Si Si6 0.240959 0.162674 0.322826
O O1 0.922174 0.500000 0.294002
O O2 0.789955 0.727386 0.146331
O O3 0.983693 0.750002 0.383443
O O4 0.212007 0.686692 0.462054
O O5 0.849697 0.500000 0.834692
O O6 0.581263 0.708550 0.675182
O O7 0.879469 0.753246 0.812686
O O8 0.000000 0.720457 0.000000
O O9 0.694105 0.500000 0.548667
O O10 0.805082 0.760239 0.652960
O O11 0.677773 0.000000 0.048798
O O12 0.500000 0.145954 0.000000
O O13 0.381853 0.208715 0.819158
O O14 0.000000 0.223917 0.500000
O O15 0.093368 0.000000 0.630999
O O16 0.500000 0.166653 0.500000
O O17 0.149400 0.000000 0.259067
#
# Coordination Sequence:
#
# PCOD8059657 Si02
#       6
#     4   4   4   4   4   4
#     4  10  19  30  47  71  96 121 153 195 236 274
#     4   9  17  31  51  70  92 126 160 189 229 281
#     4   9  18  32  48  68  94 123 156 193 234 279
#     4   8  15  29  48  67  88 117 152 186 221 269
#     4   9  18  33  51  69  92 124 158 189 227 280
#     4   9  17  29  47  70  92 117 153 193 229 269
#
# _framework density 17.315297000000001
#
# number of rings (size 3 to 8) (size 9 to 14) (size 15 to 20)
#    0.000    3.000    0.000    2.000    0.000    7.000 
#    0.000    1.667    0.000    6.000    0.000    0.000 
#    0.000    0.000    0.000    0.000    0.000    0.000 
#
# Total GULP energy -297518.276350 kJ/mol
# GULP energy per Si atom -12396.594848 kJ/mol
# Density = 1.727589 g / cm^3
# Si number density = 17.315297 Si / 1000 Ang^3
#
#
#
# Elastic Constant Matrix: (Units=GPa)
#
#
# Indices 1 2 3 4 5 6 
#
# 1 82.7295 49.0919 51.3270 0.0000 -12.8928 0.0000
# 2 49.0919 85.4259 43.4586 0.0000 -10.4010 0.0000
# 3 51.3270 43.4586 105.5597 0.0000 -24.1801 0.0000
# 4 0.0000 0.0000 0.0000 21.6722 0.0000 -0.9709
# 5 -12.8928 -10.4010 -24.1801 0.0000 29.4646 0.0000
# 6 0.0000 0.0000 0.0000 -0.9709 0.0000 17.9353
#
#
#
# Elastic Compliance Matrix: (Units=1/GPa)
#
#
# Indices 1 2 3 4 5 6 
#
# 1 0.021665 -0.008964 -0.006646 0.000000 0.000861 0.000000
# 2 -0.008964 0.018518 -0.003284 0.000000 -0.000080 0.000000
# 3 -0.006646 -0.003284 0.016164 0.000000 0.009197 0.000000
# 4 0.000000 0.000000 0.000000 0.046254 0.000000 0.002504
# 5 0.000861 -0.000080 0.009197 0.000000 0.041835 0.000000
# 6 0.000000 0.000000 0.000000 0.002504 0.000000 0.055892
#
#
# Mechanical properties :
#
#
# Convention : Reuss Voigt Hill
#
# Bulk Modulus (GPa) = 53.88399 62.38557 58.13478
# Shear Modulus (GPa) = 20.46649 22.47025 21.46837
#
# Velocity S-wave (km/s) = 3.44174 3.60628 3.52497
# Velocity P-wave (km/s) = 6.85426 7.31080 7.08621
#
# Compressibility (1/GPa) = 0.01855839
#
# Stress axis : x y z
#
# Youngs Moduli (GPa) = 46.15819 54.00120 61.86705
#
# Poissons Ratio (x) = 0.48407 0.41120
# Poissons Ratio (y) = 0.41376 0.20315
# Poissons Ratio (z) = 0.30679 0.17732
#
# Static dielectric constant tensor:
#      x y z
#    x 3.006770 0.000000 -0.134450 
#    y 0.000000 3.300280 0.000000 
#    z -0.134450 0.000000 3.539050 
# 
# 
# High freq. dielectric constant tensor:
#      x y z
#    x 1.647130 0.000000 -0.006720 
#    y 0.000000 1.670960 0.000000 
#    z -0.006720 0.000000 1.657010 
# 
# From -- ./inp_files/31221.got.cif
#   From: 2010.06.25/outbox.cif.g09.slc.cpg/sg10_16_cif.got.tgz:31221.got - 2010.06.27 22:07:45.
