data_PCOD8059713
_publ_section_title
;
Structure prediction by ZEFSAII (Michael W. Deem and Ramdas Pophale) SiO2 
 PCOD8059713
Probable space group: P 2/M
;
_chemical_formula_sum "Si O2"
_cell_formula_units_Z 28
_cell_length_a 9.306398
_cell_length_b 16.314940
_cell_length_c 14.592285
_cell_angle_alpha 90.000000
_cell_angle_beta 134.849041
_cell_angle_gamma 90.000000
_cell_volume 1570.784648
_symmetry_space_group_name_H-M "P 2/M"
_symmetry_group_IT_number 10
_symmetry_cell_setting 'monoclinic'
loop_
_space_group_symop_operation_xyz
x,y,z
-x,y,-z
-x,-y,-z
x,-y,z
loop_
_atom_site_type_symbol
_atom_site_label
_atom_site_fract_x
_atom_site_fract_y
_atom_site_fract_z
Si Si1 0.686391 0.781400 0.019746
Si Si2 0.500599 0.707982 0.245737
Si Si3 0.023916 0.331570 0.247691
Si Si4 0.839860 0.408642 0.861488
Si Si5 0.017361 0.095301 0.115136
Si Si6 0.860071 0.592100 0.351460
Si Si7 0.636342 0.200188 0.646088
O O1 0.606820 0.756869 0.884026
O O2 0.500000 0.805635 0.000000
O O3 0.809992 0.707407 0.121492
O O4 0.829471 0.860556 0.079346
O O5 0.373904 0.632814 0.226305
O O6 0.704200 0.665673 0.301649
O O7 0.515252 0.767685 0.341234
O O8 0.074517 0.405959 0.202367
O O9 0.209917 0.268063 0.325093
O O10 0.004449 0.373377 0.336928
O O11 0.808627 0.500000 0.882110
O O12 0.000000 0.362414 0.000000
O O13 0.231075 0.126930 0.251311
O O14 0.001020 0.000000 0.130001
O O15 0.000000 0.114352 0.000000
O O16 0.769764 0.500000 0.286646
O O17 0.000000 0.579166 0.500000
O O18 0.500000 0.168149 0.500000
#
# Coordination Sequence:
#
# PCOD8059713 Si02
#       7
#     4   4   4   4   4   4   4
#     4  11  20  35  57  84 108 146 174 221 277 332
#     4  11  20  35  54  79 109 141 188 231 270 330
#     4  10  20  34  53  77 108 140 192 227 273 328
#     4  10  19  30  48  74 106 139 177 231 288 323
#     4  10  21  38  62  89 115 142 177 223 274 331
#     4  11  23  37  51  72 108 152 193 235 280 323
#     4  10  21  36  60  85 111 148 185 224 272 328
#
# _framework density 17.825486000000001
#
# number of rings (size 3 to 8) (size 9 to 14) (size 15 to 20)
#    0.000    1.571    4.286    1.714    0.000    0.571 
#    0.000    0.714    0.000    6.857    0.000    1.000 
#    0.000    0.000    0.000    0.000    0.000    0.000 
#
# Total GULP energy -347016.349633 kJ/mol
# GULP energy per Si atom -12393.441058 kJ/mol
# Density = 1.778491 g / cm^3
# Si number density = 17.825486 Si / 1000 Ang^3
#
#
#
# Elastic Constant Matrix: (Units=GPa)
#
#
# Indices 1 2 3 4 5 6 
#
# 1 111.3674 29.2886 27.2417 0.0000 -10.5266 0.0000
# 2 29.2886 80.5246 29.1120 0.0000 -4.7877 0.0000
# 3 27.2417 29.1120 96.8620 0.0000 -15.0967 0.0000
# 4 0.0000 0.0000 0.0000 53.9337 0.0000 -14.9400
# 5 -10.5266 -4.7877 -15.0967 0.0000 30.0394 0.0000
# 6 0.0000 0.0000 0.0000 -14.9400 0.0000 23.8368
#
#
#
# Elastic Compliance Matrix: (Units=1/GPa)
#
#
# Indices 1 2 3 4 5 6 
#
# 1 0.010405 -0.003051 -0.001646 0.000000 0.002333 0.000000
# 2 -0.003051 0.014827 -0.003685 0.000000 -0.000558 0.000000
# 3 -0.001646 -0.003685 0.012708 0.000000 0.005223 0.000000
# 4 0.000000 0.000000 0.000000 0.022437 0.000000 0.014063
# 5 0.002333 -0.000558 0.005223 0.000000 0.036643 0.000000
# 6 0.000000 0.000000 0.000000 0.014063 0.000000 0.050766
#
#
# Mechanical properties :
#
#
# Convention : Reuss Voigt Hill
#
# Bulk Modulus (GPa) = 47.22145 51.11541 49.16843
# Shear Modulus (GPa) = 29.13605 35.10274 32.11940
#
# Velocity S-wave (km/s) = 4.04730 4.44243 4.24946
# Velocity P-wave (km/s) = 6.95625 7.41966 7.19168
#
# Compressibility (1/GPa) = 0.02117682
#
# Stress axis : x y z
#
# Youngs Moduli (GPa) = 96.11072 67.44279 78.68767
#
# Poissons Ratio (x) = 0.20575 0.12950
# Poissons Ratio (y) = 0.29321 0.28999
# Poissons Ratio (z) = 0.15818 0.24855
#
# Static dielectric constant tensor:
#      x y z
#    x 3.462940 0.000000 -0.064080 
#    y 0.000000 3.183530 0.000000 
#    z -0.064080 0.000000 3.296680 
# 
# 
# High freq. dielectric constant tensor:
#      x y z
#    x 1.699730 0.000000 -0.007140 
#    y 0.000000 1.675390 0.000000 
#    z -0.007140 0.000000 1.686650 
# 
# From -- ./inp_files/30075.got.cif
#   From: 2010.06.25/outbox.cif.g09.slc.cpg/sg10_16_cif.got.tgz:30075.got - 2010.06.27 22:07:45.
