data_PCOD8059374
_publ_section_title
;
Structure prediction by ZEFSAII (Michael W. Deem and Ramdas Pophale) SiO2 
 PCOD8059374
Probable space group: P 2/M
;
_chemical_formula_sum "Si O2"
_cell_formula_units_Z 32
_cell_length_a 20.684095
_cell_length_b 8.744018
_cell_length_c 13.767991
_cell_angle_alpha 90.000000
_cell_angle_beta 51.948953
_cell_angle_gamma 90.000000
_cell_volume 1960.865042
_symmetry_space_group_name_H-M "P 2/M"
_symmetry_group_IT_number 10
_symmetry_cell_setting 'monoclinic'
loop_
_space_group_symop_operation_xyz
x,y,z
-x,y,-z
-x,-y,-z
x,-y,z
loop_
_atom_site_type_symbol
_atom_site_label
_atom_site_fract_x
_atom_site_fract_y
_atom_site_fract_z
Si Si1 0.089409 0.828413 0.871200
Si Si2 0.072343 0.178034 0.506030
Si Si3 0.594601 0.324268 0.826706
Si Si4 0.974276 0.677892 0.251095
Si Si5 0.232060 0.678789 0.274066
Si Si6 0.559251 0.824943 0.060559
Si Si7 0.267509 0.824302 0.035841
Si Si8 0.148898 0.677323 0.998778
O O1 0.089350 0.723290 0.775237
O O2 0.115579 0.000000 0.818484
O O3 0.152864 0.763933 0.891979
O O4 0.000000 0.824462 0.000000
O O5 0.043862 0.218556 0.639888
O O6 0.151179 0.277688 0.406999
O O7 0.000000 0.222994 0.500000
O O8 0.094542 0.000000 0.478673
O O9 0.577835 0.500000 0.818672
O O10 0.691121 0.283656 0.724708
O O11 0.531958 0.224818 0.816129
O O12 0.576373 0.288298 0.955904
O O13 0.963401 0.500000 0.286272
O O14 0.066828 0.718052 0.134082
O O15 0.231407 0.500000 0.247449
O O16 0.237011 0.773489 0.170061
O O17 0.557162 0.000000 0.026699
O O18 0.633587 0.803414 0.068026
O O19 0.227055 0.724291 0.989527
O O20 0.241361 0.000000 0.046442
O O21 0.152411 0.500000 0.971384
#
# Coordination Sequence:
#
# PCOD8059374 Si02
#       8
#     4   4   4   4   4   4   4   4
#     4   9  17  30  48  67  87 112 143 180 221 264
#     4  11  23  35  47  64  87 117 153 189 223 259
#     4   9  16  26  41  59  80 108 143 180 216 257
#     4  10  20  33  48  65  87 115 149 187 223 261
#     4  10  20  32  45  62  85 116 152 187 223 261
#     4   9  16  25  39  59  83 112 143 175 214 258
#     4  10  19  29  42  63  91 120 149 181 218 262
#     4  10  19  30  46  67  90 117 147 180 221 265
#
# _framework density 16.319330000000001
#
# number of rings (size 3 to 8) (size 9 to 14) (size 15 to 20)
#    0.000    2.250    0.000    4.500    0.000    9.000 
#    0.000    0.000    0.000    0.000    0.000    0.000 
#    0.000    1.000    0.000   10.500    0.000    5.750 
#
# Total GULP energy -396660.247330 kJ/mol
# GULP energy per Si atom -12395.632729 kJ/mol
# Density = 1.628219 g / cm^3
# Si number density = 16.319330 Si / 1000 Ang^3
#
#
#
# Elastic Constant Matrix: (Units=GPa)
#
#
# Indices 1 2 3 4 5 6 
#
# 1 115.0012 30.9977 35.6331 0.0000 -1.8959 0.0000
# 2 30.9977 45.9765 15.4347 0.0000 -5.7160 0.0000
# 3 35.6331 15.4347 38.6601 0.0000 3.8132 0.0000
# 4 0.0000 0.0000 0.0000 21.1065 0.0000 1.5057
# 5 -1.8959 -5.7160 3.8132 0.0000 22.3663 0.0000
# 6 0.0000 0.0000 0.0000 1.5057 0.0000 29.5240
#
#
#
# Elastic Compliance Matrix: (Units=1/GPa)
#
#
# Indices 1 2 3 4 5 6 
#
# 1 0.013365 -0.005352 -0.010332 0.000000 0.001527 0.000000
# 2 -0.005352 0.028859 -0.007395 0.000000 0.008182 0.000000
# 3 -0.010332 -0.007395 0.039275 0.000000 -0.009462 0.000000
# 4 0.000000 0.000000 0.000000 0.047552 0.000000 -0.002425
# 5 0.001527 0.008182 -0.009462 0.000000 0.048544 0.000000
# 6 0.000000 0.000000 0.000000 -0.002425 0.000000 0.033994
#
#
# Mechanical properties :
#
#
# Convention : Reuss Voigt Hill
#
# Bulk Modulus (GPa) = 28.29711 40.41878 34.35794
# Shear Modulus (GPa) = 18.55091 22.43748 20.49420
#
# Velocity S-wave (km/s) = 3.37522 3.71199 3.54760
# Velocity P-wave (km/s) = 5.70673 6.57214 6.15466
#
# Compressibility (1/GPa) = 0.03533930
#
# Stress axis : x y z
#
# Youngs Moduli (GPa) = 74.82343 34.65142 25.46125
#
# Poissons Ratio (x) = 0.18547 0.26307
# Poissons Ratio (y) = 0.40048 0.18830
# Poissons Ratio (z) = 0.77308 0.25626
#
# Static dielectric constant tensor:
#      x y z
#    x 3.520890 0.000000 -0.153390 
#    y 0.000000 3.181730 0.000000 
#    z -0.153390 0.000000 2.709150 
# 
# 
# High freq. dielectric constant tensor:
#      x y z
#    x 1.636850 0.000000 -0.003080 
#    y 0.000000 1.647710 0.000000 
#    z -0.003080 0.000000 1.565990 
# 
# From -- ./inp_files/52699.got.cif
#   From: 2010.06.25/outbox.cif.g09.slc.cpg/sg10_27_cif.got.tgz:52699.got - 2010.06.27 22:07:45.
