data_PCOD8059371
_publ_section_title
;
Structure prediction by ZEFSAII (Michael W. Deem and Ramdas Pophale) SiO2 
 PCOD8059371
Probable space group: P 2/M
;
_chemical_formula_sum "Si O2"
_cell_formula_units_Z 32
_cell_length_a 31.171568
_cell_length_b 8.981635
_cell_length_c 20.716030
_cell_angle_alpha 90.000000
_cell_angle_beta 20.453353
_cell_angle_gamma 90.000000
_cell_volume 2026.744553
_symmetry_space_group_name_H-M "P 2/M"
_symmetry_group_IT_number 10
_symmetry_cell_setting 'monoclinic'
loop_
_space_group_symop_operation_xyz
x,y,z
-x,y,-z
-x,-y,-z
x,-y,z
loop_
_atom_site_type_symbol
_atom_site_label
_atom_site_fract_x
_atom_site_fract_y
_atom_site_fract_z
Si Si1 0.013734 0.323630 0.634859
Si Si2 0.922666 0.172777 0.026593
Si Si3 0.274325 0.672272 0.454906
Si Si4 0.837494 0.671946 0.257625
Si Si5 0.033926 0.174038 0.738878
Si Si6 0.230297 0.172320 0.254813
Si Si7 0.499661 0.172319 0.926453
Si Si8 0.869856 0.336120 0.717879
O O1 0.027059 0.500000 0.622356
O O2 0.983392 0.251688 0.746167
O O3 0.142036 0.262587 0.426729
O O4 0.898993 0.281281 0.749729
O O5 0.050739 0.233297 0.872298
O O6 0.927442 0.201268 0.942827
O O7 0.908434 0.000000 0.062319
O O8 0.812833 0.260903 0.219937
O O9 0.259134 0.500000 0.457780
O O10 0.272416 0.693133 0.535914
O O11 0.164775 0.759120 0.574457
O O12 0.404281 0.730864 0.248480
O O13 0.873940 0.500000 0.199891
O O14 0.055120 0.000000 0.696680
O O15 0.216923 0.223030 0.198860
O O16 0.195643 0.000000 0.309122
O O17 0.367892 0.204885 0.082115
O O18 0.536821 0.000000 0.868367
O O19 0.500000 0.224031 0.000000
O O20 0.807838 0.500000 0.805800
O O21 0.000000 0.347170 0.500000
#
# Coordination Sequence:
#
# PCOD8059371 Si02
#       8
#     4   4   4   4   4   4   4   4
#     4  10  19  30  45  64  86 113 143 174 213 258
#     4   9  16  25  39  59  81 109 140 167 205 252
#     4  10  20  31  44  62  83 113 150 181 212 250
#     4   9  16  26  40  58  80 106 139 176 208 242
#     4  10  19  29  42  62  89 116 142 175 212 252
#     4  10  19  30  46  65  84 111 146 181 216 251
#     4  10  21  34  45  60  85 115 147 182 215 246
#     4   8  16  30  45  62  84 109 138 174 214 255
#
# _framework density 15.788868000000001
#
# number of rings (size 3 to 8) (size 9 to 14) (size 15 to 20)
#    0.000    2.500    0.000    4.500    0.000    8.000 
#    0.000    0.000    0.000    0.000    0.000    0.000 
#    0.000    1.000    0.000   11.000    0.000    8.000 
#
# Total GULP energy -396552.120314 kJ/mol
# GULP energy per Si atom -12392.253760 kJ/mol
# Density = 1.575293 g / cm^3
# Si number density = 15.788868 Si / 1000 Ang^3
#
#
#
# Elastic Constant Matrix: (Units=GPa)
#
#
# Indices 1 2 3 4 5 6 
#
# 1 125.9000 58.9324 52.1876 0.0000 15.6645 0.0000
# 2 58.9324 69.7899 45.6033 0.0000 11.2824 0.0000
# 3 52.1876 45.6033 55.0401 0.0000 15.1930 0.0000
# 4 0.0000 0.0000 0.0000 26.9004 0.0000 5.0815
# 5 15.6645 11.2824 15.1930 0.0000 24.6350 0.0000
# 6 0.0000 0.0000 0.0000 5.0815 0.0000 28.6787
#
#
#
# Elastic Compliance Matrix: (Units=1/GPa)
#
#
# Indices 1 2 3 4 5 6 
#
# 1 0.014589 -0.007208 -0.007485 0.000000 -0.001359 0.000000
# 2 -0.007208 0.034888 -0.022809 0.000000 0.002672 0.000000
# 3 -0.007485 -0.022809 0.048167 0.000000 -0.014500 0.000000
# 4 0.000000 0.000000 0.000000 0.038462 0.000000 -0.006815
# 5 -0.001359 0.002672 -0.014500 0.000000 0.049175 0.000000
# 6 0.000000 0.000000 0.000000 -0.006815 0.000000 0.036077
#
#
# Mechanical properties :
#
#
# Convention : Reuss Voigt Hill
#
# Bulk Modulus (GPa) = 44.17335 62.68629 53.42982
# Shear Modulus (GPa) = 16.45234 22.30992 19.38113
#
# Velocity S-wave (km/s) = 3.23154 3.76309 3.50740
# Velocity P-wave (km/s) = 6.47781 7.65964 7.09338
#
# Compressibility (1/GPa) = 0.02263809
#
# Stress axis : x y z
#
# Youngs Moduli (GPa) = 68.54598 28.66313 20.76123
#
# Poissons Ratio (x) = 0.20662 0.15540
# Poissons Ratio (y) = 0.49411 0.47355
# Poissons Ratio (z) = 0.51307 0.65378
#
# Static dielectric constant tensor:
#      x y z
#    x 3.634710 0.000000 0.477290 
#    y 0.000000 3.154480 0.000000 
#    z 0.477290 0.000000 2.873760 
# 
# 
# High freq. dielectric constant tensor:
#      x y z
#    x 1.606200 0.000000 0.027750 
#    y 0.000000 1.624230 0.000000 
#    z 0.027750 0.000000 1.557880 
# 
# From -- ./inp_files/87195.got.cif
#   From: 2010.06.25/outbox.cif.g09.slc.cpg/sg10_44_cif.got.tgz:87195.got - 2010.06.27 22:07:45.
