data_PCOD8059552
_publ_section_title
;
Structure prediction by ZEFSAII (Michael W. Deem and Ramdas Pophale) SiO2 
 PCOD8059552
Probable space group: P 2/M
;
_chemical_formula_sum "Si O2"
_cell_formula_units_Z 20
_cell_length_a 9.646224
_cell_length_b 7.901687
_cell_length_c 28.113579
_cell_angle_alpha 90.000000
_cell_angle_beta 31.308675
_cell_angle_gamma 90.000000
_cell_volume 1113.532664
_symmetry_space_group_name_H-M "P 2/M"
_symmetry_group_IT_number 10
_symmetry_cell_setting 'monoclinic'
loop_
_space_group_symop_operation_xyz
x,y,z
-x,y,-z
-x,-y,-z
x,-y,z
loop_
_atom_site_type_symbol
_atom_site_label
_atom_site_fract_x
_atom_site_fract_y
_atom_site_fract_z
Si Si1 0.092896 0.000000 0.396259
Si Si2 0.797012 0.806376 0.915671
Si Si3 0.919646 0.697217 0.075410
Si Si4 0.576033 0.000000 0.603627
Si Si5 0.385237 0.687538 0.279683
Si Si6 0.289410 0.684797 0.718737
O O1 0.157456 0.831662 0.346446
O O2 0.266884 0.000000 0.392916
O O3 0.779900 0.000000 0.499864
O O4 0.906798 0.797100 0.937023
O O5 0.982273 0.707860 0.823879
O O6 0.794019 0.000000 0.900106
O O7 0.500000 0.728387 0.000000
O O8 0.985819 0.500000 0.062195
O O9 0.603734 0.730432 0.175200
O O10 0.000000 0.764864 0.000000
O O11 0.391158 0.167380 0.653762
O O12 0.259265 0.500000 0.307910
O O13 0.533616 0.689224 0.286209
O O14 0.318155 0.500000 0.685467
#
# Coordination Sequence:
#
# PCOD8059552 Si02
#       6
#     2   4   4   2   4   4
#     4   9  16  24  39  56  81 115 145 181 226 267
#     4  10  19  30  45  67  95 124 156 191 224 270
#     4   9  18  31  46  66  93 124 157 191 225 269
#     4   9  16  26  37  58  83 109 149 187 218 271
#     4   8  15  26  39  58  84 113 146 181 220 268
#     4   9  16  27  42  58  83 117 147 182 227 268
#
# _framework density 17.960856
#
# number of rings (size 3 to 8) (size 9 to 14) (size 15 to 20)
#    0.000    3.000    1.000    1.800    4.200    2.800 
#    0.000    4.000    0.000    0.000    0.000    0.000 
#    0.000    3.200    0.000    9.000    0.000    7.400 
#
# Total GULP energy -247896.749323 kJ/mol
# GULP energy per Si atom -12394.837466 kJ/mol
# Density = 1.791998 g / cm^3
# Si number density = 17.960856 Si / 1000 Ang^3
#
#
#
# Elastic Constant Matrix: (Units=GPa)
#
#
# Indices 1 2 3 4 5 6 
#
# 1 15.8163 11.3049 25.5618 0.0000 0.4403 0.0000
# 2 11.3049 138.9382 84.0264 0.0000 -0.1155 0.0000
# 3 25.5618 84.0264 151.0249 0.0000 1.9851 0.0000
# 4 0.0000 0.0000 0.0000 24.7465 0.0000 2.4578
# 5 0.4403 -0.1155 1.9851 0.0000 17.8105 0.0000
# 6 0.0000 0.0000 0.0000 2.4578 0.0000 8.0017
#
#
#
# Elastic Compliance Matrix: (Units=1/GPa)
#
#
# Indices 1 2 3 4 5 6 
#
# 1 0.087740 0.002772 -0.016389 0.000000 -0.000325 0.000000
# 2 0.002772 0.010945 -0.006568 0.000000 0.000735 0.000000
# 3 -0.016389 -0.006568 0.013064 0.000000 -0.001094 0.000000
# 4 0.000000 0.000000 0.000000 0.041681 0.000000 -0.012803
# 5 -0.000325 0.000735 -0.001094 0.000000 0.056281 0.000000
# 6 0.000000 0.000000 0.000000 -0.012803 0.000000 0.128906
#
#
# Mechanical properties :
#
#
# Convention : Reuss Voigt Hill
#
# Bulk Modulus (GPa) = 14.00959 60.84061 37.42510
# Shear Modulus (GPa) = 12.41370 22.43749 17.42559
#
# Velocity S-wave (km/s) = 2.63183 3.53830 3.11818
# Velocity P-wave (km/s) = 4.12945 7.11620 5.81776
#
# Compressibility (1/GPa) = 0.07137965
#
# Stress axis : x y z
#
# Youngs Moduli (GPa) = 11.39726 91.36738 76.54587
#
# Poissons Ratio (x) = -0.25327 1.25448
# Poissons Ratio (y) = -0.03159 0.50277
# Poissons Ratio (z) = 0.18678 0.60012
#
# Static dielectric constant tensor:
#      x y z
#    x 2.640080 0.000000 0.023880 
#    y 0.000000 3.628110 0.000000 
#    z 0.023880 0.000000 3.506660 
# 
# 
# High freq. dielectric constant tensor:
#      x y z
#    x 1.608540 0.000000 0.001780 
#    y 0.000000 1.712130 0.000000 
#    z 0.001780 0.000000 1.698030 
# 
# From -- ./inp_files/26950.got.cif
#   From: 2010.06.25/outbox.cif.g09.slc.cpg/sg10_14_cif.got.tgz:26950.got - 2010.06.27 22:07:45.
