data_PCOD8059176
_publ_section_title
;
Structure prediction by ZEFSAII (Michael W. Deem and Ramdas Pophale) SiO2 
 PCOD8059176
Probable space group: P 2/M
;
_chemical_formula_sum "Si O2"
_cell_formula_units_Z 32
_cell_length_a 20.726565
_cell_length_b 9.033731
_cell_length_c 25.576772
_cell_angle_alpha 90.000000
_cell_angle_beta 158.048811
_cell_angle_gamma 90.000000
_cell_volume 1790.188556
_symmetry_space_group_name_H-M "P 2/M"
_symmetry_group_IT_number 10
_symmetry_cell_setting 'monoclinic'
loop_
_space_group_symop_operation_xyz
x,y,z
-x,y,-z
-x,-y,-z
x,-y,z
loop_
_atom_site_type_symbol
_atom_site_label
_atom_site_fract_x
_atom_site_fract_y
_atom_site_fract_z
Si Si1 0.815129 0.830125 0.627535
Si Si2 0.411710 0.171751 0.085757
Si Si3 0.505998 0.675185 0.345367
Si Si4 0.340908 0.170720 0.637799
Si Si5 0.365785 0.326013 0.943043
Si Si6 0.983564 0.167798 0.327140
Si Si7 0.154473 0.174590 0.077762
Si Si8 0.096100 0.175280 0.917192
O O1 0.648669 0.728122 0.494391
O O2 0.950417 0.811603 0.682156
O O3 0.914107 0.777392 0.754358
O O4 0.753582 0.000000 0.585351
O O5 0.589495 0.195830 0.251440
O O6 0.379431 0.000000 0.048705
O O7 0.427451 0.257052 0.043669
O O8 0.255448 0.238049 0.002976
O O9 0.497402 0.500000 0.339262
O O10 0.550944 0.730746 0.321114
O O11 0.323250 0.741884 0.225453
O O12 0.138009 0.211423 0.483163
O O13 0.366493 0.000000 0.639146
O O14 0.362695 0.500000 0.947615
O O15 0.176660 0.274171 0.783071
O O16 0.500000 0.274566 0.000000
O O17 0.922352 0.000000 0.290600
O O18 0.191312 0.000000 0.104962
O O19 0.105083 0.235094 0.982971
O O20 0.000000 0.216697 0.000000
O O21 0.112234 0.000000 0.929592
#
# Coordination Sequence:
#
# PCOD8059176 Si02
#       8
#     4   4   4   4   4   4   4   4
#     4   9  17  32  54  78 105 135 174 224 268 308
#     4  10  18  34  59  82 104 133 177 229 267 306
#     4  11  21  32  50  79 112 144 177 214 264 320
#     4   9  18  34  57  82 108 134 171 224 273 314
#     4  11  24  38  51  74 112 150 179 213 263 324
#     4   9  17  32  55  81 103 135 177 221 270 313
#     4  10  20  36  58  81 108 144 181 221 271 321
#     4   9  16  31  56  83 105 131 176 227 268 307
#
# _framework density 17.875212000000001
#
# number of rings (size 3 to 8) (size 9 to 14) (size 15 to 20)
#    0.000    2.250    2.500    2.250    0.000    3.750 
#    0.000    1.875    0.000    7.500    0.000    0.000 
#    0.000    0.000    0.000    0.000    0.000    0.000 
#
# Total GULP energy -396806.411983 kJ/mol
# GULP energy per Si atom -12400.200374 kJ/mol
# Density = 1.783453 g / cm^3
# Si number density = 17.875212 Si / 1000 Ang^3
#
#
#
# Elastic Constant Matrix: (Units=GPa)
#
#
# Indices 1 2 3 4 5 6 
#
# 1 105.4719 38.8620 66.4780 0.0000 -3.1489 0.0000
# 2 38.8620 67.0284 49.1407 0.0000 6.7914 0.0000
# 3 66.4780 49.1407 142.3605 0.0000 -3.2142 0.0000
# 4 0.0000 0.0000 0.0000 11.0819 0.0000 4.4310
# 5 -3.1489 6.7914 -3.2142 0.0000 23.1451 0.0000
# 6 0.0000 0.0000 0.0000 4.4310 0.0000 15.6997
#
#
#
# Elastic Compliance Matrix: (Units=1/GPa)
#
#
# Indices 1 2 3 4 5 6 
#
# 1 0.014582 -0.005074 -0.004995 0.000000 0.002779 0.000000
# 2 -0.005074 0.022880 -0.005714 0.000000 -0.008198 0.000000
# 3 -0.004995 -0.005714 0.011388 0.000000 0.002578 0.000000
# 4 0.000000 0.000000 0.000000 0.101716 0.000000 -0.028708
# 5 0.002779 -0.008198 0.002578 0.000000 0.046347 0.000000
# 6 0.000000 0.000000 0.000000 -0.028708 0.000000 0.071798
#
#
# Mechanical properties :
#
#
# Convention : Reuss Voigt Hill
#
# Bulk Modulus (GPa) = 57.85577 69.31356 63.58467
# Shear Modulus (GPa) = 16.33785 20.67735 18.50760
#
# Velocity S-wave (km/s) = 3.02651 3.40481 3.22122
# Velocity P-wave (km/s) = 6.68205 7.37004 7.03446
#
# Compressibility (1/GPa) = 0.01728436
#
# Stress axis : x y z
#
# Youngs Moduli (GPa) = 68.57707 43.70582 87.81542
#
# Poissons Ratio (x) = 0.22176 0.43866
# Poissons Ratio (y) = 0.34795 0.50175
# Poissons Ratio (z) = 0.34256 0.24972
#
# Static dielectric constant tensor:
#      x y z
#    x 3.144140 0.000000 -0.156260 
#    y 0.000000 3.059510 0.000000 
#    z -0.156260 0.000000 3.539910 
# 
# 
# High freq. dielectric constant tensor:
#      x y z
#    x 1.664770 0.000000 -0.013180 
#    y 0.000000 1.668870 0.000000 
#    z -0.013180 0.000000 1.709280 
# 
# From -- ./inp_files/93720.got.cif
#   From: 2010.06.25/outbox.cif.g09.slc.cpg/sg10_47_cif.got.tgz:93720.got - 2010.06.27 22:07:45.
