data_PCOD8059492
_publ_section_title
;
Structure prediction by ZEFSAII (Michael W. Deem and Ramdas Pophale) SiO2 
 PCOD8059492
Probable space group: P 2/M
;
_chemical_formula_sum "Si O2"
_cell_formula_units_Z 32
_cell_length_a 26.379732
_cell_length_b 16.642185
_cell_length_c 26.667946
_cell_angle_alpha 90.000000
_cell_angle_beta 10.907438
_cell_angle_gamma 90.000000
_cell_volume 2215.358544
_symmetry_space_group_name_H-M "P 2/M"
_symmetry_group_IT_number 10
_symmetry_cell_setting 'monoclinic'
loop_
_space_group_symop_operation_xyz
x,y,z
-x,y,-z
-x,-y,-z
x,-y,z
loop_
_atom_site_type_symbol
_atom_site_label
_atom_site_fract_x
_atom_site_fract_y
_atom_site_fract_z
Si Si1 0.723863 0.846325 0.180143
Si Si2 0.484337 0.683271 0.455595
Si Si3 0.021828 0.410482 0.038275
Si Si4 0.918564 0.904081 0.463103
Si Si5 0.707187 0.909480 0.340572
Si Si6 0.732178 0.095292 0.063409
Si Si7 0.468192 0.904191 0.974793
Si Si8 0.177761 0.905187 0.554002
O O1 0.573496 0.764806 0.341949
O O2 0.486375 0.910963 0.422525
O O3 0.786148 0.853996 0.061159
O O4 0.012667 0.859315 0.928086
O O5 0.500000 0.693580 0.500000
O O6 0.674362 0.615668 0.246594
O O7 0.181555 0.653402 0.738078
O O8 0.969101 0.500000 0.110785
O O9 0.000000 0.409740 0.000000
O O10 0.704225 0.871070 0.710804
O O11 0.860393 0.867948 0.464434
O O12 0.912446 0.000000 0.467262
O O13 0.199911 0.871674 0.209837
O O14 0.500000 0.873029 0.500000
O O15 0.795668 0.000000 0.241599
O O16 0.454805 0.122162 0.308748
O O17 0.752413 0.000000 0.055074
O O18 0.948690 0.125535 0.813366
O O19 0.468888 0.000000 0.976276
O O20 0.500000 0.869402 0.000000
O O21 0.163886 0.000000 0.562118
#
# Coordination Sequence:
#
# PCOD8059492 Si02
#       8
#     4   4   4   4   4   4   4   4
#     4  12  22  34  48  63  83 102 125 161 200 233
#     4  10  20  32  47  68  88 106 125 148 183 227
#     4   9  17  31  50  69  88 107 125 143 167 211
#     4   9  15  23  34  46  63  85 109 142 179 217
#     4  11  23  36  48  60  76 102 133 160 190 233
#     4  10  19  30  43  56  71  94 126 162 196 228
#     4   9  15  21  30  46  66  86 106 130 170 226
#     4   9  17  28  40  53  66  86 121 159 192 224
#
# _framework density 14.444615000000001
#
# number of rings (size 3 to 8) (size 9 to 14) (size 15 to 20)
#    0.000    2.125    0.000    4.875    0.000   10.000 
#    0.000    0.000    0.000    0.000    0.000    0.000 
#    0.000    0.000    0.000    0.000    0.000    0.000 
#
# Total GULP energy -396491.452390 kJ/mol
# GULP energy per Si atom -12390.357887 kJ/mol
# Density = 1.441174 g / cm^3
# Si number density = 14.444615 Si / 1000 Ang^3
#
#
#
# Elastic Constant Matrix: (Units=GPa)
#
#
# Indices 1 2 3 4 5 6 
#
# 1 76.5027 20.5864 25.7091 0.0000 0.3131 0.0000
# 2 20.5864 42.8854 21.8041 0.0000 1.0170 0.0000
# 3 25.7091 21.8041 100.7273 0.0000 -2.3056 0.0000
# 4 0.0000 0.0000 0.0000 38.7399 0.0000 8.1777
# 5 0.3131 1.0170 -2.3056 0.0000 21.9780 0.0000
# 6 0.0000 0.0000 0.0000 8.1777 0.0000 5.1824
#
#
#
# Elastic Compliance Matrix: (Units=1/GPa)
#
#
# Indices 1 2 3 4 5 6 
#
# 1 0.015619 -0.006139 -0.002663 0.000000 -0.000218 0.000000
# 2 -0.006139 0.028687 -0.004682 0.000000 -0.001731 0.000000
# 3 -0.002663 -0.004682 0.011655 0.000000 0.001477 0.000000
# 4 0.000000 0.000000 0.000000 0.038706 0.000000 -0.061079
# 5 -0.000218 -0.001731 0.001477 0.000000 0.045738 0.000000
# 6 0.000000 0.000000 0.000000 -0.061079 0.000000 0.289344
#
#
# Mechanical properties :
#
#
# Convention : Reuss Voigt Hill
#
# Bulk Modulus (GPa) = 34.49152 39.59050 37.04101
# Shear Modulus (GPa) = 10.72084 23.31444 17.01764
#
# Velocity S-wave (km/s) = 2.72730 4.02189 3.43611
# Velocity P-wave (km/s) = 5.81789 7.00253 6.43752
#
# Compressibility (1/GPa) = 0.02899263
#
# Stress axis : x y z
#
# Youngs Moduli (GPa) = 64.02452 34.85959 85.80141
#
# Poissons Ratio (x) = 0.21399 0.22846
# Poissons Ratio (y) = 0.39303 0.40176
# Poissons Ratio (z) = 0.17048 0.16323
#
# Static dielectric constant tensor:
#      x y z
#    x 2.780340 0.000000 0.040890 
#    y 0.000000 2.381960 0.000000 
#    z 0.040890 0.000000 3.247810 
# 
# 
# High freq. dielectric constant tensor:
#      x y z
#    x 1.529420 0.000000 0.003040 
#    y 0.000000 1.481170 0.000000 
#    z 0.003040 0.000000 1.584620 
# 
# From -- ./inp_files/94160.got.cif
#   From: 2010.06.25/outbox.cif.g09.slc.cpg/sg10_48_cif.got.tgz:94160.got - 2010.06.27 22:07:45.
