data_PCOD8059368
_publ_section_title
;
Structure prediction by ZEFSAII (Michael W. Deem and Ramdas Pophale) SiO2 
 PCOD8059368
Probable space group: P 2/M
;
_chemical_formula_sum "Si O2"
_cell_formula_units_Z 24
_cell_length_a 14.665358
_cell_length_b 14.269973
_cell_length_c 14.665333
_cell_angle_alpha 90.000000
_cell_angle_beta 149.646755
_cell_angle_gamma 90.000000
_cell_volume 1550.895817
_symmetry_space_group_name_H-M "P 2/M"
_symmetry_group_IT_number 10
_symmetry_cell_setting 'monoclinic'
loop_
_space_group_symop_operation_xyz
x,y,z
-x,y,-z
-x,-y,-z
x,-y,z
loop_
_atom_site_type_symbol
_atom_site_label
_atom_site_fract_x
_atom_site_fract_y
_atom_site_fract_z
Si Si1 0.504984 0.888791 0.606704
Si Si2 0.893296 0.111209 0.995016
Si Si3 0.130657 0.889287 0.369344
Si Si4 0.056126 0.736738 0.443873
Si Si5 0.749684 0.395705 0.137580
Si Si6 0.637580 0.395704 0.249684
O O1 0.500000 0.847128 0.500000
O O2 0.329786 0.855975 0.511073
O O3 0.504829 0.000000 0.599886
O O4 0.686076 0.853085 0.813925
O O5 0.988928 0.144025 0.170215
O O6 0.900113 0.000000 0.995170
O O7 0.000000 0.152872 0.000000
O O8 0.080182 0.838354 0.419817
O O9 0.121070 0.000000 0.378932
O O10 0.242568 0.679587 0.593410
O O11 0.000000 0.752188 0.500000
O O12 0.906589 0.679587 0.257432
O O13 0.814000 0.500000 0.163345
O O14 0.702226 0.398679 0.202226
O O15 0.572879 0.365931 0.927121
O O16 0.663345 0.500000 0.314000
#
# Coordination Sequence:
#
# PCOD8059368 Si02
#       6
#     4   4   4   4   4   4
#     4   9  15  26  45  64  81 103 136 185 239 274
#     4   9  15  26  45  64  81 103 136 185 239 274
#     4  10  20  30  41  62  90 123 158 183 211 254
#     4  10  19  29  42  61  91 128 157 180 205 247
#     4   8  14  26  45  66  85 107 140 186 235 269
#     4   8  14  26  45  66  85 107 140 186 235 269
#
# _framework density 15.474926999999999
#
# number of rings (size 3 to 8) (size 9 to 14) (size 15 to 20)
#    0.000    3.000    1.667    1.500    0.000    3.667 
#    0.000    0.000    0.000    0.000    0.000    9.333 
#    0.000    5.333    0.000    0.000    0.000    0.000 
#
# Total GULP energy -297432.792663 kJ/mol
# GULP energy per Si atom -12393.033028 kJ/mol
# Density = 1.543971 g / cm^3
# Si number density = 15.474927 Si / 1000 Ang^3
#
#
#
# Elastic Constant Matrix: (Units=GPa)
#
#
# Indices 1 2 3 4 5 6 
#
# 1 57.8600 36.4395 44.7073 0.0000 5.2990 0.0000
# 2 36.4395 59.4753 42.7629 0.0000 1.8253 0.0000
# 3 44.7073 42.7629 131.7076 0.0000 16.0198 0.0000
# 4 0.0000 0.0000 0.0000 8.3600 0.0000 1.1358
# 5 5.2990 1.8253 16.0198 0.0000 18.8485 0.0000
# 6 0.0000 0.0000 0.0000 1.1358 0.0000 4.4242
#
#
#
# Elastic Compliance Matrix: (Units=1/GPa)
#
#
# Indices 1 2 3 4 5 6 
#
# 1 0.031241 -0.015230 -0.005321 0.000000 -0.002786 0.000000
# 2 -0.015230 0.029688 -0.005176 0.000000 0.005805 0.000000
# 3 -0.005321 -0.005176 0.012086 0.000000 -0.008275 0.000000
# 4 0.000000 0.000000 0.000000 0.123940 0.000000 -0.031819
# 5 -0.002786 0.005805 -0.008275 0.000000 0.060308 0.000000
# 6 0.000000 0.000000 0.000000 -0.031819 0.000000 0.234196
#
#
# Mechanical properties :
#
#
# Convention : Reuss Voigt Hill
#
# Bulk Modulus (GPa) = 46.37762 55.20691 50.79227
# Shear Modulus (GPa) = 9.08929 14.66876 11.87903
#
# Velocity S-wave (km/s) = 2.42617 3.08215 2.77362
# Velocity P-wave (km/s) = 6.15492 6.95835 6.56893
#
# Compressibility (1/GPa) = 0.02156212
#
# Stress axis : x y z
#
# Youngs Moduli (GPa) = 32.00919 33.68403 82.74292
#
# Poissons Ratio (x) = 0.51299 0.44027
# Poissons Ratio (y) = 0.48749 0.42824
# Poissons Ratio (z) = 0.17032 0.17433
#
# Static dielectric constant tensor:
#      x y z
#    x 2.635350 0.000000 0.220260 
#    y 0.000000 2.644120 0.000000 
#    z 0.220260 0.000000 3.398320 
# 
# 
# High freq. dielectric constant tensor:
#      x y z
#    x 1.555440 0.000000 0.016810 
#    y 0.000000 1.552170 0.000000 
#    z 0.016810 0.000000 1.613680 
# 
# From -- ./inp_files/51528.got.cif
#   From: 2010.06.25/outbox.cif.g09.slc.cpg/sg10_26_cif.got.tgz:51528.got - 2010.06.27 22:07:45.
