data_PCOD8059150
_publ_section_title
;
Structure prediction by ZEFSAII (Michael W. Deem and Ramdas Pophale) SiO2 
 PCOD8059150
Probable space group: P 2/M
;
_chemical_formula_sum "Si O2"
_cell_formula_units_Z 32
_cell_length_a 8.507721
_cell_length_b 14.979096
_cell_length_c 14.227232
_cell_angle_alpha 90.000000
_cell_angle_beta 59.644228
_cell_angle_gamma 90.000000
_cell_volume 1564.522291
_symmetry_space_group_name_H-M "P 2/M"
_symmetry_group_IT_number 10
_symmetry_cell_setting 'monoclinic'
loop_
_space_group_symop_operation_xyz
x,y,z
-x,y,-z
-x,-y,-z
x,-y,z
loop_
_atom_site_type_symbol
_atom_site_label
_atom_site_fract_x
_atom_site_fract_y
_atom_site_fract_z
Si Si1 0.023942 0.399682 0.154554
Si Si2 0.663036 0.724623 0.020035
Si Si3 0.013568 0.681299 0.342562
Si Si4 0.320316 0.900856 0.498866
Si Si5 0.901545 0.155225 0.267581
Si Si6 0.137331 0.098608 0.038860
Si Si7 0.333471 0.706808 0.765262
Si Si8 0.283988 0.282697 0.425821
O O1 0.054265 0.500000 0.108274
O O2 0.050232 0.400660 0.260475
O O3 0.816711 0.370120 0.197830
O O4 0.160661 0.335113 0.056866
O O5 0.703531 0.829754 0.995959
O O6 0.500000 0.696461 0.000000
O O7 0.602582 0.711802 0.145998
O O8 0.028472 0.765966 0.269088
O O9 0.810642 0.678298 0.450945
O O10 0.168368 0.684344 0.372955
O O11 0.500000 0.872477 0.500000
O O12 0.166455 0.903352 0.624979
O O13 0.279234 0.826186 0.432290
O O14 0.334057 0.000000 0.448506
O O15 0.741923 0.198617 0.250894
O O16 0.023198 0.089927 0.168961
O O17 0.216874 0.000000 0.990811
O O18 0.000000 0.133196 0.000000
O O19 0.510936 0.681688 0.648677
#
# Coordination Sequence:
#
# PCOD8059150 Si02
#       8
#     4   4   4   4   4   4   4   4
#     4  11  24  44  69  93 118 154 203 259 316 377
#     4  12  24  41  64  91 128 164 201 253 311 373
#     4   9  20  38  64  87 123 159 198 244 312 375
#     4  10  19  31  52  87 124 161 213 259 292 347
#     4  10  18  34  56  81 117 161 204 255 302 347
#     4  11  21  37  59  85 121 167 212 253 300 354
#     4  11  21  37  64  88 122 160 205 254 302 370
#     4  10  20  38  60  90 122 171 198 247 313 363
#
# _framework density 20.453527000000001
#
# number of rings (size 3 to 8) (size 9 to 14) (size 15 to 20)
#    0.000    1.500    5.000    1.500    0.000    1.500 
#    0.000   10.625    0.000    0.000    0.000    0.000 
#    0.000    0.000    0.000    0.000    0.000    0.000 
#
# Total GULP energy -396653.949142 kJ/mol
# GULP energy per Si atom -12395.435911 kJ/mol
# Density = 2.040697 g / cm^3
# Si number density = 20.453527 Si / 1000 Ang^3
#
#
#
# Elastic Constant Matrix: (Units=GPa)
#
#
# Indices 1 2 3 4 5 6 
#
# 1 61.0315 18.2429 11.9456 0.0000 -1.0173 0.0000
# 2 18.2429 83.9908 18.8312 0.0000 -6.7884 0.0000
# 3 11.9456 18.8312 79.0570 0.0000 -6.2426 0.0000
# 4 0.0000 0.0000 0.0000 15.3949 0.0000 4.2188
# 5 -1.0173 -6.7884 -6.2426 0.0000 34.7412 0.0000
# 6 0.0000 0.0000 0.0000 4.2188 0.0000 15.5511
#
#
#
# Elastic Compliance Matrix: (Units=1/GPa)
#
#
# Indices 1 2 3 4 5 6 
#
# 1 0.017788 -0.003478 -0.001899 0.000000 -0.000500 0.000000
# 2 -0.003478 0.013389 -0.002501 0.000000 0.002065 0.000000
# 3 -0.001899 -0.002501 0.013683 0.000000 0.001914 0.000000
# 4 0.000000 0.000000 0.000000 0.070174 0.000000 -0.019037
# 5 -0.000500 0.002065 0.001914 0.000000 0.029517 0.000000
# 6 0.000000 0.000000 0.000000 -0.019037 0.000000 0.069469
#
#
# Mechanical properties :
#
#
# Convention : Reuss Voigt Hill
#
# Bulk Modulus (GPa) = 34.35878 35.79095 35.07486
# Shear Modulus (GPa) = 20.87892 24.80808 22.84350
#
# Velocity S-wave (km/s) = 3.19846 3.48645 3.34555
# Velocity P-wave (km/s) = 5.52043 5.80894 5.66652
#
# Compressibility (1/GPa) = 0.02910465
#
# Stress axis : x y z
#
# Youngs Moduli (GPa) = 56.21776 74.68768 73.08440
#
# Poissons Ratio (x) = 0.25978 0.13877
# Poissons Ratio (y) = 0.19554 0.18276
# Poissons Ratio (z) = 0.10674 0.18677
#
# Static dielectric constant tensor:
#      x y z
#    x 3.541480 0.000000 0.074790 
#    y 0.000000 3.440170 0.000000 
#    z 0.074790 0.000000 4.022820 
# 
# 
# High freq. dielectric constant tensor:
#      x y z
#    x 1.783540 0.000000 0.004110 
#    y 0.000000 1.771600 0.000000 
#    z 0.004110 0.000000 1.814380 
# 
# From -- ./inp_files/61834.got.cif
#   From: 2010.06.25/outbox.cif.g09.slc.cpg/sg10_31_cif.got.tgz:61834.got - 2010.06.27 22:07:45.
