data_PCOD8059102
_publ_section_title
;
Structure prediction by ZEFSAII (Michael W. Deem and Ramdas Pophale) SiO2 
 PCOD8059102
Probable space group: P 2/M
;
_chemical_formula_sum "Si O2"
_cell_formula_units_Z 28
_cell_length_a 8.741401
_cell_length_b 21.711293
_cell_length_c 14.879165
_cell_angle_alpha 90.000000
_cell_angle_beta 150.015184
_cell_angle_gamma 90.000000
_cell_volume 1411.288779
_symmetry_space_group_name_H-M "P 2/M"
_symmetry_group_IT_number 10
_symmetry_cell_setting 'monoclinic'
loop_
_space_group_symop_operation_xyz
x,y,z
-x,y,-z
-x,-y,-z
x,-y,z
loop_
_atom_site_type_symbol
_atom_site_label
_atom_site_fract_x
_atom_site_fract_y
_atom_site_fract_z
Si Si1 0.855858 0.000000 0.661013
Si Si2 0.642131 0.126887 0.838073
Si Si3 0.270041 0.873113 0.465984
Si Si4 0.228677 0.000000 0.033833
Si Si5 0.313340 0.650400 0.813340
Si Si6 0.788347 0.430506 0.972056
Si Si7 0.686606 0.790838 0.186605
Si Si8 0.839473 0.569494 0.655766
O O1 0.500000 0.000000 0.500000
O O2 0.920072 0.062595 0.638810
O O3 0.054566 0.000000 0.851522
O O4 0.468490 0.125466 0.656163
O O5 0.576288 0.062596 0.857548
O O6 0.509470 0.180343 0.832665
O O7 0.000000 0.138207 0.000000
O O8 0.500000 0.861794 0.500000
O O9 0.020948 0.819656 0.344140
O O10 0.000000 0.000000 0.000000
O O11 0.500040 0.615135 0.830643
O O12 0.255801 0.720458 0.755801
O O13 0.991848 0.615134 0.661247
O O14 0.500000 0.647405 0.000000
O O15 0.672687 0.500000 0.893147
O O16 0.000000 0.405708 0.000000
O O17 0.977845 0.429272 0.159281
O O18 0.500000 0.797695 0.000000
O O19 0.500000 0.594292 0.500000
O O20 0.834073 0.500000 0.613612
#
# Coordination Sequence:
#
# PCOD8059102 Si02
#       8
#     2   4   4   2   4   4   4   4
#     4  10  18  33  58  87 113 142 180 227 283 335
#     4  11  22  39  60  84 113 147 186 231 282 334
#     4  11  22  39  60  84 113 147 186 231 282 334
#     4  10  18  33  58  87 113 142 180 227 283 335
#     4   9  19  35  55  77 106 145 184 222 267 324
#     4   9  17  32  55  82 109 139 177 221 270 323
#     4  11  23  39  56  80 112 149 193 234 277 331
#     4   9  17  32  55  82 109 139 177 221 270 323
#
# _framework density 19.840021
#
# number of rings (size 3 to 8) (size 9 to 14) (size 15 to 20)
#    0.000    2.000    0.000    6.429    0.000    3.429 
#    0.000    9.286    0.000    3.429    0.000    0.000 
#    0.000    0.000    0.000    0.000    0.000    0.000 
#
# Total GULP energy -347166.191172 kJ/mol
# GULP energy per Si atom -12398.792542 kJ/mol
# Density = 1.979486 g / cm^3
# Si number density = 19.840021 Si / 1000 Ang^3
#
#
#
# Elastic Constant Matrix: (Units=GPa)
#
#
# Indices 1 2 3 4 5 6 
#
# 1 134.0897 91.2665 50.2173 0.0000 14.9612 0.0000
# 2 91.2665 172.7030 59.8083 0.0000 23.4776 0.0000
# 3 50.2173 59.8083 111.9419 0.0000 1.5706 0.0000
# 4 0.0000 0.0000 0.0000 22.9565 0.0000 0.6786
# 5 14.9612 23.4776 1.5706 0.0000 41.9071 0.0000
# 6 0.0000 0.0000 0.0000 0.6786 0.0000 23.8655
#
#
#
# Elastic Compliance Matrix: (Units=1/GPa)
#
#
# Indices 1 2 3 4 5 6 
#
# 1 0.012245 -0.005405 -0.002588 0.000000 -0.001246 0.000000
# 2 -0.005405 0.010168 -0.002956 0.000000 -0.003656 0.000000
# 3 -0.002588 -0.002956 0.011643 0.000000 0.002144 0.000000
# 4 0.000000 0.000000 0.000000 0.043597 0.000000 -0.001240
# 5 -0.001246 -0.003656 0.002144 0.000000 0.026275 0.000000
# 6 0.000000 0.000000 0.000000 -0.001240 0.000000 0.041937
#
#
# Mechanical properties :
#
#
# Convention : Reuss Voigt Hill
#
# Bulk Modulus (GPa) = 82.25389 91.25765 86.75577
# Shear Modulus (GPa) = 29.10098 32.24199 30.67148
#
# Velocity S-wave (km/s) = 3.83401 4.03562 3.93611
# Velocity P-wave (km/s) = 7.81973 8.23478 8.02994
#
# Compressibility (1/GPa) = 0.01215748
#
# Stress axis : x y z
#
# Youngs Moduli (GPa) = 81.66616 98.35245 85.88602
#
# Poissons Ratio (x) = 0.53164 0.22224
# Poissons Ratio (y) = 0.44144 0.25389
# Poissons Ratio (z) = 0.21132 0.29074
#
# Static dielectric constant tensor:
#      x y z
#    x 3.504610 0.000000 0.013010 
#    y 0.000000 4.076390 0.000000 
#    z 0.013010 0.000000 3.487090 
# 
# 
# High freq. dielectric constant tensor:
#      x y z
#    x 1.773230 0.000000 0.003640 
#    y 0.000000 1.777760 0.000000 
#    z 0.003640 0.000000 1.768350 
# 
# From -- ./inp_files/62642.got.cif
#   From: 2010.06.25/outbox.cif.g09.slc.cpg/sg10_32_cif.got.tgz:62642.got - 2010.06.27 22:07:45.
