data_PCOD8059416
_publ_section_title
;
Structure prediction by ZEFSAII (Michael W. Deem and Ramdas Pophale) SiO2 
 PCOD8059416
Probable space group: P 2/M
;
_chemical_formula_sum "Si O2"
_cell_formula_units_Z 32
_cell_length_a 23.423154
_cell_length_b 9.127464
_cell_length_c 12.377524
_cell_angle_alpha 90.000000
_cell_angle_beta 133.682233
_cell_angle_gamma 90.000000
_cell_volume 1913.711631
_symmetry_space_group_name_H-M "P 2/M"
_symmetry_group_IT_number 10
_symmetry_cell_setting 'monoclinic'
loop_
_space_group_symop_operation_xyz
x,y,z
-x,y,-z
-x,-y,-z
x,-y,z
loop_
_atom_site_type_symbol
_atom_site_label
_atom_site_fract_x
_atom_site_fract_y
_atom_site_fract_z
Si Si1 0.179548 0.169630 0.853227
Si Si2 0.094577 0.167944 0.962866
Si Si3 0.172119 0.668731 0.260710
Si Si4 0.510682 0.837773 0.385908
Si Si5 0.340269 0.667342 0.390311
Si Si6 0.340193 0.829277 0.168429
Si Si7 0.083881 0.169493 0.327930
Si Si8 0.917707 0.327466 0.447000
O O1 0.130546 0.214984 0.895140
O O2 0.153339 0.269748 0.719842
O O3 0.163890 0.000000 0.804632
O O4 0.272220 0.202001 0.992450
O O5 0.000929 0.188707 0.838357
O O6 0.117607 0.000000 0.019908
O O7 0.128498 0.273631 0.097574
O O8 0.147624 0.500000 0.244863
O O9 0.266177 0.685252 0.372531
O O10 0.148795 0.762208 0.334167
O O11 0.500000 0.839108 0.500000
O O12 0.582905 0.732777 0.448089
O O13 0.425390 0.782561 0.228817
O O14 0.530411 0.000000 0.367833
O O15 0.358589 0.500000 0.387127
O O16 0.319956 0.745941 0.251863
O O17 0.342997 0.000000 0.203860
O O18 0.087747 0.252526 0.445177
O O19 0.103538 0.000000 0.373725
O O20 0.909417 0.500000 0.450853
O O21 0.000000 0.282447 0.500000
#
# Coordination Sequence:
#
# PCOD8059416 Si02
#       8
#     4   4   4   4   4   4   4   4
#     4  10  19  33  54  76 101 133 170 210 249 293
#     4  10  20  34  53  75  99 132 172 210 248 295
#     4  11  23  35  49  73 105 137 170 208 252 302
#     4   8  15  27  44  67  96 130 165 199 240 292
#     4  10  19  29  44  69 101 135 166 199 244 298
#     4   9  17  30  48  71  99 131 166 204 245 292
#     4  11  23  38  55  73  96 131 176 216 251 295
#     4  11  23  37  54  75 101 131 166 210 258 301
#
# _framework density 16.721433000000001
#
# number of rings (size 3 to 8) (size 9 to 14) (size 15 to 20)
#    0.000    2.000    2.500    2.625    0.000    7.750 
#    0.000    0.000    0.000    0.000    0.000    0.875 
#    0.000    7.000    0.000    0.000    0.000    0.000 
#
# Total GULP energy -396822.182272 kJ/mol
# GULP energy per Si atom -12400.693196 kJ/mol
# Density = 1.668337 g / cm^3
# Si number density = 16.721433 Si / 1000 Ang^3
#
#
#
# Elastic Constant Matrix: (Units=GPa)
#
#
# Indices 1 2 3 4 5 6 
#
# 1 73.3342 43.6385 45.6685 0.0000 8.0808 0.0000
# 2 43.6385 80.6694 48.1372 0.0000 6.2681 0.0000
# 3 45.6685 48.1372 80.4546 0.0000 13.0425 0.0000
# 4 0.0000 0.0000 0.0000 14.5700 0.0000 -2.2330
# 5 8.0808 6.2681 13.0425 0.0000 24.6685 0.0000
# 6 0.0000 0.0000 0.0000 -2.2330 0.0000 27.9073
#
#
#
# Elastic Compliance Matrix: (Units=1/GPa)
#
#
# Indices 1 2 3 4 5 6 
#
# 1 0.023685 -0.007486 -0.008768 0.000000 -0.001221 0.000000
# 2 -0.007486 0.021685 -0.009001 0.000000 0.001701 0.000000
# 3 -0.008768 -0.009001 0.024013 0.000000 -0.007537 0.000000
# 4 0.000000 0.000000 0.000000 0.069486 0.000000 0.005560
# 5 -0.001221 0.001701 -0.007537 0.000000 0.044490 0.000000
# 6 0.000000 0.000000 0.000000 0.005560 0.000000 0.036278
#
#
# Mechanical properties :
#
#
# Convention : Reuss Voigt Hill
#
# Bulk Modulus (GPa) = 52.98138 56.59405 54.78771
# Shear Modulus (GPa) = 18.08725 19.89674 18.99200
#
# Velocity S-wave (km/s) = 3.29246 3.45323 3.37380
# Velocity P-wave (km/s) = 6.79759 7.05821 6.92913
#
# Compressibility (1/GPa) = 0.01887456
#
# Stress axis : x y z
#
# Youngs Moduli (GPa) = 42.22008 46.11559 41.64380
#
# Poissons Ratio (x) = 0.34522 0.36512
# Poissons Ratio (y) = 0.31606 0.37482
# Poissons Ratio (z) = 0.37017 0.41507
#
# Static dielectric constant tensor:
#      x y z
#    x 3.159660 0.000000 0.353610 
#    y 0.000000 3.223090 0.000000 
#    z 0.353610 0.000000 3.230300 
# 
# 
# High freq. dielectric constant tensor:
#      x y z
#    x 1.626750 0.000000 0.024920 
#    y 0.000000 1.652600 0.000000 
#    z 0.024920 0.000000 1.631610 
# 
# From -- ./inp_files/54924.got.cif
#   From: 2010.06.25/outbox.cif.g09.slc.cpg/sg10_28_cif.got.tgz:54924.got - 2010.06.27 22:07:45.
