data_PCOD8060622
_publ_section_title
;
Structure prediction by ZEFSAII (Michael W. Deem and Ramdas Pophale) SiO2 
 PCOD8060622
Probable space group: P 2/M
;
_chemical_formula_sum "Si O2"
_cell_formula_units_Z 32
_cell_length_a 20.148465
_cell_length_b 8.671205
_cell_length_c 28.694794
_cell_angle_alpha 90.000000
_cell_angle_beta 20.561369
_cell_angle_gamma 90.000000
_cell_volume 1760.726697
_symmetry_space_group_name_H-M "P 2/M"
_symmetry_group_IT_number 10
_symmetry_cell_setting 'monoclinic'
loop_
_space_group_symop_operation_xyz
x,y,z
-x,y,-z
-x,-y,-z
x,-y,z
loop_
_atom_site_type_symbol
_atom_site_label
_atom_site_fract_x
_atom_site_fract_y
_atom_site_fract_z
Si Si1 0.019716 0.318161 0.917259
Si Si2 0.133715 0.179229 0.069433
Si Si3 0.715721 0.817764 0.185350
Si Si4 0.789342 0.680481 0.886526
Si Si5 0.434747 0.820504 0.235719
Si Si6 0.067550 0.317378 0.306187
Si Si7 0.345014 0.318790 0.391471
Si Si8 0.360721 0.319224 0.189511
O O1 0.018841 0.500000 0.923856
O O2 0.211274 0.250485 0.813670
O O3 0.010444 0.271095 0.869207
O O4 0.837853 0.248582 0.062618
O O5 0.345437 0.219866 0.914452
O O6 0.088948 0.000000 0.094663
O O7 0.102181 0.233470 0.143033
O O8 0.499392 0.771590 0.320242
O O9 0.737812 0.000000 0.171030
O O10 0.828413 0.500000 0.866495
O O11 0.872808 0.747223 0.783520
O O12 0.566974 0.717028 0.033304
O O13 0.352828 0.722853 0.332072
O O14 0.325309 0.770527 0.261024
O O15 0.402732 0.000000 0.266709
O O16 0.087920 0.500000 0.292302
O O17 0.209171 0.253060 0.252474
O O18 0.856108 0.264296 0.456483
O O19 0.376864 0.500000 0.376722
O O20 0.334366 0.500000 0.216491
#
# Coordination Sequence:
#
# PCOD8060622 Si02
#       8
#     4   4   4   4   4   4   4   4
#     4  11  20  32  54  82 107 135 173 209 252 307
#     4  10  19  32  51  77 109 139 169 213 265 307
#     4  11  21  34  51  76 110 141 168 208 259 306
#     4   9  17  32  55  79 102 132 176 223 267 311
#     4  10  20  33  49  72 105 139 172 213 265 314
#     4   9  19  34  53  77 102 135 178 225 265 306
#     4  11  21  34  52  73 104 142 180 214 255 313
#     4   9  17  32  55  78 101 131 173 223 270 313
#
# _framework density 18.174315
#
# number of rings (size 3 to 8) (size 9 to 14) (size 15 to 20)
#    0.000    2.000    1.250    4.500    0.000    3.000 
#    0.000    5.625    0.000    3.750    0.000    5.250 
#    0.000    0.000    0.000    0.000    0.000    0.000 
#
# Total GULP energy -396897.613711 kJ/mol
# GULP energy per Si atom -12403.050428 kJ/mol
# Density = 1.813295 g / cm^3
# Si number density = 18.174315 Si / 1000 Ang^3
#
#
#
# Elastic Constant Matrix: (Units=GPa)
#
#
# Indices 1 2 3 4 5 6 
#
# 1 166.1795 48.6756 63.4937 0.0000 -13.1835 0.0000
# 2 48.6756 87.6206 31.3072 0.0000 -3.4878 0.0000
# 3 63.4937 31.3072 83.5236 0.0000 -2.0139 0.0000
# 4 0.0000 0.0000 0.0000 12.8904 0.0000 -4.6543
# 5 -13.1835 -3.4878 -2.0139 0.0000 18.1010 0.0000
# 6 0.0000 0.0000 0.0000 -4.6543 0.0000 18.2976
#
#
#
# Elastic Compliance Matrix: (Units=1/GPa)
#
#
# Indices 1 2 3 4 5 6 
#
# 1 0.009679 -0.002964 -0.006107 0.000000 0.005799 0.000000
# 2 -0.002964 0.014158 -0.003048 0.000000 0.000230 0.000000
# 3 -0.006107 -0.003048 0.017684 0.000000 -0.003068 0.000000
# 4 0.000000 0.000000 0.000000 0.085422 0.000000 0.021729
# 5 0.005799 0.000230 -0.003068 0.000000 0.059172 0.000000
# 6 0.000000 0.000000 0.000000 0.021729 0.000000 0.060179
#
#
# Mechanical properties :
#
#
# Convention : Reuss Voigt Hill
#
# Bulk Modulus (GPa) = 57.86279 69.36409 63.61344
# Shear Modulus (GPa) = 18.09669 22.78096 20.43882
#
# Velocity S-wave (km/s) = 3.15894 3.54428 3.35714
# Velocity P-wave (km/s) = 6.72399 7.41607 7.07849
#
# Compressibility (1/GPa) = 0.01728226
#
# Stress axis : x y z
#
# Youngs Moduli (GPa) = 103.31297 70.63309 56.54904
#
# Poissons Ratio (x) = 0.20937 0.34536
# Poissons Ratio (y) = 0.30624 0.17235
# Poissons Ratio (z) = 0.63096 0.21528
#
# Static dielectric constant tensor:
#      x y z
#    x 3.606690 0.000000 -0.052910 
#    y 0.000000 3.261020 0.000000 
#    z -0.052910 0.000000 3.171270 
# 
# 
# High freq. dielectric constant tensor:
#      x y z
#    x 1.720030 0.000000 -0.006140 
#    y 0.000000 1.701070 0.000000 
#    z -0.006140 0.000000 1.669150 
# 
# From -- ./inp_files/95665.got.cif
#   From: 2010.06.25/outbox.cif.g09.slc.cpg/sg10_48_cif.got.tgz:95665.got - 2010.06.27 22:07:45.
