data_PCOD8060250
_publ_section_title
;
Structure prediction by ZEFSAII (Michael W. Deem and Ramdas Pophale) SiO2 
 PCOD8060250
Probable space group: P 2/M
;
_chemical_formula_sum "Si O2"
_cell_formula_units_Z 32
_cell_length_a 20.027837
_cell_length_b 9.234635
_cell_length_c 13.757244
_cell_angle_alpha 90.000000
_cell_angle_beta 139.312187
_cell_angle_gamma 90.000000
_cell_volume 1658.788210
_symmetry_space_group_name_H-M "P 2/M"
_symmetry_group_IT_number 10
_symmetry_cell_setting 'monoclinic'
loop_
_space_group_symop_operation_xyz
x,y,z
-x,y,-z
-x,-y,-z
x,-y,z
loop_
_atom_site_type_symbol
_atom_site_label
_atom_site_fract_x
_atom_site_fract_y
_atom_site_fract_z
Si Si1 0.810539 0.166203 0.929921
Si Si2 0.106534 0.662967 0.651877
Si Si3 0.953202 0.829147 0.770714
Si Si4 0.835680 0.337397 0.493237
Si Si5 0.635368 0.333002 0.378947
Si Si6 0.471319 0.828367 0.078164
Si Si7 0.216141 0.329883 0.289804
Si Si8 0.259545 0.166225 0.938007
O O1 0.765336 0.269573 0.797276
O O2 0.804533 0.000000 0.888855
O O3 0.736646 0.190510 0.941702
O O4 0.928486 0.207830 0.080203
O O5 0.086623 0.500000 0.668367
O O6 0.178490 0.666494 0.637409
O O7 0.157653 0.751825 0.793392
O O8 0.000000 0.733826 0.500000
O O9 0.924540 0.767678 0.632198
O O10 0.881248 0.751263 0.770636
O O11 0.932683 0.000000 0.752099
O O12 0.859813 0.500000 0.557815
O O13 0.726766 0.285148 0.409898
O O14 0.603398 0.500000 0.331024
O O15 0.541619 0.234928 0.241479
O O16 0.677281 0.301882 0.534156
O O17 0.481614 0.000000 0.093078
O O18 0.500000 0.772716 0.000000
O O19 0.358319 0.777064 0.987563
O O20 0.191147 0.500000 0.259798
O O21 0.241980 0.000000 0.893435
#
# Coordination Sequence:
#
# PCOD8060250 Si02
#       8
#     4   4   4   4   4   4   4   4
#     4  10  21  36  52  74 107 144 180 219 264 316
#     4  10  20  33  51  77 108 142 179 216 257 311
#     4  10  19  31  51  79 108 141 181 218 257 313
#     4   9  18  32  49  74 108 140 174 218 264 314
#     4   9  19  35  54  77 103 132 170 215 264 315
#     4  10  21  37  58  83 107 134 173 219 265 315
#     4  10  21  36  55  80 108 139 177 220 264 312
#     4  10  22  38  54  77 109 141 178 223 268 318
#
# _framework density 19.29119
#
# number of rings (size 3 to 8) (size 9 to 14) (size 15 to 20)
#    0.000    2.250    0.000    3.375    0.000    7.000 
#    0.000    0.625    0.000    3.750    0.000    0.000 
#    0.000    0.000    0.000    0.000    0.000    0.000 
#
# Total GULP energy -396656.437728 kJ/mol
# GULP energy per Si atom -12395.513679 kJ/mol
# Density = 1.924728 g / cm^3
# Si number density = 19.291190 Si / 1000 Ang^3
#
#
#
# Elastic Constant Matrix: (Units=GPa)
#
#
# Indices 1 2 3 4 5 6 
#
# 1 77.3990 26.2142 34.7529 0.0000 1.5626 0.0000
# 2 26.2142 61.1864 45.2657 0.0000 1.3719 0.0000
# 3 34.7529 45.2657 101.2448 0.0000 4.4699 0.0000
# 4 0.0000 0.0000 0.0000 32.1558 0.0000 -6.3388
# 5 1.5626 1.3719 4.4699 0.0000 22.7017 0.0000
# 6 0.0000 0.0000 0.0000 -6.3388 0.0000 20.7014
#
#
#
# Elastic Compliance Matrix: (Units=1/GPa)
#
#
# Indices 1 2 3 4 5 6 
#
# 1 0.015953 -0.004161 -0.003609 0.000000 -0.000136 0.000000
# 2 -0.004161 0.025517 -0.010012 0.000000 0.000716 0.000000
# 3 -0.003609 -0.010012 0.015691 0.000000 -0.002236 0.000000
# 4 0.000000 0.000000 0.000000 0.033096 0.000000 0.010134
# 5 -0.000136 0.000716 -0.002236 0.000000 0.044456 0.000000
# 6 0.000000 0.000000 0.000000 0.010134 0.000000 0.051409
#
#
# Mechanical properties :
#
#
# Convention : Reuss Voigt Hill
#
# Bulk Modulus (GPa) = 46.30526 50.25509 48.28017
# Shear Modulus (GPa) = 21.84498 24.01824 22.93161
#
# Velocity S-wave (km/s) = 3.36874 3.53234 3.45151
# Velocity P-wave (km/s) = 6.25992 6.53788 6.40041
#
# Compressibility (1/GPa) = 0.02159582
#
# Stress axis : x y z
#
# Youngs Moduli (GPa) = 62.68449 39.18969 63.73169
#
# Poissons Ratio (x) = 0.16309 0.23003
# Poissons Ratio (y) = 0.26086 0.63805
# Poissons Ratio (z) = 0.22625 0.39235
#
# Static dielectric constant tensor:
#      x y z
#    x 3.613470 0.000000 -0.108680 
#    y 0.000000 3.473130 0.000000 
#    z -0.108680 0.000000 3.492920 
# 
# 
# High freq. dielectric constant tensor:
#      x y z
#    x 1.748290 0.000000 -0.008970 
#    y 0.000000 1.745380 0.000000 
#    z -0.008970 0.000000 1.744150 
# 
# From -- ./inp_files/70015.got.cif
#   From: 2010.06.25/outbox.cif.g09.slc.cpg/sg10_36_cif.got.tgz:70015.got - 2010.06.27 22:07:45.
