data_PCOD8060916
_publ_section_title
;
Structure prediction by ZEFSAII (Michael W. Deem and Ramdas Pophale) SiO2 
 PCOD8060916
Probable space group: P 2/M
;
_chemical_formula_sum "Si O2"
_cell_formula_units_Z 28
_cell_length_a 14.866405
_cell_length_b 8.863698
_cell_length_c 16.599916
_cell_angle_alpha 90.000000
_cell_angle_beta 46.457553
_cell_angle_gamma 90.000000
_cell_volume 1585.562840
_symmetry_space_group_name_H-M "P 2/M"
_symmetry_group_IT_number 10
_symmetry_cell_setting 'monoclinic'
loop_
_space_group_symop_operation_xyz
x,y,z
-x,y,-z
-x,-y,-z
x,-y,z
loop_
_atom_site_type_symbol
_atom_site_label
_atom_site_fract_x
_atom_site_fract_y
_atom_site_fract_z
Si Si1 0.886124 0.178050 0.516982
Si Si2 0.400687 0.174628 0.894842
Si Si3 0.342329 0.674545 0.256240
Si Si4 0.060561 0.675829 0.852251
Si Si5 0.021707 0.325069 0.695596
Si Si6 0.737711 0.324950 0.874372
Si Si7 0.827137 0.824782 0.073514
O O1 0.757463 0.235788 0.630852
O O2 0.899956 0.231501 0.416853
O O3 0.000000 0.243008 0.500000
O O4 0.885267 0.000000 0.519810
O O5 0.522386 0.270620 0.801287
O O6 0.310170 0.203294 0.875122
O O7 0.436341 0.000000 0.881299
O O8 0.335911 0.225119 0.016923
O O9 0.327371 0.500000 0.286507
O O10 0.325296 0.704739 0.172361
O O11 0.067707 0.500000 0.868551
O O12 0.084463 0.705233 0.743349
O O13 0.164556 0.764196 0.839822
O O14 0.923657 0.733705 0.958964
O O15 0.026131 0.500000 0.668789
O O16 0.879527 0.269406 0.783804
O O17 0.729617 0.500000 0.905003
O O18 0.863295 0.000000 0.048444
#
# Coordination Sequence:
#
# PCOD8060916 Si02
#       7
#     4   4   4   4   4   4   4
#     4  11  23  37  56  81 109 142 182 226 269 316
#     4  11  23  36  53  79 113 148 181 222 271 324
#     4  11  23  38  57  77 106 148 188 225 266 317
#     4  10  19  32  54  81 107 139 179 224 266 314
#     4  10  20  35  56  81 111 143 180 223 268 318
#     4  10  20  35  54  79 110 146 183 219 265 321
#     4  10  20  33  51  77 111 145 175 216 272 327
#
# _framework density 17.659344999999998
#
# number of rings (size 3 to 8) (size 9 to 14) (size 15 to 20)
#    0.000    1.571    2.857    3.429    0.000    6.857 
#    0.000    0.000    0.000    0.857    0.000    6.000 
#    0.000    0.000    0.000    0.000    0.000    0.000 
#
# Total GULP energy -347318.550201 kJ/mol
# GULP energy per Si atom -12404.233936 kJ/mol
# Density = 1.761915 g / cm^3
# Si number density = 17.659345 Si / 1000 Ang^3
#
#
#
# Elastic Constant Matrix: (Units=GPa)
#
#
# Indices 1 2 3 4 5 6 
#
# 1 100.3659 35.2005 37.5855 0.0000 3.6815 0.0000
# 2 35.2005 56.0888 24.1798 0.0000 9.4975 0.0000
# 3 37.5855 24.1798 68.8120 0.0000 2.6075 0.0000
# 4 0.0000 0.0000 0.0000 -245.0631 0.0000 -236.7065
# 5 3.6815 9.4975 2.6075 0.0000 23.6531 0.0000
# 6 0.0000 0.0000 0.0000 -236.7065 0.0000 -172.1839
#
#
#
# Elastic Compliance Matrix: (Units=1/GPa)
#
#
# Indices 1 2 3 4 5 6 
#
# 1 0.014380 -0.006847 -0.005491 0.000000 0.001116 0.000000
# 2 -0.006847 0.025749 -0.004978 0.000000 -0.008725 0.000000
# 3 -0.005491 -0.004978 0.019253 0.000000 0.000731 0.000000
# 4 0.000000 0.000000 0.000000 0.012446 0.000000 -0.017110
# 5 0.001116 -0.008725 0.000731 0.000000 0.045527 0.000000
# 6 0.000000 0.000000 0.000000 -0.017110 0.000000 0.017714
#
#
# Mechanical properties :
#
#
# Convention : Reuss Voigt Hill
#
# Bulk Modulus (GPa) = 40.40153 46.57759 43.48956
# Shear Modulus (GPa) = 28.09772 -70.16539 -21.03384
#
# Velocity S-wave (km/s) = 3.99318 -6.31023 -3.45496
# Velocity P-wave (km/s) = 6.64745 5.16325 2.96053
#
# Compressibility (1/GPa) = 0.02475154
#
# Stress axis : x y z
#
# Youngs Moduli (GPa) = 69.54036 38.83658 51.94016
#
# Poissons Ratio (x) = 0.26590 0.28520
# Poissons Ratio (y) = 0.47612 0.25854
# Poissons Ratio (z) = 0.38184 0.19331
#
# Static dielectric constant tensor:
#      x y z
#    x 3.447670 0.000000 0.029620 
#    y 0.000000 3.345080 0.000000 
#    z 0.029620 0.000000 3.088670 
# 
# 
# High freq. dielectric constant tensor:
#      x y z
#    x 1.687130 0.000000 0.005560 
#    y 0.000000 1.694750 0.000000 
#    z 0.005560 0.000000 1.662200 
# 
# From -- ./inp_files/57909.got.cif
#   From: 2010.06.25/outbox.cif.g09.slc.cpg/sg10_29_cif.got.tgz:57909.got - 2010.06.27 22:07:45.
