data_PCOD8060210
_publ_section_title
;
Structure prediction by ZEFSAII (Michael W. Deem and Ramdas Pophale) SiO2 
 PCOD8060210
Probable space group: P 2/M
;
_chemical_formula_sum "Si O2"
_cell_formula_units_Z 28
_cell_length_a 5.077327
_cell_length_b 31.491375
_cell_length_c 10.013917
_cell_angle_alpha 90.000000
_cell_angle_beta 60.885896
_cell_angle_gamma 90.000000
_cell_volume 1398.844564
_symmetry_space_group_name_H-M "P 2/M"
_symmetry_group_IT_number 10
_symmetry_cell_setting 'monoclinic'
loop_
_space_group_symop_operation_xyz
x,y,z
-x,y,-z
-x,-y,-z
x,-y,z
loop_
_atom_site_type_symbol
_atom_site_label
_atom_site_fract_x
_atom_site_fract_y
_atom_site_fract_z
Si Si1 0.826192 0.952177 0.682499
Si Si2 0.163932 0.187876 0.822935
Si Si3 0.671852 0.097623 0.319199
Si Si4 0.154422 0.329164 0.320370
Si Si5 0.216608 0.630437 0.819479
Si Si6 0.667557 0.241196 0.822414
Si Si7 0.349867 0.454033 0.896861
O O1 0.502704 0.930192 0.747230
O O2 0.000000 0.953096 0.500000
O O3 0.002033 0.923822 0.747237
O O4 0.786142 0.000000 0.746579
O O5 0.315000 0.146130 0.727914
O O6 0.420007 0.223974 0.779171
O O7 0.911921 0.204314 0.783145
O O8 0.000000 0.175945 0.000000
O O9 0.500000 0.095818 0.500000
O O10 0.512051 0.336603 0.240165
O O11 0.135689 0.280538 0.279484
O O12 0.000000 0.335899 0.500000
O O13 0.983781 0.361223 0.261918
O O14 0.378301 0.583614 0.780128
O O15 0.000000 0.635560 0.000000
O O16 0.500000 0.254805 0.000000
O O17 0.491062 0.500000 0.816382
O O18 0.500000 0.439392 0.000000
O O19 0.000000 0.461558 0.000000
#
# Coordination Sequence:
#
# PCOD8060210 Si02
#       7
#     4   4   4   4   4   4   4
#     4   9  17  30  49  74 102 132 169 210 251 303
#     4  10  21  36  55  77 104 136 174 222 270 323
#     4  10  19  31  51  76 100 131 169 211 260 312
#     4  12  25  39  58  87 121 152 189 244 298 341
#     4  11  21  38  62  86 115 156 198 236 286 350
#     4  10  21  38  57  77 102 142 188 223 269 335
#     4   9  17  31  55  88 117 144 192 250 287 322
#
# _framework density 20.016518999999999
#
# number of rings (size 3 to 8) (size 9 to 14) (size 15 to 20)
#    0.000    1.857    0.000    5.571    0.000    4.000 
#    0.000    0.000    0.000    5.143    0.000    0.000 
#    0.000    0.000    0.000    0.000    0.000    0.000 
#
# Total GULP energy -347112.585412 kJ/mol
# GULP energy per Si atom -12396.878050 kJ/mol
# Density = 1.997096 g / cm^3
# Si number density = 20.016519 Si / 1000 Ang^3
#
#
#
# Elastic Constant Matrix: (Units=GPa)
#
#
# Indices 1 2 3 4 5 6 
#
# 1 131.4823 33.4478 35.9870 0.0000 9.9856 0.0000
# 2 33.4478 116.8195 36.6883 0.0000 6.5724 0.0000
# 3 35.9870 36.6883 63.2571 0.0000 7.6187 0.0000
# 4 0.0000 0.0000 0.0000 21.7222 0.0000 2.9793
# 5 9.9856 6.5724 7.6187 0.0000 18.5997 0.0000
# 6 0.0000 0.0000 0.0000 2.9793 0.0000 30.6030
#
#
#
# Elastic Compliance Matrix: (Units=1/GPa)
#
#
# Indices 1 2 3 4 5 6 
#
# 1 0.009283 -0.001158 -0.004269 0.000000 -0.002826 0.000000
# 2 -0.001158 0.010640 -0.005401 0.000000 -0.000926 0.000000
# 3 -0.004269 -0.005401 0.021946 0.000000 -0.004789 0.000000
# 4 0.000000 0.000000 0.000000 0.046659 0.000000 -0.004542
# 5 -0.002826 -0.000926 -0.004789 0.000000 0.057570 0.000000
# 6 0.000000 0.000000 0.000000 -0.004542 0.000000 0.033119
#
#
# Mechanical properties :
#
#
# Convention : Reuss Voigt Hill
#
# Bulk Modulus (GPa) = 49.47164 58.20056 53.83610
# Shear Modulus (GPa) = 24.08343 27.88071 25.98207
#
# Velocity S-wave (km/s) = 3.47245 3.73619 3.60673
# Velocity P-wave (km/s) = 6.39111 6.91025 6.65574
#
# Compressibility (1/GPa) = 0.02021360
#
# Stress axis : x y z
#
# Youngs Moduli (GPa) = 107.71987 93.98445 45.56560
#
# Poissons Ratio (x) = 0.10886 0.19453
# Poissons Ratio (y) = 0.12477 0.24608
# Poissons Ratio (z) = 0.45988 0.50758
#
# Static dielectric constant tensor:
#      x y z
#    x 3.867490 0.000000 0.062110 
#    y 0.000000 3.924740 0.000000 
#    z 0.062110 0.000000 3.208020 
# 
# 
# High freq. dielectric constant tensor:
#      x y z
#    x 1.805450 0.000000 0.004980 
#    y 0.000000 1.796610 0.000000 
#    z 0.004980 0.000000 1.727990 
# 
# From -- ./inp_files/15877.got.cif
#   From: 2010.06.25/outbox.cif.g09.slc.cpg/sg10_8_cif.got.tgz:15877.got - 2010.06.27 22:07:45.
