data_PCOD8060726
_publ_section_title
;
Structure prediction by ZEFSAII (Michael W. Deem and Ramdas Pophale) SiO2 
 PCOD8060726
Probable space group: P 2/M
;
_chemical_formula_sum "Si O2"
_cell_formula_units_Z 20
_cell_length_a 9.420638
_cell_length_b 7.730573
_cell_length_c 23.676936
_cell_angle_alpha 90.000000
_cell_angle_beta 142.380983
_cell_angle_gamma 90.000000
_cell_volume 1052.538011
_symmetry_space_group_name_H-M "P 2/M"
_symmetry_group_IT_number 10
_symmetry_cell_setting 'monoclinic'
loop_
_space_group_symop_operation_xyz
x,y,z
-x,y,-z
-x,-y,-z
x,-y,z
loop_
_atom_site_type_symbol
_atom_site_label
_atom_site_fract_x
_atom_site_fract_y
_atom_site_fract_z
Si Si1 0.242829 0.300695 0.418830
Si Si2 0.772270 0.000000 0.091648
Si Si3 0.865274 0.192539 0.736723
Si Si4 0.099202 0.000000 0.093130
Si Si5 0.612844 0.697005 0.764535
Si Si6 0.084492 0.294461 0.586669
O O1 0.500000 0.213852 0.500000
O O2 0.270475 0.500000 0.443192
O O3 0.123083 0.282649 0.320132
O O4 0.079183 0.215527 0.415262
O O5 0.869785 0.170817 0.155542
O O6 0.500000 0.000000 0.000000
O O7 0.874141 0.000000 0.061261
O O8 0.708384 0.301795 0.730417
O O9 0.753676 0.000000 0.696839
O O10 0.248121 0.826861 0.151085
O O11 0.000000 0.000000 0.000000
O O12 0.634282 0.500000 0.794175
O O13 0.347979 0.762775 0.681154
O O14 0.069293 0.500000 0.581049
O O15 0.000000 0.218558 0.500000
#
# Coordination Sequence:
#
# PCOD8060726 Si02
#       6
#     4   2   4   2   4   4
#     4  10  19  32  52  78 109 146 185 224 270 320
#     4   8  18  36  55  74 103 142 171 220 282 320
#     4   9  19  34  54  80 105 141 181 225 266 329
#     4  10  22  38  57  84 111 140 185 226 276 336
#     4  10  19  37  60  80 112 148 182 227 273 324
#     4   9  18  32  52  80 111 148 188 223 269 325
#
# _framework density 19.001688999999999
#
# number of rings (size 3 to 8) (size 9 to 14) (size 15 to 20)
#    0.600    2.000    1.000    1.800    0.000    5.600 
#    1.800    0.500    0.000   15.000    0.000    0.000 
#    0.000    0.000    0.000    0.000    0.000    0.000 
#
# Total GULP energy -247852.343535 kJ/mol
# GULP energy per Si atom -12392.617177 kJ/mol
# Density = 1.895844 g / cm^3
# Si number density = 19.001689 Si / 1000 Ang^3
#
#
#
# Elastic Constant Matrix: (Units=GPa)
#
#
# Indices 1 2 3 4 5 6 
#
# 1 154.2155 17.0411 110.8980 0.0000 4.7418 0.0000
# 2 17.0411 59.7501 30.9437 0.0000 5.1753 0.0000
# 3 110.8980 30.9437 157.3496 0.0000 4.3002 0.0000
# 4 0.0000 0.0000 0.0000 19.7607 0.0000 -5.6542
# 5 4.7418 5.1753 4.3002 0.0000 45.6272 0.0000
# 6 0.0000 0.0000 0.0000 -5.6542 0.0000 11.7062
#
#
#
# Elastic Compliance Matrix: (Units=1/GPa)
#
#
# Indices 1 2 3 4 5 6 
#
# 1 0.013239 0.001226 -0.009555 0.000000 -0.000614 0.000000
# 2 0.001226 0.018892 -0.004529 0.000000 -0.001843 0.000000
# 3 -0.009555 -0.004529 0.013975 0.000000 0.000190 0.000000
# 4 0.000000 0.000000 0.000000 0.058721 0.000000 0.028363
# 5 -0.000614 -0.001843 0.000190 0.000000 0.022172 0.000000
# 6 0.000000 0.000000 0.000000 0.028363 0.000000 0.099124
#
#
# Mechanical properties :
#
#
# Convention : Reuss Voigt Hill
#
# Bulk Modulus (GPa) = 49.04395 76.56452 62.80424
# Shear Modulus (GPa) = 19.33231 29.58100 24.45665
#
# Velocity S-wave (km/s) = 3.19313 3.94986 3.59148
# Velocity P-wave (km/s) = 6.28181 7.82194 7.09380
#
# Compressibility (1/GPa) = 0.02038988
#
# Stress axis : x y z
#
# Youngs Moduli (GPa) = 75.53514 52.93311 71.55733
#
# Poissons Ratio (x) = -0.06488 0.68372
# Poissons Ratio (y) = -0.09258 0.32406
# Poissons Ratio (z) = 0.72173 0.23972
#
# Static dielectric constant tensor:
#      x y z
#    x 3.617620 0.000000 0.048870 
#    y 0.000000 3.194920 0.000000 
#    z 0.048870 0.000000 3.323100 
# 
# 
# High freq. dielectric constant tensor:
#      x y z
#    x 1.742950 0.000000 -0.000630 
#    y 0.000000 1.719000 0.000000 
#    z -0.000630 0.000000 1.727250 
# 
# From -- ./inp_files/87756.got.cif
#   From: 2010.06.25/outbox.cif.g09.slc.cpg/sg10_44_cif.got.tgz:87756.got - 2010.06.27 22:07:45.
