data_PCOD8060463
_publ_section_title
;
Structure prediction by ZEFSAII (Michael W. Deem and Ramdas Pophale) SiO2 
 PCOD8060463
Probable space group: P 2/M
;
_chemical_formula_sum "Si O2"
_cell_formula_units_Z 32
_cell_length_a 11.968667
_cell_length_b 15.585921
_cell_length_c 18.001212
_cell_angle_alpha 90.000000
_cell_angle_beta 147.925611
_cell_angle_gamma 90.000000
_cell_volume 1783.161875
_symmetry_space_group_name_H-M "P 2/M"
_symmetry_group_IT_number 10
_symmetry_cell_setting 'monoclinic'
loop_
_space_group_symop_operation_xyz
x,y,z
-x,y,-z
-x,-y,-z
x,-y,z
loop_
_atom_site_type_symbol
_atom_site_label
_atom_site_fract_x
_atom_site_fract_y
_atom_site_fract_z
Si Si1 0.460609 0.255443 0.172144
Si Si2 0.988779 0.401853 0.693403
Si Si3 0.942792 0.742951 0.149439
Si Si4 0.197026 0.697700 0.156275
Si Si5 0.832736 0.905955 0.162488
Si Si6 0.409835 0.094107 0.829971
Si Si7 0.519015 0.402435 0.429540
Si Si8 0.204712 0.400474 0.663550
O O1 0.335223 0.243354 0.178881
O O2 0.595838 0.168591 0.235538
O O3 0.606461 0.339581 0.256213
O O4 0.296879 0.265786 0.012604
O O5 0.017444 0.500000 0.736669
O O6 0.019370 0.342033 0.781533
O O7 0.152773 0.380416 0.720502
O O8 0.752750 0.388681 0.528424
O O9 0.983000 0.828833 0.220506
O O10 0.104758 0.752677 0.172438
O O11 0.349948 0.626234 0.274175
O O12 0.000000 0.655934 0.000000
O O13 0.776434 0.888287 0.216508
O O14 0.942607 0.000000 0.217073
O O15 0.627749 0.905895 0.996233
O O16 0.378129 0.000000 0.774649
O O17 0.500000 0.355884 0.500000
O O18 0.462136 0.500000 0.410762
O O19 0.272717 0.500000 0.691576
O O20 0.000000 0.380068 0.500000
#
# Coordination Sequence:
#
# PCOD8060463 Si02
#       8
#     4   4   4   4   4   4   4   4
#     4  10  20  33  50  72 104 139 167 206 264 308
#     4  10  20  33  52  75  99 129 171 213 252 304
#     4  10  19  32  49  75 105 132 169 214 254 302
#     4  10  21  34  49  74 106 137 173 215 256 304
#     4   8  14  26  47  73 100 129 165 209 256 304
#     4   8  14  27  48  73  98 128 166 208 255 309
#     4  10  19  34  54  73  97 134 178 218 255 298
#     4  10  21  36  51  70  98 131 169 212 255 308
#
# _framework density 17.945650000000001
#
# number of rings (size 3 to 8) (size 9 to 14) (size 15 to 20)
#    0.000    2.500    1.250    2.250    0.000    3.750 
#    0.000    4.375    0.000    4.125    0.000    4.375 
#    0.000    0.000    0.000    0.000    0.000    0.000 
#
# Total GULP energy -396579.244606 kJ/mol
# GULP energy per Si atom -12393.101394 kJ/mol
# Density = 1.790480 g / cm^3
# Si number density = 17.945650 Si / 1000 Ang^3
#
#
#
# Elastic Constant Matrix: (Units=GPa)
#
#
# Indices 1 2 3 4 5 6 
#
# 1 116.2910 70.9580 30.4145 0.0000 1.2724 0.0000
# 2 70.9580 125.1207 42.8510 0.0000 1.9752 0.0000
# 3 30.4145 42.8510 58.2663 0.0000 -2.7141 0.0000
# 4 0.0000 0.0000 0.0000 3.1770 0.0000 -1.3227
# 5 1.2724 1.9752 -2.7141 0.0000 21.7301 0.0000
# 6 0.0000 0.0000 0.0000 -1.3227 0.0000 20.7401
#
#
#
# Elastic Compliance Matrix: (Units=1/GPa)
#
#
# Indices 1 2 3 4 5 6 
#
# 1 0.013302 -0.006889 -0.001896 0.000000 -0.000390 0.000000
# 2 -0.006889 0.014334 -0.007029 0.000000 -0.001777 0.000000
# 3 -0.001896 -0.007029 0.023493 0.000000 0.003684 0.000000
# 4 0.000000 0.000000 0.000000 0.323348 0.000000 0.020622
# 5 -0.000390 -0.001777 0.003684 0.000000 0.046664 0.000000
# 6 0.000000 0.000000 0.000000 0.020622 0.000000 0.049531
#
#
# Mechanical properties :
#
#
# Convention : Reuss Voigt Hill
#
# Bulk Modulus (GPa) = 51.27372 65.34723 58.31047
# Shear Modulus (GPa) = 9.82705 19.49306 14.66005
#
# Velocity S-wave (km/s) = 2.34263 3.29937 2.86127
# Velocity P-wave (km/s) = 5.99591 7.14195 6.59388
#
# Compressibility (1/GPa) = 0.01950317
#
# Stress axis : x y z
#
# Youngs Moduli (GPa) = 75.17392 69.76305 42.56584
#
# Poissons Ratio (x) = 0.48057 0.08070
# Poissons Ratio (y) = 0.51785 0.29919
# Poissons Ratio (z) = 0.14251 0.49035
#
# Static dielectric constant tensor:
#      x y z
#    x 3.565740 0.000000 -0.001720 
#    y 0.000000 3.470180 0.000000 
#    z -0.001720 0.000000 3.091780 
# 
# 
# High freq. dielectric constant tensor:
#      x y z
#    x 1.704330 0.000000 -0.000410 
#    y 0.000000 1.680770 0.000000 
#    z -0.000410 0.000000 1.664600 
# 
# From -- ./inp_files/77020.got.cif
#   From: 2010.06.25/outbox.cif.g09.slc.cpg/sg10_39_cif.got.tgz:77020.got - 2010.06.27 22:07:45.
