data_PCOD8060429
_publ_section_title
;
Structure prediction by ZEFSAII (Michael W. Deem and Ramdas Pophale) SiO2 
 PCOD8060429
Probable space group: P 2/M
;
_chemical_formula_sum "Si O2"
_cell_formula_units_Z 32
_cell_length_a 27.870531
_cell_length_b 14.265265
_cell_length_c 10.178484
_cell_angle_alpha 90.000000
_cell_angle_beta 150.900274
_cell_angle_gamma 90.000000
_cell_volume 1968.068993
_symmetry_space_group_name_H-M "P 2/M"
_symmetry_group_IT_number 10
_symmetry_cell_setting 'monoclinic'
loop_
_space_group_symop_operation_xyz
x,y,z
-x,y,-z
-x,-y,-z
x,-y,z
loop_
_atom_site_type_symbol
_atom_site_label
_atom_site_fract_x
_atom_site_fract_y
_atom_site_fract_z
Si Si1 0.477484 0.609404 0.588266
Si Si2 0.687046 0.609804 0.185443
Si Si3 0.186138 0.289794 0.729661
Si Si4 0.075087 0.103397 0.862964
Si Si5 0.021760 0.268883 0.903623
Si Si6 0.799800 0.610091 0.711381
Si Si7 0.149496 0.103351 0.763920
Si Si8 0.733948 0.388353 0.835151
O O1 0.500000 0.655050 0.500000
O O2 0.458648 0.500000 0.523357
O O3 0.376616 0.651977 0.405203
O O4 0.569660 0.628125 0.905061
O O5 0.710706 0.500000 0.213374
O O6 0.736570 0.673028 0.191713
O O7 0.724987 0.642989 0.418082
O O8 0.210365 0.181845 0.828558
O O9 0.075899 0.295586 0.409940
O O10 0.191919 0.352343 0.874873
O O11 0.085855 0.182744 0.999061
O O12 0.148915 0.125785 0.918541
O O13 0.962943 0.103868 0.548921
O O14 0.100810 0.000000 0.981977
O O15 0.090065 0.360104 0.062634
O O16 0.000000 0.240452 0.000000
O O17 0.798631 0.500000 0.717589
O O18 0.767340 0.652307 0.774026
O O19 0.195902 0.000000 0.848199
O O20 0.737021 0.500000 0.843517
#
# Coordination Sequence:
#
# PCOD8060429 Si02
#       8
#     4   4   4   4   4   4   4   4
#     4   9  16  29  50  72  92 115 152 203 248 282
#     4  10  19  32  49  69  95 126 160 196 241 284
#     4  11  19  30  50  71  93 129 159 193 231 277
#     4   8  15  29  47  65  89 119 155 200 241 273
#     4  11  21  32  45  67  97 133 167 190 226 278
#     4  10  22  35  45  65  99 133 163 196 228 273
#     4   8  15  28  46  68  91 119 154 193 238 279
#     4  10  20  33  50  73  95 118 159 206 240 276
#
# _framework density 16.259592000000001
#
# number of rings (size 3 to 8) (size 9 to 14) (size 15 to 20)
#    0.000    2.375    2.500    1.875    0.000    3.500 
#    0.000    3.750    0.000    0.000    0.000    1.750 
#    0.000    0.000    0.000    6.375    0.000    0.625 
#
# Total GULP energy -396625.918292 kJ/mol
# GULP energy per Si atom -12394.559947 kJ/mol
# Density = 1.622258 g / cm^3
# Si number density = 16.259592 Si / 1000 Ang^3
#
#
#
# Elastic Constant Matrix: (Units=GPa)
#
#
# Indices 1 2 3 4 5 6 
#
# 1 84.6825 40.7175 43.3239 0.0000 -21.6103 0.0000
# 2 40.7175 41.7746 24.8496 0.0000 -4.6790 0.0000
# 3 43.3239 24.8496 90.5046 0.0000 -11.6653 0.0000
# 4 0.0000 0.0000 0.0000 5.9725 0.0000 -4.6088
# 5 -21.6103 -4.6790 -11.6653 0.0000 26.4031 0.0000
# 6 0.0000 0.0000 0.0000 -4.6088 0.0000 21.9723
#
#
#
# Elastic Compliance Matrix: (Units=1/GPa)
#
#
# Indices 1 2 3 4 5 6 
#
# 1 0.031902 -0.025504 -0.005817 0.000000 0.019021 0.000000
# 2 -0.025504 0.049071 -0.003006 0.000000 -0.013506 0.000000
# 3 -0.005817 -0.003006 0.014821 0.000000 0.001254 0.000000
# 4 0.000000 0.000000 0.000000 0.199771 0.000000 0.041903
# 5 0.019021 -0.013506 0.001254 0.000000 0.051603 0.000000
# 6 0.000000 0.000000 0.000000 0.041903 0.000000 0.054301
#
#
# Mechanical properties :
#
#
# Convention : Reuss Voigt Hill
#
# Bulk Modulus (GPa) = 36.84472 48.30486 42.57479
# Shear Modulus (GPa) = 10.43473 18.07430 14.25452
#
# Velocity S-wave (km/s) = 2.53604 3.33770 2.96410
# Velocity P-wave (km/s) = 5.59329 6.68032 6.16082
#
# Compressibility (1/GPa) = 0.02714093
#
# Stress axis : x y z
#
# Youngs Moduli (GPa) = 31.34643 20.37847 67.47330
#
# Poissons Ratio (x) = 0.51972 0.39249
# Poissons Ratio (y) = 0.79945 0.20282
# Poissons Ratio (z) = 0.18234 0.06125
#
# Static dielectric constant tensor:
#      x y z
#    x 3.251070 0.000000 -0.174470 
#    y 0.000000 3.151720 0.000000 
#    z -0.174470 0.000000 3.028910 
# 
# 
# High freq. dielectric constant tensor:
#      x y z
#    x 1.624130 0.000000 -0.015330 
#    y 0.000000 1.602730 0.000000 
#    z -0.015330 0.000000 1.610570 
# 
# From -- ./inp_files/37743.got.cif
#   From: 2010.06.25/outbox.cif.g09.slc.cpg/sg10_19_cif.got.tgz:37743.got - 2010.06.27 22:07:45.
