data_PCOD8060120
_publ_section_title
;
Structure prediction by ZEFSAII (Michael W. Deem and Ramdas Pophale) SiO2 
 PCOD8060120
Probable space group: P 2/M
;
_chemical_formula_sum "Si O2"
_cell_formula_units_Z 32
_cell_length_a 12.404137
_cell_length_b 8.887474
_cell_length_c 29.862202
_cell_angle_alpha 90.000000
_cell_angle_beta 30.939124
_cell_angle_gamma 90.000000
_cell_volume 1692.533157
_symmetry_space_group_name_H-M "P 2/M"
_symmetry_group_IT_number 10
_symmetry_cell_setting 'monoclinic'
loop_
_space_group_symop_operation_xyz
x,y,z
-x,y,-z
-x,-y,-z
x,-y,z
loop_
_atom_site_type_symbol
_atom_site_label
_atom_site_fract_x
_atom_site_fract_y
_atom_site_fract_z
Si Si1 0.735709 0.322149 0.406722
Si Si2 0.677369 0.820993 0.677350
Si Si3 0.883928 0.178315 0.440000
Si Si4 0.728185 0.179113 0.933257
Si Si5 0.873005 0.821122 0.977503
Si Si6 0.544383 0.175868 0.629564
Si Si7 0.702127 0.178952 0.130756
Si Si8 0.879918 0.175795 0.264396
O O1 0.500000 0.261222 0.500000
O O2 0.740275 0.500000 0.406177
O O3 0.886647 0.256650 0.390991
O O4 0.829137 0.268024 0.326682
O O5 0.614856 0.751166 0.651474
O O6 0.515172 0.757987 0.772166
O O7 0.909383 0.768972 0.607290
O O8 0.661144 0.000000 0.681362
O O9 0.685463 0.240435 0.538830
O O10 0.878559 0.000000 0.434709
O O11 0.789920 0.246541 0.960049
O O12 0.900464 0.230147 0.835189
O O13 0.724460 0.000000 0.937060
O O14 0.500000 0.241611 0.000000
O O15 0.108149 0.764366 0.904917
O O16 0.870139 0.000000 0.974984
O O17 0.725559 0.765075 0.071067
O O18 0.300484 0.209400 0.707911
O O19 0.591242 0.000000 0.615223
O O20 0.707908 0.000000 0.128650
O O21 0.884909 0.000000 0.275044
#
# Coordination Sequence:
#
# PCOD8060120 Si02
#       8
#     4   4   4   4   4   4   4   4
#     4  11  23  38  54  71  97 132 171 215 256 298
#     4   9  16  25  41  70 102 128 159 198 245 293
#     4  10  19  31  50  74 100 130 163 205 250 297
#     4   9  17  27  41  67 102 132 160 200 247 291
#     4   8  13  22  35  53  86 128 162 190 231 285
#     4   9  16  27  45  70 101 131 163 202 245 295
#     4   8  13  21  35  56  86 126 161 190 229 286
#     4  10  19  32  54  78 100 133 172 210 251 295
#
# _framework density 18.906572000000001
#
# number of rings (size 3 to 8) (size 9 to 14) (size 15 to 20)
#    0.000    2.750    1.250    2.250    0.000    6.000 
#    0.000    3.750    0.000    2.625    0.000    0.000 
#    0.000    0.000    0.000    6.500    0.000    6.250 
#
# Total GULP energy -396667.449485 kJ/mol
# GULP energy per Si atom -12395.857796 kJ/mol
# Density = 1.886354 g / cm^3
# Si number density = 18.906572 Si / 1000 Ang^3
#
#
#
# Elastic Constant Matrix: (Units=GPa)
#
#
# Indices 1 2 3 4 5 6 
#
# 1 136.5794 23.8175 67.2926 0.0000 8.8377 0.0000
# 2 23.8175 18.0228 19.4288 0.0000 0.4113 0.0000
# 3 67.2926 19.4288 143.1540 0.0000 0.3840 0.0000
# 4 0.0000 0.0000 0.0000 7.0277 0.0000 -1.5433
# 5 8.8377 0.4113 0.3840 0.0000 31.2946 0.0000
# 6 0.0000 0.0000 0.0000 -1.5433 0.0000 0.3614
#
#
#
# Elastic Compliance Matrix: (Units=1/GPa)
#
#
# Indices 1 2 3 4 5 6 
#
# 1 0.011271 -0.010687 -0.003840 0.000000 -0.002995 0.000000
# 2 -0.010687 0.075146 -0.005181 0.000000 0.002094 0.000000
# 3 -0.003840 -0.005181 0.009491 0.000000 0.001036 0.000000
# 4 0.000000 0.000000 0.000000 2.288811 0.000000 9.774785
# 5 -0.002995 0.002094 0.001036 0.000000 0.032760 0.000000
# 6 0.000000 0.000000 0.000000 9.774785 0.000000 44.512306
#
#
# Mechanical properties :
#
#
# Convention : Reuss Voigt Hill
#
# Bulk Modulus (GPa) = 17.70151 57.64824 37.67487
# Shear Modulus (GPa) = 0.10641 20.21788 10.16214
#
# Velocity S-wave (km/s) = 0.23750 3.27365 2.32090
# Velocity P-wave (km/s) = 3.07541 6.69674 5.21078
#
# Compressibility (1/GPa) = 0.05649237
#
# Stress axis : x y z
#
# Youngs Moduli (GPa) = 88.72229 13.30746 105.36572
#
# Poissons Ratio (x) = 0.14222 0.40457
# Poissons Ratio (y) = 0.94821 0.54585
# Poissons Ratio (z) = 0.34067 0.06894
#
# Static dielectric constant tensor:
#      x y z
#    x 3.688610 0.000000 0.036880 
#    y 0.000000 2.704900 0.000000 
#    z 0.036880 0.000000 3.724450 
# 
# 
# High freq. dielectric constant tensor:
#      x y z
#    x 1.746370 0.000000 0.005760 
#    y 0.000000 1.652320 0.000000 
#    z 0.005760 0.000000 1.745400 
# 
# From -- ./inp_files/49969.got.cif
#   From: 2010.06.25/outbox.cif.g09.slc.cpg/sg10_25_cif.got.tgz:49969.got - 2010.06.27 22:07:45.
