data_PCOD8060715
_publ_section_title
;
Structure prediction by ZEFSAII (Michael W. Deem and Ramdas Pophale) SiO2 
 PCOD8060715
Probable space group: P 2/M
;
_chemical_formula_sum "Si O2"
_cell_formula_units_Z 28
_cell_length_a 14.462552
_cell_length_b 9.407757
_cell_length_c 20.527564
_cell_angle_alpha 90.000000
_cell_angle_beta 32.126273
_cell_angle_gamma 90.000000
_cell_volume 1485.272475
_symmetry_space_group_name_H-M "P 2/M"
_symmetry_group_IT_number 10
_symmetry_cell_setting 'monoclinic'
loop_
_space_group_symop_operation_xyz
x,y,z
-x,y,-z
-x,-y,-z
x,-y,z
loop_
_atom_site_type_symbol
_atom_site_label
_atom_site_fract_x
_atom_site_fract_y
_atom_site_fract_z
Si Si1 0.318011 0.836772 0.270029
Si Si2 0.702031 0.166788 0.075853
Si Si3 0.323231 0.667191 0.640129
Si Si4 0.778197 0.334942 0.552728
Si Si5 0.614479 0.336542 0.249608
Si Si6 0.062394 0.161128 0.311590
Si Si7 0.010076 0.835954 0.196768
O O1 0.519985 0.791855 0.149994
O O2 0.207571 0.741558 0.385974
O O3 0.241586 0.810505 0.243624
O O4 0.297148 0.000000 0.304427
O O5 0.721049 0.244019 0.133907
O O6 0.714789 0.000000 0.080845
O O7 0.855616 0.220845 0.937507
O O8 0.500000 0.717613 0.500000
O O9 0.297076 0.500000 0.646043
O O10 0.326585 0.710010 0.713880
O O11 0.165462 0.746455 0.699826
O O12 0.818990 0.500000 0.538424
O O13 0.590205 0.308304 0.633698
O O14 0.914920 0.269739 0.421403
O O15 0.658890 0.500000 0.209327
O O16 0.101471 0.184876 0.212223
O O17 0.997071 0.000000 0.363453
O O18 0.963680 0.000000 0.211843
#
# Coordination Sequence:
#
# PCOD8060715 Si02
#       7
#     4   4   4   4   4   4   4
#     4   9  18  33  53  75 102 138 174 209 252 304
#     4   9  19  36  55  76 103 135 173 213 253 299
#     4  10  21  38  58  79 104 135 170 207 253 310
#     4  10  19  32  52  78 106 134 169 214 259 304
#     4   9  19  35  55  77 102 135 172 210 254 305
#     4  10  20  33  50  74 105 139 173 210 255 305
#     4  10  22  37  53  77 106 135 171 215 257 299
#
# _framework density 18.851761
#
# number of rings (size 3 to 8) (size 9 to 14) (size 15 to 20)
#    0.000    2.429    0.000    1.714    0.000    7.143 
#    0.000    5.714    0.000    0.000    0.000    6.000 
#    0.000    0.000    0.000    0.000    0.000    0.000 
#
# Total GULP energy -347285.201267 kJ/mol
# GULP energy per Si atom -12403.042902 kJ/mol
# Density = 1.880885 g / cm^3
# Si number density = 18.851761 Si / 1000 Ang^3
#
#
#
# Elastic Constant Matrix: (Units=GPa)
#
#
# Indices 1 2 3 4 5 6 
#
# 1 102.6319 32.5808 33.0138 0.0000 12.4274 0.0000
# 2 32.5808 58.4467 40.7199 0.0000 5.2249 0.0000
# 3 33.0138 40.7199 111.5709 0.0000 13.0881 0.0000
# 4 0.0000 0.0000 0.0000 24.6525 0.0000 -0.4354
# 5 12.4274 5.2249 13.0881 0.0000 22.4711 0.0000
# 6 0.0000 0.0000 0.0000 -0.4354 0.0000 25.0481
#
#
#
# Elastic Compliance Matrix: (Units=1/GPa)
#
#
# Indices 1 2 3 4 5 6 
#
# 1 0.012521 -0.005847 -0.000986 0.000000 -0.004991 0.000000
# 2 -0.005847 0.025679 -0.007858 0.000000 0.001840 0.000000
# 3 -0.000986 -0.007858 0.012713 0.000000 -0.005032 0.000000
# 4 0.000000 0.000000 0.000000 0.040576 0.000000 0.000705
# 5 -0.004991 0.001840 -0.005032 0.000000 0.049765 0.000000
# 6 0.000000 0.000000 0.000000 0.000705 0.000000 0.039935
#
#
# Mechanical properties :
#
#
# Convention : Reuss Voigt Hill
#
# Bulk Modulus (GPa) = 46.44183 53.91983 50.18083
# Shear Modulus (GPa) = 22.96238 25.52336 24.24287
#
# Velocity S-wave (km/s) = 3.49384 3.68353 3.58994
# Velocity P-wave (km/s) = 6.40037 6.83778 6.62269
#
# Compressibility (1/GPa) = 0.02153231
#
# Stress axis : x y z
#
# Youngs Moduli (GPa) = 79.86528 38.94232 78.66169
#
# Poissons Ratio (x) = 0.22770 0.07752
# Poissons Ratio (y) = 0.46697 0.61810
# Poissons Ratio (z) = 0.07871 0.30600
#
# Static dielectric constant tensor:
#      x y z
#    x 3.540920 0.000000 0.055470 
#    y 0.000000 3.409230 0.000000 
#    z 0.055470 0.000000 3.381220 
# 
# 
# High freq. dielectric constant tensor:
#      x y z
#    x 1.739710 0.000000 0.003290 
#    y 0.000000 1.726250 0.000000 
#    z 0.003290 0.000000 1.724620 
# 
# From -- ./inp_files/49339.got.cif
#   From: 2010.06.25/outbox.cif.g09.slc.cpg/sg10_25_cif.got.tgz:49339.got - 2010.06.27 22:07:45.
