data_PCOD8060959
_publ_section_title
;
Structure prediction by ZEFSAII (Michael W. Deem and Ramdas Pophale) SiO2 
 PCOD8060959
Probable space group: P 2/M
;
_chemical_formula_sum "Si O2"
_cell_formula_units_Z 32
_cell_length_a 12.103202
_cell_length_b 8.794864
_cell_length_c 20.602563
_cell_angle_alpha 90.000000
_cell_angle_beta 127.429571
_cell_angle_gamma 90.000000
_cell_volume 1741.511818
_symmetry_space_group_name_H-M "P 2/M"
_symmetry_group_IT_number 10
_symmetry_cell_setting 'monoclinic'
loop_
_space_group_symop_operation_xyz
x,y,z
-x,y,-z
-x,-y,-z
x,-y,z
loop_
_atom_site_type_symbol
_atom_site_label
_atom_site_fract_x
_atom_site_fract_y
_atom_site_fract_z
Si Si1 0.050865 0.678826 0.200026
Si Si2 0.058408 0.825475 0.711946
Si Si3 0.343730 0.320968 0.260262
Si Si4 0.906847 0.179106 0.526310
Si Si5 0.363908 0.319610 0.121542
Si Si6 0.646385 0.824016 0.238857
Si Si7 0.648423 0.319909 0.378042
Si Si8 0.904532 0.179653 0.025593
O O1 0.037652 0.500000 0.181382
O O2 0.212622 0.733996 0.255966
O O3 0.990522 0.716347 0.248419
O O4 0.968689 0.769795 0.116211
O O5 0.223032 0.804377 0.762165
O O6 0.978661 0.772857 0.618791
O O7 0.022331 0.000000 0.715732
O O8 0.344875 0.500000 0.256334
O O9 0.328492 0.259971 0.181327
O O10 0.491828 0.267092 0.342877
O O11 0.755065 0.255788 0.469215
O O12 0.000000 0.240355 0.500000
O O13 0.887963 0.000000 0.513815
O O14 0.368145 0.500000 0.117189
O O15 0.515191 0.253955 0.156526
O O16 0.247676 0.254053 0.032282
O O17 0.684351 0.745238 0.320236
O O18 0.615011 0.000000 0.241427
O O19 0.660284 0.500000 0.378854
O O20 0.888713 0.000000 0.018410
O O21 0.000000 0.237948 0.000000
#
# Coordination Sequence:
#
# PCOD8060959 Si02
#       8
#     4   4   4   4   4   4   4   4
#     4  11  22  38  59  81 112 152 189 227 281 338
#     4  10  22  39  57  79 114 151 186 231 282 339
#     4   8  17  33  52  78 112 146 177 221 280 328
#     4  10  19  36  57  80 110 148 188 230 284 336
#     4  10  19  34  57  85 115 143 183 235 280 325
#     4  10  19  35  56  80 113 151 185 225 284 338
#     4  10  19  32  54  85 113 140 184 236 280 327
#     4  11  22  36  57  87 116 146 189 232 274 331
#
# _framework density 18.374838
#
# number of rings (size 3 to 8) (size 9 to 14) (size 15 to 20)
#    0.000    2.000    2.500    2.625    0.000    2.250 
#    0.000    3.125    0.000    7.500    0.000    0.000 
#    0.000    0.000    0.000    0.000    0.000    0.000 
#
# Total GULP energy -396809.864792 kJ/mol
# GULP energy per Si atom -12400.308275 kJ/mol
# Density = 1.833302 g / cm^3
# Si number density = 18.374838 Si / 1000 Ang^3
#
#
#
# Elastic Constant Matrix: (Units=GPa)
#
#
# Indices 1 2 3 4 5 6 
#
# 1 99.7693 29.9490 59.6544 0.0000 14.6104 0.0000
# 2 29.9490 56.3572 38.1981 0.0000 10.2162 0.0000
# 3 59.6544 38.1981 115.9690 0.0000 21.1461 0.0000
# 4 0.0000 0.0000 0.0000 32.0205 0.0000 3.9493
# 5 14.6104 10.2162 21.1461 0.0000 31.9123 0.0000
# 6 0.0000 0.0000 0.0000 3.9493 0.0000 26.3499
#
#
#
# Elastic Compliance Matrix: (Units=1/GPa)
#
#
# Indices 1 2 3 4 5 6 
#
# 1 0.015073 -0.003427 -0.006332 0.000000 -0.001608 0.000000
# 2 -0.003427 0.023821 -0.005663 0.000000 -0.002304 0.000000
# 3 -0.006332 -0.005663 0.014657 0.000000 -0.005001 0.000000
# 4 0.000000 0.000000 0.000000 0.031818 0.000000 -0.004769
# 5 -0.001608 -0.002304 -0.005001 0.000000 0.036123 0.000000
# 6 0.000000 0.000000 0.000000 -0.004769 0.000000 0.038666
#
#
# Mechanical properties :
#
#
# Convention : Reuss Voigt Hill
#
# Bulk Modulus (GPa) = 44.03764 58.63316 51.33540
# Shear Modulus (GPa) = 25.17979 27.67614 26.42797
#
# Velocity S-wave (km/s) = 3.70583 3.88519 3.79657
# Velocity P-wave (km/s) = 6.50609 7.21838 6.87147
#
# Compressibility (1/GPa) = 0.02270785
#
# Stress axis : x y z
#
# Youngs Moduli (GPa) = 66.34294 41.97913 68.22624
#
# Poissons Ratio (x) = 0.14387 0.43198
# Poissons Ratio (y) = 0.22737 0.38638
# Poissons Ratio (z) = 0.42005 0.23774
#
# Static dielectric constant tensor:
#      x y z
#    x 3.494920 0.000000 0.324640 
#    y 0.000000 3.301910 0.000000 
#    z 0.324640 0.000000 3.388190 
# 
# 
# High freq. dielectric constant tensor:
#      x y z
#    x 1.701910 0.000000 0.026700 
#    y 0.000000 1.711110 0.000000 
#    z 0.026700 0.000000 1.708960 
# 
# From -- ./inp_files/49833.got.cif
#   From: 2010.06.25/outbox.cif.g09.slc.cpg/sg10_25_cif.got.tgz:49833.got - 2010.06.27 22:07:45.
