data_PCOD8060401
_publ_section_title
;
Structure prediction by ZEFSAII (Michael W. Deem and Ramdas Pophale) SiO2 
 PCOD8060401
Probable space group: P 2/M
;
_chemical_formula_sum "Si O2"
_cell_formula_units_Z 28
_cell_length_a 15.134162
_cell_length_b 12.720285
_cell_length_c 14.202979
_cell_angle_alpha 90.000000
_cell_angle_beta 40.183556
_cell_angle_gamma 90.000000
_cell_volume 1764.228789
_symmetry_space_group_name_H-M "P 2/M"
_symmetry_group_IT_number 10
_symmetry_cell_setting 'monoclinic'
loop_
_space_group_symop_operation_xyz
x,y,z
-x,y,-z
-x,-y,-z
x,-y,z
loop_
_atom_site_type_symbol
_atom_site_label
_atom_site_fract_x
_atom_site_fract_y
_atom_site_fract_z
Si Si1 0.900841 0.803843 0.392019
Si Si2 0.860329 0.881865 0.230697
Si Si3 0.656482 0.379437 0.887306
Si Si4 0.136004 0.620318 0.445199
Si Si5 0.860948 0.000000 0.554692
Si Si6 0.777216 0.196720 0.902116
Si Si7 0.659847 0.000000 0.887931
Si Si8 0.818035 0.881759 0.062928
O O1 0.827916 0.811845 0.348962
O O2 0.852393 0.692391 0.472377
O O3 0.849499 0.896957 0.500252
O O4 0.063681 0.812372 0.251831
O O5 0.789158 0.837166 0.192507
O O6 0.807125 0.000000 0.292642
O O7 0.021338 0.885208 0.084661
O O8 0.672715 0.500000 0.906504
O O9 0.733187 0.359475 0.726639
O O10 0.720587 0.309408 0.917305
O O11 0.500000 0.347552 0.000000
O O12 0.126951 0.500000 0.486562
O O13 0.000000 0.653484 0.500000
O O14 0.732667 0.000000 0.728134
O O15 0.000000 0.000000 0.500000
O O16 0.699282 0.103626 0.913165
O O17 0.749611 0.189042 0.037156
O O18 0.500000 0.000000 0.000000
O O19 0.759368 0.000000 0.102642
#
# Coordination Sequence:
#
# PCOD8060401 Si02
#       8
#     4   4   4   4   2   4   2   4
#     4  11  18  28  48  72  95 122 155 193 232 280
#     4   8  14  25  41  68  95 120 152 191 229 271
#     4  10  21  35  49  67  93 126 163 195 224 272
#     4  10  19  32  48  68  92 124 159 190 230 279
#     4  12  20  30  45  67  95 125 156 188 234 274
#     4  11  18  30  48  69  94 127 155 190 236 277
#     4  12  24  32  41  67 101 127 154 190 232 279
#     4   8  14  25  43  65  95 122 153 188 228 279
#
# _framework density 15.870958
#
# number of rings (size 3 to 8) (size 9 to 14) (size 15 to 20)
#    0.000    2.000    4.286    2.571    0.000    0.000 
#    0.000    0.000    0.000    0.857    0.000    9.000 
#    0.000    3.429    0.000    0.000    0.000    0.000 
#
# Total GULP energy -347084.653633 kJ/mol
# GULP energy per Si atom -12395.880487 kJ/mol
# Density = 1.583484 g / cm^3
# Si number density = 15.870958 Si / 1000 Ang^3
#
#
#
# Elastic Constant Matrix: (Units=GPa)
#
#
# Indices 1 2 3 4 5 6 
#
# 1 104.3874 56.1761 56.8097 0.0000 33.2572 0.0000
# 2 56.1761 84.7083 32.2575 0.0000 24.0726 0.0000
# 3 56.8097 32.2575 82.2222 0.0000 10.7488 0.0000
# 4 0.0000 0.0000 0.0000 25.0222 0.0000 -2.3674
# 5 33.2572 24.0726 10.7488 0.0000 32.7336 0.0000
# 6 0.0000 0.0000 0.0000 -2.3674 0.0000 26.0696
#
#
#
# Elastic Compliance Matrix: (Units=1/GPa)
#
#
# Indices 1 2 3 4 5 6 
#
# 1 0.025854 -0.007616 -0.012720 0.000000 -0.016490 0.000000
# 2 -0.007616 0.019059 -0.001457 0.000000 -0.005800 0.000000
# 3 -0.012720 -0.001457 0.020576 0.000000 0.007238 0.000000
# 4 0.000000 0.000000 0.000000 0.040311 0.000000 0.003661
# 5 -0.016490 -0.005800 0.007238 0.000000 0.049192 0.000000
# 6 0.000000 0.000000 0.000000 0.003661 0.000000 0.038691
#
#
# Mechanical properties :
#
#
# Convention : Reuss Voigt Hill
#
# Bulk Modulus (GPa) = 45.65394 62.42271 54.03832
# Shear Modulus (GPa) = 20.44403 25.17005 22.80704
#
# Velocity S-wave (km/s) = 3.59296 3.98668 3.79493
# Velocity P-wave (km/s) = 6.78533 7.78513 7.30236
#
# Compressibility (1/GPa) = 0.02190391
#
# Stress axis : x y z
#
# Youngs Moduli (GPa) = 38.67841 52.46904 48.60014
#
# Poissons Ratio (x) = 0.39959 0.61819
# Poissons Ratio (y) = 0.29456 0.07081
# Poissons Ratio (z) = 0.49198 0.07645
#
# Static dielectric constant tensor:
#      x y z
#    x 3.207130 0.000000 0.333120 
#    y 0.000000 2.998590 0.000000 
#    z 0.333120 0.000000 3.027280 
# 
# 
# High freq. dielectric constant tensor:
#      x y z
#    x 1.596060 0.000000 0.019290 
#    y 0.000000 1.598570 0.000000 
#    z 0.019290 0.000000 1.594030 
# 
# From -- ./inp_files/27972.got.cif
#   From: 2010.06.25/outbox.cif.g09.slc.cpg/sg10_14_cif.got.tgz:27972.got - 2010.06.27 22:07:45.
