data_PCOD8060093
_publ_section_title
;
Structure prediction by ZEFSAII (Michael W. Deem and Ramdas Pophale) SiO2 
 PCOD8060093
Probable space group: P 2/M
;
_chemical_formula_sum "Si O2"
_cell_formula_units_Z 32
_cell_length_a 12.097068
_cell_length_b 9.053091
_cell_length_c 19.904593
_cell_angle_alpha 90.000000
_cell_angle_beta 56.833721
_cell_angle_gamma 90.000000
_cell_volume 1824.738405
_symmetry_space_group_name_H-M "P 2/M"
_symmetry_group_IT_number 10
_symmetry_cell_setting 'monoclinic'
loop_
_space_group_symop_operation_xyz
x,y,z
-x,y,-z
-x,-y,-z
x,-y,z
loop_
_atom_site_type_symbol
_atom_site_label
_atom_site_fract_x
_atom_site_fract_y
_atom_site_fract_z
Si Si1 0.403059 0.325418 0.935769
Si Si2 0.314716 0.674731 0.106194
Si Si3 0.421585 0.826830 0.796356
Si Si4 0.388154 0.670151 0.672953
Si Si5 0.351116 0.172263 0.452956
Si Si6 0.722242 0.830965 0.670697
Si Si7 0.892264 0.674634 0.719613
Si Si8 0.807829 0.330221 0.379942
O O1 0.398300 0.500000 0.923838
O O2 0.550165 0.269376 0.904832
O O3 0.354811 0.240432 0.885285
O O4 0.308195 0.278808 0.029725
O O5 0.316952 0.500000 0.108544
O O6 0.190614 0.738946 0.189207
O O7 0.355851 0.752126 0.753238
O O8 0.576930 0.789226 0.745467
O O9 0.394461 0.000000 0.801356
O O10 0.422033 0.500000 0.676352
O O11 0.510877 0.741526 0.592846
O O12 0.258992 0.686763 0.670228
O O13 0.270740 0.201047 0.411069
O O14 0.262897 0.226795 0.543145
O O15 0.384193 0.000000 0.450163
O O16 0.831859 0.732098 0.670054
O O17 0.754950 0.000000 0.675977
O O18 0.882262 0.500000 0.721816
O O19 0.042500 0.726860 0.677040
O O20 0.801508 0.500000 0.406807
#
# Coordination Sequence:
#
# PCOD8060093 Si02
#       8
#     4   4   4   4   4   4   4   4
#     4   9  15  27  49  76 102 130 165 201 245 293
#     4   8  15  27  47  75 103 130 164 202 240 291
#     4  10  19  31  49  76 105 130 163 206 249 296
#     4  10  20  35  54  74  98 127 164 212 254 289
#     4  10  21  36  54  75 100 128 163 208 253 295
#     4   9  19  33  47  70 101 130 161 198 244 296
#     4  10  19  33  52  72 100 135 167 201 242 295
#     4  10  22  36  51  74  99 128 169 209 247 293
#
# _framework density 17.536760999999998
#
# number of rings (size 3 to 8) (size 9 to 14) (size 15 to 20)
#    0.000    2.500    1.250    3.000    0.000    6.000 
#    0.000    4.375    0.000    0.750    0.000    5.250 
#    0.000    0.000    0.000    0.000    0.000    0.000 
#
# Total GULP energy -396776.946871 kJ/mol
# GULP energy per Si atom -12399.279590 kJ/mol
# Density = 1.749685 g / cm^3
# Si number density = 17.536761 Si / 1000 Ang^3
#
#
#
# Elastic Constant Matrix: (Units=GPa)
#
#
# Indices 1 2 3 4 5 6 
#
# 1 85.8625 33.3768 32.3341 0.0000 8.4241 0.0000
# 2 33.3768 64.1209 24.3791 0.0000 11.7466 0.0000
# 3 32.3341 24.3791 64.7739 0.0000 23.3100 0.0000
# 4 0.0000 0.0000 0.0000 19.0409 0.0000 2.0183
# 5 8.4241 11.7466 23.3100 0.0000 23.8232 0.0000
# 6 0.0000 0.0000 0.0000 2.0183 0.0000 13.2028
#
#
#
# Elastic Compliance Matrix: (Units=1/GPa)
#
#
# Indices 1 2 3 4 5 6 
#
# 1 0.016586 -0.006658 -0.007477 0.000000 0.004734 0.000000
# 2 -0.006658 0.021064 -0.002646 0.000000 -0.005443 0.000000
# 3 -0.007477 -0.002646 0.028934 0.000000 -0.024362 0.000000
# 4 0.000000 0.000000 0.000000 0.053383 0.000000 -0.008161
# 5 0.004734 -0.005443 -0.024362 0.000000 0.066823 0.000000
# 6 0.000000 0.000000 0.000000 -0.008161 0.000000 0.076989
#
#
# Mechanical properties :
#
#
# Convention : Reuss Voigt Hill
#
# Bulk Modulus (GPa) = 30.28248 43.88190 37.08219
# Shear Modulus (GPa) = 16.21544 19.52454 17.86999
#
# Velocity S-wave (km/s) = 3.04411 3.34031 3.19564
# Velocity P-wave (km/s) = 5.44619 6.32092 5.89979
#
# Compressibility (1/GPa) = 0.03302239
#
# Stress axis : x y z
#
# Youngs Moduli (GPa) = 60.29225 47.47393 34.56184
#
# Poissons Ratio (x) = 0.31607 0.25843
# Poissons Ratio (y) = 0.40141 0.09144
# Poissons Ratio (z) = 0.45082 0.12560
#
# Static dielectric constant tensor:
#      x y z
#    x 3.129930 0.000000 0.095230 
#    y 0.000000 3.139090 0.000000 
#    z 0.095230 0.000000 3.453910 
# 
# 
# High freq. dielectric constant tensor:
#      x y z
#    x 1.658530 0.000000 0.021080 
#    y 0.000000 1.669550 0.000000 
#    z 0.021080 0.000000 1.675960 
# 
# From -- ./inp_files/52790.got.cif
#   From: 2010.06.25/outbox.cif.g09.slc.cpg/sg10_27_cif.got.tgz:52790.got - 2010.06.27 22:07:45.
