data_PCOD8060642
_publ_section_title
;
Structure prediction by ZEFSAII (Michael W. Deem and Ramdas Pophale) SiO2 
 PCOD8060642
Probable space group: P 2/M
;
_chemical_formula_sum "Si O2"
_cell_formula_units_Z 32
_cell_length_a 19.667253
_cell_length_b 9.395262
_cell_length_c 25.190968
_cell_angle_alpha 90.000000
_cell_angle_beta 157.544693
_cell_angle_gamma 90.000000
_cell_volume 1777.945145
_symmetry_space_group_name_H-M "P 2/M"
_symmetry_group_IT_number 10
_symmetry_cell_setting 'monoclinic'
loop_
_space_group_symop_operation_xyz
x,y,z
-x,y,-z
-x,-y,-z
x,-y,z
loop_
_atom_site_type_symbol
_atom_site_label
_atom_site_fract_x
_atom_site_fract_y
_atom_site_fract_z
Si Si1 0.060704 0.660262 0.198076
Si Si2 0.846875 0.166330 0.426289
Si Si3 0.907445 0.833887 0.183448
Si Si4 0.313867 0.659644 0.123793
Si Si5 0.452178 0.836387 0.128523
Si Si6 0.480317 0.167200 0.330188
Si Si7 0.149790 0.167891 0.452031
Si Si8 0.347689 0.844154 0.348285
O O1 0.115670 0.500000 0.254262
O O2 0.210528 0.728258 0.269651
O O3 0.023986 0.749884 0.224583
O O4 0.891073 0.657635 0.038323
O O5 0.656979 0.191482 0.259260
O O6 0.856444 0.233858 0.492831
O O7 0.000000 0.236863 0.500000
O O8 0.885553 0.000000 0.459960
O O9 0.974487 0.788923 0.290770
O O10 0.946642 0.000000 0.201927
O O11 0.694736 0.800827 0.023342
O O12 0.388420 0.500000 0.184276
O O13 0.427264 0.736812 0.160641
O O14 0.331633 0.747990 0.190371
O O15 0.428612 0.000000 0.129701
O O16 0.675537 0.222191 0.453218
O O17 0.444427 0.208982 0.364829
O O18 0.459275 0.000000 0.304491
O O19 0.161376 0.000000 0.465754
O O20 0.500000 0.863340 0.500000
O O21 0.255686 0.000000 0.273269
#
# Coordination Sequence:
#
# PCOD8060642 Si02
#       8
#     4   4   4   4   4   4   4   4
#     4  10  21  35  50  71 102 134 165 207 258 303
#     4   9  16  27  48  77 106 134 162 200 252 302
#     4   9  17  30  52  75  97 132 174 213 247 288
#     4  10  20  33  50  73  99 130 166 206 253 297
#     4   9  16  30  51  74  99 131 171 205 243 299
#     4  10  19  32  52  73  95 128 169 208 248 296
#     4   9  16  29  49  74 102 129 163 208 252 293
#     4  10  21  36  53  72  96 130 171 211 252 300
#
# _framework density 17.998304999999998
#
# number of rings (size 3 to 8) (size 9 to 14) (size 15 to 20)
#    0.000    2.500    1.250    1.500    0.000    4.750 
#    0.000    5.000    0.000    4.125    0.000    0.000 
#    0.000    4.000    0.000    0.000    0.000    0.000 
#
# Total GULP energy -396594.133728 kJ/mol
# GULP energy per Si atom -12393.566679 kJ/mol
# Density = 1.795734 g / cm^3
# Si number density = 17.998305 Si / 1000 Ang^3
#
#
#
# Elastic Constant Matrix: (Units=GPa)
#
#
# Indices 1 2 3 4 5 6 
#
# 1 112.6663 27.8208 64.6106 0.0000 5.9770 0.0000
# 2 27.8208 55.9444 29.9637 0.0000 4.9004 0.0000
# 3 64.6106 29.9637 90.7794 0.0000 1.4192 0.0000
# 4 0.0000 0.0000 0.0000 15.8173 0.0000 1.2243
# 5 5.9770 4.9004 1.4192 0.0000 31.7720 0.0000
# 6 0.0000 0.0000 0.0000 1.2243 0.0000 8.3694
#
#
#
# Elastic Compliance Matrix: (Units=1/GPa)
#
#
# Indices 1 2 3 4 5 6 
#
# 1 0.015346 -0.001959 -0.010242 0.000000 -0.002127 0.000000
# 2 -0.001959 0.022259 -0.005909 0.000000 -0.002801 0.000000
# 3 -0.010242 -0.005909 0.020226 0.000000 0.001935 0.000000
# 4 0.000000 0.000000 0.000000 0.063946 0.000000 -0.009354
# 5 -0.002127 -0.002801 0.001935 0.000000 0.032220 0.000000
# 6 0.000000 0.000000 0.000000 -0.009354 0.000000 0.120852
#
#
# Mechanical properties :
#
#
# Convention : Reuss Voigt Hill
#
# Bulk Modulus (GPa) = 46.27499 56.02005 51.14752
# Shear Modulus (GPa) = 15.70977 20.32472 18.01724
#
# Velocity S-wave (km/s) = 2.95760 3.36409 3.16737
# Velocity P-wave (km/s) = 6.11799 6.80310 6.46962
#
# Compressibility (1/GPa) = 0.02160994
#
# Stress axis : x y z
#
# Youngs Moduli (GPa) = 65.16307 44.92490 49.44231
#
# Poissons Ratio (x) = 0.08803 0.50640
# Poissons Ratio (y) = 0.12768 0.29215
# Poissons Ratio (z) = 0.66742 0.26545
#
# Static dielectric constant tensor:
#      x y z
#    x 3.334130 0.000000 -0.168440 
#    y 0.000000 3.299020 0.000000 
#    z -0.168440 0.000000 3.359090 
# 
# 
# High freq. dielectric constant tensor:
#      x y z
#    x 1.678970 0.000000 -0.007810 
#    y 0.000000 1.668350 0.000000 
#    z -0.007810 0.000000 1.705260 
# 
# From -- ./inp_files/93703.got.cif
#   From: 2010.06.25/outbox.cif.g09.slc.cpg/sg10_47_cif.got.tgz:93703.got - 2010.06.27 22:07:45.
