data_PCOD8060009
_publ_section_title
;
Structure prediction by ZEFSAII (Michael W. Deem and Ramdas Pophale) SiO2 
 PCOD8060009
Probable space group: P 2/M
;
_chemical_formula_sum "Si O2"
_cell_formula_units_Z 28
_cell_length_a 9.150105
_cell_length_b 18.070048
_cell_length_c 16.511005
_cell_angle_alpha 90.000000
_cell_angle_beta 33.770254
_cell_angle_gamma 90.000000
_cell_volume 1517.495935
_symmetry_space_group_name_H-M "P 2/M"
_symmetry_group_IT_number 10
_symmetry_cell_setting 'monoclinic'
loop_
_space_group_symop_operation_xyz
x,y,z
-x,y,-z
-x,-y,-z
x,-y,z
loop_
_atom_site_type_symbol
_atom_site_label
_atom_site_fract_x
_atom_site_fract_y
_atom_site_fract_z
Si Si1 0.691631 0.858501 0.154713
Si Si2 0.581509 0.000000 0.663529
Si Si3 0.416343 0.718519 0.338012
Si Si4 0.072095 0.000000 0.336471
Si Si5 0.655769 0.141499 0.845287
Si Si6 0.355995 0.416701 0.148609
Si Si7 0.930378 0.718519 0.661988
Si Si8 0.698179 0.583299 0.148609
O O1 0.625047 0.784899 0.236425
O O2 0.551241 0.858645 0.132506
O O3 0.600776 0.927622 0.251021
O O4 0.000000 0.863292 0.000000
O O5 0.770345 0.000000 0.653103
O O6 0.760533 0.000000 0.500000
O O7 0.228415 0.722192 0.347723
O O8 0.566102 0.639896 0.272500
O O9 0.240566 0.726267 0.500000
O O10 0.146161 0.072379 0.251021
O O11 0.834322 0.215101 0.763575
O O12 0.500000 0.136708 0.000000
O O13 0.240168 0.500000 0.199074
O O14 0.116397 0.360104 0.272500
O O15 0.570671 0.408301 0.119553
O O16 0.500000 0.395299 0.000000
O O17 0.662612 0.500000 0.199073
O O18 0.000000 0.604701 0.000000
#
# Coordination Sequence:
#
# PCOD8060009 Si02
#       8
#     4   2   4   2   4   4   4   4
#     4  10  19  31  49  70  92 119 150 185 223 264
#     4   9  17  30  49  71  92 117 152 188 220 259
#     4   9  17  29  46  68  91 116 150 189 224 259
#     4   9  17  30  49  71  92 117 152 188 220 259
#     4  10  19  31  49  70  92 119 150 185 223 264
#     4   9  17  29  46  67  90 117 148 183 223 266
#     4   9  17  29  46  68  91 116 150 189 224 259
#     4   9  17  29  46  67  90 117 148 183 223 266
#
# _framework density 18.451449
#
# number of rings (size 3 to 8) (size 9 to 14) (size 15 to 20)
#    0.000    2.714    0.000    2.143    0.000    4.000 
#    0.000    2.857    0.000    6.857    0.000    4.000 
#    0.000    0.000    0.000    0.000    0.000    0.000 
#
# Total GULP energy -347169.162975 kJ/mol
# GULP energy per Si atom -12398.898678 kJ/mol
# Density = 1.840945 g / cm^3
# Si number density = 18.451449 Si / 1000 Ang^3
#
#
#
# Elastic Constant Matrix: (Units=GPa)
#
#
# Indices 1 2 3 4 5 6 
#
# 1 16.5050 20.6756 28.1567 0.0000 -1.9739 0.0000
# 2 20.6756 159.5152 104.3510 0.0000 -2.5826 0.0000
# 3 28.1567 104.3510 191.3129 0.0000 -3.4215 0.0000
# 4 0.0000 0.0000 0.0000 36.7757 0.0000 -0.7815
# 5 -1.9739 -2.5826 -3.4215 0.0000 26.1960 0.0000
# 6 0.0000 0.0000 0.0000 -0.7815 0.0000 11.4570
#
#
#
# Elastic Compliance Matrix: (Units=1/GPa)
#
#
# Indices 1 2 3 4 5 6 
#
# 1 0.083286 -0.004285 -0.009839 0.000000 0.004568 0.000000
# 2 -0.004285 0.009969 -0.004806 0.000000 0.000032 0.000000
# 3 -0.009839 -0.004806 0.009297 0.000000 -0.000001 0.000000
# 4 0.000000 0.000000 0.000000 0.027231 0.000000 0.001857
# 5 0.004568 0.000032 -0.000001 0.000000 0.038521 0.000000
# 6 0.000000 0.000000 0.000000 0.001857 0.000000 0.087409
#
#
# Mechanical properties :
#
#
# Convention : Reuss Voigt Hill
#
# Bulk Modulus (GPa) = 15.45795 74.85553 45.15674
# Shear Modulus (GPa) = 15.86607 29.16240 22.51424
#
# Velocity S-wave (km/s) = 2.93556 3.97986 3.49691
# Velocity P-wave (km/s) = 4.45935 7.85977 6.38991
#
# Compressibility (1/GPa) = 0.06469165
#
# Stress axis : x y z
#
# Youngs Moduli (GPa) = 12.00681 100.30941 107.56464
#
# Poissons Ratio (x) = 0.42981 1.05832
# Poissons Ratio (y) = 0.05145 0.51700
# Poissons Ratio (z) = 0.11813 0.48213
#
# Static dielectric constant tensor:
#      x y z
#    x 2.903780 0.000000 -0.021400 
#    y 0.000000 3.736080 0.000000 
#    z -0.021400 0.000000 3.597180 
# 
# 
# High freq. dielectric constant tensor:
#      x y z
#    x 1.659140 0.000000 -0.002010 
#    y 0.000000 1.736830 0.000000 
#    z -0.002010 0.000000 1.724340 
# 
# From -- ./inp_files/62590.got.cif
#   From: 2010.06.25/outbox.cif.g09.slc.cpg/sg10_32_cif.got.tgz:62590.got - 2010.06.27 22:07:45.
