data_PCOD8060527
_publ_section_title
;
Structure prediction by ZEFSAII (Michael W. Deem and Ramdas Pophale) SiO2 
 PCOD8060527
Probable space group: P 2/M
;
_chemical_formula_sum "Si O2"
_cell_formula_units_Z 32
_cell_length_a 12.312865
_cell_length_b 8.770513
_cell_length_c 30.969024
_cell_angle_alpha 90.000000
_cell_angle_beta 29.305409
_cell_angle_gamma 90.000000
_cell_volume 1636.941193
_symmetry_space_group_name_H-M "P 2/M"
_symmetry_group_IT_number 10
_symmetry_cell_setting 'monoclinic'
loop_
_space_group_symop_operation_xyz
x,y,z
-x,y,-z
-x,-y,-z
x,-y,z
loop_
_atom_site_type_symbol
_atom_site_label
_atom_site_fract_x
_atom_site_fract_y
_atom_site_fract_z
Si Si1 0.978606 0.320213 0.055751
Si Si2 0.649300 0.822725 0.016760
Si Si3 0.806904 0.320253 0.378759
Si Si4 0.362267 0.322991 0.756426
Si Si5 0.590235 0.818060 0.534574
Si Si6 0.001341 0.171048 0.170553
Si Si7 0.755119 0.180190 0.572317
Si Si8 0.829930 0.826129 0.796122
O O1 0.002664 0.500000 0.050041
O O2 0.187786 0.247684 0.005472
O O3 0.746909 0.271962 0.159645
O O4 0.000000 0.258440 0.000000
O O5 0.752028 0.791256 0.933636
O O6 0.624896 0.000000 0.033770
O O7 0.405322 0.752340 0.108444
O O8 0.773284 0.500000 0.395736
O O9 0.642887 0.257837 0.398264
O O10 0.769451 0.237633 0.437462
O O11 0.059567 0.279885 0.278543
O O12 0.420574 0.500000 0.736004
O O13 0.180391 0.290176 0.782609
O O14 0.587988 0.233552 0.668006
O O15 0.670878 0.762686 0.554264
O O16 0.564895 0.000000 0.541779
O O17 0.007119 0.179535 0.219581
O O18 0.931364 0.000000 0.179704
O O19 0.000000 0.243762 0.500000
O O20 0.760204 0.000000 0.570368
O O21 0.809310 0.000000 0.786447
#
# Coordination Sequence:
#
# PCOD8060527 Si02
#       8
#     4   4   4   4   4   4   4   4
#     4   9  19  37  56  74 105 145 181 217 263 318
#     4   9  18  32  51  77 105 134 177 224 262 307
#     4  11  22  35  54  81 111 143 182 224 266 321
#     4  10  20  34  55  82 107 139 181 222 265 317
#     4  10  20  38  61  79 104 141 180 222 275 330
#     4   9  17  31  53  77 105 142 178 217 263 313
#     4  10  22  40  60  83 110 141 178 228 284 331
#     4  10  19  32  50  76 110 143 175 212 265 321
#
# _framework density 19.548656999999999
#
# number of rings (size 3 to 8) (size 9 to 14) (size 15 to 20)
#    0.000    2.250    0.000    3.750    0.000    7.500 
#    2.250    0.000    0.000    3.750    0.000    0.000 
#    0.000    0.000    0.000    0.000    0.000    0.000 
#
# Total GULP energy -396623.281177 kJ/mol
# GULP energy per Si atom -12394.477537 kJ/mol
# Density = 1.950416 g / cm^3
# Si number density = 19.548657 Si / 1000 Ang^3
#
#
#
# Elastic Constant Matrix: (Units=GPa)
#
#
# Indices 1 2 3 4 5 6 
#
# 1 68.5568 14.5203 35.5194 0.0000 15.3067 0.0000
# 2 14.5203 29.8257 18.4156 0.0000 2.8702 0.0000
# 3 35.5194 18.4156 145.8470 0.0000 1.0706 0.0000
# 4 0.0000 0.0000 0.0000 30.1411 0.0000 -5.2307
# 5 15.3067 2.8702 1.0706 0.0000 25.0741 0.0000
# 6 0.0000 0.0000 0.0000 -5.2307 0.0000 44.0439
#
#
#
# Elastic Compliance Matrix: (Units=1/GPa)
#
#
# Indices 1 2 3 4 5 6 
#
# 1 0.020710 -0.006391 -0.004151 0.000000 -0.011734 0.000000
# 2 -0.006391 0.038734 -0.003332 0.000000 -0.000390 0.000000
# 3 -0.004151 -0.003332 0.008269 0.000000 0.002562 0.000000
# 4 0.000000 0.000000 0.000000 0.033876 0.000000 0.004023
# 5 -0.011734 -0.000390 0.002562 0.000000 0.046980 0.000000
# 6 0.000000 0.000000 0.000000 0.004023 0.000000 0.023182
#
#
# Mechanical properties :
#
#
# Convention : Reuss Voigt Hill
#
# Bulk Modulus (GPa) = 25.02015 42.34887 33.68451
# Shear Modulus (GPa) = 23.49404 31.57008 27.53206
#
# Velocity S-wave (km/s) = 3.47049 4.02300 3.75692
# Velocity P-wave (km/s) = 5.37455 6.57949 6.00731
#
# Compressibility (1/GPa) = 0.03996779
#
# Stress axis : x y z
#
# Youngs Moduli (GPa) = 48.28510 25.81718 120.93043
#
# Poissons Ratio (x) = 0.16499 0.50195
# Poissons Ratio (y) = 0.30857 0.40289
# Poissons Ratio (z) = 0.20042 0.08601
#
# Static dielectric constant tensor:
#      x y z
#    x 3.493280 0.000000 0.123100 
#    y 0.000000 3.424590 0.000000 
#    z 0.123100 0.000000 3.866230 
# 
# 
# High freq. dielectric constant tensor:
#      x y z
#    x 1.735390 0.000000 0.008850 
#    y 0.000000 1.748700 0.000000 
#    z 0.008850 0.000000 1.782080 
# 
# From -- ./inp_files/94931.got.cif
#   From: 2010.06.25/outbox.cif.g09.slc.cpg/sg10_48_cif.got.tgz:94931.got - 2010.06.27 22:07:45.
