data_PCOD8060964
_publ_section_title
;
Structure prediction by ZEFSAII (Michael W. Deem and Ramdas Pophale) SiO2 
 PCOD8060964
Probable space group: P 2/M
;
_chemical_formula_sum "Si O2"
_cell_formula_units_Z 24
_cell_length_a 8.823472
_cell_length_b 11.547689
_cell_length_c 25.376250
_cell_angle_alpha 90.000000
_cell_angle_beta 150.209248
_cell_angle_gamma 90.000000
_cell_volume 1284.615765
_symmetry_space_group_name_H-M "P 2/M"
_symmetry_group_IT_number 10
_symmetry_cell_setting 'monoclinic'
loop_
_space_group_symop_operation_xyz
x,y,z
-x,y,-z
-x,-y,-z
x,-y,z
loop_
_atom_site_type_symbol
_atom_site_label
_atom_site_fract_x
_atom_site_fract_y
_atom_site_fract_z
Si Si1 0.097939 0.138241 0.773482
Si Si2 0.248762 0.000000 0.499758
Si Si3 0.181931 0.227700 0.417216
Si Si4 0.305191 0.872243 0.993612
Si Si5 0.571385 0.000000 0.334004
Si Si6 0.813934 0.363819 0.392376
Si Si7 0.228647 0.777444 0.222228
O O1 0.011281 0.190851 0.691543
O O2 0.908168 0.206356 0.760821
O O3 0.041311 0.000000 0.759803
O O4 0.460650 0.165476 0.889722
O O5 0.308699 0.885840 0.484661
O O6 0.483513 0.000000 0.619378
O O7 0.917741 0.000000 0.423544
O O8 0.500000 0.295469 0.500000
O O9 0.964395 0.306175 0.386907
O O10 0.041530 0.775487 0.903509
O O11 0.162297 0.000000 0.962656
O O12 0.500000 0.885860 0.000000
O O13 0.429242 0.113214 0.265688
O O14 0.840636 0.500000 0.393992
O O15 0.453615 0.332899 0.288462
O O16 0.000000 0.320099 0.500000
#
# Coordination Sequence:
#
# PCOD8060964 Si02
#       7
#     4   2   4   4   2   4   4
#     4  10  19  32  54  89 124 146 171 215 279 346
#     4  11  21  30  47  81 118 140 169 219 284 342
#     4  12  23  35  54  83 117 146 174 226 284 335
#     4   8  15  29  51  83 117 149 177 210 267 336
#     4  11  18  28  52  81 109 142 179 221 272 332
#     4  11  25  43  59  76 103 148 201 236 266 316
#     4  11  18  34  59  82 111 146 185 228 269 323
#
# _framework density 18.68263
#
# number of rings (size 3 to 8) (size 9 to 14) (size 15 to 20)
#    0.000    1.500    4.167    4.250    0.000    0.333 
#    0.000    1.667    0.000    9.500    0.000    0.000 
#    0.000    0.000    0.000    0.000    0.000    0.000 
#
# Total GULP energy -297442.684123 kJ/mol
# GULP energy per Si atom -12393.445172 kJ/mol
# Density = 1.864011 g / cm^3
# Si number density = 18.682630 Si / 1000 Ang^3
#
#
#
# Elastic Constant Matrix: (Units=GPa)
#
#
# Indices 1 2 3 4 5 6 
#
# 1 87.3226 32.1022 53.5985 0.0000 0.3891 0.0000
# 2 32.1022 57.2824 32.5737 0.0000 2.8554 0.0000
# 3 53.5985 32.5737 148.8767 0.0000 2.1299 0.0000
# 4 0.0000 0.0000 0.0000 19.5336 0.0000 -2.1537
# 5 0.3891 2.8554 2.1299 0.0000 25.2001 0.0000
# 6 0.0000 0.0000 0.0000 -2.1537 0.0000 10.8755
#
#
#
# Elastic Compliance Matrix: (Units=1/GPa)
#
#
# Indices 1 2 3 4 5 6 
#
# 1 0.016757 -0.006850 -0.004547 0.000000 0.000902 0.000000
# 2 -0.006850 0.022829 -0.002496 0.000000 -0.002270 0.000000
# 3 -0.004547 -0.002496 0.008906 0.000000 -0.000400 0.000000
# 4 0.000000 0.000000 0.000000 0.052336 0.000000 0.010364
# 5 0.000902 -0.002270 -0.000400 0.000000 0.039959 0.000000
# 6 0.000000 0.000000 0.000000 0.010364 0.000000 0.094003
#
#
# Mechanical properties :
#
#
# Convention : Reuss Voigt Hill
#
# Bulk Modulus (GPa) = 48.29746 58.89227 53.59487
# Shear Modulus (GPa) = 18.55432 22.80232 20.67832
#
# Velocity S-wave (km/s) = 3.15482 3.49737 3.33050
# Velocity P-wave (km/s) = 6.25925 6.92096 6.59840
#
# Compressibility (1/GPa) = 0.02070502
#
# Stress axis : x y z
#
# Youngs Moduli (GPa) = 59.67641 43.80382 112.28603
#
# Poissons Ratio (x) = 0.30007 0.51056
# Poissons Ratio (y) = 0.40880 0.28029
# Poissons Ratio (z) = 0.27134 0.10934
#
# Static dielectric constant tensor:
#      x y z
#    x 3.423360 0.000000 0.026610 
#    y 0.000000 3.056240 0.000000 
#    z 0.026610 0.000000 3.979280 
# 
# 
# High freq. dielectric constant tensor:
#      x y z
#    x 1.718490 0.000000 0.009960 
#    y 0.000000 1.675100 0.000000 
#    z 0.009960 0.000000 1.746660 
# 
# From -- ./inp_files/32103.got.cif
#   From: 2010.06.25/outbox.cif.g09.slc.cpg/sg10_17_cif.got.tgz:32103.got - 2010.06.27 22:07:45.
