data_PCOD8060975
_publ_section_title
;
Structure prediction by ZEFSAII (Michael W. Deem and Ramdas Pophale) SiO2 
 PCOD8060975
Probable space group: P 2/M
;
_chemical_formula_sum "Si O2"
_cell_formula_units_Z 28
_cell_length_a 13.826804
_cell_length_b 9.637367
_cell_length_c 16.672991
_cell_angle_alpha 90.000000
_cell_angle_beta 138.653230
_cell_angle_gamma 90.000000
_cell_volume 1467.715741
_symmetry_space_group_name_H-M "P 2/M"
_symmetry_group_IT_number 10
_symmetry_cell_setting 'monoclinic'
loop_
_space_group_symop_operation_xyz
x,y,z
-x,y,-z
-x,-y,-z
x,-y,z
loop_
_atom_site_type_symbol
_atom_site_label
_atom_site_fract_x
_atom_site_fract_y
_atom_site_fract_z
Si Si1 0.399167 0.654951 0.824347
Si Si2 0.944995 0.845543 0.550067
Si Si3 0.261501 0.654458 0.992782
Si Si4 0.683857 0.662299 0.405854
Si Si5 0.437022 0.664742 0.376115
Si Si6 0.165378 0.663127 0.107825
Si Si7 0.774709 0.845053 0.167599
O O1 0.340368 0.500000 0.808287
O O2 0.572270 0.653469 0.931256
O O3 0.345079 0.702752 0.703857
O O4 0.347416 0.761824 0.859040
O O5 0.827128 0.747529 0.519899
O O6 0.000000 0.780842 0.500000
O O7 0.078538 0.854553 0.692296
O O8 0.879436 0.000000 0.494196
O O9 0.193419 0.500000 0.938855
O O10 0.246916 0.699610 0.075884
O O11 0.181452 0.766375 0.887130
O O12 0.714119 0.500000 0.436398
O O13 0.549085 0.710898 0.376634
O O14 0.500000 0.725357 0.500000
O O15 0.429415 0.500000 0.377448
O O16 0.273078 0.719236 0.247202
O O17 0.149856 0.500000 0.110897
O O18 0.000000 0.728245 0.000000
O O19 0.714952 0.000000 0.111888
#
# Coordination Sequence:
#
# PCOD8060975 Si02
#       7
#     4   4   4   4   4   4   4
#     4  10  19  33  53  77 108 143 177 217 265 314
#     4  10  21  37  52  71 105 145 179 218 271 319
#     4  10  20  35  54  78 111 144 178 220 269 319
#     4  10  19  32  55  82 106 138 179 219 262 316
#     4   9  17  31  52  81 114 141 174 225 276 322
#     4   9  17  31  53  80 111 147 180 217 273 333
#     4  11  23  36  52  77 108 142 184 226 265 317
#
# _framework density 19.077264
#
# number of rings (size 3 to 8) (size 9 to 14) (size 15 to 20)
#    0.000    2.143    2.857    0.857    0.000    4.857 
#    0.000    2.857    0.000    0.857    0.000    0.000 
#    0.000    0.000    0.000    0.000    0.000    0.000 
#
# Total GULP energy -347020.588915 kJ/mol
# GULP energy per Si atom -12393.592461 kJ/mol
# Density = 1.903384 g / cm^3
# Si number density = 19.077264 Si / 1000 Ang^3
#
#
#
# Elastic Constant Matrix: (Units=GPa)
#
#
# Indices 1 2 3 4 5 6 
#
# 1 76.9817 33.8274 52.2107 0.0000 0.4512 0.0000
# 2 33.8274 61.2779 32.0382 0.0000 -6.0819 0.0000
# 3 52.2107 32.0382 112.6201 0.0000 -5.4241 0.0000
# 4 0.0000 0.0000 0.0000 25.8202 0.0000 -6.7380
# 5 0.4512 -6.0819 -5.4241 0.0000 32.5987 0.0000
# 6 0.0000 0.0000 0.0000 -6.7380 0.0000 7.1221
#
#
#
# Elastic Compliance Matrix: (Units=1/GPa)
#
#
# Indices 1 2 3 4 5 6 
#
# 1 0.022120 -0.008324 -0.008041 0.000000 -0.003197 0.000000
# 2 -0.008324 0.022540 -0.002364 0.000000 0.003927 0.000000
# 3 -0.008041 -0.002364 0.013371 0.000000 0.001895 0.000000
# 4 0.000000 0.000000 0.000000 0.051426 0.000000 0.048652
# 5 -0.003197 0.003927 0.001895 0.000000 0.031768 0.000000
# 6 0.000000 0.000000 0.000000 0.048652 0.000000 0.186436
#
#
# Mechanical properties :
#
#
# Convention : Reuss Voigt Hill
#
# Bulk Modulus (GPa) = 48.60727 54.11470 51.36099
# Shear Modulus (GPa) = 13.44169 21.96176 17.70172
#
# Velocity S-wave (km/s) = 2.65730 3.39662 3.04944
# Velocity P-wave (km/s) = 5.91180 6.61894 6.27534
#
# Compressibility (1/GPa) = 0.02057306
#
# Stress axis : x y z
#
# Youngs Moduli (GPa) = 45.20750 44.36531 74.78942
#
# Poissons Ratio (x) = 0.36932 0.60137
# Poissons Ratio (y) = 0.37633 0.17679
# Poissons Ratio (z) = 0.36350 0.10487
#
# Static dielectric constant tensor:
#      x y z
#    x 3.484630 0.000000 -0.094650 
#    y 0.000000 3.472230 0.000000 
#    z -0.094650 0.000000 3.766400 
# 
# 
# High freq. dielectric constant tensor:
#      x y z
#    x 1.733600 0.000000 -0.004050 
#    y 0.000000 1.700680 0.000000 
#    z -0.004050 0.000000 1.752390 
# 
# From -- ./inp_files/68686.got.cif
#   From: 2010.06.25/outbox.cif.g09.slc.cpg/sg10_35_cif.got.tgz:68686.got - 2010.06.27 22:07:45.
