data_PCOD8060705
_publ_section_title
;
Structure prediction by ZEFSAII (Michael W. Deem and Ramdas Pophale) SiO2 
 PCOD8060705
Probable space group: P 2/M
;
_chemical_formula_sum "Si O2"
_cell_formula_units_Z 28
_cell_length_a 19.342057
_cell_length_b 9.144877
_cell_length_c 15.051537
_cell_angle_alpha 90.000000
_cell_angle_beta 143.520748
_cell_angle_gamma 90.000000
_cell_volume 1582.837608
_symmetry_space_group_name_H-M "P 2/M"
_symmetry_group_IT_number 10
_symmetry_cell_setting 'monoclinic'
loop_
_space_group_symop_operation_xyz
x,y,z
-x,y,-z
-x,-y,-z
x,-y,z
loop_
_atom_site_type_symbol
_atom_site_label
_atom_site_fract_x
_atom_site_fract_y
_atom_site_fract_z
Si Si1 0.862536 0.664837 0.347436
Si Si2 0.132359 0.668249 0.142879
Si Si3 0.741084 0.172323 0.880842
Si Si4 0.512107 0.328763 0.614384
Si Si5 0.108350 0.829423 0.794902
Si Si6 0.841086 0.171589 0.499523
Si Si7 0.272419 0.332756 0.460875
O O1 0.813652 0.500000 0.296113
O O2 0.829780 0.742747 0.221249
O O3 0.805863 0.752178 0.370620
O O4 0.000000 0.667096 0.500000
O O5 0.147838 0.500000 0.128865
O O6 0.210336 0.768284 0.161277
O O7 0.172202 0.690728 0.284751
O O8 0.000000 0.720364 0.000000
O O9 0.615546 0.242340 0.769561
O O10 0.727445 0.000000 0.859909
O O11 0.828580 0.218079 0.049631
O O12 0.500000 0.276971 0.500000
O O13 0.540197 0.500000 0.646726
O O14 0.395472 0.288788 0.546216
O O15 0.972691 0.787599 0.663631
O O16 0.123120 0.000000 0.789701
O O17 0.752816 0.228143 0.482730
O O18 0.824911 0.000000 0.470728
O O19 0.273139 0.500000 0.494734
#
# Coordination Sequence:
#
# PCOD8060705 Si02
#       7
#     4   4   4   4   4   4   4
#     4   9  17  30  51  78 105 135 173 212 248 300
#     4  10  20  34  52  74 103 139 174 210 258 311
#     4  11  22  34  52  77 106 136 173 219 260 308
#     4  10  20  38  57  71  97 137 181 223 263 305
#     4   9  19  34  50  75 110 142 168 204 259 313
#     4  10  19  32  52  77 108 141 169 204 258 317
#     4  10  20  34  52  74 101 134 174 220 258 300
#
# _framework density 17.68975
#
# number of rings (size 3 to 8) (size 9 to 14) (size 15 to 20)
#    0.000    2.143    1.429    2.143    0.000    5.143 
#    0.000    0.000    0.000    0.857    0.000    6.000 
#    0.000    0.000    0.000    0.000    0.000    0.000 
#
# Total GULP energy -347300.449897 kJ/mol
# GULP energy per Si atom -12403.587496 kJ/mol
# Density = 1.764949 g / cm^3
# Si number density = 17.689750 Si / 1000 Ang^3
#
#
#
# Elastic Constant Matrix: (Units=GPa)
#
#
# Indices 1 2 3 4 5 6 
#
# 1 118.4574 52.8972 27.5822 0.0000 -4.6214 0.0000
# 2 52.8972 74.4592 23.8819 0.0000 -4.2382 0.0000
# 3 27.5822 23.8819 34.0229 0.0000 6.7857 0.0000
# 4 0.0000 0.0000 0.0000 26.6457 0.0000 -4.0375
# 5 -4.6214 -4.2382 6.7857 0.0000 25.9780 0.0000
# 6 0.0000 0.0000 0.0000 -4.0375 0.0000 34.9300
#
#
#
# Elastic Compliance Matrix: (Units=1/GPa)
#
#
# Indices 1 2 3 4 5 6 
#
# 1 0.013232 -0.007257 -0.006189 0.000000 0.002787 0.000000
# 2 -0.007257 0.022360 -0.010848 0.000000 0.005191 0.000000
# 3 -0.006189 -0.010848 0.044938 0.000000 -0.014609 0.000000
# 4 0.000000 0.000000 0.000000 0.038198 0.000000 0.004415
# 5 0.002787 0.005191 -0.014609 0.000000 0.043653 0.000000
# 6 0.000000 0.000000 0.000000 0.004415 0.000000 0.029139
#
#
# Mechanical properties :
#
#
# Convention : Reuss Voigt Hill
#
# Bulk Modulus (GPa) = 31.30607 48.40690 39.85649
# Shear Modulus (GPa) = 19.93972 25.68261 22.81116
#
# Velocity S-wave (km/s) = 3.36101 3.81443 3.59487
# Velocity P-wave (km/s) = 5.72691 6.84278 6.30956
#
# Compressibility (1/GPa) = 0.03194268
#
# Stress axis : x y z
#
# Youngs Moduli (GPa) = 75.57328 44.72253 22.25289
#
# Poissons Ratio (x) = 0.32453 0.13773
# Poissons Ratio (y) = 0.54840 0.24139
# Poissons Ratio (z) = 0.46776 0.48514
#
# Static dielectric constant tensor:
#      x y z
#    x 3.210070 0.000000 -0.056940 
#    y 0.000000 3.282820 0.000000 
#    z -0.056940 0.000000 3.234730 
# 
# 
# High freq. dielectric constant tensor:
#      x y z
#    x 1.681280 0.000000 -0.009090 
#    y 0.000000 1.687570 0.000000 
#    z -0.009090 0.000000 1.665640 
# 
# From -- ./inp_files/57496.got.cif
#   From: 2010.06.25/outbox.cif.g09.slc.cpg/sg10_29_cif.got.tgz:57496.got - 2010.06.27 22:07:45.
