data_PCOD8060256
_publ_section_title
;
Structure prediction by ZEFSAII (Michael W. Deem and Ramdas Pophale) SiO2 
 PCOD8060256
Probable space group: P 2/M
;
_chemical_formula_sum "Si O2"
_cell_formula_units_Z 28
_cell_length_a 15.529612
_cell_length_b 19.752979
_cell_length_c 8.978365
_cell_angle_alpha 90.000000
_cell_angle_beta 29.863199
_cell_angle_gamma 90.000000
_cell_volume 1371.385273
_symmetry_space_group_name_H-M "P 2/M"
_symmetry_group_IT_number 10
_symmetry_cell_setting 'monoclinic'
loop_
_space_group_symop_operation_xyz
x,y,z
-x,y,-z
-x,-y,-z
x,-y,z
loop_
_atom_site_type_symbol
_atom_site_label
_atom_site_fract_x
_atom_site_fract_y
_atom_site_fract_z
Si Si1 1.000000 0.923926 0.177037
Si Si2 0.795287 0.706055 0.977534
Si Si3 0.204714 0.706055 0.363394
Si Si4 0.205485 0.425684 0.524368
Si Si5 0.205481 0.425684 0.859186
Si Si6 0.674467 0.838248 0.311671
Si Si7 0.325534 0.161752 0.335071
O O1 0.830533 0.885112 0.489819
O O2 0.000000 0.000000 0.241621
O O3 0.169467 0.885112 0.981417
O O4 0.000000 0.924811 0.000000
O O5 0.741324 0.717526 0.888013
O O6 0.000001 0.711616 0.692970
O O7 0.725241 0.632512 0.134372
O O8 0.703804 0.761511 0.216610
O O9 0.274762 0.632512 0.310094
O O10 0.296197 0.761511 0.328020
O O11 0.272245 0.500000 0.371277
O O12 0.270806 0.410640 0.593793
O O13 0.000002 0.425647 0.830405
O O14 0.272241 0.500000 0.811998
O O15 0.500000 0.867209 0.500000
O O16 0.658273 0.840379 0.512591
O O17 0.500000 0.132790 0.000000
#
# Coordination Sequence:
#
# PCOD8060256 Si02
#       7
#     4   4   4   4   4   4   4
#     4   9  20  40  65  91 120 155 192 231 283 348
#     4  10  19  31  51  79 113 151 195 245 292 343
#     4  10  19  31  51  79 113 151 195 245 292 343
#     4   8  14  25  43  70 105 146 193 241 290 346
#     4   8  14  25  43  70 105 146 193 241 290 346
#     4  11  22  38  61  88 119 156 196 239 288 344
#     4  11  22  38  61  88 119 156 196 239 288 344
#
# _framework density 20.417311999999999
#
# number of rings (size 3 to 8) (size 9 to 14) (size 15 to 20)
#    0.000    2.429    1.429    2.571    0.000    2.286 
#    0.000    2.857    0.000    6.857    0.000    0.000 
#    0.000    0.000    0.000    0.000    0.000    0.000 
#
# Total GULP energy -347171.088082 kJ/mol
# GULP energy per Si atom -12398.967432 kJ/mol
# Density = 2.037084 g / cm^3
# Si number density = 20.417312 Si / 1000 Ang^3
#
#
#
# Elastic Constant Matrix: (Units=GPa)
#
#
# Indices 1 2 3 4 5 6 
#
# 1 89.1040 45.1847 41.0092 0.0000 -3.5393 0.0000
# 2 45.1847 148.8544 54.7257 0.0000 -7.1185 0.0000
# 3 41.0092 54.7257 97.9536 0.0000 -3.0628 0.0000
# 4 0.0000 0.0000 0.0000 6.6400 0.0000 5.7288
# 5 -3.5393 -7.1185 -3.0628 0.0000 26.0644 0.0000
# 6 0.0000 0.0000 0.0000 5.7288 0.0000 14.3170
#
#
#
# Elastic Compliance Matrix: (Units=1/GPa)
#
#
# Indices 1 2 3 4 5 6 
#
# 1 0.014775 -0.002750 -0.004627 0.000000 0.000712 0.000000
# 2 -0.002750 0.009048 -0.003852 0.000000 0.001645 0.000000
# 3 -0.004627 -0.003852 0.014298 0.000000 0.000000 0.000000
# 4 0.000000 0.000000 0.000000 0.230004 0.000000 -0.092033
# 5 0.000712 0.001645 0.000000 0.000000 0.038912 0.000000
# 6 0.000000 0.000000 0.000000 -0.092033 0.000000 0.106673
#
#
# Mechanical properties :
#
#
# Convention : Reuss Voigt Hill
#
# Bulk Modulus (GPa) = 63.84586 68.63902 66.24244
# Shear Modulus (GPa) = 11.32785 22.40377 16.86581
#
# Velocity S-wave (km/s) = 2.35801 3.31613 2.87723
# Velocity P-wave (km/s) = 6.22511 6.95366 6.59944
#
# Compressibility (1/GPa) = 0.01566272
#
# Stress axis : x y z
#
# Youngs Moduli (GPa) = 67.68113 110.52726 69.93849
#
# Poissons Ratio (x) = 0.30393 0.32362
# Poissons Ratio (y) = 0.18611 0.26941
# Poissons Ratio (z) = 0.31318 0.42576
#
# Static dielectric constant tensor:
#      x y z
#    x 3.560120 0.000000 -0.008000 
#    y 0.000000 3.968780 0.000000 
#    z -0.008000 0.000000 3.570850 
# 
# 
# High freq. dielectric constant tensor:
#      x y z
#    x 1.782180 0.000000 0.001410 
#    y 0.000000 1.801430 0.000000 
#    z 0.001410 0.000000 1.780290 
# 
# From -- ./inp_files/30361.got.cif
#   From: 2010.06.25/outbox.cif.g09.slc.cpg/sg10_16_cif.got.tgz:30361.got - 2010.06.27 22:07:45.
