data_PCOD8060025
_publ_section_title
;
Structure prediction by ZEFSAII (Michael W. Deem and Ramdas Pophale) SiO2 
 PCOD8060025
Probable space group: P 2/M
;
_chemical_formula_sum "Si O2"
_cell_formula_units_Z 32
_cell_length_a 13.246936
_cell_length_b 9.388622
_cell_length_c 20.456467
_cell_angle_alpha 90.000000
_cell_angle_beta 137.077044
_cell_angle_gamma 90.000000
_cell_volume 1732.623345
_symmetry_space_group_name_H-M "P 2/M"
_symmetry_group_IT_number 10
_symmetry_cell_setting 'monoclinic'
loop_
_space_group_symop_operation_xyz
x,y,z
-x,y,-z
-x,-y,-z
x,-y,z
loop_
_atom_site_type_symbol
_atom_site_label
_atom_site_fract_x
_atom_site_fract_y
_atom_site_fract_z
Si Si1 0.717493 0.161144 0.422522
Si Si2 0.467219 0.338025 0.147546
Si Si3 0.963637 0.166834 0.637743
Si Si4 0.063260 0.835541 0.098879
Si Si5 0.957887 0.837521 0.185465
Si Si6 0.202650 0.334111 0.666458
Si Si7 0.374752 0.837930 0.987331
Si Si8 0.601875 0.159966 0.763905
O O1 0.781691 0.266362 0.397982
O O2 0.540268 0.179119 0.351682
O O3 0.800582 0.191601 0.530201
O O4 0.751509 0.000000 0.414793
O O5 0.419371 0.500000 0.118417
O O6 0.642960 0.317043 0.221477
O O7 0.414779 0.282671 0.191840
O O8 0.371776 0.250541 0.051464
O O9 0.959893 0.225477 0.711085
O O10 0.079616 0.253839 0.649558
O O11 0.009587 0.000000 0.658916
O O12 0.239173 0.815720 0.193809
O O13 0.993862 0.763195 0.132069
O O14 0.014988 0.000000 0.073765
O O15 0.000000 0.767704 0.000000
O O16 0.784958 0.824477 0.121460
O O17 0.008885 0.000000 0.201483
O O18 0.160341 0.500000 0.637964
O O19 0.415294 0.000000 0.023998
O O20 0.500000 0.771798 0.000000
O O21 0.597520 0.000000 0.792541
#
# Coordination Sequence:
#
# PCOD8060025 Si02
#       8
#     4   4   4   4   4   4   4   4
#     4   9  18  31  48  72  99 128 163 202 243 284
#     4  10  20  32  47  70  99 127 156 197 247 290
#     4  10  19  32  49  69  98 132 163 200 244 287
#     4   9  16  28  50  76  97 121 158 204 247 286
#     4   9  18  31  48  73 100 126 162 204 243 287
#     4  10  20  32  48  72 100 131 166 200 237 286
#     4  10  19  31  49  71  95 128 166 197 231 284
#     4   9  17  31  51  72  94 122 160 201 239 286
#
# _framework density 18.469104000000002
#
# number of rings (size 3 to 8) (size 9 to 14) (size 15 to 20)
#    0.000    2.500    0.000    2.625    0.000    6.750 
#    0.000    1.250    0.000    7.875    0.000    0.000 
#    0.000    5.000    0.000    0.000    0.000    0.000 
#
# Total GULP energy -396535.303398 kJ/mol
# GULP energy per Si atom -12391.728231 kJ/mol
# Density = 1.842707 g / cm^3
# Si number density = 18.469104 Si / 1000 Ang^3
#
#
#
# Elastic Constant Matrix: (Units=GPa)
#
#
# Indices 1 2 3 4 5 6 
#
# 1 102.3460 17.3196 58.8748 0.0000 -0.4260 0.0000
# 2 17.3196 50.1348 32.7606 0.0000 -0.0313 0.0000
# 3 58.8748 32.7606 128.6505 0.0000 -14.2452 0.0000
# 4 0.0000 0.0000 0.0000 105.3573 0.0000 -25.4501
# 5 -0.4260 -0.0313 -14.2452 0.0000 23.5270 0.0000
# 6 0.0000 0.0000 0.0000 -25.4501 0.0000 17.1081
#
#
#
# Elastic Compliance Matrix: (Units=1/GPa)
#
#
# Indices 1 2 3 4 5 6 
#
# 1 0.013574 -0.000438 -0.006510 0.000000 -0.003696 0.000000
# 2 -0.000438 0.024284 -0.006411 0.000000 -0.003857 0.000000
# 3 -0.006510 -0.006411 0.013260 0.000000 0.007902 0.000000
# 4 0.000000 0.000000 0.000000 0.014815 0.000000 0.022039
# 5 -0.003696 -0.003857 0.007902 0.000000 0.047217 0.000000
# 6 0.000000 0.000000 0.000000 0.022039 0.000000 0.091238
#
#
# Mechanical properties :
#
#
# Convention : Reuss Voigt Hill
#
# Bulk Modulus (GPa) = 40.98135 55.44903 48.21519
# Shear Modulus (GPa) = 20.89968 40.67692 30.78830
#
# Velocity S-wave (km/s) = 3.36758 4.69810 4.08734
# Velocity P-wave (km/s) = 6.11213 7.71474 6.95972
#
# Compressibility (1/GPa) = 0.02440134
#
# Stress axis : x y z
#
# Youngs Moduli (GPa) = 73.66864 41.17922 75.41738
#
# Poissons Ratio (x) = 0.01803 0.49096
# Poissons Ratio (y) = 0.03225 0.48347
# Poissons Ratio (z) = 0.47957 0.26398
#
# Static dielectric constant tensor:
#      x y z
#    x 3.330220 0.000000 0.050920 
#    y 0.000000 3.173900 0.000000 
#    z 0.050920 0.000000 3.735550 
# 
# 
# High freq. dielectric constant tensor:
#      x y z
#    x 1.698230 0.000000 0.008730 
#    y 0.000000 1.682200 0.000000 
#    z 0.008730 0.000000 1.727210 
# 
# From -- ./inp_files/84759.got.cif
#   From: 2010.06.25/outbox.cif.g09.slc.cpg/sg10_43_cif.got.tgz:84759.got - 2010.06.27 22:07:45.
