data_PCOD8060491
_publ_section_title
;
Structure prediction by ZEFSAII (Michael W. Deem and Ramdas Pophale) SiO2 
 PCOD8060491
Probable space group: P 2/M
;
_chemical_formula_sum "Si O2"
_cell_formula_units_Z 28
_cell_length_a 16.674881
_cell_length_b 8.776532
_cell_length_c 11.374340
_cell_angle_alpha 90.000000
_cell_angle_beta 119.531745
_cell_angle_gamma 90.000000
_cell_volume 1448.346385
_symmetry_space_group_name_H-M "P 2/M"
_symmetry_group_IT_number 10
_symmetry_cell_setting 'monoclinic'
loop_
_space_group_symop_operation_xyz
x,y,z
-x,y,-z
-x,-y,-z
x,-y,z
loop_
_atom_site_type_symbol
_atom_site_label
_atom_site_fract_x
_atom_site_fract_y
_atom_site_fract_z
Si Si1 0.750231 0.681366 0.818089
Si Si2 0.653098 0.676562 0.083478
Si Si3 0.385420 0.680278 0.679245
Si Si4 0.424667 0.820807 0.199099
Si Si5 0.017955 0.682375 0.381515
Si Si6 0.792237 0.319028 0.588544
Si Si7 0.845667 0.676881 0.117254
O O1 0.741536 0.500000 0.819305
O O2 0.648747 0.747756 0.765150
O O3 0.788676 0.736981 0.720821
O O4 0.819513 0.743943 0.969716
O O5 0.629271 0.500000 0.043081
O O6 0.625702 0.728207 0.193361
O O7 0.761920 0.705947 0.146730
O O8 0.594457 0.773991 0.949268
O O9 0.395483 0.500000 0.672503
O O10 0.474961 0.761112 0.690326
O O11 0.296902 0.742483 0.544746
O O12 0.420370 0.000000 0.208940
O O13 0.016307 0.500000 0.379797
O O14 0.115500 0.746102 0.405416
O O15 0.000000 0.743239 0.500000
O O16 0.937994 0.750479 0.238612
O O17 0.793966 0.500000 0.584022
O O18 0.865022 0.500000 0.115221
#
# Coordination Sequence:
#
# PCOD8060491 Si02
#       7
#     4   4   4   4   4   4   4
#     4   9  18  34  51  70  99 133 170 205 242 291
#     4   9  17  31  51  75 102 131 162 197 244 301
#     4  10  19  32  50  72 100 133 166 201 246 297
#     4  11  22  34  50  72  97 127 167 212 254 294
#     4   9  15  24  42  73 108 132 155 196 247 291
#     4   9  18  30  47  72 101 134 168 201 239 291
#     4   8  14  25  44  69  99 132 159 193 241 286
#
# _framework density 19.332391000000001
#
# number of rings (size 3 to 8) (size 9 to 14) (size 15 to 20)
#    0.000    2.714    0.000    3.429    0.000    6.857 
#    0.000    6.429    0.000    0.000    0.000   12.000 
#    0.000   17.143    0.000    0.000    0.000    0.000 
#
# Total GULP energy -347150.170900 kJ/mol
# GULP energy per Si atom -12398.220389 kJ/mol
# Density = 1.928839 g / cm^3
# Si number density = 19.332391 Si / 1000 Ang^3
#
#
#
# Elastic Constant Matrix: (Units=GPa)
#
#
# Indices 1 2 3 4 5 6 
#
# 1 162.9698 23.1761 96.4372 0.0000 4.2333 0.0000
# 2 23.1761 29.8504 19.3108 0.0000 -0.3701 0.0000
# 3 96.4372 19.3108 110.2237 0.0000 10.1320 0.0000
# 4 0.0000 0.0000 0.0000 1.2006 0.0000 -3.0219
# 5 4.2333 -0.3701 10.1320 0.0000 41.3930 0.0000
# 6 0.0000 0.0000 0.0000 -3.0219 0.0000 3.7527
#
#
#
# Elastic Compliance Matrix: (Units=1/GPa)
#
#
# Indices 1 2 3 4 5 6 
#
# 1 0.013041 -0.002986 -0.011009 0.000000 0.001334 0.000000
# 2 -0.002986 0.038630 -0.004312 0.000000 0.001706 0.000000
# 3 -0.011009 -0.004312 0.019806 0.000000 -0.003761 0.000000
# 4 0.000000 0.000000 0.000000 -0.811139 0.000000 -0.653179
# 5 0.001334 0.001706 -0.003761 0.000000 0.024958 0.000000
# 6 0.000000 0.000000 0.000000 -0.653179 0.000000 -0.259507
#
#
# Mechanical properties :
#
#
# Convention : Reuss Voigt Hill
#
# Bulk Modulus (GPa) = 28.68496 64.54359 46.61427
# Shear Modulus (GPa) = -5.39970 20.21059 7.40544
#
# Velocity S-wave (km/s) = -1.67307 3.23681 1.95931
# Velocity P-wave (km/s) = 3.33733 6.88680 5.41137
#
# Compressibility (1/GPa) = 0.03486147
#
# Stress axis : x y z
#
# Youngs Moduli (GPa) = 76.68254 25.88691 50.49063
#
# Poissons Ratio (x) = 0.07731 0.55586
# Poissons Ratio (y) = 0.22901 0.21770
# Poissons Ratio (z) = 0.84421 0.11162
#
# Static dielectric constant tensor:
#      x y z
#    x 3.680370 0.000000 0.061280 
#    y 0.000000 2.890200 0.000000 
#    z 0.061280 0.000000 3.820730 
# 
# 
# High freq. dielectric constant tensor:
#      x y z
#    x 1.760470 0.000000 0.004910 
#    y 0.000000 1.686830 0.000000 
#    z 0.004910 0.000000 1.760390 
# 
# From -- ./inp_files/49077.got.cif
#   From: 2010.06.25/outbox.cif.g09.slc.cpg/sg10_25_cif.got.tgz:49077.got - 2010.06.27 22:07:45.
