data_PCOD8060349
_publ_section_title
;
Structure prediction by ZEFSAII (Michael W. Deem and Ramdas Pophale) SiO2 
 PCOD8060349
Probable space group: P 2/M
;
_chemical_formula_sum "Si O2"
_cell_formula_units_Z 32
_cell_length_a 29.970547
_cell_length_b 8.965389
_cell_length_c 12.088258
_cell_angle_alpha 90.000000
_cell_angle_beta 27.444736
_cell_angle_gamma 90.000000
_cell_volume 1497.019617
_symmetry_space_group_name_H-M "P 2/M"
_symmetry_group_IT_number 10
_symmetry_cell_setting 'monoclinic'
loop_
_space_group_symop_operation_xyz
x,y,z
-x,y,-z
-x,-y,-z
x,-y,z
loop_
_atom_site_type_symbol
_atom_site_label
_atom_site_fract_x
_atom_site_fract_y
_atom_site_fract_z
Si Si1 0.905411 0.167960 0.134321
Si Si2 0.686990 0.824595 0.103285
Si Si3 0.106446 0.824146 0.442461
Si Si4 0.918408 0.323377 0.876013
Si Si5 0.294801 0.325714 0.715161
Si Si6 0.607434 0.332703 0.072429
Si Si7 0.469489 0.324773 0.186716
Si Si8 0.181164 0.331935 0.487396
O O1 0.821911 0.252659 0.386548
O O2 0.872325 0.000000 0.175905
O O3 0.927409 0.264789 0.979503
O O4 0.000000 0.164889 0.000000
O O5 0.656344 0.757262 0.288412
O O6 0.614829 0.763615 0.167964
O O7 0.675141 0.000000 0.131179
O O8 0.799046 0.777490 0.835408
O O9 0.118737 0.765587 0.539800
O O10 0.008547 0.747916 0.608387
O O11 0.091081 0.000000 0.479602
O O12 0.926789 0.500000 0.853761
O O13 0.815043 0.268379 0.056761
O O14 0.297115 0.500000 0.736354
O O15 0.357246 0.291422 0.466197
O O16 0.574739 0.500000 0.177573
O O17 0.533072 0.258895 0.148324
O O18 0.708538 0.336645 0.788601
O O19 0.490825 0.500000 0.133643
O O20 0.500000 0.254035 0.000000
O O21 0.138399 0.500000 0.586435
#
# Coordination Sequence:
#
# PCOD8060349 Si02
#       8
#     4   4   4   4   4   4   4   4
#     4  11  22  34  51  77 114 160 201 239 288 353
#     4  10  22  40  63  88 120 159 197 243 293 354
#     4  10  20  36  56  81 115 155 196 234 286 352
#     4  11  23  36  55  84 116 154 198 248 299 341
#     4  10  23  41  62  89 119 153 199 251 297 350
#     4   9  19  36  63  93 117 151 195 246 299 347
#     4   9  19  38  65  92 121 155 193 241 298 359
#     4  10  19  31  53  84 114 146 192 246 293 339
#
# _framework density 21.375805
#
# number of rings (size 3 to 8) (size 9 to 14) (size 15 to 20)
#    0.000    2.000    1.250    1.875    1.750    4.500 
#    0.000    5.625    0.000    0.750    0.000    0.000 
#    0.000    0.000    0.000    0.000    0.000    0.000 
#
# Total GULP energy -396722.355064 kJ/mol
# GULP energy per Si atom -12397.573596 kJ/mol
# Density = 2.132715 g / cm^3
# Si number density = 21.375805 Si / 1000 Ang^3
#
#
#
# Elastic Constant Matrix: (Units=GPa)
#
#
# Indices 1 2 3 4 5 6 
#
# 1 102.0764 28.5278 43.6692 0.0000 -2.2075 0.0000
# 2 28.5278 67.9131 24.3469 0.0000 2.2695 0.0000
# 3 43.6692 24.3469 60.0801 0.0000 3.6840 0.0000
# 4 0.0000 0.0000 0.0000 22.3896 0.0000 -0.1510
# 5 -2.2075 2.2695 3.6840 0.0000 34.5359 0.0000
# 6 0.0000 0.0000 0.0000 -0.1510 0.0000 -0.3365
#
#
#
# Elastic Compliance Matrix: (Units=1/GPa)
#
#
# Indices 1 2 3 4 5 6 
#
# 1 0.014798 -0.002790 -0.009758 0.000000 0.002170 0.000000
# 2 -0.002790 0.017759 -0.005119 0.000000 -0.000799 0.000000
# 3 -0.009758 -0.005119 0.026000 0.000000 -0.003061 0.000000
# 4 0.000000 0.000000 0.000000 0.044529 0.000000 -0.019988
# 5 0.002170 -0.000799 -0.003061 0.000000 0.029473 0.000000
# 6 0.000000 0.000000 0.000000 -0.019988 0.000000 -2.962894
#
#
# Mechanical properties :
#
#
# Convention : Reuss Voigt Hill
#
# Bulk Modulus (GPa) = 43.06570 47.01750 45.04160
# Shear Modulus (GPa) = -1.79388 20.21953 9.21283
#
# Velocity S-wave (km/s) = -0.91708 3.07890 2.07829
# Velocity P-wave (km/s) = 4.36684 5.88922 5.18422
#
# Compressibility (1/GPa) = 0.02322033
#
# Stress axis : x y z
#
# Youngs Moduli (GPa) = 67.57666 56.30998 38.46224
#
# Poissons Ratio (x) = 0.15712 0.37532
# Poissons Ratio (y) = 0.18856 0.19691
# Poissons Ratio (z) = 0.65943 0.28828
#
# Static dielectric constant tensor:
#      x y z
#    x 3.860260 0.000000 -0.058470 
#    y 0.000000 3.781930 0.000000 
#    z -0.058470 0.000000 4.061000 
# 
# 
# High freq. dielectric constant tensor:
#      x y z
#    x 1.828940 0.000000 0.001060 
#    y 0.000000 1.820530 0.000000 
#    z 0.001060 0.000000 1.847540 
# 
# From -- ./inp_files/58111.got.cif
#   From: 2010.06.25/outbox.cif.g09.slc.cpg/sg10_30_cif.got.tgz:58111.got - 2010.06.27 22:07:45.
