data_PCOD8060414
_publ_section_title
;
Structure prediction by ZEFSAII (Michael W. Deem and Ramdas Pophale) SiO2 
 PCOD8060414
Probable space group: P 2/M
;
_chemical_formula_sum "Si O2"
_cell_formula_units_Z 32
_cell_length_a 23.268495
_cell_length_b 18.773262
_cell_length_c 7.741315
_cell_angle_alpha 90.000000
_cell_angle_beta 146.278502
_cell_angle_gamma 90.000000
_cell_volume 1877.319713
_symmetry_space_group_name_H-M "P 2/M"
_symmetry_group_IT_number 10
_symmetry_cell_setting 'monoclinic'
loop_
_space_group_symop_operation_xyz
x,y,z
-x,y,-z
-x,-y,-z
x,-y,z
loop_
_atom_site_type_symbol
_atom_site_label
_atom_site_fract_x
_atom_site_fract_y
_atom_site_fract_z
Si Si1 0.887529 0.920190 0.265346
Si Si2 0.500002 0.917425 0.201708
Si Si3 0.622804 0.420572 0.307009
Si Si4 0.112467 0.920190 0.327691
Si Si5 0.622332 0.682161 0.606892
Si Si6 0.698474 0.832321 0.797718
Si Si7 0.377666 0.317838 0.995217
Si Si8 0.301526 0.832323 0.805345
O O1 0.872211 0.923985 0.430526
O O2 0.000000 0.888360 0.500000
O O3 0.876807 0.000000 0.159491
O O4 0.799110 0.869275 0.961157
O O5 0.601228 0.883753 0.537195
O O6 0.500006 0.000000 0.248511
O O7 0.500000 0.902387 0.000000
O O8 0.398764 0.883764 0.031017
O O9 0.670648 0.500000 0.426625
O O10 0.660062 0.381078 0.575220
O O11 0.500000 0.424545 0.000000
O O12 0.660066 0.381074 0.225116
O O13 0.200888 0.869278 0.465603
O O14 0.123193 0.000000 0.275460
O O15 0.000000 0.888355 0.000000
O O16 0.675663 0.753917 0.665174
O O17 0.653153 0.664382 0.882888
O O18 0.500000 0.694402 0.288011
O O19 0.722760 0.820116 0.056903
O O20 0.324340 0.246078 0.786858
#
# Coordination Sequence:
#
# PCOD8060414 Si02
#       8
#     4   4   4   4   4   4   4   4
#     4   9  18  32  48  65  88 122 162 204 247 287
#     4  11  23  31  41  67  95 122 161 204 242 284
#     4   9  18  30  46  68  96 132 160 186 230 285
#     4   9  18  32  48  65  88 122 162 204 247 287
#     4   9  17  29  46  69  95 126 160 193 236 285
#     4  10  19  32  49  66  89 127 163 197 243 290
#     4   9  17  29  46  69  95 126 160 193 236 285
#     4  10  19  32  49  66  89 127 163 197 243 290
#
# _framework density 17.045577999999999
#
# number of rings (size 3 to 8) (size 9 to 14) (size 15 to 20)
#    0.000    2.500    1.250    1.125    1.750    3.500 
#    0.000    5.000    0.000    0.000    0.000    0.000 
#    0.000    1.000    0.500    0.000    0.000    0.000 
#
# Total GULP energy -396644.595397 kJ/mol
# GULP energy per Si atom -12395.143606 kJ/mol
# Density = 1.700678 g / cm^3
# Si number density = 17.045578 Si / 1000 Ang^3
#
#
#
# Elastic Constant Matrix: (Units=GPa)
#
#
# Indices 1 2 3 4 5 6 
#
# 1 53.5285 46.0318 26.5563 0.0000 2.5195 0.0000
# 2 46.0318 134.2359 49.4126 0.0000 3.4028 0.0000
# 3 26.5563 49.4126 72.1828 0.0000 16.2282 0.0000
# 4 0.0000 0.0000 0.0000 18.5442 0.0000 -3.8881
# 5 2.5195 3.4028 16.2282 0.0000 28.5184 0.0000
# 6 0.0000 0.0000 0.0000 -3.8881 0.0000 22.4114
#
#
#
# Elastic Compliance Matrix: (Units=1/GPa)
#
#
# Indices 1 2 3 4 5 6 
#
# 1 0.027808 -0.007598 -0.005367 0.000000 0.001504 0.000000
# 2 -0.007598 0.012278 -0.006228 0.000000 0.002750 0.000000
# 3 -0.005367 -0.006228 0.022725 0.000000 -0.011714 0.000000
# 4 0.000000 0.000000 0.000000 0.055961 0.000000 0.009709
# 5 0.001504 0.002750 -0.011714 0.000000 0.041270 0.000000
# 6 0.000000 0.000000 0.000000 0.009709 0.000000 0.046304
#
#
# Mechanical properties :
#
#
# Convention : Reuss Voigt Hill
#
# Bulk Modulus (GPa) = 40.94290 55.99427 48.46859
# Shear Modulus (GPa) = 19.77272 23.09124 21.43198
#
# Velocity S-wave (km/s) = 3.40956 3.68459 3.54974
# Velocity P-wave (km/s) = 6.29062 7.14301 6.73032
#
# Compressibility (1/GPa) = 0.02442426
#
# Stress axis : x y z
#
# Youngs Moduli (GPa) = 35.96125 81.44791 44.00408
#
# Poissons Ratio (x) = 0.61885 0.23619
# Poissons Ratio (y) = 0.27324 0.27404
# Poissons Ratio (z) = 0.19302 0.50723
#
# Static dielectric constant tensor:
#      x y z
#    x 3.157020 0.000000 -0.018800 
#    y 0.000000 3.398850 0.000000 
#    z -0.018800 0.000000 3.138230 
# 
# 
# High freq. dielectric constant tensor:
#      x y z
#    x 1.648740 0.000000 -0.015950 
#    y 0.000000 1.645590 0.000000 
#    z -0.015950 0.000000 1.632860 
# 
# From -- ./inp_files/37727.got.cif
#   From: 2010.06.25/outbox.cif.g09.slc.cpg/sg10_19_cif.got.tgz:37727.got - 2010.06.27 22:07:45.
