data_PCOD8060443
_publ_section_title
;
Structure prediction by ZEFSAII (Michael W. Deem and Ramdas Pophale) SiO2 
 PCOD8060443
Probable space group: P 2/M
;
_chemical_formula_sum "Si O2"
_cell_formula_units_Z 32
_cell_length_a 20.328693
_cell_length_b 9.084734
_cell_length_c 12.039023
_cell_angle_alpha 90.000000
_cell_angle_beta 123.724534
_cell_angle_gamma 90.000000
_cell_volume 1849.218436
_symmetry_space_group_name_H-M "P 2/M"
_symmetry_group_IT_number 10
_symmetry_cell_setting 'monoclinic'
loop_
_space_group_symop_operation_xyz
x,y,z
-x,y,-z
-x,-y,-z
x,-y,z
loop_
_atom_site_type_symbol
_atom_site_label
_atom_site_fract_x
_atom_site_fract_y
_atom_site_fract_z
Si Si1 0.393660 0.825853 0.799739
Si Si2 0.828006 0.672087 0.886975
Si Si3 0.765429 0.674269 0.387556
Si Si4 0.949056 0.673055 0.193031
Si Si5 0.288541 0.168782 0.075377
Si Si6 0.565953 0.826441 0.917747
Si Si7 0.123707 0.326286 0.306546
Si Si8 0.166817 0.829912 0.763234
O O1 0.322286 0.737804 0.677075
O O2 0.474415 0.786008 0.808261
O O3 0.375774 0.000000 0.779208
O O4 0.404908 0.766383 0.935745
O O5 0.813013 0.500000 0.865352
O O6 0.746303 0.741422 0.854233
O O7 0.848617 0.739702 0.785859
O O8 0.900085 0.710648 0.036235
O O9 0.762090 0.500000 0.367641
O O10 0.813471 0.719750 0.542052
O O11 0.809020 0.745797 0.324625
O O12 0.946874 0.500000 0.217549
O O13 0.913390 0.758535 0.264895
O O14 0.037318 0.734604 0.257937
O O15 0.376357 0.230454 0.126625
O O16 0.291596 0.000000 0.115487
O O17 0.236329 0.190128 0.916797
O O18 0.574984 0.000000 0.935569
O O19 0.116030 0.500000 0.286742
O O20 0.151592 0.000000 0.721057
#
# Coordination Sequence:
#
# PCOD8060443 Si02
#       8
#     4   4   4   4   4   4   4   4
#     4   9  16  30  50  71  95 127 160 191 232 283
#     4   9  17  31  52  74  92 118 161 206 240 277
#     4  11  21  32  47  68  99 133 162 192 230 284
#     4   9  17  32  54  74  91 117 160 208 244 280
#     4   9  16  29  49  73  98 123 150 191 243 287
#     4   8  14  27  50  73  95 125 157 187 235 291
#     4   9  19  34  50  68  94 130 163 194 240 289
#     4  10  19  32  49  70  99 129 156 192 241 289
#
# _framework density 17.304606
#
# number of rings (size 3 to 8) (size 9 to 14) (size 15 to 20)
#    0.000    2.750    1.250    1.875    0.000    2.500 
#    0.000    7.500    0.000    3.750    0.000    5.250 
#    0.000    0.000    0.000    0.000    0.000    0.000 
#
# Total GULP energy -396705.429731 kJ/mol
# GULP energy per Si atom -12397.044679 kJ/mol
# Density = 1.726522 g / cm^3
# Si number density = 17.304606 Si / 1000 Ang^3
#
#
#
# Elastic Constant Matrix: (Units=GPa)
#
#
# Indices 1 2 3 4 5 6 
#
# 1 177.0186 47.1609 70.1957 0.0000 19.9067 0.0000
# 2 47.1609 51.2495 37.1173 0.0000 1.8626 0.0000
# 3 70.1957 37.1173 77.9319 0.0000 7.2938 0.0000
# 4 0.0000 0.0000 0.0000 15.2634 0.0000 3.9179
# 5 19.9067 1.8626 7.2938 0.0000 17.5127 0.0000
# 6 0.0000 0.0000 0.0000 3.9179 0.0000 28.7870
#
#
#
# Elastic Compliance Matrix: (Units=1/GPa)
#
#
# Indices 1 2 3 4 5 6 
#
# 1 0.010364 -0.004654 -0.006309 0.000000 -0.008659 0.000000
# 2 -0.004654 0.032015 -0.011688 0.000000 0.006753 0.000000
# 3 -0.006309 -0.011688 0.024238 0.000000 -0.001681 0.000000
# 4 0.000000 0.000000 0.000000 0.067888 0.000000 -0.009240
# 5 -0.008659 0.006753 -0.001681 0.000000 0.066926 0.000000
# 6 0.000000 0.000000 0.000000 -0.009240 0.000000 0.035995
#
#
# Mechanical properties :
#
#
# Convention : Reuss Voigt Hill
#
# Bulk Modulus (GPa) = 46.91282 68.34977 57.63130
# Shear Modulus (GPa) = 17.25135 22.42769 19.83952
#
# Velocity S-wave (km/s) = 3.16083 3.60398 3.38966
# Velocity P-wave (km/s) = 6.36318 7.54334 6.97825
#
# Compressibility (1/GPa) = 0.02131613
#
# Stress axis : x y z
#
# Youngs Moduli (GPa) = 96.48470 31.23575 41.25730
#
# Poissons Ratio (x) = 0.14537 0.26027
# Poissons Ratio (y) = 0.44902 0.48222
# Poissons Ratio (z) = 0.60868 0.36509
#
# Static dielectric constant tensor:
#      x y z
#    x 3.654920 0.000000 0.074460 
#    y 0.000000 3.003470 0.000000 
#    z 0.074460 0.000000 3.033850 
# 
# 
# High freq. dielectric constant tensor:
#      x y z
#    x 1.686090 0.000000 0.006900 
#    y 0.000000 1.643840 0.000000 
#    z 0.006900 0.000000 1.637260 
# 
# From -- ./inp_files/54919.got.cif
#   From: 2010.06.25/outbox.cif.g09.slc.cpg/sg10_28_cif.got.tgz:54919.got - 2010.06.27 22:07:45.
