data_PCOD8060151
_publ_section_title
;
Structure prediction by ZEFSAII (Michael W. Deem and Ramdas Pophale) SiO2 
 PCOD8060151
Probable space group: P 2/M
;
_chemical_formula_sum "Si O2"
_cell_formula_units_Z 28
_cell_length_a 9.519283
_cell_length_b 9.085626
_cell_length_c 30.021286
_cell_angle_alpha 90.000000
_cell_angle_beta 37.478313
_cell_angle_gamma 90.000000
_cell_volume 1579.869443
_symmetry_space_group_name_H-M "P 2/M"
_symmetry_group_IT_number 10
_symmetry_cell_setting 'monoclinic'
loop_
_space_group_symop_operation_xyz
x,y,z
-x,y,-z
-x,-y,-z
x,-y,z
loop_
_atom_site_type_symbol
_atom_site_label
_atom_site_fract_x
_atom_site_fract_y
_atom_site_fract_z
Si Si1 0.176231 0.171660 0.372472
Si Si2 0.542081 0.330891 0.621738
Si Si3 0.088817 0.325822 0.930471
Si Si4 0.566788 0.169468 0.211064
Si Si5 0.353447 0.826891 0.494697
Si Si6 0.169077 0.333801 0.782144
Si Si7 0.249318 0.669345 0.061119
O O1 0.279892 0.263551 0.387395
O O2 0.304054 0.204571 0.292960
O O3 0.912314 0.218257 0.431662
O O4 0.201059 0.000000 0.378834
O O5 0.612294 0.500000 0.597158
O O6 0.546795 0.248315 0.574161
O O7 0.275439 0.316511 0.706107
O O8 0.112493 0.500000 0.925096
O O9 0.343494 0.261468 0.854322
O O10 0.906826 0.266425 0.939566
O O11 0.000000 0.265265 0.000000
O O12 0.717218 0.210229 0.216127
O O13 0.598799 0.000000 0.190981
O O14 0.500000 0.770209 0.500000
O O15 0.382419 0.000000 0.481254
O O16 0.226683 0.500000 0.785709
O O17 0.890474 0.311564 0.856609
O O18 0.293478 0.500000 0.038410
O O19 0.500000 0.749364 0.000000
#
# Coordination Sequence:
#
# PCOD8060151 Si02
#       7
#     4   4   4   4   4   4   4
#     4   9  18  33  52  72  92 119 159 199 232 275
#     4  10  19  31  50  75  98 120 152 196 240 278
#     4   9  17  29  44  64  91 120 149 182 221 266
#     4   9  16  27  46  69  90 114 148 189 228 264
#     4  10  21  36  51  67  93 129 161 189 229 282
#     4   8  15  28  45  66  92 118 146 184 228 270
#     4   8  13  24  44  65  84 112 149 182 212 254
#
# _framework density 17.722984
#
# number of rings (size 3 to 8) (size 9 to 14) (size 15 to 20)
#    0.000    3.000    0.000    2.143    0.000    4.000 
#    0.000    1.429    0.000    8.571    0.000    0.000 
#    0.000    0.000    0.000    0.000    0.000    0.000 
#
# Total GULP energy -346885.689418 kJ/mol
# GULP energy per Si atom -12388.774622 kJ/mol
# Density = 1.768265 g / cm^3
# Si number density = 17.722984 Si / 1000 Ang^3
#
#
#
# Elastic Constant Matrix: (Units=GPa)
#
#
# Indices 1 2 3 4 5 6 
#
# 1 80.2672 26.8274 71.4633 0.0000 3.0818 0.0000
# 2 26.8274 37.0770 42.1846 0.0000 5.1454 0.0000
# 3 71.4633 42.1846 179.7181 0.0000 6.3627 0.0000
# 4 0.0000 0.0000 0.0000 28.1159 0.0000 5.6376
# 5 3.0818 5.1454 6.3627 0.0000 28.4478 0.0000
# 6 0.0000 0.0000 0.0000 5.6376 0.0000 13.2788
#
#
#
# Elastic Compliance Matrix: (Units=1/GPa)
#
#
# Indices 1 2 3 4 5 6 
#
# 1 0.020786 -0.007770 -0.006463 0.000000 0.000599 0.000000
# 2 -0.007770 0.040354 -0.006203 0.000000 -0.005070 0.000000
# 3 -0.006463 -0.006203 0.009602 0.000000 -0.000325 0.000000
# 4 0.000000 0.000000 0.000000 0.038877 0.000000 -0.016505
# 5 0.000599 -0.005070 -0.000325 0.000000 0.036077 0.000000
# 6 0.000000 0.000000 0.000000 -0.016505 0.000000 0.082315
#
#
# Mechanical properties :
#
#
# Convention : Reuss Voigt Hill
#
# Bulk Modulus (GPa) = 33.47815 64.22365 48.85090
# Shear Modulus (GPa) = 17.93143 24.40762 21.16952
#
# Velocity S-wave (km/s) = 3.18427 3.71505 3.45986
# Velocity P-wave (km/s) = 5.69650 7.39718 6.60184
#
# Compressibility (1/GPa) = 0.02987023
#
# Stress axis : x y z
#
# Youngs Moduli (GPa) = 48.10837 24.78061 104.14830
#
# Poissons Ratio (x) = 0.19255 0.67310
# Poissons Ratio (y) = 0.37381 0.64603
# Poissons Ratio (z) = 0.31092 0.15371
#
# Static dielectric constant tensor:
#      x y z
#    x 3.002450 0.000000 -0.076310 
#    y 0.000000 3.147410 0.000000 
#    z -0.076310 0.000000 3.885460 
# 
# 
# High freq. dielectric constant tensor:
#      x y z
#    x 1.633220 0.000000 0.001380 
#    y 0.000000 1.669840 0.000000 
#    z 0.001380 0.000000 1.714880 
# 
# From -- ./inp_files/90414.got.cif
#   From: 2010.06.25/outbox.cif.g09.slc.cpg/sg10_46_cif.got.tgz:90414.got - 2010.06.27 22:07:45.
