data_PCOD8060486
_publ_section_title
;
Structure prediction by ZEFSAII (Michael W. Deem and Ramdas Pophale) SiO2 
 PCOD8060486
Probable space group: P 2/M
;
_chemical_formula_sum "Si O2"
_cell_formula_units_Z 28
_cell_length_a 9.481921
_cell_length_b 9.526244
_cell_length_c 31.366301
_cell_angle_alpha 90.000000
_cell_angle_beta 34.662966
_cell_angle_gamma 90.000000
_cell_volume 1611.392067
_symmetry_space_group_name_H-M "P 2/M"
_symmetry_group_IT_number 10
_symmetry_cell_setting 'monoclinic'
loop_
_space_group_symop_operation_xyz
x,y,z
-x,y,-z
-x,-y,-z
x,-y,z
loop_
_atom_site_type_symbol
_atom_site_label
_atom_site_fract_x
_atom_site_fract_y
_atom_site_fract_z
Si Si1 0.098500 0.340411 0.105765
Si Si2 0.725888 0.163845 0.082744
Si Si3 0.291842 0.653987 0.421887
Si Si4 0.799797 0.163402 0.632763
Si Si5 0.535312 0.340103 0.058885
Si Si6 0.658533 0.839473 0.195573
Si Si7 0.702782 0.664701 0.485010
O O1 0.017163 0.500000 0.118189
O O2 0.262712 0.327788 0.107116
O O3 0.854780 0.248568 0.174152
O O4 0.257528 0.285326 0.025926
O O5 0.531869 0.244504 0.101398
O O6 0.669785 0.214644 0.144372
O O7 0.679150 0.000000 0.088725
O O8 0.000000 0.207916 0.000000
O O9 0.394973 0.500000 0.382150
O O10 0.341555 0.770668 0.373387
O O11 0.404382 0.695320 0.440510
O O12 0.000000 0.642630 0.500000
O O13 0.617278 0.180825 0.718102
O O14 0.050463 0.243532 0.583370
O O15 0.857231 0.000000 0.608833
O O16 0.593929 0.500000 0.056808
O O17 0.743922 0.000000 0.177024
O O18 0.500000 0.708775 0.500000
O O19 0.771727 0.500000 0.463520
#
# Coordination Sequence:
#
# PCOD8060486 Si02
#       7
#     4   4   4   4   4   4   4
#     4   9  18  32  50  71  95 124 159 204 255 303
#     4  10  19  32  50  71  96 132 173 211 251 301
#     4   8  15  30  52  75  99 128 162 199 236 284
#     4  10  20  33  50  74 105 136 166 206 248 294
#     4   9  18  32  49  72  97 119 157 212 259 298
#     4  10  21  35  49  71 102 133 170 210 251 298
#     4   9  18  34  56  80 104 131 165 203 241 290
#
# _framework density 17.376280999999999
#
# number of rings (size 3 to 8) (size 9 to 14) (size 15 to 20)
#    0.000    2.714    1.429    2.143    0.000    5.429 
#    0.000    2.857    0.000    6.857    0.000    0.000 
#    0.000    0.000    0.000    0.000    0.000    0.000 
#
# Total GULP energy -347109.824308 kJ/mol
# GULP energy per Si atom -12396.779440 kJ/mol
# Density = 1.733673 g / cm^3
# Si number density = 17.376281 Si / 1000 Ang^3
#
#
#
# Elastic Constant Matrix: (Units=GPa)
#
#
# Indices 1 2 3 4 5 6 
#
# 1 118.2447 56.5307 40.9774 0.0000 9.4740 0.0000
# 2 56.5307 82.2715 43.8877 0.0000 -0.1717 0.0000
# 3 40.9774 43.8877 73.2986 0.0000 7.6739 0.0000
# 4 0.0000 0.0000 0.0000 23.7428 0.0000 1.5241
# 5 9.4740 -0.1717 7.6739 0.0000 22.4850 0.0000
# 6 0.0000 0.0000 0.0000 1.5241 0.0000 31.7899
#
#
#
# Elastic Compliance Matrix: (Units=1/GPa)
#
#
# Indices 1 2 3 4 5 6 
#
# 1 0.013493 -0.008137 -0.002146 0.000000 -0.005015 0.000000
# 2 -0.008137 0.023107 -0.010022 0.000000 0.007025 0.000000
# 3 -0.002146 -0.010022 0.021526 0.000000 -0.006519 0.000000
# 4 0.000000 0.000000 0.000000 0.042248 0.000000 -0.002026
# 5 -0.005015 0.007025 -0.006519 0.000000 0.048866 0.000000
# 6 0.000000 0.000000 0.000000 -0.002026 0.000000 0.031554
#
#
# Mechanical properties :
#
#
# Convention : Reuss Voigt Hill
#
# Bulk Modulus (GPa) = 57.09203 61.84515 59.46859
# Shear Modulus (GPa) = 22.00320 24.43148 23.21734
#
# Velocity S-wave (km/s) = 3.56234 3.75377 3.65931
# Velocity P-wave (km/s) = 7.06031 7.37948 7.22166
#
# Compressibility (1/GPa) = 0.01751558
#
# Stress axis : x y z
#
# Youngs Moduli (GPa) = 74.11495 43.27775 46.45615
#
# Poissons Ratio (x) = 0.35214 0.09970
# Poissons Ratio (y) = 0.60305 0.46558
# Poissons Ratio (z) = 0.15906 0.43372
#
# Static dielectric constant tensor:
#      x y z
#    x 3.383570 0.000000 0.217330 
#    y 0.000000 3.254530 0.000000 
#    z 0.217330 0.000000 3.005100 
# 
# 
# High freq. dielectric constant tensor:
#      x y z
#    x 1.669870 0.000000 0.011670 
#    y 0.000000 1.672940 0.000000 
#    z 0.011670 0.000000 1.642770 
# 
# From -- ./inp_files/79210.got.cif
#   From: 2010.06.25/outbox.cif.g09.slc.cpg/sg10_40_cif.got.tgz:79210.got - 2010.06.27 22:07:45.
