data_PCOD8060303
_publ_section_title
;
Structure prediction by ZEFSAII (Michael W. Deem and Ramdas Pophale) SiO2 
 PCOD8060303
Probable space group: P 2/M
;
_chemical_formula_sum "Si O2"
_cell_formula_units_Z 30
_cell_length_a 21.715061
_cell_length_b 8.963246
_cell_length_c 11.836005
_cell_angle_alpha 90.000000
_cell_angle_beta 45.127541
_cell_angle_gamma 90.000000
_cell_volume 1632.604943
_symmetry_space_group_name_H-M "P 2/M"
_symmetry_group_IT_number 10
_symmetry_cell_setting 'monoclinic'
loop_
_space_group_symop_operation_xyz
x,y,z
-x,y,-z
-x,-y,-z
x,-y,z
loop_
_atom_site_type_symbol
_atom_site_label
_atom_site_fract_x
_atom_site_fract_y
_atom_site_fract_z
Si Si1 0.359889 0.175127 0.039940
Si Si2 0.761435 0.322100 0.634288
Si Si3 0.095125 0.672461 0.377154
Si Si4 0.516242 0.333398 0.730473
Si Si5 0.695307 0.171764 0.514207
Si Si6 0.239458 0.671208 0.024471
Si Si7 0.500000 0.747119 0.500000
Si Si8 0.304708 0.162165 0.740018
O O1 0.327405 0.265688 0.191534
O O2 0.300000 0.214012 0.011359
O O3 0.357981 0.000000 0.068062
O O4 0.455707 0.224090 0.880705
O O5 0.760038 0.500000 0.625577
O O6 0.842862 0.263627 0.604039
O O7 0.767417 0.243344 0.504320
O O8 0.081956 0.500000 0.421870
O O9 0.140502 0.694798 0.195601
O O10 0.000000 0.751379 0.500000
O O11 0.507770 0.500000 0.789716
O O12 0.610850 0.272908 0.633663
O O13 0.494516 0.344570 0.624146
O O14 0.729825 0.184140 0.342144
O O15 0.675836 0.000000 0.571622
O O16 0.267974 0.500000 0.011066
O O17 0.253955 0.709490 0.874597
O O18 0.589791 0.839586 0.390920
O O19 0.275273 0.000000 0.822950
#
# Coordination Sequence:
#
# PCOD8060303 Si02
#       8
#     4   4   4   4   4   4   2   4
#     4  11  21  33  51  73 103 141 176 217 268 315
#     4  10  20  36  57  79 103 133 172 216 262 314
#     4   8  16  33  58  86 110 131 160 209 270 325
#     4  11  21  33  49  73 102 136 183 229 266 301
#     4  10  22  37  51  72 103 143 183 215 259 314
#     4  10  19  31  52  81 109 136 174 221 268 313
#     4  10  20  30  50  72 104 140 182 228 268 302
#     4  10  20  33  51  73 105 144 183 221 262 312
#
# _framework density 18.375540000000001
#
# number of rings (size 3 to 8) (size 9 to 14) (size 15 to 20)
#    0.000    2.000    1.333    4.000    0.000    4.267 
#    0.000    2.667    0.000   15.200    0.000    5.600 
#    0.000    0.000    0.000    0.000    0.000    0.000 
#
# Total GULP energy -371791.240158 kJ/mol
# GULP energy per Si atom -12393.041339 kJ/mol
# Density = 1.833372 g / cm^3
# Si number density = 18.375540 Si / 1000 Ang^3
#
#
#
# Elastic Constant Matrix: (Units=GPa)
#
#
# Indices 1 2 3 4 5 6 
#
# 1 87.3014 28.8482 43.5281 0.0000 10.6645 0.0000
# 2 28.8482 92.7871 28.0925 0.0000 5.8884 0.0000
# 3 43.5281 28.0925 78.4438 0.0000 2.8892 0.0000
# 4 0.0000 0.0000 0.0000 14.3472 0.0000 10.7642
# 5 10.6645 5.8884 2.8892 0.0000 24.1904 0.0000
# 6 0.0000 0.0000 0.0000 10.7642 0.0000 19.6476
#
#
#
# Elastic Compliance Matrix: (Units=1/GPa)
#
#
# Indices 1 2 3 4 5 6 
#
# 1 0.017200 -0.002406 -0.008462 0.000000 -0.005986 0.000000
# 2 -0.002406 0.012569 -0.003106 0.000000 -0.001628 0.000000
# 3 -0.008462 -0.003106 0.018472 0.000000 0.002280 0.000000
# 4 0.000000 0.000000 0.000000 0.118345 0.000000 -0.064837
# 5 -0.005986 -0.001628 0.002280 0.000000 0.044102 0.000000
# 6 0.000000 0.000000 0.000000 -0.064837 0.000000 0.086419
#
#
# Mechanical properties :
#
#
# Convention : Reuss Voigt Hill
#
# Bulk Modulus (GPa) = 49.27891 51.05220 50.16555
# Shear Modulus (GPa) = 15.06843 22.17462 18.62152
#
# Velocity S-wave (km/s) = 2.86672 3.47759 3.18683
# Velocity P-wave (km/s) = 6.15088 6.63083 6.39536
#
# Compressibility (1/GPa) = 0.02029266
#
# Stress axis : x y z
#
# Youngs Moduli (GPa) = 58.13961 79.56004 54.13580
#
# Poissons Ratio (x) = 0.19139 0.45811
# Poissons Ratio (y) = 0.13986 0.16817
# Poissons Ratio (z) = 0.49199 0.24715
#
# Static dielectric constant tensor:
#      x y z
#    x 3.424810 0.000000 0.145780 
#    y 0.000000 3.253820 0.000000 
#    z 0.145780 0.000000 3.477950 
# 
# 
# High freq. dielectric constant tensor:
#      x y z
#    x 1.690010 0.000000 0.020720 
#    y 0.000000 1.710910 0.000000 
#    z 0.020720 0.000000 1.699560 
# 
# From -- ./inp_files/56611.got.cif
#   From: 2010.06.25/outbox.cif.g09.slc.cpg/sg10_29_cif.got.tgz:56611.got - 2010.06.27 22:07:45.
