data_PCOD8060624
_publ_section_title
;
Structure prediction by ZEFSAII (Michael W. Deem and Ramdas Pophale) SiO2 
 PCOD8060624
Probable space group: P 2/M
;
_chemical_formula_sum "Si O2"
_cell_formula_units_Z 28
_cell_length_a 15.946589
_cell_length_b 8.972619
_cell_length_c 20.437319
_cell_angle_alpha 90.000000
_cell_angle_beta 151.849476
_cell_angle_gamma 90.000000
_cell_volume 1379.619372
_symmetry_space_group_name_H-M "P 2/M"
_symmetry_group_IT_number 10
_symmetry_cell_setting 'monoclinic'
loop_
_space_group_symop_operation_xyz
x,y,z
-x,y,-z
-x,-y,-z
x,-y,z
loop_
_atom_site_type_symbol
_atom_site_label
_atom_site_fract_x
_atom_site_fract_y
_atom_site_fract_z
Si Si1 0.077617 0.675295 0.484501
Si Si2 0.300514 0.671014 0.439064
Si Si3 0.793250 0.172123 0.035415
Si Si4 0.914138 0.669802 0.840223
Si Si5 0.626716 0.826529 0.713061
Si Si6 0.993897 0.175460 0.300602
Si Si7 0.448084 0.169532 0.727726
O O1 0.063013 0.500000 0.466563
O O2 0.954866 0.749558 0.343799
O O3 0.283286 0.720947 0.620830
O O4 0.000000 0.730461 0.500000
O O5 0.302496 0.500000 0.464359
O O6 0.221347 0.684823 0.312976
O O7 0.497690 0.738063 0.574702
O O8 0.188147 0.769203 0.412839
O O9 0.897467 0.262576 0.051343
O O10 0.847328 0.225323 0.145877
O O11 0.846971 0.000000 0.063106
O O12 0.582290 0.196003 0.881148
O O13 0.944022 0.500000 0.882287
O O14 0.825456 0.759868 0.839591
O O15 0.564860 0.796447 0.744162
O O16 0.627519 0.000000 0.695583
O O17 0.998089 0.000000 0.312948
O O18 0.376649 0.000000 0.677669
#
# Coordination Sequence:
#
# PCOD8060624 Si02
#       7
#     4   4   4   4   4   4   4
#     4  11  24  41  63  91 119 147 182 229 286 345
#     4  10  19  32  51  77 112 150 192 241 287 337
#     4   9  20  39  60  83 116 154 195 238 282 336
#     4  10  21  34  50  77 113 156 199 239 286 334
#     4  11  21  32  51  79 112 151 197 244 289 333
#     4  10  19  35  61  88 113 149 190 232 285 340
#     4  10  22  40  61  86 115 151 192 237 289 341
#
# _framework density 20.295452999999998
#
# number of rings (size 3 to 8) (size 9 to 14) (size 15 to 20)
#    0.000    1.857    1.429    2.571    0.000    6.857 
#    0.000    3.571    0.000    4.286    0.000    0.000 
#    0.000    0.000    0.000    0.000    0.000    0.000 
#
# Total GULP energy -347249.089328 kJ/mol
# GULP energy per Si atom -12401.753190 kJ/mol
# Density = 2.024926 g / cm^3
# Si number density = 20.295453 Si / 1000 Ang^3
#
#
#
# Elastic Constant Matrix: (Units=GPa)
#
#
# Indices 1 2 3 4 5 6 
#
# 1 96.8881 38.2388 16.9018 0.0000 -6.8465 0.0000
# 2 38.2388 86.0712 18.9653 0.0000 -2.5170 0.0000
# 3 16.9018 18.9653 66.8077 0.0000 -5.7540 0.0000
# 4 0.0000 0.0000 0.0000 18.3851 0.0000 -0.2803
# 5 -6.8465 -2.5170 -5.7540 0.0000 12.3503 0.0000
# 6 0.0000 0.0000 0.0000 -0.2803 0.0000 32.0678
#
#
#
# Elastic Compliance Matrix: (Units=1/GPa)
#
#
# Indices 1 2 3 4 5 6 
#
# 1 0.013051 -0.005348 -0.001307 0.000000 0.005536 0.000000
# 2 -0.005348 0.014595 -0.002906 0.000000 -0.001344 0.000000
# 3 -0.001307 -0.002906 0.016680 0.000000 0.006454 0.000000
# 4 0.000000 0.000000 0.000000 0.054399 0.000000 0.000476
# 5 0.005536 -0.001344 0.006454 0.000000 0.086772 0.000000
# 6 0.000000 0.000000 0.000000 0.000476 0.000000 0.031188
#
#
# Mechanical properties :
#
#
# Convention : Reuss Voigt Hill
#
# Bulk Modulus (GPa) = 39.67604 44.21985 41.94794
# Shear Modulus (GPa) = 20.47423 24.27137 22.37280
#
# Velocity S-wave (km/s) = 3.17962 3.46193 3.32378
# Velocity P-wave (km/s) = 5.75080 6.14942 5.95344
#
# Compressibility (1/GPa) = 0.02520413
#
# Stress axis : x y z
#
# Youngs Moduli (GPa) = 76.62116 68.51453 59.95282
#
# Poissons Ratio (x) = 0.36645 0.07834
# Poissons Ratio (y) = 0.40980 0.17422
# Poissons Ratio (z) = 0.10012 0.19910
#
# Static dielectric constant tensor:
#      x y z
#    x 3.657920 0.000000 -0.214550 
#    y 0.000000 3.688990 0.000000 
#    z -0.214550 0.000000 3.685000 
# 
# 
# High freq. dielectric constant tensor:
#      x y z
#    x 1.776560 0.000000 -0.016860 
#    y 0.000000 1.796950 0.000000 
#    z -0.016860 0.000000 1.791230 
# 
# From -- ./inp_files/54689.got.cif
#   From: 2010.06.25/outbox.cif.g09.slc.cpg/sg10_28_cif.got.tgz:54689.got - 2010.06.27 22:07:45.
