data_PCOD8060045
_publ_section_title
;
Structure prediction by ZEFSAII (Michael W. Deem and Ramdas Pophale) SiO2 
 PCOD8060045
Probable space group: P 2/M
;
_chemical_formula_sum "Si O2"
_cell_formula_units_Z 28
_cell_length_a 26.565041
_cell_length_b 8.660584
_cell_length_c 9.556948
_cell_angle_alpha 90.000000
_cell_angle_beta 140.082820
_cell_angle_gamma 90.000000
_cell_volume 1410.896475
_symmetry_space_group_name_H-M "P 2/M"
_symmetry_group_IT_number 10
_symmetry_cell_setting 'monoclinic'
loop_
_space_group_symop_operation_xyz
x,y,z
-x,y,-z
-x,-y,-z
x,-y,z
loop_
_atom_site_type_symbol
_atom_site_label
_atom_site_fract_x
_atom_site_fract_y
_atom_site_fract_z
Si Si1 0.428875 0.681149 0.443052
Si Si2 0.782378 0.818125 0.705622
Si Si3 0.178000 0.817134 0.652193
Si Si4 0.252175 0.317746 0.070008
Si Si5 0.909657 0.320774 0.777710
Si Si6 0.681468 0.817644 0.237195
Si Si7 0.511275 0.176698 0.860810
O O1 0.500000 0.753909 0.500000
O O2 0.428028 0.500000 0.420964
O O3 0.340800 0.744481 0.223280
O O4 0.447011 0.723742 0.642246
O O5 0.774287 0.725051 0.830970
O O6 0.861201 0.773686 0.790353
O O7 0.708154 0.770809 0.450595
O O8 0.784170 0.000000 0.741244
O O9 0.106368 0.739889 0.414825
O O10 0.256329 0.757769 0.741967
O O11 0.166951 0.000000 0.625147
O O12 0.187079 0.758818 0.830070
O O13 0.248673 0.500000 0.045213
O O14 0.887155 0.500000 0.740433
O O15 0.000000 0.290638 0.000000
O O16 0.674719 0.000000 0.218618
O O17 0.597184 0.749509 0.014402
O O18 0.503740 0.000000 0.794514
O O19 0.500000 0.190696 0.000000
#
# Coordination Sequence:
#
# PCOD8060045 Si02
#       7
#     4   4   4   4   4   4   4
#     4  10  22  37  51  73 107 147 189 232 280 331
#     4  10  20  36  59  84 112 146 186 231 275 326
#     4  10  20  35  57  82 109 144 186 227 267 320
#     4  11  22  36  54  78 112 150 189 234 284 335
#     4  10  21  39  63  90 119 147 175 212 264 328
#     4   8  16  31  50  74 102 135 179 228 276 325
#     4  10  19  31  49  73 101 135 179 230 279 325
#
# _framework density 19.845537
#
# number of rings (size 3 to 8) (size 9 to 14) (size 15 to 20)
#    0.000    2.143    0.000    4.286    0.000    4.000 
#    0.000    4.286    0.000    4.286    0.000    0.000 
#    0.000    0.000    0.000    0.000    0.000    0.000 
#
# Total GULP energy -347101.540081 kJ/mol
# GULP energy per Si atom -12396.483574 kJ/mol
# Density = 1.980037 g / cm^3
# Si number density = 19.845537 Si / 1000 Ang^3
#
#
#
# Elastic Constant Matrix: (Units=GPa)
#
#
# Indices 1 2 3 4 5 6 
#
# 1 44.1425 9.3205 26.1586 0.0000 -6.3537 0.0000
# 2 9.3205 40.3151 27.3301 0.0000 2.7000 0.0000
# 3 26.1586 27.3301 126.4104 0.0000 -5.7788 0.0000
# 4 0.0000 0.0000 0.0000 29.6203 0.0000 -4.3705
# 5 -6.3537 2.7000 -5.7788 0.0000 31.3206 0.0000
# 6 0.0000 0.0000 0.0000 -4.3705 0.0000 25.8482
#
#
#
# Elastic Compliance Matrix: (Units=1/GPa)
#
#
# Indices 1 2 3 4 5 6 
#
# 1 0.026794 -0.003415 -0.004583 0.000000 0.004884 0.000000
# 2 -0.003415 0.029930 -0.005964 0.000000 -0.004373 0.000000
# 3 -0.004583 -0.005964 0.010216 0.000000 0.001469 0.000000
# 4 0.000000 0.000000 0.000000 0.034625 0.000000 0.005854
# 5 0.004884 -0.004373 0.001469 0.000000 0.033567 0.000000
# 6 0.000000 0.000000 0.000000 0.005854 0.000000 0.039677
#
#
# Mechanical properties :
#
#
# Convention : Reuss Voigt Hill
#
# Bulk Modulus (GPa) = 25.63064 37.38737 31.50900
# Shear Modulus (GPa) = 23.17630 27.22839 25.20234
#
# Velocity S-wave (km/s) = 3.42107 3.70809 3.56747
# Velocity P-wave (km/s) = 5.34304 6.10027 5.73417
#
# Compressibility (1/GPa) = 0.03901580
#
# Stress axis : x y z
#
# Youngs Moduli (GPa) = 37.32205 33.41106 97.88795
#
# Poissons Ratio (x) = 0.11409 0.44862
# Poissons Ratio (y) = 0.12745 0.58383
# Poissons Ratio (z) = 0.17105 0.19927
#
# Static dielectric constant tensor:
#      x y z
#    x 3.634400 0.000000 0.093390 
#    y 0.000000 3.442920 0.000000 
#    z 0.093390 0.000000 3.847560 
# 
# 
# High freq. dielectric constant tensor:
#      x y z
#    x 1.761250 0.000000 -0.007490 
#    y 0.000000 1.761430 0.000000 
#    z -0.007490 0.000000 1.783170 
# 
# From -- ./inp_files/37226.got.cif
#   From: 2010.06.25/outbox.cif.g09.slc.cpg/sg10_19_cif.got.tgz:37226.got - 2010.06.27 22:07:45.
