data_PCOD8060735
_publ_section_title
;
Structure prediction by ZEFSAII (Michael W. Deem and Ramdas Pophale) SiO2 
 PCOD8060735
Probable space group: P 2/M
;
_chemical_formula_sum "Si O2"
_cell_formula_units_Z 32
_cell_length_a 20.294146
_cell_length_b 9.291650
_cell_length_c 24.421794
_cell_angle_alpha 90.000000
_cell_angle_beta 156.714907
_cell_angle_gamma 90.000000
_cell_volume 1820.434998
_symmetry_space_group_name_H-M "P 2/M"
_symmetry_group_IT_number 10
_symmetry_cell_setting 'monoclinic'
loop_
_space_group_symop_operation_xyz
x,y,z
-x,y,-z
-x,-y,-z
x,-y,z
loop_
_atom_site_type_symbol
_atom_site_label
_atom_site_fract_x
_atom_site_fract_y
_atom_site_fract_z
Si Si1 0.540095 0.334504 0.698857
Si Si2 0.770807 0.663578 0.461032
Si Si3 0.597368 0.330430 0.520611
Si Si4 0.055293 0.829665 0.730865
Si Si5 0.268682 0.165882 0.070227
Si Si6 0.068571 0.165222 0.244717
Si Si7 0.393793 0.334116 0.970777
Si Si8 0.505662 0.336029 0.174308
O O1 0.594867 0.500000 0.744070
O O2 0.367545 0.307307 0.598453
O O3 0.513968 0.284171 0.616499
O O4 0.686968 0.241551 0.838408
O O5 0.836852 0.500000 0.515163
O O6 0.688704 0.696152 0.339012
O O7 0.923171 0.771701 0.585784
O O8 0.500000 0.278653 0.500000
O O9 0.628844 0.500000 0.544284
O O10 0.776425 0.257555 0.656449
O O11 0.232892 0.764116 0.852365
O O12 0.999537 0.779573 0.748777
O O13 0.068045 0.000000 0.735948
O O14 0.367992 0.233214 0.095325
O O15 0.320024 0.000000 0.113300
O O16 0.073078 0.184636 0.909405
O O17 0.124330 0.000000 0.292552
O O18 0.338049 0.500000 0.922142
O O19 0.500000 0.282496 0.000000
O O20 0.510780 0.312406 0.113249
O O21 0.455726 0.500000 0.151639
#
# Coordination Sequence:
#
# PCOD8060735 Si02
#       8
#     4   4   4   4   4   4   4   4
#     4   9  18  33  52  78 108 137 174 218 266 314
#     4   9  17  31  52  78 104 135 173 220 267 309
#     4  10  21  37  57  80 107 141 180 221 266 315
#     4  11  21  34  53  80 109 139 178 221 263 311
#     4  10  19  32  52  79 107 136 175 219 262 312
#     4  10  21  35  52  79 110 139 178 221 263 316
#     4  10  21  37  57  80 107 142 180 217 265 321
#     4   9  18  33  53  78 107 137 173 218 267 312
#
# _framework density 17.578215
#
# number of rings (size 3 to 8) (size 9 to 14) (size 15 to 20)
#    0.000    2.250    2.500    1.500    0.000    4.500 
#    0.000    1.250    0.000    7.500    0.000    0.000 
#    0.000    0.000    0.000    0.000    0.000    0.000 
#
# Total GULP energy -396847.295239 kJ/mol
# GULP energy per Si atom -12401.477976 kJ/mol
# Density = 1.753821 g / cm^3
# Si number density = 17.578215 Si / 1000 Ang^3
#
#
#
# Elastic Constant Matrix: (Units=GPa)
#
#
# Indices 1 2 3 4 5 6 
#
# 1 125.0672 47.9423 71.5284 0.0000 -10.6306 0.0000
# 2 47.9423 78.6552 62.8156 0.0000 -1.7007 0.0000
# 3 71.5284 62.8156 120.4898 0.0000 -10.5785 0.0000
# 4 0.0000 0.0000 0.0000 25.4739 0.0000 -0.3447
# 5 -10.6306 -1.7007 -10.5785 0.0000 28.6228 0.0000
# 6 0.0000 0.0000 0.0000 -0.3447 0.0000 18.9693
#
#
#
# Elastic Compliance Matrix: (Units=1/GPa)
#
#
# Indices 1 2 3 4 5 6 
#
# 1 0.012637 -0.003133 -0.005656 0.000000 0.002417 0.000000
# 2 -0.003133 0.022812 -0.010352 0.000000 -0.003634 0.000000
# 3 -0.005656 -0.010352 0.017380 0.000000 0.003707 0.000000
# 4 0.000000 0.000000 0.000000 0.039266 0.000000 0.000714
# 5 0.002417 -0.003634 0.003707 0.000000 0.036989 0.000000
# 6 0.000000 0.000000 0.000000 0.000714 0.000000 0.052730
#
#
# Mechanical properties :
#
#
# Convention : Reuss Voigt Hill
#
# Bulk Modulus (GPa) = 68.74679 76.53165 72.63922
# Shear Modulus (GPa) = 22.22773 24.07494 23.15133
#
# Velocity S-wave (km/s) = 3.55984 3.70481 3.63305
# Velocity P-wave (km/s) = 7.48937 7.86976 7.68192
#
# Compressibility (1/GPa) = 0.01454613
#
# Stress axis : x y z
#
# Youngs Moduli (GPa) = 79.13166 43.83666 57.53857
#
# Poissons Ratio (x) = 0.13734 0.32546
# Poissons Ratio (y) = 0.24792 0.59563
# Poissons Ratio (z) = 0.44761 0.45379
#
# Static dielectric constant tensor:
#      x y z
#    x 3.284360 0.000000 -0.302050 
#    y 0.000000 3.244040 0.000000 
#    z -0.302050 0.000000 3.251030 
# 
# 
# High freq. dielectric constant tensor:
#      x y z
#    x 1.662190 0.000000 -0.023240 
#    y 0.000000 1.679740 0.000000 
#    z -0.023240 0.000000 1.679750 
# 
# From -- ./inp_files/93795.got.cif
#   From: 2010.06.25/outbox.cif.g09.slc.cpg/sg10_47_cif.got.tgz:93795.got - 2010.06.27 22:07:45.
