data_PCOD8060590
_publ_section_title
;
Structure prediction by ZEFSAII (Michael W. Deem and Ramdas Pophale) SiO2 
 PCOD8060590
Probable space group: P 2/M
;
_chemical_formula_sum "Si O2"
_cell_formula_units_Z 32
_cell_length_a 9.942301
_cell_length_b 13.400922
_cell_length_c 27.355827
_cell_angle_alpha 90.000000
_cell_angle_beta 152.423870
_cell_angle_gamma 90.000000
_cell_volume 1687.266768
_symmetry_space_group_name_H-M "P 2/M"
_symmetry_group_IT_number 10
_symmetry_cell_setting 'monoclinic'
loop_
_space_group_symop_operation_xyz
x,y,z
-x,y,-z
-x,-y,-z
x,-y,z
loop_
_atom_site_type_symbol
_atom_site_label
_atom_site_fract_x
_atom_site_fract_y
_atom_site_fract_z
Si Si1 0.509360 0.205305 0.105429
Si Si2 0.311325 0.386153 0.987672
Si Si3 0.663337 0.381877 0.750087
Si Si4 0.560503 0.881390 0.814879
Si Si5 0.407320 0.759146 0.596686
Si Si6 0.040716 0.116545 0.892472
Si Si7 0.920343 0.881279 0.744670
Si Si8 0.208991 0.240337 0.635269
O O1 0.455772 0.322887 0.078517
O O2 0.366355 0.170236 0.110062
O O3 0.845111 0.172080 0.214548
O O4 0.360699 0.148946 0.011893
O O5 0.307806 0.500000 0.004551
O O6 0.500000 0.373363 0.000000
O O7 0.984396 0.347323 0.871226
O O8 0.643954 0.500000 0.741885
O O9 0.593347 0.339227 0.672809
O O10 0.416708 0.338716 0.707979
O O11 0.260245 0.838111 0.695845
O O12 0.806498 0.845230 0.856296
O O13 0.543212 0.000000 0.816428
O O14 0.602629 0.837804 0.628941
O O15 0.292860 0.811249 0.610207
O O16 0.130921 0.728542 0.474223
O O17 0.973011 0.157606 0.816947
O O18 0.027810 0.000000 0.885461
O O19 0.931859 0.000000 0.741127
#
# Coordination Sequence:
#
# PCOD8060590 Si02
#       8
#     4   4   4   4   4   4   4   4
#     4  12  22  34  53  76 112 147 182 224 271 327
#     4  10  20  34  56  83 111 147 184 222 276 334
#     4   9  17  32  55  84 112 135 175 235 284 323
#     4  11  22  36  52  76 111 151 189 224 274 336
#     4   9  18  33  55  80 103 135 185 233 283 321
#     4  10  19  32  51  75 103 140 185 224 266 323
#     4  11  21  34  53  80 108 139 186 236 276 321
#     4   9  19  34  54  78 103 141 188 229 275 327
#
# _framework density 18.965585999999998
#
# number of rings (size 3 to 8) (size 9 to 14) (size 15 to 20)
#    0.750    1.125    1.250    4.875    0.000    3.500 
#    0.000    2.500    0.000    4.500    0.000    0.000 
#    0.000    6.000    0.000    0.000    0.000    0.000 
#
# Total GULP energy -396596.592264 kJ/mol
# GULP energy per Si atom -12393.643508 kJ/mol
# Density = 1.892242 g / cm^3
# Si number density = 18.965586 Si / 1000 Ang^3
#
#
#
# Elastic Constant Matrix: (Units=GPa)
#
#
# Indices 1 2 3 4 5 6 
#
# 1 30.3379 36.4902 7.8650 0.0000 9.6870 0.0000
# 2 36.4902 83.1655 48.0689 0.0000 3.2450 0.0000
# 3 7.8650 48.0689 103.1617 0.0000 22.0791 0.0000
# 4 0.0000 0.0000 0.0000 24.2729 0.0000 1.7379
# 5 9.6870 3.2450 22.0791 0.0000 25.3673 0.0000
# 6 0.0000 0.0000 0.0000 1.7379 0.0000 23.2734
#
#
#
# Elastic Compliance Matrix: (Units=1/GPa)
#
#
# Indices 1 2 3 4 5 6 
#
# 1 0.201061 -0.122489 0.067375 0.000000 -0.119752 0.000000
# 2 -0.122489 0.091755 -0.050281 0.000000 0.078800 0.000000
# 3 0.067375 -0.050281 0.039467 0.000000 -0.053648 0.000000
# 4 0.000000 0.000000 0.000000 0.041420 0.000000 -0.003093
# 5 -0.119752 0.078800 -0.053648 0.000000 0.121764 0.000000
# 6 0.000000 0.000000 0.000000 -0.003093 0.000000 0.043198
#
#
# Mechanical properties :
#
#
# Convention : Reuss Voigt Hill
#
# Bulk Modulus (GPa) = 8.23073 44.61259 26.42166
# Shear Modulus (GPa) = 6.32950 22.86546 14.59748
#
# Velocity S-wave (km/s) = 1.82883 3.47598 2.77733
# Velocity P-wave (km/s) = 2.96795 6.29952 4.92406
#
# Compressibility (1/GPa) = 0.12149589
#
# Stress axis : x y z
#
# Youngs Moduli (GPa) = 4.97362 10.89857 25.33735
#
# Poissons Ratio (x) = 1.33495 -1.70711
# Poissons Ratio (y) = 0.60921 1.27398
# Poissons Ratio (z) = -0.33510 0.54799
#
# Static dielectric constant tensor:
#      x y z
#    x 3.255940 0.000000 0.150080 
#    y 0.000000 3.361580 0.000000 
#    z 0.150080 0.000000 3.566430 
# 
# 
# High freq. dielectric constant tensor:
#      x y z
#    x 1.702300 0.000000 0.018310 
#    y 0.000000 1.730880 0.000000 
#    z 0.018310 0.000000 1.736650 
# 
# From -- ./inp_files/92385.got.cif
#   From: 2010.06.25/outbox.cif.g09.slc.cpg/sg10_47_cif.got.tgz:92385.got - 2010.06.27 22:07:45.
