data_PCOD8060987
_publ_section_title
;
Structure prediction by ZEFSAII (Michael W. Deem and Ramdas Pophale) SiO2 
 PCOD8060987
Probable space group: P 2/M
;
_chemical_formula_sum "Si O2"
_cell_formula_units_Z 28
_cell_length_a 19.719928
_cell_length_b 9.088797
_cell_length_c 14.115828
_cell_angle_alpha 90.000000
_cell_angle_beta 37.145958
_cell_angle_gamma 90.000000
_cell_volume 1527.725737
_symmetry_space_group_name_H-M "P 2/M"
_symmetry_group_IT_number 10
_symmetry_cell_setting 'monoclinic'
loop_
_space_group_symop_operation_xyz
x,y,z
-x,y,-z
-x,-y,-z
x,-y,z
loop_
_atom_site_type_symbol
_atom_site_label
_atom_site_fract_x
_atom_site_fract_y
_atom_site_fract_z
Si Si1 0.232972 0.668699 0.613652
Si Si2 0.879644 0.173422 0.099265
Si Si3 0.136089 0.828881 0.098364
Si Si4 0.918379 0.327411 0.394446
Si Si5 0.573847 0.672321 0.741455
Si Si6 0.271543 0.828708 0.286440
Si Si7 0.345609 0.832141 0.992878
O O1 0.226726 0.500000 0.650630
O O2 0.217926 0.763055 0.725151
O O3 0.135101 0.707925 0.648130
O O4 0.352631 0.707248 0.433596
O O5 0.857262 0.225711 0.017314
O O6 0.874796 0.000000 0.113589
O O7 0.000000 0.234580 0.000000
O O8 0.102449 0.000000 0.141801
O O9 0.255967 0.797988 0.011280
O O10 0.043330 0.736575 0.258509
O O11 0.919648 0.500000 0.414576
O O12 0.844709 0.249529 0.557149
O O13 0.578170 0.500000 0.760747
O O14 0.622599 0.758668 0.777263
O O15 0.448210 0.722921 0.860663
O O16 0.288140 0.802062 0.157226
O O17 0.264442 0.000000 0.320597
O O18 0.388720 0.000000 0.938929
#
# Coordination Sequence:
#
# PCOD8060987 Si02
#       7
#     4   4   4   4   4   4   4
#     4   9  19  34  53  79 108 137 172 217 268 318
#     4  10  19  32  55  84 106 134 178 220 264 314
#     4  10  21  37  54  77 112 144 178 222 268 321
#     4  10  20  34  53  81 111 141 179 220 270 321
#     4  10  21  37  57  82 109 139 179 225 268 313
#     4  10  20  35  57  81 106 140 183 223 265 317
#     4  10  22  38  55  77 107 147 184 218 266 321
#
# _framework density 18.327897
#
# number of rings (size 3 to 8) (size 9 to 14) (size 15 to 20)
#    0.000    2.143    1.429    2.571    0.000    7.714 
#    0.000    3.571    0.000    4.286    0.000    0.000 
#    0.000    0.000    0.000    0.000    0.000    0.000 
#
# Total GULP energy -347316.365876 kJ/mol
# GULP energy per Si atom -12404.155924 kJ/mol
# Density = 1.828618 g / cm^3
# Si number density = 18.327897 Si / 1000 Ang^3
#
#
#
# Elastic Constant Matrix: (Units=GPa)
#
#
# Indices 1 2 3 4 5 6 
#
# 1 99.1256 39.7165 47.9263 0.0000 9.2555 0.0000
# 2 39.7165 79.0206 49.7604 0.0000 2.2189 0.0000
# 3 47.9263 49.7604 82.4732 0.0000 11.8694 0.0000
# 4 0.0000 0.0000 0.0000 36.4103 0.0000 -5.0125
# 5 9.2555 2.2189 11.8694 0.0000 16.8419 0.0000
# 6 0.0000 0.0000 0.0000 -5.0125 0.0000 16.2980
#
#
#
# Elastic Compliance Matrix: (Units=1/GPa)
#
#
# Indices 1 2 3 4 5 6 
#
# 1 0.014688 -0.003587 -0.005874 0.000000 -0.003460 0.000000
# 2 -0.003587 0.021980 -0.012291 0.000000 0.007737 0.000000
# 3 -0.005874 -0.012291 0.024769 0.000000 -0.012609 0.000000
# 4 0.000000 0.000000 0.000000 0.028679 0.000000 0.008820
# 5 -0.003460 0.007737 -0.012609 0.000000 0.069144 0.000000
# 6 0.000000 0.000000 0.000000 0.008820 0.000000 0.064070
#
#
# Mechanical properties :
#
#
# Convention : Reuss Voigt Hill
#
# Bulk Modulus (GPa) = 55.75797 59.49176 57.62487
# Shear Modulus (GPa) = 18.32775 22.12447 20.22611
#
# Velocity S-wave (km/s) = 3.16570 3.47817 3.32561
# Velocity P-wave (km/s) = 6.62198 6.97570 6.80114
#
# Compressibility (1/GPa) = 0.01793466
#
# Stress axis : x y z
#
# Youngs Moduli (GPa) = 68.08229 45.49551 40.37325
#
# Poissons Ratio (x) = 0.16317 0.23713
# Poissons Ratio (y) = 0.24418 0.49623
# Poissons Ratio (z) = 0.39989 0.55919
#
# Static dielectric constant tensor:
#      x y z
#    x 3.255130 0.000000 0.033090 
#    y 0.000000 3.361720 0.000000 
#    z 0.033090 0.000000 3.370470 
# 
# 
# High freq. dielectric constant tensor:
#      x y z
#    x 1.694160 0.000000 0.004660 
#    y 0.000000 1.714010 0.000000 
#    z 0.004660 0.000000 1.716260 
# 
# From -- ./inp_files/48750.got.cif
#   From: 2010.06.25/outbox.cif.g09.slc.cpg/sg10_25_cif.got.tgz:48750.got - 2010.06.27 22:07:45.
