data_PCOD8060733
_publ_section_title
;
Structure prediction by ZEFSAII (Michael W. Deem and Ramdas Pophale) SiO2 
 PCOD8060733
Probable space group: P 2/M
;
_chemical_formula_sum "Si O2"
_cell_formula_units_Z 28
_cell_length_a 23.118285
_cell_length_b 14.530065
_cell_length_c 9.904405
_cell_angle_alpha 90.000000
_cell_angle_beta 152.154703
_cell_angle_gamma 90.000000
_cell_volume 1553.990114
_symmetry_space_group_name_H-M "P 2/M"
_symmetry_group_IT_number 10
_symmetry_cell_setting 'monoclinic'
loop_
_space_group_symop_operation_xyz
x,y,z
-x,y,-z
-x,-y,-z
x,-y,z
loop_
_atom_site_type_symbol
_atom_site_label
_atom_site_fract_x
_atom_site_fract_y
_atom_site_fract_z
Si Si1 0.093351 0.102244 0.890154
Si Si2 0.828116 0.102142 0.256650
Si Si3 0.731783 0.606640 0.198268
Si Si4 0.640738 0.747655 0.810274
Si Si5 0.354462 0.603924 0.685597
Si Si6 0.998406 0.392395 0.344891
Si Si7 0.771386 0.721203 0.795065
O O1 0.132947 0.101338 0.817544
O O2 0.947566 0.130249 0.594421
O O3 0.113440 0.000000 0.994653
O O4 0.179390 0.176716 0.144660
O O5 0.783248 0.000000 0.206652
O O6 0.715435 0.172677 0.044028
O O7 0.704197 0.500000 0.116104
O O8 0.706465 0.634442 0.299594
O O9 0.873270 0.632717 0.460796
O O10 0.641395 0.659002 0.908544
O O11 0.500000 0.780835 0.500000
O O12 0.701645 0.721803 0.793618
O O13 0.311052 0.500000 0.555408
O O14 0.319902 0.680692 0.504849
O O15 0.500000 0.605242 0.000000
O O16 0.970999 0.500000 0.289131
O O17 0.000000 0.352536 0.500000
O O18 0.889619 0.344660 0.039303
#
# Coordination Sequence:
#
# PCOD8060733 Si02
#       7
#     4   4   4   4   4   4   4
#     4   8  15  28  50  77 101 128 166 212 263 318
#     4   8  15  29  48  73 105 133 160 208 268 312
#     4  10  21  36  52  73 106 140 171 215 265 309
#     4  11  21  31  49  77 103 135 180 217 253 306
#     4  10  22  39  54  72 105 147 184 213 249 306
#     4  10  19  32  52  79 107 129 164 220 271 310
#     4  11  20  32  56  78 102 136 176 219 261 311
#
# _framework density 18.018132000000001
#
# number of rings (size 3 to 8) (size 9 to 14) (size 15 to 20)
#    0.000    2.286    1.429    3.000    2.000    1.714 
#    0.000    2.143    0.000    1.286    0.000    3.000 
#    0.000    0.000    0.000    0.000    0.000    0.000 
#
# Total GULP energy -347142.084321 kJ/mol
# GULP energy per Si atom -12397.931583 kJ/mol
# Density = 1.797712 g / cm^3
# Si number density = 18.018132 Si / 1000 Ang^3
#
#
#
# Elastic Constant Matrix: (Units=GPa)
#
#
# Indices 1 2 3 4 5 6 
#
# 1 70.7512 30.4898 20.7773 0.0000 0.5590 0.0000
# 2 30.4898 97.1701 55.4714 0.0000 -5.9968 0.0000
# 3 20.7773 55.4714 77.4525 0.0000 0.8872 0.0000
# 4 0.0000 0.0000 0.0000 39.2238 0.0000 -5.4291
# 5 0.5590 -5.9968 0.8872 0.0000 23.1120 0.0000
# 6 0.0000 0.0000 0.0000 -5.4291 0.0000 11.3349
#
#
#
# Elastic Compliance Matrix: (Units=1/GPa)
#
#
# Indices 1 2 3 4 5 6 
#
# 1 0.016465 -0.004655 -0.001065 0.000000 -0.001565 0.000000
# 2 -0.004655 0.019322 -0.012654 0.000000 0.005612 0.000000
# 3 -0.001065 -0.012654 0.022307 0.000000 -0.004114 0.000000
# 4 0.000000 0.000000 0.000000 0.027305 0.000000 0.013078
# 5 -0.001565 0.005612 -0.004114 0.000000 0.044919 0.000000
# 6 0.000000 0.000000 0.000000 0.013078 0.000000 0.094487
#
#
# Mechanical properties :
#
#
# Convention : Reuss Voigt Hill
#
# Bulk Modulus (GPa) = 46.84745 50.98342 48.91544
# Shear Modulus (GPa) = 18.61029 23.97650 21.29339
#
# Velocity S-wave (km/s) = 3.21731 3.65182 3.44143
# Velocity P-wave (km/s) = 6.31332 6.79250 6.55729
#
# Compressibility (1/GPa) = 0.02134588
#
# Stress axis : x y z
#
# Youngs Moduli (GPa) = 60.73408 51.75477 44.82962
#
# Poissons Ratio (x) = 0.24092 0.04775
# Poissons Ratio (y) = 0.28272 0.56727
# Poissons Ratio (z) = 0.06469 0.65490
#
# Static dielectric constant tensor:
#      x y z
#    x 0.974190 0.000000 -0.284890 
#    y 0.000000 3.703720 0.000000 
#    z -0.284890 0.000000 3.145160 
# 
# 
# High freq. dielectric constant tensor:
#      x y z
#    x 1.669940 0.000000 0.018410 
#    y 0.000000 1.704490 0.000000 
#    z 0.018410 0.000000 1.687270 
# 
# From -- ./inp_files/25413.got.cif
#   From: 2010.06.25/outbox.cif.g09.slc.cpg/sg10_13_cif.got.tgz:25413.got - 2010.06.27 22:07:45.
