data_PCOD8060768
_publ_section_title
;
Structure prediction by ZEFSAII (Michael W. Deem and Ramdas Pophale) SiO2 
 PCOD8060768
Probable space group: P 2/M
;
_chemical_formula_sum "Si O2"
_cell_formula_units_Z 20
_cell_length_a 16.479573
_cell_length_b 7.684872
_cell_length_c 11.668029
_cell_angle_alpha 90.000000
_cell_angle_beta 44.528287
_cell_angle_gamma 90.000000
_cell_volume 1036.239093
_symmetry_space_group_name_H-M "P 2/M"
_symmetry_group_IT_number 10
_symmetry_cell_setting 'monoclinic'
loop_
_space_group_symop_operation_xyz
x,y,z
-x,y,-z
-x,-y,-z
x,-y,z
loop_
_atom_site_type_symbol
_atom_site_label
_atom_site_fract_x
_atom_site_fract_y
_atom_site_fract_z
Si Si1 0.381916 0.000000 0.767121
Si Si2 0.620229 0.694423 0.851803
Si Si3 0.349674 0.000000 0.531380
Si Si4 0.243526 0.190374 0.080347
Si Si5 0.235975 0.708734 0.505330
Si Si6 0.997834 0.701852 0.373106
O O1 0.352353 0.000000 0.664732
O O2 0.519685 0.000000 0.650481
O O3 0.322285 0.172102 0.885692
O O4 0.589267 0.500000 0.844516
O O5 0.698575 0.683432 0.886078
O O6 0.686585 0.777016 0.678658
O O7 0.500000 0.796377 0.000000
O O8 0.281255 0.823529 0.565891
O O9 0.114925 0.260443 0.184093
O O10 0.233209 0.000000 0.149021
O O11 0.244849 0.500000 0.522052
O O12 0.106579 0.769530 0.601533
O O13 0.975701 0.500000 0.412341
O O14 0.000000 0.785465 0.500000
#
# Coordination Sequence:
#
# PCOD8060768 Si02
#       6
#     2   4   2   4   4   4
#     4   9  24  42  57  88 106 156 208 241 298 355
#     4  10  19  32  52  83 119 149 181 235 298 353
#     4  11  22  44  67  74 122 156 194 265 292 327
#     4  10  21  34  54  81 118 143 198 235 284 353
#     4  10  22  36  59  93 116 152 201 233 297 362
#     4  10  19  35  56  84 124 159 186 229 289 359
#
# _framework density 19.300563
#
# number of rings (size 3 to 8) (size 9 to 14) (size 15 to 20)
#    0.600    1.400    2.000    1.800    2.800    0.800 
#    0.000    7.000    0.000    2.400    0.000    0.000 
#    0.000    0.000    0.000    0.000    0.000    0.000 
#
# Total GULP energy -247780.513437 kJ/mol
# GULP energy per Si atom -12389.025672 kJ/mol
# Density = 1.925663 g / cm^3
# Si number density = 19.300563 Si / 1000 Ang^3
#
#
#
# Elastic Constant Matrix: (Units=GPa)
#
#
# Indices 1 2 3 4 5 6 
#
# 1 121.7771 33.4361 37.2679 0.0000 -16.9750 0.0000
# 2 33.4361 49.8936 6.9706 0.0000 1.0187 0.0000
# 3 37.2679 6.9706 66.3212 0.0000 -12.5007 0.0000
# 4 0.0000 0.0000 0.0000 17.1546 0.0000 -4.2640
# 5 -16.9750 1.0187 -12.5007 0.0000 38.3137 0.0000
# 6 0.0000 0.0000 0.0000 -4.2640 0.0000 27.4538
#
#
#
# Elastic Compliance Matrix: (Units=1/GPa)
#
#
# Indices 1 2 3 4 5 6 
#
# 1 0.012576 -0.007740 -0.005503 0.000000 0.003982 0.000000
# 2 -0.007740 0.025168 0.000993 0.000000 -0.003775 0.000000
# 3 -0.005503 0.000993 0.018755 0.000000 0.003655 0.000000
# 4 0.000000 0.000000 0.000000 0.060634 0.000000 0.009417
# 5 0.003982 -0.003775 0.003655 0.000000 0.029157 0.000000
# 6 0.000000 0.000000 0.000000 0.009417 0.000000 0.037887
#
#
# Mechanical properties :
#
#
# Convention : Reuss Voigt Hill
#
# Bulk Modulus (GPa) = 31.25144 43.70457 37.47800
# Shear Modulus (GPa) = 22.79510 27.27224 25.03367
#
# Velocity S-wave (km/s) = 3.44038 3.76310 3.60536
# Velocity P-wave (km/s) = 5.65763 6.44784 6.06562
#
# Compressibility (1/GPa) = 0.03199853
#
# Stress axis : x y z
#
# Youngs Moduli (GPa) = 79.51569 39.73264 53.31954
#
# Poissons Ratio (x) = 0.30755 0.29340
# Poissons Ratio (y) = 0.61548 -0.05294
# Poissons Ratio (z) = 0.43756 -0.03945
#
# Static dielectric constant tensor:
#      x y z
#    x 3.452590 0.000000 -0.341390 
#    y 0.000000 3.279890 0.000000 
#    z -0.341390 0.000000 3.581530 
# 
# 
# High freq. dielectric constant tensor:
#      x y z
#    x 1.743810 0.000000 -0.030400 
#    y 0.000000 1.735450 0.000000 
#    z -0.030400 0.000000 1.743350 
# 
# From -- ./inp_files/48605.got.cif
#   From: 2010.06.25/outbox.cif.g09.slc.cpg/sg10_25_cif.got.tgz:48605.got - 2010.06.27 22:07:45.
