data_PCOD8060427
_publ_section_title
;
Structure prediction by ZEFSAII (Michael W. Deem and Ramdas Pophale) SiO2 
 PCOD8060427
Probable space group: P 2/M
;
_chemical_formula_sum "Si O2"
_cell_formula_units_Z 28
_cell_length_a 20.735683
_cell_length_b 9.093656
_cell_length_c 16.847312
_cell_angle_alpha 90.000000
_cell_angle_beta 34.116646
_cell_angle_gamma 90.000000
_cell_volume 1781.792338
_symmetry_space_group_name_H-M "P 2/M"
_symmetry_group_IT_number 10
_symmetry_cell_setting 'monoclinic'
loop_
_space_group_symop_operation_xyz
x,y,z
-x,y,-z
-x,-y,-z
x,-y,z
loop_
_atom_site_type_symbol
_atom_site_label
_atom_site_fract_x
_atom_site_fract_y
_atom_site_fract_z
Si Si1 0.738539 0.672336 0.418200
Si Si2 0.988257 0.326716 0.421012
Si Si3 0.893916 0.165650 0.826462
Si Si4 0.867068 0.829299 0.149832
Si Si5 0.507409 0.671850 0.402150
Si Si6 0.267000 0.825743 0.869889
Si Si7 0.852903 0.165650 0.438285
O O1 0.758813 0.500000 0.406515
O O2 0.828268 0.733373 0.263431
O O3 0.609876 0.710368 0.522846
O O4 0.759229 0.748868 0.481735
O O5 0.977790 0.500000 0.421254
O O6 0.101020 0.267744 0.257830
O O7 0.000000 0.279461 0.500000
O O8 0.873374 0.249776 0.501606
O O9 0.022857 0.162934 0.733556
O O10 0.858075 0.000000 0.838325
O O11 0.805543 0.231684 0.980539
O O12 0.796632 0.774611 0.145072
O O13 0.842900 0.000000 0.192914
O O14 0.000000 0.799063 0.000000
O O15 0.500000 0.729908 0.500000
O O16 0.535596 0.500000 0.372577
O O17 0.607433 0.755535 0.253525
O O18 0.276767 0.000000 0.862776
O O19 0.808710 0.000000 0.499282
#
# Coordination Sequence:
#
# PCOD8060427 Si02
#       7
#     4   4   4   4   4   4   4
#     4  11  21  33  48  67  93 126 168 210 247 288
#     4   9  17  30  50  78 107 131 156 186 229 291
#     4   8  17  31  48  72 101 128 158 195 238 285
#     4  10  20  32  47  66  93 126 161 201 249 291
#     4  10  21  36  48  63  91 128 170 214 252 286
#     4  10  19  32  49  69  92 125 169 209 241 284
#     4   9  18  32  50  71 101 129 157 194 239 289
#
# _framework density 15.714513
#
# number of rings (size 3 to 8) (size 9 to 14) (size 15 to 20)
#    0.857    1.571    1.429    1.714    0.000    5.714 
#    0.000    0.000    0.000    0.000    0.000    1.000 
#    0.000    8.000    0.000    0.000    0.000    0.000 
#
# Total GULP energy -347068.429476 kJ/mol
# GULP energy per Si atom -12395.301053 kJ/mol
# Density = 1.567875 g / cm^3
# Si number density = 15.714513 Si / 1000 Ang^3
#
#
#
# Elastic Constant Matrix: (Units=GPa)
#
#
# Indices 1 2 3 4 5 6 
#
# 1 118.5303 57.3805 44.9345 0.0000 12.2851 0.0000
# 2 57.3805 69.6834 26.5061 0.0000 4.4523 0.0000
# 3 44.9345 26.5061 49.8995 0.0000 0.7178 0.0000
# 4 0.0000 0.0000 0.0000 23.3239 0.0000 2.9054
# 5 12.2851 4.4523 0.7178 0.0000 22.4587 0.0000
# 6 0.0000 0.0000 0.0000 2.9054 0.0000 23.8177
#
#
#
# Elastic Compliance Matrix: (Units=1/GPa)
#
#
# Indices 1 2 3 4 5 6 
#
# 1 0.018498 -0.010587 -0.010923 0.000000 -0.007671 0.000000
# 2 -0.010587 0.024286 -0.003382 0.000000 0.001085 0.000000
# 3 -0.010923 -0.003382 0.031592 0.000000 0.005636 0.000000
# 4 0.000000 0.000000 0.000000 0.043536 0.000000 -0.005311
# 5 -0.007671 0.001085 0.005636 0.000000 0.048327 0.000000
# 6 0.000000 0.000000 0.000000 -0.005311 0.000000 0.042633
#
#
# Mechanical properties :
#
#
# Convention : Reuss Voigt Hill
#
# Bulk Modulus (GPa) = 40.66589 55.08392 47.87491
# Shear Modulus (GPa) = 18.73687 21.20621 19.97154
#
# Velocity S-wave (km/s) = 3.45676 3.67749 3.56883
# Velocity P-wave (km/s) = 6.47042 7.29115 6.89301
#
# Compressibility (1/GPa) = 0.02459063
#
# Stress axis : x y z
#
# Youngs Moduli (GPa) = 54.06079 41.17674 31.65326
#
# Poissons Ratio (x) = 0.43593 0.34576
# Poissons Ratio (y) = 0.57233 0.10707
# Poissons Ratio (z) = 0.59052 0.13928
#
# Static dielectric constant tensor:
#      x y z
#    x 2.894030 0.000000 -0.001480 
#    y 0.000000 2.967710 0.000000 
#    z -0.001480 0.000000 2.795980 
# 
# 
# High freq. dielectric constant tensor:
#      x y z
#    x 1.590530 0.000000 -0.000200 
#    y 0.000000 1.609510 0.000000 
#    z -0.000200 0.000000 1.577800 
# 
# From -- ./inp_files/68618.got.cif
#   From: 2010.06.25/outbox.cif.g09.slc.cpg/sg10_35_cif.got.tgz:68618.got - 2010.06.27 22:07:45.
