data_PCOD8060285
_publ_section_title
;
Structure prediction by ZEFSAII (Michael W. Deem and Ramdas Pophale) SiO2 
 PCOD8060285
Probable space group: P 2/M
;
_chemical_formula_sum "Si O2"
_cell_formula_units_Z 28
_cell_length_a 11.953160
_cell_length_b 9.040777
_cell_length_c 14.784998
_cell_angle_alpha 90.000000
_cell_angle_beta 71.120991
_cell_angle_gamma 90.000000
_cell_volume 1511.800638
_symmetry_space_group_name_H-M "P 2/M"
_symmetry_group_IT_number 10
_symmetry_cell_setting 'monoclinic'
loop_
_space_group_symop_operation_xyz
x,y,z
-x,y,-z
-x,-y,-z
x,-y,z
loop_
_atom_site_type_symbol
_atom_site_label
_atom_site_fract_x
_atom_site_fract_y
_atom_site_fract_z
Si Si1 0.793861 0.325330 0.766300
Si Si2 0.364112 0.174463 0.702988
Si Si3 0.375222 0.176403 0.326486
Si Si4 0.115026 0.174752 0.086815
Si Si5 0.976409 0.326591 0.405188
Si Si6 0.737797 0.173479 0.456883
Si Si7 0.147560 0.825186 0.874392
O O1 0.774683 0.500000 0.773288
O O2 0.683467 0.251234 0.744905
O O3 0.802023 0.261934 0.865106
O O4 0.913144 0.278826 0.683996
O O5 0.489574 0.233413 0.706088
O O6 0.352877 0.214459 0.599807
O O7 0.255893 0.245283 0.788996
O O8 0.360258 0.000000 0.716938
O O9 0.311886 0.233138 0.434886
O O10 0.367154 0.000000 0.320724
O O11 0.978944 0.231098 0.130581
O O12 0.124777 0.000000 0.102301
O O13 0.163373 0.217455 0.975124
O O14 0.953283 0.500000 0.408999
O O15 0.000000 0.269749 0.500000
O O16 0.861292 0.246674 0.397389
O O17 0.758571 0.000000 0.456907
O O18 0.146186 0.000000 0.865194
#
# Coordination Sequence:
#
# PCOD8060285 Si02
#       7
#     4   4   4   4   4   4   4
#     4  11  22  35  51  72 102 138 170 204 251 298
#     4   9  17  31  51  76 104 132 165 207 253 297
#     4  10  20  33  50  73 103 137 171 206 244 294
#     4   9  17  32  56  82 103 126 162 207 254 302
#     4  10  20  34  49  68 100 136 165 199 245 299
#     4  10  19  31  52  79 102 128 167 213 253 290
#     4   8  15  30  54  81 105 128 159 205 255 301
#
# _framework density 18.520961
#
# number of rings (size 3 to 8) (size 9 to 14) (size 15 to 20)
#    0.000    2.429    1.429    2.571    0.000    4.286 
#    0.000    2.857    0.000    8.571    0.000    0.000 
#    0.000    0.000    0.000    0.000    0.000    0.000 
#
# Total GULP energy -347179.759172 kJ/mol
# GULP energy per Si atom -12399.277113 kJ/mol
# Density = 1.847881 g / cm^3
# Si number density = 18.520961 Si / 1000 Ang^3
#
#
#
# Elastic Constant Matrix: (Units=GPa)
#
#
# Indices 1 2 3 4 5 6 
#
# 1 133.1710 28.1244 43.1421 0.0000 14.3840 0.0000
# 2 28.1244 27.1778 16.3277 0.0000 6.3284 0.0000
# 3 43.1421 16.3277 77.4285 0.0000 13.0084 0.0000
# 4 0.0000 0.0000 0.0000 14.9912 0.0000 -4.7568
# 5 14.3840 6.3284 13.0084 0.0000 32.3120 0.0000
# 6 0.0000 0.0000 0.0000 -4.7568 0.0000 4.6706
#
#
#
# Elastic Compliance Matrix: (Units=1/GPa)
#
#
# Indices 1 2 3 4 5 6 
#
# 1 0.010722 -0.008362 -0.003951 0.000000 -0.001545 0.000000
# 2 -0.008362 0.049425 -0.005108 0.000000 -0.003901 0.000000
# 3 -0.003951 -0.005108 0.016871 0.000000 -0.004033 0.000000
# 4 0.000000 0.000000 0.000000 0.098555 0.000000 0.100374
# 5 -0.001545 -0.003901 -0.004033 0.000000 0.034023 0.000000
# 6 0.000000 0.000000 0.000000 0.100374 0.000000 0.316332
#
#
# Mechanical properties :
#
#
# Convention : Reuss Voigt Hill
#
# Bulk Modulus (GPa) = 23.71011 45.88508 34.79759
# Shear Modulus (GPa) = 8.69822 20.40696 14.55259
#
# Velocity S-wave (km/s) = 2.16947 3.32298 2.80614
# Velocity P-wave (km/s) = 4.37093 6.28899 5.41556
#
# Compressibility (1/GPa) = 0.04217610
#
# Stress axis : x y z
#
# Youngs Moduli (GPa) = 93.26610 20.23266 59.27178
#
# Poissons Ratio (x) = 0.16918 0.23420
# Poissons Ratio (y) = 0.77989 0.30276
# Poissons Ratio (z) = 0.36853 0.10335
#
# Static dielectric constant tensor:
#      x y z
#    x 3.544600 0.000000 -0.093380 
#    y 0.000000 2.964500 0.000000 
#    z -0.093380 0.000000 3.577130 
# 
# 
# High freq. dielectric constant tensor:
#      x y z
#    x 1.722280 0.000000 0.007620 
#    y 0.000000 1.678450 0.000000 
#    z 0.007620 0.000000 1.719850 
# 
# From -- ./inp_files/49105.got.cif
#   From: 2010.06.25/outbox.cif.g09.slc.cpg/sg10_25_cif.got.tgz:49105.got - 2010.06.27 22:07:45.
