data_PCOD8060110
_publ_section_title
;
Structure prediction by ZEFSAII (Michael W. Deem and Ramdas Pophale) SiO2 
 PCOD8060110
Probable space group: P 2/M
;
_chemical_formula_sum "Si O2"
_cell_formula_units_Z 32
_cell_length_a 15.340085
_cell_length_b 9.337233
_cell_length_c 21.243250
_cell_angle_alpha 90.000000
_cell_angle_beta 145.740852
_cell_angle_gamma 90.000000
_cell_volume 1712.878809
_symmetry_space_group_name_H-M "P 2/M"
_symmetry_group_IT_number 10
_symmetry_cell_setting 'monoclinic'
loop_
_space_group_symop_operation_xyz
x,y,z
-x,y,-z
-x,-y,-z
x,-y,z
loop_
_atom_site_type_symbol
_atom_site_label
_atom_site_fract_x
_atom_site_fract_y
_atom_site_fract_z
Si Si1 0.998551 0.835908 0.928891
Si Si2 0.791437 0.331563 0.427335
Si Si3 0.868585 0.667963 0.334670
Si Si4 0.220800 0.335803 0.370440
Si Si5 0.665708 0.838219 0.671451
Si Si6 0.883399 0.663516 0.111728
Si Si7 0.675955 0.670889 0.101813
Si Si8 0.358579 0.832358 0.560579
O O1 0.824379 0.818060 0.802520
O O2 0.116298 0.753133 0.952836
O O3 0.053888 0.000000 0.962840
O O4 0.000000 0.770433 0.000000
O O5 0.768342 0.500000 0.426341
O O6 0.777977 0.297822 0.345173
O O7 0.656813 0.238837 0.379853
O O8 0.955647 0.275888 0.553651
O O9 0.879866 0.500000 0.331262
O O10 0.775455 0.735377 0.219845
O O11 0.267682 0.500000 0.409678
O O12 0.339836 0.267652 0.391201
O O13 0.233538 0.247052 0.442104
O O14 0.045607 0.320573 0.243875
O O15 0.530633 0.799257 0.639151
O O16 0.647541 0.000000 0.634746
O O17 0.851096 0.500000 0.073694
O O18 0.751604 0.721244 0.080830
O O19 0.678450 0.500000 0.107048
O O20 0.500000 0.728985 0.000000
O O21 0.321928 0.000000 0.541335
#
# Coordination Sequence:
#
# PCOD8060110 Si02
#       8
#     4   4   4   4   4   4   4   4
#     4   9  18  35  56  72  91 130 175 204 235 292
#     4   9  17  31  51  71  94 127 168 205 239 290
#     4   8  15  30  50  69  93 128 165 203 245 290
#     4  10  19  31  50  72  97 128 165 204 240 285
#     4   9  19  34  48  67  98 130 161 199 246 294
#     4   9  18  32  51  77 102 126 161 205 250 289
#     4   9  16  28  48  74 103 130 159 199 252 306
#     4  11  21  31  45  70 103 132 158 194 246 298
#
# _framework density 18.681999000000001
#
# number of rings (size 3 to 8) (size 9 to 14) (size 15 to 20)
#    0.000    2.750    0.000    2.625    0.000    5.250 
#    2.250    1.250    0.000    1.125    0.000    0.000 
#    0.000    0.000    0.000    0.000    0.000    0.000 
#
# Total GULP energy -396719.618757 kJ/mol
# GULP energy per Si atom -12397.488086 kJ/mol
# Density = 1.863948 g / cm^3
# Si number density = 18.681999 Si / 1000 Ang^3
#
#
#
# Elastic Constant Matrix: (Units=GPa)
#
#
# Indices 1 2 3 4 5 6 
#
# 1 161.8226 59.0261 41.4108 0.0000 -7.6748 0.0000
# 2 59.0261 68.3099 16.1952 0.0000 -3.4988 0.0000
# 3 41.4108 16.1952 52.6346 0.0000 -11.0769 0.0000
# 4 0.0000 0.0000 0.0000 15.0127 0.0000 0.6472
# 5 -7.6748 -3.4988 -11.0769 0.0000 28.0940 0.0000
# 6 0.0000 0.0000 0.0000 0.6472 0.0000 11.0937
#
#
#
# Elastic Compliance Matrix: (Units=1/GPa)
#
#
# Indices 1 2 3 4 5 6 
#
# 1 0.010486 -0.007665 -0.005986 0.000000 -0.000450 0.000000
# 2 -0.007665 0.021394 -0.000472 0.000000 0.000385 0.000000
# 3 -0.005986 -0.000472 0.025623 0.000000 0.008409 0.000000
# 4 0.000000 0.000000 0.000000 0.066778 0.000000 -0.003896
# 5 -0.000450 0.000385 0.008409 0.000000 0.038835 0.000000
# 6 0.000000 0.000000 0.000000 -0.003896 0.000000 0.090368
#
#
# Mechanical properties :
#
#
# Convention : Reuss Voigt Hill
#
# Bulk Modulus (GPa) = 34.17866 57.33681 45.75774
# Shear Modulus (GPa) = 17.15375 21.91577 19.53476
#
# Velocity S-wave (km/s) = 3.03346 3.42876 3.23715
# Velocity P-wave (km/s) = 5.53208 6.81416 6.20631
#
# Compressibility (1/GPa) = 0.02925802
#
# Stress axis : x y z
#
# Youngs Moduli (GPa) = 95.36656 46.74311 39.02696
#
# Poissons Ratio (x) = 0.35827 0.23363
# Poissons Ratio (y) = 0.73094 0.01840
# Poissons Ratio (z) = 0.57089 0.02204
#
# Static dielectric constant tensor:
#      x y z
#    x 3.642270 0.000000 -0.097870 
#    y 0.000000 3.234280 0.000000 
#    z -0.097870 0.000000 3.406830 
# 
# 
# High freq. dielectric constant tensor:
#      x y z
#    x 1.739480 0.000000 -0.005680 
#    y 0.000000 1.692130 0.000000 
#    z -0.005680 0.000000 1.708160 
# 
# From -- ./inp_files/84756.got.cif
#   From: 2010.06.25/outbox.cif.g09.slc.cpg/sg10_43_cif.got.tgz:84756.got - 2010.06.27 22:07:45.
