data_PCOD8060921
_publ_section_title
;
Structure prediction by ZEFSAII (Michael W. Deem and Ramdas Pophale) SiO2 
 PCOD8060921
Probable space group: P 2/M
;
_chemical_formula_sum "Si O2"
_cell_formula_units_Z 32
_cell_length_a 25.185999
_cell_length_b 8.936026
_cell_length_c 16.296476
_cell_angle_alpha 90.000000
_cell_angle_beta 26.879588
_cell_angle_gamma 90.000000
_cell_volume 1658.242788
_symmetry_space_group_name_H-M "P 2/M"
_symmetry_group_IT_number 10
_symmetry_cell_setting 'monoclinic'
loop_
_space_group_symop_operation_xyz
x,y,z
-x,y,-z
-x,-y,-z
x,-y,z
loop_
_atom_site_type_symbol
_atom_site_label
_atom_site_fract_x
_atom_site_fract_y
_atom_site_fract_z
Si Si1 0.957498 0.176236 0.837724
Si Si2 0.619614 0.675286 0.881807
Si Si3 0.410898 0.322642 0.890604
Si Si4 0.628507 0.834836 0.311764
Si Si5 0.227987 0.823634 0.456521
Si Si6 0.773700 0.326275 0.986287
Si Si7 0.191942 0.835389 0.803056
Si Si8 0.674665 0.322996 0.518546
O O1 0.896187 0.243969 0.839986
O O2 0.092170 0.222669 0.650539
O O3 0.934603 0.000000 0.864955
O O4 0.901943 0.232928 0.001648
O O5 0.649205 0.500000 0.836706
O O6 0.725486 0.768028 0.695403
O O7 0.500000 0.712970 0.000000
O O8 0.608128 0.733194 0.990619
O O9 0.406625 0.500000 0.892160
O O10 0.540915 0.271790 0.678931
O O11 0.301161 0.260100 0.987689
O O12 0.500000 0.772916 0.500000
O O13 0.683450 0.852250 0.325229
O O14 0.632309 0.000000 0.262884
O O15 0.692137 0.702681 0.176513
O O16 0.302108 0.740863 0.423576
O O17 0.244243 0.000000 0.443337
O O18 0.801444 0.500000 0.936166
O O19 0.219935 0.731761 0.686355
O O20 0.148941 0.000000 0.831359
O O21 0.681761 0.500000 0.513412
#
# Coordination Sequence:
#
# PCOD8060921 Si02
#       8
#     4   4   4   4   4   4   4   4
#     4   9  21  41  58  74 110 155 188 224 277 330
#     4  10  19  38  63  83 111 148 177 216 280 341
#     4   9  19  35  55  83 116 145 174 218 282 337
#     4   9  17  30  48  71 106 149 188 223 272 331
#     4  11  23  39  59  83 109 142 187 235 275 324
#     4  10  19  32  54  81 108 140 185 233 269 319
#     4   9  18  33  51  74 105 146 189 227 269 319
#     4  11  21  35  55  82 115 148 182 225 280 334
#
# _framework density 19.297535
#
# number of rings (size 3 to 8) (size 9 to 14) (size 15 to 20)
#    0.000    2.250    1.250    2.625    0.000    4.000 
#    0.000    6.250    0.000    3.750    0.000    0.000 
#    0.000    0.000    0.000    0.000    0.000    0.000 
#
# Total GULP energy -396511.551370 kJ/mol
# GULP energy per Si atom -12390.985980 kJ/mol
# Density = 1.925361 g / cm^3
# Si number density = 19.297535 Si / 1000 Ang^3
#
#
#
# Elastic Constant Matrix: (Units=GPa)
#
#
# Indices 1 2 3 4 5 6 
#
# 1 83.7536 27.9416 30.0972 0.0000 5.5068 0.0000
# 2 27.9416 50.9442 31.3284 0.0000 0.6757 0.0000
# 3 30.0972 31.3284 109.5234 0.0000 -0.2281 0.0000
# 4 0.0000 0.0000 0.0000 27.6973 0.0000 1.3172
# 5 5.5068 0.6757 -0.2281 0.0000 27.6825 0.0000
# 6 0.0000 0.0000 0.0000 1.3172 0.0000 24.3465
#
#
#
# Elastic Compliance Matrix: (Units=1/GPa)
#
#
# Indices 1 2 3 4 5 6 
#
# 1 0.015246 -0.006970 -0.002202 0.000000 -0.002881 0.000000
# 2 -0.006970 0.027017 -0.005811 0.000000 0.000679 0.000000
# 3 -0.002202 -0.005811 0.011399 0.000000 0.000674 0.000000
# 4 0.000000 0.000000 0.000000 0.036198 0.000000 -0.001958
# 5 -0.002881 0.000679 0.000674 0.000000 0.036686 0.000000
# 6 0.000000 0.000000 0.000000 -0.001958 0.000000 0.041180
#
#
# Mechanical properties :
#
#
# Convention : Reuss Voigt Hill
#
# Bulk Modulus (GPa) = 42.20122 46.99507 44.59815
# Shear Modulus (GPa) = 24.32039 26.26886 25.29462
#
# Velocity S-wave (km/s) = 3.55390 3.69352 3.62438
# Velocity P-wave (km/s) = 6.22547 6.52650 6.37776
#
# Compressibility (1/GPa) = 0.02369600
#
# Stress axis : x y z
#
# Youngs Moduli (GPa) = 65.59264 37.01436 87.72523
#
# Poissons Ratio (x) = 0.25797 0.19317
# Poissons Ratio (y) = 0.45715 0.50979
# Poissons Ratio (z) = 0.14443 0.21510
#
# Static dielectric constant tensor:
#      x y z
#    x 3.755840 0.000000 -0.155210 
#    y 0.000000 3.367630 0.000000 
#    z -0.155210 0.000000 3.629790 
# 
# 
# High freq. dielectric constant tensor:
#      x y z
#    x 1.749720 0.000000 -0.007700 
#    y 0.000000 1.732850 0.000000 
#    z -0.007700 0.000000 1.744540 
# 
# From -- ./inp_files/71552.got.cif
#   From: 2010.06.25/outbox.cif.g09.slc.cpg/sg10_36_cif.got.tgz:71552.got - 2010.06.27 22:07:45.
