data_PCOD8060309
_publ_section_title
;
Structure prediction by ZEFSAII (Michael W. Deem and Ramdas Pophale) SiO2 
 PCOD8060309
Probable space group: P 2/M
;
_chemical_formula_sum "Si O2"
_cell_formula_units_Z 24
_cell_length_a 24.593106
_cell_length_b 7.876884
_cell_length_c 9.828058
_cell_angle_alpha 90.000000
_cell_angle_beta 142.421158
_cell_angle_gamma 90.000000
_cell_volume 1161.075297
_symmetry_space_group_name_H-M "P 2/M"
_symmetry_group_IT_number 10
_symmetry_cell_setting 'monoclinic'
loop_
_space_group_symop_operation_xyz
x,y,z
-x,y,-z
-x,-y,-z
x,-y,z
loop_
_atom_site_type_symbol
_atom_site_label
_atom_site_fract_x
_atom_site_fract_y
_atom_site_fract_z
Si Si1 0.094629 0.000000 0.611098
Si Si2 0.423272 0.700518 0.251326
Si Si3 0.576690 0.701790 0.053571
Si Si4 0.233636 0.804694 0.571486
Si Si5 0.222685 0.694367 0.850376
Si Si6 0.086344 0.681200 0.078213
Si Si7 0.987060 0.000000 0.140459
O O1 0.150575 0.831080 0.762732
O O2 0.000000 0.000000 0.500000
O O3 0.075870 0.000000 0.409411
O O4 0.500000 0.781568 0.500000
O O5 0.432703 0.500000 0.270573
O O6 0.441261 0.768811 0.134966
O O7 0.322319 0.747661 0.099503
O O8 0.584926 0.500000 0.073963
O O9 0.666953 0.784970 0.288716
O O10 0.500000 0.769548 0.000000
O O11 0.223269 0.697263 0.688391
O O12 0.170586 0.724282 0.335107
O O13 0.209659 0.000000 0.550290
O O14 0.198892 0.500000 0.848513
O O15 0.102402 0.500000 0.035376
O O16 0.000000 0.665665 0.000000
O O17 0.069507 0.830760 0.934345
O O18 0.000000 0.000000 0.000000
#
# Coordination Sequence:
#
# PCOD8060309 Si02
#       7
#     2   4   4   4   4   4   2
#     4  12  26  42  61  87 123 155 196 252 303 349
#     4   8  15  31  58  85 110 148 194 238 283 339
#     4   9  18  32  51  80 117 153 189 233 288 345
#     4  11  19  32  57  85 118 153 195 243 291 349
#     4  10  20  37  61  86 115 157 204 241 289 355
#     4  10  19  31  52  82 111 142 188 239 286 334
#     4  10  20  36  58  81 109 149 188 234 289 337
#
# _framework density 20.670493
#
# number of rings (size 3 to 8) (size 9 to 14) (size 15 to 20)
#    0.000    2.167    1.667    4.500    0.000    2.667 
#    0.000    2.083    0.000    2.000    0.000    0.000 
#    0.000    0.000    0.000    0.000    0.000    0.000 
#
# Total GULP energy -297371.656681 kJ/mol
# GULP energy per Si atom -12390.485695 kJ/mol
# Density = 2.062345 g / cm^3
# Si number density = 20.670493 Si / 1000 Ang^3
#
#
#
# Elastic Constant Matrix: (Units=GPa)
#
#
# Indices 1 2 3 4 5 6 
#
# 1 74.2520 20.5268 45.6047 0.0000 26.3504 0.0000
# 2 20.5268 135.7787 62.4034 0.0000 11.3444 0.0000
# 3 45.6047 62.4034 160.0733 0.0000 18.0254 0.0000
# 4 0.0000 0.0000 0.0000 31.1313 0.0000 8.1246
# 5 26.3504 11.3444 18.0254 0.0000 28.7617 0.0000
# 6 0.0000 0.0000 0.0000 8.1246 0.0000 15.1788
#
#
#
# Elastic Compliance Matrix: (Units=1/GPa)
#
#
# Indices 1 2 3 4 5 6 
#
# 1 0.022513 0.000138 -0.004453 0.000000 -0.017889 0.000000
# 2 0.000138 0.009030 -0.003383 0.000000 -0.001568 0.000000
# 3 -0.004453 -0.003383 0.008850 0.000000 -0.000132 0.000000
# 4 0.000000 0.000000 0.000000 0.037338 0.000000 -0.019986
# 5 -0.017889 -0.001568 -0.000132 0.000000 0.051859 0.000000
# 6 0.000000 0.000000 0.000000 -0.019986 0.000000 0.076579
#
#
# Mechanical properties :
#
#
# Convention : Reuss Voigt Hill
#
# Bulk Modulus (GPa) = 40.00668 69.68599 54.84633
# Shear Modulus (GPa) = 21.74887 31.11895 26.43391
#
# Velocity S-wave (km/s) = 3.24724 3.88426 3.57994
# Velocity P-wave (km/s) = 5.78411 7.34184 6.60903
#
# Compressibility (1/GPa) = 0.02499582
#
# Stress axis : x y z
#
# Youngs Moduli (GPa) = 44.41849 110.74353 113.00014
#
# Poissons Ratio (x) = -0.01527 0.50322
# Poissons Ratio (y) = -0.00612 0.38228
# Poissons Ratio (z) = 0.19781 0.37464
#
# Static dielectric constant tensor:
#      x y z
#    x 3.313550 0.000000 0.061140 
#    y 0.000000 4.876900 0.000000 
#    z 0.061140 0.000000 4.117300 
# 
# 
# High freq. dielectric constant tensor:
#      x y z
#    x 1.751200 0.000000 0.016080 
#    y 0.000000 1.815550 0.000000 
#    z 0.016080 0.000000 1.823790 
# 
# From -- ./inp_files/57334.got.cif
#   From: 2010.06.25/outbox.cif.g09.slc.cpg/sg10_29_cif.got.tgz:57334.got - 2010.06.27 22:07:45.
