data_PCOD8060388
_publ_section_title
;
Structure prediction by ZEFSAII (Michael W. Deem and Ramdas Pophale) SiO2 
 PCOD8060388
Probable space group: P 2/M
;
_chemical_formula_sum "Si O2"
_cell_formula_units_Z 24
_cell_length_a 11.432225
_cell_length_b 7.900536
_cell_length_c 20.692825
_cell_angle_alpha 90.000000
_cell_angle_beta 46.830635
_cell_angle_gamma 90.000000
_cell_volume 1363.119356
_symmetry_space_group_name_H-M "P 2/M"
_symmetry_group_IT_number 10
_symmetry_cell_setting 'monoclinic'
loop_
_space_group_symop_operation_xyz
x,y,z
-x,y,-z
-x,-y,-z
x,-y,z
loop_
_atom_site_type_symbol
_atom_site_label
_atom_site_fract_x
_atom_site_fract_y
_atom_site_fract_z
Si Si1 0.383186 0.306283 0.951358
Si Si2 0.293715 0.189297 0.732798
Si Si3 0.820292 0.300857 0.088447
Si Si4 0.933143 0.805431 0.301292
Si Si5 0.243058 0.500000 0.578230
Si Si6 0.531134 0.500000 0.383677
Si Si7 0.286284 0.803676 0.126782
O O1 0.356697 0.500000 0.948298
O O2 0.296559 0.220812 0.922582
O O3 0.571910 0.267205 0.882006
O O4 0.293946 0.265403 0.051579
O O5 0.216732 0.202561 0.832028
O O6 0.151776 0.219834 0.735319
O O7 0.432661 0.329713 0.670819
O O8 0.366533 0.000000 0.696040
O O9 0.795807 0.500000 0.109983
O O10 0.000000 0.258937 0.000000
O O11 0.862284 0.672364 0.379921
O O12 0.118724 0.755857 0.222666
O O13 0.913058 0.000000 0.333557
O O14 0.343326 0.500000 0.473671
O O15 0.363238 0.500000 0.592368
O O16 0.313058 0.000000 0.111051
#
# Coordination Sequence:
#
# PCOD8060388 Si02
#       7
#     4   4   4   4   2   2   4
#     4  10  20  30  46  70  95 131 172 202 237 286
#     4  10  19  32  51  72 101 134 163 200 240 288
#     4  10  20  33  48  70 101 133 169 207 236 280
#     4   9  19  31  48  77 100 126 165 199 243 294
#     4   9  18  30  54  70  99 135 150 201 249 294
#     4   9  18  34  47  75 101 126 166 192 245 300
#     4  10  19  32  47  66 100 131 161 207 243 283
#
# _framework density 17.606674999999999
#
# number of rings (size 3 to 8) (size 9 to 14) (size 15 to 20)
#    0.000    2.333    0.833    3.000    2.333    2.333 
#    0.000    3.333    0.000    0.000    0.000    2.333 
#    0.000    4.000    0.000    0.000    0.000    0.000 
#
# Total GULP energy -297521.363512 kJ/mol
# GULP energy per Si atom -12396.723480 kJ/mol
# Density = 1.756660 g / cm^3
# Si number density = 17.606675 Si / 1000 Ang^3
#
#
#
# Elastic Constant Matrix: (Units=GPa)
#
#
# Indices 1 2 3 4 5 6 
#
# 1 73.8584 29.1324 36.4991 0.0000 -7.8611 0.0000
# 2 29.1324 103.4534 59.8404 0.0000 -10.2814 0.0000
# 3 36.4991 59.8404 117.8726 0.0000 -15.2477 0.0000
# 4 0.0000 0.0000 0.0000 19.7379 0.0000 -8.0224
# 5 -7.8611 -10.2814 -15.2477 0.0000 19.9224 0.0000
# 6 0.0000 0.0000 0.0000 -8.0224 0.0000 8.4822
#
#
#
# Elastic Compliance Matrix: (Units=1/GPa)
#
#
# Indices 1 2 3 4 5 6 
#
# 1 0.016505 -0.002306 -0.003609 0.000000 0.002561 0.000000
# 2 -0.002306 0.014075 -0.006226 0.000000 0.001589 0.000000
# 3 -0.003609 -0.006226 0.013498 0.000000 0.005694 0.000000
# 4 0.000000 0.000000 0.000000 0.082302 0.000000 0.077841
# 5 0.002561 0.001589 0.005694 0.000000 0.056383 0.000000
# 6 0.000000 0.000000 0.000000 0.077841 0.000000 0.191516
#
#
# Mechanical properties :
#
#
# Convention : Reuss Voigt Hill
#
# Bulk Modulus (GPa) = 50.51272 60.68091 55.59681
# Shear Modulus (GPa) = 12.34084 20.94266 16.64175
#
# Velocity S-wave (km/s) = 2.65036 3.45262 3.07774
# Velocity P-wave (km/s) = 6.17395 7.10166 6.65399
#
# Compressibility (1/GPa) = 0.01979699
#
# Stress axis : x y z
#
# Youngs Moduli (GPa) = 60.58815 71.05043 74.08281
#
# Poissons Ratio (x) = 0.16383 0.26736
# Poissons Ratio (y) = 0.13970 0.46122
# Poissons Ratio (z) = 0.21866 0.44234
#
# Static dielectric constant tensor:
#      x y z
#    x 2.973220 0.000000 -0.236140 
#    y 0.000000 3.458150 0.000000 
#    z -0.236140 0.000000 3.299710 
# 
# 
# High freq. dielectric constant tensor:
#      x y z
#    x 1.654450 0.000000 -0.010610 
#    y 0.000000 1.695520 0.000000 
#    z -0.010610 0.000000 1.663960 
# 
# From -- ./inp_files/55074.got.cif
#   From: 2010.06.25/outbox.cif.g09.slc.cpg/sg10_28_cif.got.tgz:55074.got - 2010.06.27 22:07:45.
