data_PCOD8060637
_publ_section_title
;
Structure prediction by ZEFSAII (Michael W. Deem and Ramdas Pophale) SiO2 
 PCOD8060637
Probable space group: P 2/M
;
_chemical_formula_sum "Si O2"
_cell_formula_units_Z 24
_cell_length_a 18.177905
_cell_length_b 12.104555
_cell_length_c 12.107941
_cell_angle_alpha 90.000000
_cell_angle_beta 29.303150
_cell_angle_gamma 90.000000
_cell_volume 1303.928839
_symmetry_space_group_name_H-M "P 2/M"
_symmetry_group_IT_number 10
_symmetry_cell_setting 'monoclinic'
loop_
_space_group_symop_operation_xyz
x,y,z
-x,y,-z
-x,-y,-z
x,-y,z
loop_
_atom_site_type_symbol
_atom_site_label
_atom_site_fract_x
_atom_site_fract_y
_atom_site_fract_z
Si Si1 0.500000 0.802610 0.000000
Si Si2 0.775679 0.374312 0.942260
Si Si3 0.825033 0.305854 0.345341
Si Si4 0.823596 0.875333 0.529328
Si Si5 0.852981 0.624614 0.076874
Si Si6 0.000000 0.763458 0.500000
Si Si7 0.502280 0.621131 0.828687
O O1 0.356342 0.877054 0.215586
O O2 0.557402 0.720691 0.019710
O O3 0.835762 0.500000 0.864628
O O4 0.874518 0.310233 0.723320
O O5 0.787448 0.324226 0.049788
O O6 0.598032 0.368823 0.149747
O O7 0.854499 0.194685 0.377328
O O8 0.808293 0.289886 0.233952
O O9 0.678799 0.368635 0.578436
O O10 0.967435 0.385114 0.174244
O O11 0.916152 0.834998 0.515517
O O12 0.875056 0.000000 0.437545
O O13 0.792031 0.500000 0.180523
O O14 0.473224 0.500000 0.920683
#
# Coordination Sequence:
#
# PCOD8060637 Si02
#       7
#     2   4   4   4   4   2   4
#     4  10  20  36  54  80 112 142 174 226 276 328
#     4  10  21  34  54  82 116 147 176 213 269 334
#     4  10  20  35  55  79 109 140 182 228 268 315
#     4  11  23  38  59  79 103 143 189 234 274 315
#     4  10  19  35  56  82 112 147 177 213 273 333
#     4  12  20  40  54  80 114 138 186 222 280 316
#     4  10  19  32  51  83 114 146 178 213 265 329
#
# _framework density 18.405913000000002
#
# number of rings (size 3 to 8) (size 9 to 14) (size 15 to 20)
#    0.000    1.667    3.333    3.000    0.000    0.667 
#    0.000    4.167    0.000    0.000    0.000    2.333 
#    0.000    0.000    0.000    0.000    0.000    0.000 
#
# Total GULP energy -297356.447660 kJ/mol
# GULP energy per Si atom -12389.851986 kJ/mol
# Density = 1.836402 g / cm^3
# Si number density = 18.405913 Si / 1000 Ang^3
#
#
#
# Elastic Constant Matrix: (Units=GPa)
#
#
# Indices 1 2 3 4 5 6 
#
# 1 136.1603 48.6610 29.7119 0.0000 18.5149 0.0000
# 2 48.6610 90.5019 21.7756 0.0000 13.3404 0.0000
# 3 29.7119 21.7756 44.1787 0.0000 10.3629 0.0000
# 4 0.0000 0.0000 0.0000 23.1820 0.0000 0.5859
# 5 18.5149 13.3404 10.3629 0.0000 30.9068 0.0000
# 6 0.0000 0.0000 0.0000 0.5859 0.0000 21.5597
#
#
#
# Elastic Compliance Matrix: (Units=1/GPa)
#
#
# Indices 1 2 3 4 5 6 
#
# 1 0.010067 -0.003991 -0.004117 0.000000 -0.002928 0.000000
# 2 -0.003991 0.014504 -0.003861 0.000000 -0.002575 0.000000
# 3 -0.004117 -0.003861 0.028586 0.000000 -0.005452 0.000000
# 4 0.000000 0.000000 0.000000 0.043167 0.000000 -0.001173
# 5 -0.002928 -0.002575 -0.005452 0.000000 0.037049 0.000000
# 6 0.000000 0.000000 0.000000 -0.001173 0.000000 0.046415
#
#
# Mechanical properties :
#
#
# Convention : Reuss Voigt Hill
#
# Bulk Modulus (GPa) = 34.22308 52.34864 43.28586
# Shear Modulus (GPa) = 23.42323 26.50918 24.96620
#
# Velocity S-wave (km/s) = 3.57121 3.79918 3.68696
# Velocity P-wave (km/s) = 5.96981 6.90999 6.45704
#
# Compressibility (1/GPa) = 0.02922005
#
# Stress axis : x y z
#
# Youngs Moduli (GPa) = 99.33547 68.94761 34.98230
#
# Poissons Ratio (x) = 0.27515 0.14401
# Poissons Ratio (y) = 0.39642 0.13507
# Poissons Ratio (z) = 0.40892 0.26620
#
# Static dielectric constant tensor:
#      x y z
#    x 3.741840 0.000000 0.059000 
#    y 0.000000 3.109740 0.000000 
#    z 0.059000 0.000000 3.332750 
# 
# 
# High freq. dielectric constant tensor:
#      x y z
#    x 1.733530 0.000000 -0.007180 
#    y 0.000000 1.682510 0.000000 
#    z -0.007180 0.000000 1.706310 
# 
# From -- ./inp_files/53619.got.cif
#   From: 2010.06.25/outbox.cif.g09.slc.cpg/sg10_27_cif.got.tgz:53619.got - 2010.06.27 22:07:45.
