data_PCOD8060487
_publ_section_title
;
Structure prediction by ZEFSAII (Michael W. Deem and Ramdas Pophale) SiO2 
 PCOD8060487
Probable space group: P 2/M
;
_chemical_formula_sum "Si O2"
_cell_formula_units_Z 32
_cell_length_a 16.272001
_cell_length_b 15.083482
_cell_length_c 21.953644
_cell_angle_alpha 90.000000
_cell_angle_beta 160.616723
_cell_angle_gamma 90.000000
_cell_volume 1788.289736
_symmetry_space_group_name_H-M "P 2/M"
_symmetry_group_IT_number 10
_symmetry_cell_setting 'monoclinic'
loop_
_space_group_symop_operation_xyz
x,y,z
-x,y,-z
-x,-y,-z
x,-y,z
loop_
_atom_site_type_symbol
_atom_site_label
_atom_site_fract_x
_atom_site_fract_y
_atom_site_fract_z
Si Si1 0.262826 0.762095 0.659450
Si Si2 0.032250 0.169963 0.090249
Si Si3 0.496663 0.900276 0.262692
Si Si4 0.467750 0.669963 0.909752
Si Si5 0.996663 0.599724 0.262692
Si Si6 0.566945 0.899721 0.449823
Si Si7 0.237174 0.737905 0.340550
Si Si8 0.066944 0.399720 0.449822
O O1 0.376945 0.834914 0.695913
O O2 0.445250 0.749053 0.844744
O O3 0.235470 0.668451 0.605170
O O4 0.000000 0.797185 0.500000
O O5 0.278911 0.110483 0.266145
O O6 0.054750 0.249053 0.155256
O O7 0.000000 0.211634 0.000000
O O8 0.799197 0.109356 0.943736
O O9 0.607240 0.880230 0.406648
O O10 0.559631 0.000000 0.286590
O O11 0.221090 0.610483 0.733856
O O12 0.500000 0.711634 0.000000
O O13 0.700804 0.609357 0.056265
O O14 0.059632 0.500000 0.286592
O O15 0.123056 0.665085 0.304087
O O16 0.107237 0.619772 0.406646
O O17 0.735471 0.831548 0.605170
O O18 0.647676 0.000000 0.522577
O O19 0.500000 0.702815 0.500000
O O20 0.147675 0.500000 0.522576
#
# Coordination Sequence:
#
# PCOD8060487 Si02
#       8
#     4   4   4   4   4   4   4   4
#     4  10  20  32  49  71  97 128 158 191 231 280
#     4   9  18  32  50  71  94 121 156 199 242 276
#     4  10  19  32  50  71  97 127 157 191 232 281
#     4   9  18  32  50  71  94 121 156 199 242 276
#     4  10  19  32  50  71  97 127 157 191 232 281
#     4   9  18  32  51  74  96 119 153 199 244 279
#     4  10  20  32  49  71  97 128 158 191 231 280
#     4   9  18  32  51  74  96 119 153 199 244 279
#
# _framework density 17.894193000000001
#
# number of rings (size 3 to 8) (size 9 to 14) (size 15 to 20)
#    0.000    2.500    0.000    2.250    0.000    9.000 
#    0.000    0.000    0.000    0.750    0.000    0.000 
#    0.000    0.000    0.000    0.000    0.000    0.000 
#
# Total GULP energy -396746.150499 kJ/mol
# GULP energy per Si atom -12398.317203 kJ/mol
# Density = 1.785347 g / cm^3
# Si number density = 17.894193 Si / 1000 Ang^3
#
#
#
# Elastic Constant Matrix: (Units=GPa)
#
#
# Indices 1 2 3 4 5 6 
#
# 1 130.8191 86.9598 39.4231 0.0000 -7.9892 0.0000
# 2 86.9598 115.8855 42.8674 0.0000 0.2981 0.0000
# 3 39.4231 42.8674 56.7903 0.0000 -15.2797 0.0000
# 4 0.0000 0.0000 0.0000 12.5302 0.0000 1.8182
# 5 -7.9892 0.2981 -15.2797 0.0000 22.7558 0.0000
# 6 0.0000 0.0000 0.0000 1.8182 0.0000 25.4788
#
#
#
# Elastic Compliance Matrix: (Units=1/GPa)
#
#
# Indices 1 2 3 4 5 6 
#
# 1 0.015998 -0.011689 -0.000892 0.000000 0.005171 0.000000
# 2 -0.011689 0.021694 -0.011524 0.000000 -0.012126 0.000000
# 3 -0.000892 -0.011524 0.032810 0.000000 0.021869 0.000000
# 4 0.000000 0.000000 0.000000 0.080642 0.000000 -0.005755
# 5 0.005171 -0.012126 0.021869 0.000000 0.060603 0.000000
# 6 0.000000 0.000000 0.000000 -0.005755 0.000000 0.039659
#
#
# Mechanical properties :
#
#
# Convention : Reuss Voigt Hill
#
# Bulk Modulus (GPa) = 44.85427 71.33284 58.09356
# Shear Modulus (GPa) = 16.28411 21.10259 18.69335
#
# Velocity S-wave (km/s) = 3.01993 3.43782 3.23563
# Velocity P-wave (km/s) = 6.10580 7.46380 6.81869
#
# Compressibility (1/GPa) = 0.02229442
#
# Stress axis : x y z
#
# Youngs Moduli (GPa) = 62.50592 46.09486 30.47831
#
# Poissons Ratio (x) = 0.53879 0.02717
# Poissons Ratio (y) = 0.73061 0.35123
# Poissons Ratio (z) = 0.05573 0.53120
#
# Static dielectric constant tensor:
#      x y z
#    x 3.568840 0.000000 -0.214650 
#    y 0.000000 3.080400 0.000000 
#    z -0.214650 0.000000 3.269720 
# 
# 
# High freq. dielectric constant tensor:
#      x y z
#    x 1.707490 0.000000 -0.012590 
#    y 0.000000 1.668330 0.000000 
#    z -0.012590 0.000000 1.682600 
# 
# From -- ./inp_files/69311.got.cif
#   From: 2010.06.25/outbox.cif.g09.slc.cpg/sg10_35_cif.got.tgz:69311.got - 2010.06.27 22:07:45.
