data_PCOD8060894
_publ_section_title
;
Structure prediction by ZEFSAII (Michael W. Deem and Ramdas Pophale) SiO2 
 PCOD8060894
Probable space group: P 2/M
;
_chemical_formula_sum "Si O2"
_cell_formula_units_Z 24
_cell_length_a 18.032356
_cell_length_b 8.711467
_cell_length_c 24.004343
_cell_angle_alpha 90.000000
_cell_angle_beta 160.600858
_cell_angle_gamma 90.000000
_cell_volume 1252.460206
_symmetry_space_group_name_H-M "P 2/M"
_symmetry_group_IT_number 10
_symmetry_cell_setting 'monoclinic'
loop_
_space_group_symop_operation_xyz
x,y,z
-x,y,-z
-x,-y,-z
x,-y,z
loop_
_atom_site_type_symbol
_atom_site_label
_atom_site_fract_x
_atom_site_fract_y
_atom_site_fract_z
Si Si1 0.648560 0.170428 0.001069
Si Si2 0.248606 0.319197 0.663130
Si Si3 0.924892 0.678701 0.665774
Si Si4 0.608924 0.180695 0.351894
Si Si5 0.112680 0.182931 0.024328
Si Si6 0.970432 0.829256 0.807096
O O1 0.408658 0.248358 0.823920
O O2 0.618121 0.000000 0.005233
O O3 0.814544 0.271344 0.157963
O O4 0.766691 0.158263 0.023838
O O5 0.267882 0.500000 0.681405
O O6 0.316237 0.268602 0.649849
O O7 0.000000 0.260891 0.500000
O O8 0.893915 0.500000 0.631385
O O9 0.778957 0.779771 0.521372
O O10 0.847958 0.718938 0.675227
O O11 0.366355 0.240859 0.199526
O O12 0.611684 0.000000 0.342316
O O13 0.108577 0.000000 0.022875
O O14 0.000000 0.252770 0.000000
O O15 0.967352 0.238461 0.867632
O O16 0.861602 0.000000 0.727566
#
# Coordination Sequence:
#
# PCOD8060894 Si02
#       6
#     4   4   4   4   4   4
#     4   9  17  33  55  78 103 139 181 218 264 316
#     4  11  23  37  56  83 112 143 179 220 269 324
#     4  10  19  32  54  79 107 146 182 221 275 324
#     4  11  20  35  57  82 111 142 181 228 269 317
#     4   9  17  31  55  84 109 137 179 228 271 315
#     4   8  15  31  53  77 103 137 179 218 265 318
#
# _framework density 19.162286000000002
#
# number of rings (size 3 to 8) (size 9 to 14) (size 15 to 20)
#    1.000    1.333    1.667    2.500    0.000    1.333 
#    0.000    1.667    0.000   14.500    0.000    0.000 
#    0.000    0.000    0.000    0.000    0.000    0.000 
#
# Total GULP energy -297386.944675 kJ/mol
# GULP energy per Si atom -12391.122695 kJ/mol
# Density = 1.911867 g / cm^3
# Si number density = 19.162286 Si / 1000 Ang^3
#
#
#
# Elastic Constant Matrix: (Units=GPa)
#
#
# Indices 1 2 3 4 5 6 
#
# 1 44.1386 -2.3639 27.1628 0.0000 12.3286 0.0000
# 2 -2.3639 47.6465 0.1064 0.0000 6.4992 0.0000
# 3 27.1628 0.1064 70.0889 0.0000 -1.2909 0.0000
# 4 0.0000 0.0000 0.0000 16.9987 0.0000 -7.0387
# 5 12.3286 6.4992 -1.2909 0.0000 25.8189 0.0000
# 6 0.0000 0.0000 0.0000 -7.0387 0.0000 16.8343
#
#
#
# Elastic Compliance Matrix: (Units=1/GPa)
#
#
# Indices 1 2 3 4 5 6 
#
# 1 0.037678 0.004618 -0.014976 0.000000 -0.019903 0.000000
# 2 0.004618 0.022301 -0.001969 0.000000 -0.007917 0.000000
# 3 -0.014976 -0.001969 0.020234 0.000000 0.008658 0.000000
# 4 0.000000 0.000000 0.000000 0.071146 0.000000 0.029748
# 5 -0.019903 -0.007917 0.008658 0.000000 0.050661 0.000000
# 6 0.000000 0.000000 0.000000 0.029748 0.000000 0.071841
#
#
# Mechanical properties :
#
#
# Convention : Reuss Voigt Hill
#
# Bulk Modulus (GPa) = 17.99895 23.52052 20.75974
# Shear Modulus (GPa) = 15.77114 21.06163 18.41638
#
# Velocity S-wave (km/s) = 2.87196 3.31889 3.10348
# Velocity P-wave (km/s) = 4.51784 5.19497 4.86819
#
# Compressibility (1/GPa) = 0.05555879
#
# Stress axis : x y z
#
# Youngs Moduli (GPa) = 26.54050 44.84041 49.42217
#
# Poissons Ratio (x) = -0.20706 0.74013
# Poissons Ratio (y) = -0.12255 0.09732
# Poissons Ratio (z) = 0.39746 0.08830
#
# Static dielectric constant tensor:
#      x y z
#    x 3.390730 0.000000 -0.037390 
#    y 0.000000 3.248660 0.000000 
#    z -0.037390 0.000000 3.447910 
# 
# 
# High freq. dielectric constant tensor:
#      x y z
#    x 1.723580 0.000000 -0.017780 
#    y 0.000000 1.730790 0.000000 
#    z -0.017780 0.000000 1.739480 
# 
# From -- ./inp_files/90054.got.cif
#   From: 2010.06.25/outbox.cif.g09.slc.cpg/sg10_46_cif.got.tgz:90054.got - 2010.06.27 22:07:45.
