data_PCOD8060928
_publ_section_title
;
Structure prediction by ZEFSAII (Michael W. Deem and Ramdas Pophale) SiO2 
 PCOD8060928
Probable space group: P 2/M
;
_chemical_formula_sum "Si O2"
_cell_formula_units_Z 24
_cell_length_a 24.302408
_cell_length_b 9.003055
_cell_length_c 17.224108
_cell_angle_alpha 90.000000
_cell_angle_beta 19.434690
_cell_angle_gamma 90.000000
_cell_volume 1253.922562
_symmetry_space_group_name_H-M "P 2/M"
_symmetry_group_IT_number 10
_symmetry_cell_setting 'monoclinic'
loop_
_space_group_symop_operation_xyz
x,y,z
-x,y,-z
-x,-y,-z
x,-y,z
loop_
_atom_site_type_symbol
_atom_site_label
_atom_site_fract_x
_atom_site_fract_y
_atom_site_fract_z
Si Si1 0.700786 0.831738 0.091363
Si Si2 0.815128 0.170895 0.235724
Si Si3 0.043034 0.168860 0.691720
Si Si4 0.464009 0.828801 0.273219
Si Si5 0.619514 0.673336 0.770293
Si Si6 0.218631 0.324403 0.870564
O O1 0.658130 0.733869 0.225016
O O2 0.901271 0.829166 0.812603
O O3 0.637321 0.000000 0.190749
O O4 0.608762 0.768973 0.137849
O O5 0.713948 0.192185 0.449636
O O6 0.818143 0.000000 0.205406
O O7 0.723515 0.264190 0.290029
O O8 0.000000 0.233457 0.000000
O O9 0.208192 0.245161 0.441410
O O10 0.966533 0.257674 0.867238
O O11 0.083529 0.000000 0.663721
O O12 0.468369 0.730832 0.190524
O O13 0.495092 0.000000 0.209507
O O14 0.654524 0.500000 0.715792
O O15 0.500000 0.711362 0.000000
O O16 0.215619 0.500000 0.875096
#
# Coordination Sequence:
#
# PCOD8060928 Si02
#       6
#     4   4   4   4   4   4
#     4   8  18  36  57  82 113 151 193 235 281 329
#     4  10  20  33  52  81 115 152 193 235 279 329
#     4   9  18  36  60  82 110 149 190 232 273 329
#     4  10  21  38  60  84 113 150 195 243 283 327
#     4  11  24  40  59  86 117 147 181 229 291 349
#     4  10  19  32  54  81 114 153 188 225 278 335
#
# _framework density 19.139937
#
# number of rings (size 3 to 8) (size 9 to 14) (size 15 to 20)
#    1.000    1.333    0.000    3.000    0.000    5.000 
#    0.000    4.167    0.000    5.000    0.000    0.000 
#    0.000    0.000    0.000    0.000    0.000    0.000 
#
# Total GULP energy -297470.518657 kJ/mol
# GULP energy per Si atom -12394.604944 kJ/mol
# Density = 1.909637 g / cm^3
# Si number density = 19.139937 Si / 1000 Ang^3
#
#
#
# Elastic Constant Matrix: (Units=GPa)
#
#
# Indices 1 2 3 4 5 6 
#
# 1 123.7406 47.0998 33.5487 0.0000 2.2616 0.0000
# 2 47.0998 103.1258 24.0006 0.0000 13.9863 0.0000
# 3 33.5487 24.0006 26.3373 0.0000 11.2335 0.0000
# 4 0.0000 0.0000 0.0000 25.3796 0.0000 3.3095
# 5 2.2616 13.9863 11.2335 0.0000 25.8051 0.0000
# 6 0.0000 0.0000 0.0000 3.3095 0.0000 24.9650
#
#
#
# Elastic Compliance Matrix: (Units=1/GPa)
#
#
# Indices 1 2 3 4 5 6 
#
# 1 0.014333 -0.003322 -0.018988 0.000000 0.008810 0.000000
# 2 -0.003322 0.013179 -0.005963 0.000000 -0.004256 0.000000
# 3 -0.018988 -0.005963 0.080437 0.000000 -0.030120 0.000000
# 4 0.000000 0.000000 0.000000 0.040095 0.000000 -0.005315
# 5 0.008810 -0.004256 -0.030120 0.000000 0.053398 0.000000
# 6 0.000000 0.000000 0.000000 -0.005315 0.000000 0.040761
#
#
# Mechanical properties :
#
#
# Convention : Reuss Voigt Hill
#
# Bulk Modulus (GPa) = 19.45405 51.38909 35.42157
# Shear Modulus (GPa) = 15.82863 25.13357 20.48110
#
# Velocity S-wave (km/s) = 2.87887 3.62767 3.27474
# Velocity P-wave (km/s) = 4.60833 6.66739 5.73109
#
# Compressibility (1/GPa) = 0.05140318
#
# Stress axis : x y z
#
# Youngs Moduli (GPa) = 69.76975 75.87781 12.43209
#
# Poissons Ratio (x) = 0.25206 0.23606
# Poissons Ratio (y) = 0.23177 0.07413
# Poissons Ratio (z) = 1.32479 0.45246
#
# Static dielectric constant tensor:
#      x y z
#    x 3.449740 0.000000 -0.193180 
#    y 0.000000 3.357480 0.000000 
#    z -0.193180 0.000000 3.303030 
# 
# 
# High freq. dielectric constant tensor:
#      x y z
#    x 1.740580 0.000000 -0.018020 
#    y 0.000000 1.739240 0.000000 
#    z -0.018020 0.000000 1.723170 
# 
# From -- ./inp_files/80424.got.cif
#   From: 2010.06.25/outbox.cif.g09.slc.cpg/sg10_41_cif.got.tgz:80424.got - 2010.06.27 22:07:45.
