data_PCOD8060472
_publ_section_title
;
Structure prediction by ZEFSAII (Michael W. Deem and Ramdas Pophale) SiO2 
 PCOD8060472
Probable space group: P 2/M
;
_chemical_formula_sum "Si O2"
_cell_formula_units_Z 32
_cell_length_a 12.081552
_cell_length_b 9.654307
_cell_length_c 21.049382
_cell_angle_alpha 90.000000
_cell_angle_beta 132.986247
_cell_angle_gamma 90.000000
_cell_volume 1796.006208
_symmetry_space_group_name_H-M "P 2/M"
_symmetry_group_IT_number 10
_symmetry_cell_setting 'monoclinic'
loop_
_space_group_symop_operation_xyz
x,y,z
-x,y,-z
-x,-y,-z
x,-y,z
loop_
_atom_site_type_symbol
_atom_site_label
_atom_site_fract_x
_atom_site_fract_y
_atom_site_fract_z
Si Si1 0.350446 0.161524 0.754914
Si Si2 0.753123 0.342744 0.717807
Si Si3 0.744134 0.655872 0.488270
Si Si4 0.644527 0.840276 0.095454
Si Si5 0.925787 0.656363 0.201871
Si Si6 0.671419 0.149205 0.574092
Si Si7 0.496884 0.341524 0.713573
Si Si8 0.068827 0.654980 0.649869
O O1 0.388264 0.184692 0.843350
O O2 0.483245 0.236763 0.767332
O O3 0.191304 0.233496 0.675003
O O4 0.341962 0.000000 0.733635
O O5 0.722508 0.500000 0.682135
O O6 0.683734 0.235200 0.642638
O O7 0.664036 0.318554 0.749020
O O8 0.934169 0.317473 0.791835
O O9 0.699946 0.500000 0.493320
O O10 0.724934 0.764946 0.535651
O O11 0.640889 0.696183 0.388132
O O12 0.924886 0.662935 0.545986
O O13 0.790364 0.756636 0.128793
O O14 0.677703 0.000000 0.093620
O O15 0.500000 0.786586 0.000000
O O16 0.866145 0.500000 0.171885
O O17 0.980557 0.685275 0.295941
O O18 0.500000 0.111150 0.500000
O O19 0.759339 0.000000 0.612414
O O20 0.480092 0.500000 0.730054
O O21 0.139624 0.500000 0.673420
#
# Coordination Sequence:
#
# PCOD8060472 Si02
#       8
#     4   4   4   4   4   4   4   4
#     4  10  21  36  53  73 102 133 163 208 260 309
#     4  10  19  33  52  72 100 139 179 213 252 302
#     4  10  19  32  50  69  94 137 185 222 256 294
#     4   9  19  37  60  83 104 129 160 196 249 316
#     4   9  17  30  52  82 107 127 161 212 259 296
#     4  11  21  29  42  69 102 135 176 228 268 293
#     4  10  21  34  51  71  98 141 184 215 245 297
#     4   9  17  31  51  72  97 130 173 220 256 295
#
# _framework density 17.817312000000001
#
# number of rings (size 3 to 8) (size 9 to 14) (size 15 to 20)
#    0.000    2.250    2.500    0.750    0.000    3.750 
#    0.000    2.500    0.000    0.750    0.000    5.250 
#    0.000    0.000    0.000    0.000    0.000    0.000 
#
# Total GULP energy -396617.876829 kJ/mol
# GULP energy per Si atom -12394.308651 kJ/mol
# Density = 1.777676 g / cm^3
# Si number density = 17.817312 Si / 1000 Ang^3
#
#
#
# Elastic Constant Matrix: (Units=GPa)
#
#
# Indices 1 2 3 4 5 6 
#
# 1 114.1152 62.6401 37.0176 0.0000 9.1293 0.0000
# 2 62.6401 106.3876 34.9509 0.0000 4.0221 0.0000
# 3 37.0176 34.9509 65.2499 0.0000 18.4601 0.0000
# 4 0.0000 0.0000 0.0000 21.9056 0.0000 -2.0592
# 5 9.1293 4.0221 18.4601 0.0000 19.1546 0.0000
# 6 0.0000 0.0000 0.0000 -2.0592 0.0000 19.6096
#
#
#
# Elastic Compliance Matrix: (Units=1/GPa)
#
#
# Indices 1 2 3 4 5 6 
#
# 1 0.013882 -0.006884 -0.003747 0.000000 -0.001560 0.000000
# 2 -0.006884 0.015151 -0.005827 0.000000 0.005715 0.000000
# 3 -0.003747 -0.005827 0.027114 0.000000 -0.023122 0.000000
# 4 0.000000 0.000000 0.000000 0.046106 0.000000 0.004842
# 5 -0.001560 0.005715 -0.023122 0.000000 0.074034 0.000000
# 6 0.000000 0.000000 0.000000 0.004842 0.000000 0.051504
#
#
# Mechanical properties :
#
#
# Convention : Reuss Voigt Hill
#
# Bulk Modulus (GPa) = 43.04548 61.66331 52.35440
# Shear Modulus (GPa) = 18.62545 22.21024 20.41785
#
# Velocity S-wave (km/s) = 3.23671 3.53449 3.38887
# Velocity P-wave (km/s) = 6.17901 7.16523 6.69032
#
# Compressibility (1/GPa) = 0.02323124
#
# Stress axis : x y z
#
# Youngs Moduli (GPa) = 72.03635 66.00261 36.88077
#
# Poissons Ratio (x) = 0.45433 0.13819
# Poissons Ratio (y) = 0.49587 0.21492
# Poissons Ratio (z) = 0.26992 0.38462
#
# Static dielectric constant tensor:
#      x y z
#    x 3.300590 0.000000 0.100190 
#    y 0.000000 3.463370 0.000000 
#    z 0.100190 0.000000 3.003840 
# 
# 
# High freq. dielectric constant tensor:
#      x y z
#    x 1.686500 0.000000 0.011340 
#    y 0.000000 1.699660 0.000000 
#    z 0.011340 0.000000 1.646200 
# 
# From -- ./inp_files/49853.got.cif
#   From: 2010.06.25/outbox.cif.g09.slc.cpg/sg10_25_cif.got.tgz:49853.got - 2010.06.27 22:07:45.
