data_PCOD8060402
_publ_section_title
;
Structure prediction by ZEFSAII (Michael W. Deem and Ramdas Pophale) SiO2 
 PCOD8060402
Probable space group: P 2/M
;
_chemical_formula_sum "Si O2"
_cell_formula_units_Z 30
_cell_length_a 32.548100
_cell_length_b 12.364886
_cell_length_c 30.213782
_cell_angle_alpha 90.000000
_cell_angle_beta 8.572727
_cell_angle_gamma 90.000000
_cell_volume 1812.573335
_symmetry_space_group_name_H-M "P 2/M"
_symmetry_group_IT_number 10
_symmetry_cell_setting 'monoclinic'
loop_
_space_group_symop_operation_xyz
x,y,z
-x,y,-z
-x,-y,-z
x,-y,z
loop_
_atom_site_type_symbol
_atom_site_label
_atom_site_fract_x
_atom_site_fract_y
_atom_site_fract_z
Si Si1 0.763676 0.870851 0.844533
Si Si2 0.540694 0.872682 0.174516
Si Si3 0.870759 0.624736 0.227803
Si Si4 0.919410 0.871655 0.853018
Si Si5 0.569548 0.116232 0.475885
Si Si6 0.290974 0.747031 0.838159
Si Si7 0.381268 0.128900 0.172711
Si Si8 0.000000 0.293607 0.000000
O O1 0.072363 0.826913 0.508356
O O2 0.764082 0.000000 0.844691
O O3 0.648269 0.823178 0.013650
O O4 0.571427 0.827124 0.009844
O O5 0.232541 0.832395 0.512846
O O6 0.534624 0.000000 0.175886
O O7 0.747882 0.838070 0.992489
O O8 0.806313 0.500000 0.304558
O O9 0.578900 0.685492 0.538324
O O10 0.050856 0.634449 0.989761
O O11 0.056499 0.666271 0.070486
O O12 0.897413 0.000000 0.886292
O O13 0.795223 0.802490 0.024804
O O14 0.500000 0.094364 0.500000
O O15 0.312388 0.155125 0.779419
O O16 0.683306 0.000000 0.373352
O O17 0.769950 0.216166 0.264396
O O18 0.382102 0.000000 0.171621
O O19 0.500000 0.173542 0.000000
#
# Coordination Sequence:
#
# PCOD8060402 Si02
#       8
#     4   4   4   4   4   4   4   2
#     4   9  15  23  34  49  71 103 141 183 227 272
#     4   9  17  28  43  61  84 113 148 184 229 278
#     4  11  23  38  56  73  94 119 151 187 224 263
#     4  10  19  32  48  69  92 117 145 184 232 284
#     4  10  19  33  50  73 101 127 149 177 215 272
#     4  11  22  37  53  75  95 121 150 184 229 276
#     4   9  15  21  30  46  70 101 140 186 234 271
#     4  10  20  36  52  76  96 126 152 184 212 268
#
# _framework density 16.551055000000002
#
# number of rings (size 3 to 8) (size 9 to 14) (size 15 to 20)
#    0.000    2.133    1.333    3.200    0.000    4.800 
#    0.000    3.333    0.000    0.000    0.000    0.000 
#    0.000    0.000    0.000    0.000    0.000    0.000 
#
# Total GULP energy -371746.005798 kJ/mol
# GULP energy per Si atom -12391.533527 kJ/mol
# Density = 1.651338 g / cm^3
# Si number density = 16.551055 Si / 1000 Ang^3
#
#
#
# Elastic Constant Matrix: (Units=GPa)
#
#
# Indices 1 2 3 4 5 6 
#
# 1 112.1283 32.3898 59.3346 0.0000 6.8739 0.0000
# 2 32.3898 49.2524 34.5304 0.0000 8.3909 0.0000
# 3 59.3346 34.5304 121.7492 0.0000 -0.9689 0.0000
# 4 0.0000 0.0000 0.0000 22.2214 0.0000 -4.4007
# 5 6.8739 8.3909 -0.9689 0.0000 36.4440 0.0000
# 6 0.0000 0.0000 0.0000 -4.4007 0.0000 12.6953
#
#
#
# Elastic Compliance Matrix: (Units=1/GPa)
#
#
# Indices 1 2 3 4 5 6 
#
# 1 0.013050 -0.004821 -0.005005 0.000000 -0.001485 0.000000
# 2 -0.004821 0.028520 -0.005786 0.000000 -0.005811 0.000000
# 3 -0.005005 -0.005786 0.012314 0.000000 0.002603 0.000000
# 4 0.000000 0.000000 0.000000 0.048319 0.000000 0.016749
# 5 -0.001485 -0.005811 0.002603 0.000000 0.029127 0.000000
# 6 0.000000 0.000000 0.000000 0.016749 0.000000 0.084575
#
#
# Mechanical properties :
#
#
# Convention : Reuss Voigt Hill
#
# Bulk Modulus (GPa) = 44.12552 59.51547 51.82049
# Shear Modulus (GPa) = 19.63243 24.73049 22.18146
#
# Velocity S-wave (km/s) = 3.44782 3.86967 3.66482
# Velocity P-wave (km/s) = 6.52442 7.48349 7.02035
#
# Compressibility (1/GPa) = 0.02266262
#
# Stress axis : x y z
#
# Youngs Moduli (GPa) = 76.62765 35.06306 81.20642
#
# Poissons Ratio (x) = 0.16902 0.40641
# Poissons Ratio (y) = 0.36938 0.46984
# Poissons Ratio (z) = 0.38349 0.20287
#
# Static dielectric constant tensor:
#      x y z
#    x 3.308610 0.000000 0.057100 
#    y 0.000000 2.898960 0.000000 
#    z 0.057100 0.000000 3.296330 
# 
# 
# High freq. dielectric constant tensor:
#      x y z
#    x 1.646180 0.000000 -0.000780 
#    y 0.000000 1.574010 0.000000 
#    z -0.000780 0.000000 1.647280 
# 
# From -- ./inp_files/13726.got.cif
#   From: 2010.06.25/outbox.cif.g09.slc.cpg/sg10_7_cif.got.tgz:13726.got - 2010.06.27 22:07:45.
