data_PCOD8060939
_publ_section_title
;
Structure prediction by ZEFSAII (Michael W. Deem and Ramdas Pophale) SiO2 
 PCOD8060939
Probable space group: P 2/M
;
_chemical_formula_sum "Si O2"
_cell_formula_units_Z 20
_cell_length_a 12.967196
_cell_length_b 12.879915
_cell_length_c 10.275465
_cell_angle_alpha 90.000000
_cell_angle_beta 145.753669
_cell_angle_gamma 90.000000
_cell_volume 965.778649
_symmetry_space_group_name_H-M "P 2/M"
_symmetry_group_IT_number 10
_symmetry_cell_setting 'monoclinic'
loop_
_space_group_symop_operation_xyz
x,y,z
-x,y,-z
-x,-y,-z
x,-y,z
loop_
_atom_site_type_symbol
_atom_site_label
_atom_site_fract_x
_atom_site_fract_y
_atom_site_fract_z
Si Si1 0.977506 0.117515 0.774112
Si Si2 0.560976 0.621801 0.201802
Si Si3 0.287892 0.815842 0.282822
Si Si4 0.965124 0.685719 0.612701
Si Si5 0.279588 0.617816 0.118710
O O1 0.803254 0.159649 0.673839
O O2 0.992814 0.190867 0.663600
O O3 0.940970 0.000000 0.690971
O O4 0.168714 0.121569 0.052098
O O5 0.526070 0.500000 0.158791
O O6 0.766118 0.650400 0.447929
O O7 0.439449 0.665222 0.193718
O O8 0.500000 0.672175 0.000000
O O9 0.500000 0.852701 0.500000
O O10 0.270089 0.692091 0.234946
O O11 0.000000 0.656401 0.500000
O O12 0.095648 0.619447 0.842020
O O13 0.315815 0.500000 0.204484
#
# Coordination Sequence:
#
# PCOD8060939 Si02
#       5
#     4   4   4   4   4
#     4  10  23  40  58  83 108 140 190 237 283 331
#     4  10  19  32  54  82 113 149 183 214 258 323
#     4  10  20  38  61  81 109 145 182 230 279 328
#     4  11  21  36  58  81 114 151 184 227 272 324
#     4  10  21  35  55  86 117 148 183 218 268 330
#
# _framework density 20.708679
#
# number of rings (size 3 to 8) (size 9 to 14) (size 15 to 20)
#    0.000    1.800    2.000    3.000    0.000    3.200 
#    0.000    9.000    0.000    0.600    0.000    0.000 
#    0.000    0.000    0.000    0.000    0.000    0.000 
#
# Total GULP energy -248005.608311 kJ/mol
# GULP energy per Si atom -12400.280416 kJ/mol
# Density = 2.066154 g / cm^3
# Si number density = 20.708679 Si / 1000 Ang^3
#
#
#
# Elastic Constant Matrix: (Units=GPa)
#
#
# Indices 1 2 3 4 5 6 
#
# 1 34.9282 27.7015 34.1206 0.0000 19.0385 0.0000
# 2 27.7015 63.4208 -26.1413 0.0000 10.1916 0.0000
# 3 34.1206 -26.1413 87.7599 0.0000 42.6154 0.0000
# 4 0.0000 0.0000 0.0000 20.8034 0.0000 -11.0148
# 5 19.0385 10.1916 42.6154 0.0000 36.5628 0.0000
# 6 0.0000 0.0000 0.0000 -11.0148 0.0000 40.6961
#
#
#
# Elastic Compliance Matrix: (Units=1/GPa)
#
#
# Indices 1 2 3 4 5 6 
#
# 1 -0.032551 0.049343 0.059448 0.000000 -0.066094 0.000000
# 2 0.049343 -0.030607 -0.046006 0.000000 0.036460 0.000000
# 3 0.059448 -0.046006 -0.038288 0.000000 0.026495 0.000000
# 4 0.000000 0.000000 0.000000 0.056110 0.000000 0.015187
# 5 -0.066094 0.036460 0.026495 0.000000 0.020722 0.000000
# 6 0.000000 0.000000 0.000000 0.015187 0.000000 0.028683
#
#
# Mechanical properties :
#
#
# Convention : Reuss Voigt Hill
#
# Bulk Modulus (GPa) = 41.45180 28.60781 35.02980
# Shear Modulus (GPa) = -44.06820 29.64101 -7.21360
#
# Velocity S-wave (km/s) = -4.61804 3.78740 -1.86840
# Velocity P-wave (km/s) = 2.89395 5.74197 3.50680
#
# Compressibility (1/GPa) = 0.02412440
#
# Stress axis : x y z
#
# Youngs Moduli (GPa) = -30.72090 -32.67246 -26.11783
#
# Poissons Ratio (x) = 1.61215 1.55266
# Poissons Ratio (y) = 1.51586 -1.20157
# Poissons Ratio (z) = 1.82630 -1.50312
#
# Static dielectric constant tensor:
#      x y z
#    x 3.771830 0.000000 0.163460 
#    y 0.000000 3.575680 0.000000 
#    z 0.163460 0.000000 3.759990 
# 
# 
# High freq. dielectric constant tensor:
#      x y z
#    x 1.803700 0.000000 0.014980 
#    y 0.000000 1.792010 0.000000 
#    z 0.014980 0.000000 1.816970 
# 
# From -- ./inp_files/50874.got.cif
#   From: 2010.06.25/outbox.cif.g09.slc.cpg/sg10_26_cif.got.tgz:50874.got - 2010.06.27 22:07:45.
