data_PCOD8060381
_publ_section_title
;
Structure prediction by ZEFSAII (Michael W. Deem and Ramdas Pophale) SiO2 
 PCOD8060381
Probable space group: P 2/M
;
_chemical_formula_sum "Si O2"
_cell_formula_units_Z 22
_cell_length_a 21.947284
_cell_length_b 10.936780
_cell_length_c 21.806164
_cell_angle_alpha 90.000000
_cell_angle_beta 166.594528
_cell_angle_gamma 90.000000
_cell_volume 1213.498973
_symmetry_space_group_name_H-M "P 2/M"
_symmetry_group_IT_number 10
_symmetry_cell_setting 'monoclinic'
loop_
_space_group_symop_operation_xyz
x,y,z
-x,y,-z
-x,-y,-z
x,-y,z
loop_
_atom_site_type_symbol
_atom_site_label
_atom_site_fract_x
_atom_site_fract_y
_atom_site_fract_z
Si Si1 0.736091 0.145970 0.772686
Si Si2 0.167114 0.762237 0.550811
Si Si3 0.736291 0.000000 0.278998
Si Si4 0.823217 0.855070 0.573544
Si Si5 0.703013 0.855418 0.877507
Si Si6 0.372595 0.358961 0.939857
O O1 0.500000 0.195614 0.500000
O O2 0.709492 0.199994 0.815281
O O3 0.736167 0.000000 0.774864
O O4 0.000000 0.195734 0.000000
O O5 0.116149 0.785086 0.429646
O O6 0.892009 0.719294 0.310607
O O7 0.278420 0.883012 0.691959
O O8 0.402827 0.664087 0.789066
O O9 0.000000 0.000000 0.500000
O O10 0.500000 0.000000 0.000000
O O11 0.548152 0.808014 0.331133
O O12 0.828724 0.000000 0.567095
O O13 0.039552 0.813569 0.834364
O O14 0.688167 0.000000 0.857508
O O15 0.288690 0.500000 0.859007
O O16 0.500000 0.320135 0.000000
#
# Coordination Sequence:
#
# PCOD8060381 Si02
#       6
#     4   4   2   4   4   4
#     4   9  15  23  36  56  82 118 169 216 243 268
#     4  12  22  38  57  79 105 134 170 211 261 313
#     4  12  24  36  54  80 108 132 160 210 266 310
#     4  10  19  32  46  69  98 131 167 202 248 305
#     4   9  17  27  42  60  91 130 168 208 245 287
#     4  11  24  41  60  78 100 131 172 216 261 316
#
# _framework density 18.129393
#
# number of rings (size 3 to 8) (size 9 to 14) (size 15 to 20)
#    0.000    1.636    0.909    6.000    0.000    5.818 
#    0.000    0.000    0.000    0.000    0.000    0.000 
#    0.000    0.000    0.000    0.000    0.000  229.091 
#
# Total GULP energy -272836.508295 kJ/mol
# GULP energy per Si atom -12401.659468 kJ/mol
# Density = 1.808813 g / cm^3
# Si number density = 18.129393 Si / 1000 Ang^3
#
#
#
# Elastic Constant Matrix: (Units=GPa)
#
#
# Indices 1 2 3 4 5 6 
#
# 1 127.8747 32.5717 46.9595 0.0000 -5.6284 0.0000
# 2 32.5717 38.9009 24.4413 0.0000 1.9432 0.0000
# 3 46.9595 24.4413 136.6039 0.0000 4.1026 0.0000
# 4 0.0000 0.0000 0.0000 15.2876 0.0000 0.1587
# 5 -5.6284 1.9432 4.1026 0.0000 35.3977 0.0000
# 6 0.0000 0.0000 0.0000 0.1587 0.0000 9.7121
#
#
#
# Elastic Compliance Matrix: (Units=1/GPa)
#
#
# Indices 1 2 3 4 5 6 
#
# 1 0.010747 -0.007607 -0.002406 0.000000 0.002405 0.000000
# 2 -0.007607 0.034382 -0.003456 0.000000 -0.002696 0.000000
# 3 -0.002406 -0.003456 0.008802 0.000000 -0.001213 0.000000
# 4 0.000000 0.000000 0.000000 0.065424 0.000000 -0.001069
# 5 0.002405 -0.002696 -0.001213 0.000000 0.028921 0.000000
# 6 0.000000 0.000000 0.000000 -0.001069 0.000000 0.102982
#
#
# Mechanical properties :
#
#
# Convention : Reuss Voigt Hill
#
# Bulk Modulus (GPa) = 37.04513 56.81384 46.92949
# Shear Modulus (GPa) = 17.40992 25.37328 21.39160
#
# Velocity S-wave (km/s) = 3.10226 3.74514 3.43875
# Velocity P-wave (km/s) = 5.77149 7.07866 6.45823
#
# Compressibility (1/GPa) = 0.02699410
#
# Stress axis : x y z
#
# Youngs Moduli (GPa) = 93.04809 29.08524 113.60943
#
# Poissons Ratio (x) = 0.22126 0.27330
# Poissons Ratio (y) = 0.70784 0.39258
# Poissons Ratio (z) = 0.22384 0.10050
#
# Static dielectric constant tensor:
#      x y z
#    x 3.502570 0.000000 -0.036530 
#    y 0.000000 2.949930 0.000000 
#    z -0.036530 0.000000 3.534790 
# 
# 
# High freq. dielectric constant tensor:
#      x y z
#    x 1.711840 0.000000 -0.001990 
#    y 0.000000 1.635480 0.000000 
#    z -0.001990 0.000000 1.727390 
# 
# From -- ./inp_files/87418.got.cif
#   From: 2010.06.25/outbox.cif.g09.slc.cpg/sg10_44_cif.got.tgz:87418.got - 2010.06.27 22:07:45.
