data_PCOD8060039
_publ_section_title
;
Structure prediction by ZEFSAII (Michael W. Deem and Ramdas Pophale) SiO2 
 PCOD8060039
Probable space group: P 2/M
;
_chemical_formula_sum "Si O2"
_cell_formula_units_Z 32
_cell_length_a 23.956527
_cell_length_b 10.063759
_cell_length_c 9.495961
_cell_angle_alpha 90.000000
_cell_angle_beta 50.585397
_cell_angle_gamma 90.000000
_cell_volume 1768.731237
_symmetry_space_group_name_H-M "P 2/M"
_symmetry_group_IT_number 10
_symmetry_cell_setting 'monoclinic'
loop_
_space_group_symop_operation_xyz
x,y,z
-x,y,-z
-x,-y,-z
x,-y,z
loop_
_atom_site_type_symbol
_atom_site_label
_atom_site_fract_x
_atom_site_fract_y
_atom_site_fract_z
Si Si1 0.229152 0.655134 0.090416
Si Si2 0.107771 0.853313 0.925234
Si Si3 0.923254 0.655350 0.555905
Si Si4 0.641231 0.658642 0.934853
Si Si5 0.370726 0.342369 0.364173
Si Si6 0.504459 0.341743 0.332371
Si Si7 0.042801 0.146122 0.722484
Si Si8 0.235509 0.343999 0.765149
O O1 0.232480 0.500000 0.109328
O O2 0.145415 0.699980 0.239365
O O3 0.283710 0.716398 0.119962
O O4 0.258188 0.691151 0.888752
O O5 0.074933 0.854884 0.824495
O O6 0.164862 0.736705 0.840376
O O7 0.141091 0.000000 0.905171
O O8 0.042903 0.822106 0.137588
O O9 0.920697 0.500000 0.522749
O O10 0.915218 0.739519 0.427449
O O11 0.000000 0.694411 0.500000
O O12 0.641508 0.500000 0.928770
O O13 0.630375 0.714965 0.793614
O O14 0.577206 0.708304 0.139664
O O15 0.376132 0.500000 0.350412
O O16 0.438315 0.285560 0.344337
O O17 0.298467 0.297595 0.560042
O O18 0.500000 0.286335 0.500000
O O19 0.501490 0.500000 0.342005
O O20 0.054535 0.000000 0.634478
O O21 0.217921 0.500000 0.777679
#
# Coordination Sequence:
#
# PCOD8060039 Si02
#       8
#     4   4   4   4   4   4   4   4
#     4   9  18  30  43  64  98 132 161 201 253 297
#     4   9  19  35  52  70  96 127 160 205 254 297
#     4  10  20  32  48  70  99 131 166 206 251 299
#     4   9  16  26  40  60  93 133 164 199 247 291
#     4   9  17  26  40  66  95 125 166 205 240 290
#     4   9  15  24  39  59  91 133 168 197 238 294
#     4   9  19  35  52  70  93 125 165 206 251 299
#     4  10  19  31  49  72  98 128 165 201 242 297
#
# _framework density 18.092064000000001
#
# number of rings (size 3 to 8) (size 9 to 14) (size 15 to 20)
#    0.000    2.750    0.000    2.625    1.750    6.750 
#    0.000    1.875    0.000    0.000    0.000    0.000 
#    0.000    7.500    0.000    0.000    0.000    0.250 
#
# Total GULP energy -396576.673906 kJ/mol
# GULP energy per Si atom -12393.021060 kJ/mol
# Density = 1.805089 g / cm^3
# Si number density = 18.092064 Si / 1000 Ang^3
#
#
#
# Elastic Constant Matrix: (Units=GPa)
#
#
# Indices 1 2 3 4 5 6 
#
# 1 126.2926 19.1512 66.9115 0.0000 -6.7154 0.0000
# 2 19.1512 30.2957 24.9373 0.0000 -2.2683 0.0000
# 3 66.9115 24.9373 138.1938 0.0000 7.1716 0.0000
# 4 0.0000 0.0000 0.0000 8.8592 0.0000 3.5207
# 5 -6.7154 -2.2683 7.1716 0.0000 28.3898 0.0000
# 6 0.0000 0.0000 0.0000 3.5207 0.0000 9.2927
#
#
#
# Elastic Compliance Matrix: (Units=1/GPa)
#
#
# Indices 1 2 3 4 5 6 
#
# 1 0.011252 -0.002567 -0.005180 0.000000 0.003765 0.000000
# 2 -0.002567 0.040045 -0.006199 0.000000 0.004158 0.000000
# 3 -0.005180 -0.006199 0.011098 0.000000 -0.004524 0.000000
# 4 0.000000 0.000000 0.000000 0.132884 0.000000 -0.050346
# 5 0.003765 0.004158 -0.004524 0.000000 0.037590 0.000000
# 6 0.000000 0.000000 0.000000 -0.050346 0.000000 0.126686
#
#
# Mechanical properties :
#
#
# Convention : Reuss Voigt Hill
#
# Bulk Modulus (GPa) = 28.98380 57.42022 43.20201
# Shear Modulus (GPa) = 12.53297 21.56048 17.04673
#
# Velocity S-wave (km/s) = 2.63484 3.45586 3.07289
# Velocity P-wave (km/s) = 5.03105 6.90874 6.04326
#
# Compressibility (1/GPa) = 0.03450203
#
# Stress axis : x y z
#
# Youngs Moduli (GPa) = 88.87151 24.97213 90.10747
#
# Poissons Ratio (x) = 0.06410 0.46679
# Poissons Ratio (y) = 0.22813 0.55858
# Poissons Ratio (z) = 0.46038 0.15480
#
# Static dielectric constant tensor:
#      x y z
#    x 3.521420 0.000000 -0.050170 
#    y 0.000000 2.903450 0.000000 
#    z -0.050170 0.000000 3.569970 
# 
# 
# High freq. dielectric constant tensor:
#      x y z
#    x 1.707570 0.000000 0.000730 
#    y 0.000000 1.633870 0.000000 
#    z 0.000730 0.000000 1.712370 
# 
# From -- ./inp_files/34831.got.cif
#   From: 2010.06.25/outbox.cif.g09.slc.cpg/sg10_18_cif.got.tgz:34831.got - 2010.06.27 22:07:45.
