data_PCOD8060547
_publ_section_title
;
Structure prediction by ZEFSAII (Michael W. Deem and Ramdas Pophale) SiO2 
 PCOD8060547
Probable space group: P 2/M
;
_chemical_formula_sum "Si O2"
_cell_formula_units_Z 20
_cell_length_a 9.895420
_cell_length_b 22.536800
_cell_length_c 8.674885
_cell_angle_alpha 90.000000
_cell_angle_beta 149.483785
_cell_angle_gamma 90.000000
_cell_volume 982.353217
_symmetry_space_group_name_H-M "P 2/M"
_symmetry_group_IT_number 10
_symmetry_cell_setting 'monoclinic'
loop_
_space_group_symop_operation_xyz
x,y,z
-x,y,-z
-x,-y,-z
x,-y,z
loop_
_atom_site_type_symbol
_atom_site_label
_atom_site_fract_x
_atom_site_fract_y
_atom_site_fract_z
Si Si1 0.513863 0.247895 0.197578
Si Si2 0.497278 0.374446 0.679457
Si Si3 0.018900 0.820203 0.702050
Si Si4 0.755305 0.064197 0.150666
Si Si5 0.003414 0.568358 0.680758
O O1 0.592157 0.310641 0.345814
O O2 0.725446 0.198636 0.470010
O O3 0.500000 0.252754 0.000000
O O4 0.223459 0.228246 0.970591
O O5 0.500000 0.374112 0.500000
O O6 0.287838 0.422792 0.533983
O O7 0.788670 0.390675 0.025920
O O8 0.000000 0.819481 0.500000
O O9 0.141048 0.885241 0.868500
O O10 0.000000 0.051302 0.500000
O O11 0.683922 0.000000 0.000850
O O12 0.500000 0.087205 0.000000
O O13 0.086950 0.500000 0.780371
O O14 0.000000 0.588077 0.500000
#
# Coordination Sequence:
#
# PCOD8060547 Si02
#       5
#     4   4   4   4   4
#     4  10  19  32  51  72 101 140 182 223 265 323
#     4  12  25  40  60  88 120 150 187 236 288 336
#     4   9  16  27  44  68  96 133 179 220 265 322
#     4   9  15  23  37  61  97 135 169 214 275 332
#     4  11  24  43  66  89 115 150 190 229 276 340
#
# _framework density 20.359275
#
# number of rings (size 3 to 8) (size 9 to 14) (size 15 to 20)
#    0.000    1.800    0.000    7.200    0.000    5.600 
#    0.000    0.000    0.000    0.000    0.000    0.000 
#    0.000    4.800    0.000    0.000    0.000    2.400 
#
# Total GULP energy -247816.375341 kJ/mol
# GULP energy per Si atom -12390.818767 kJ/mol
# Density = 2.031294 g / cm^3
# Si number density = 20.359275 Si / 1000 Ang^3
#
#
#
# Elastic Constant Matrix: (Units=GPa)
#
#
# Indices 1 2 3 4 5 6 
#
# 1 68.6338 31.7089 40.5451 0.0000 0.0142 0.0000
# 2 31.7089 111.3122 31.5491 0.0000 -8.0214 0.0000
# 3 40.5451 31.5491 101.6738 0.0000 10.2226 0.0000
# 4 0.0000 0.0000 0.0000 34.0745 0.0000 16.3584
# 5 0.0142 -8.0214 10.2226 0.0000 23.4895 0.0000
# 6 0.0000 0.0000 0.0000 16.3584 0.0000 6.9281
#
#
#
# Elastic Compliance Matrix: (Units=1/GPa)
#
#
# Indices 1 2 3 4 5 6 
#
# 1 0.020542 -0.003662 -0.007245 0.000000 0.001890 0.000000
# 2 -0.003662 0.011075 -0.002465 0.000000 0.004857 0.000000
# 3 -0.007245 -0.002465 0.014195 0.000000 -0.007015 0.000000
# 4 0.000000 0.000000 0.000000 -0.219763 0.000000 0.518898
# 5 0.001890 0.004857 -0.007015 0.000000 0.047282 0.000000
# 6 0.000000 0.000000 0.000000 0.518898 0.000000 -1.080866
#
#
# Mechanical properties :
#
#
# Convention : Reuss Voigt Hill
#
# Bulk Modulus (GPa) = 52.44392 54.35844 53.40118
# Shear Modulus (GPa) = -4.25737 24.75288 10.24776
#
# Velocity S-wave (km/s) = -1.44764 3.49062 2.24597
# Velocity P-wave (km/s) = 4.79801 6.55770 5.74562
#
# Compressibility (1/GPa) = 0.01906799
#
# Stress axis : x y z
#
# Youngs Moduli (GPa) = 48.68177 90.28969 70.44874
#
# Poissons Ratio (x) = 0.33063 0.51042
# Poissons Ratio (y) = 0.17826 0.17364
# Poissons Ratio (z) = 0.35271 0.22254
#
# Static dielectric constant tensor:
#      x y z
#    x 5.670010 0.000000 5.770800 
#    y 0.000000 4.175310 0.000000 
#    z 5.770800 0.000000 16.117790 
# 
# 
# High freq. dielectric constant tensor:
#      x y z
#    x 1.729430 0.000000 0.032400 
#    y 0.000000 1.816800 0.000000 
#    z 0.032400 0.000000 1.810030 
# 
# From -- ./inp_files/20662.got.cif
#   From: 2010.06.25/outbox.cif.g09.slc.cpg/sg10_11_cif.got.tgz:20662.got - 2010.06.27 22:07:45.
