data_PCOD8060564
_publ_section_title
;
Structure prediction by ZEFSAII (Michael W. Deem and Ramdas Pophale) SiO2 
 PCOD8060564
Probable space group: P 2/M
;
_chemical_formula_sum "Si O2"
_cell_formula_units_Z 32
_cell_length_a 12.302547
_cell_length_b 8.779754
_cell_length_c 23.433132
_cell_angle_alpha 90.000000
_cell_angle_beta 139.264773
_cell_angle_gamma 90.000000
_cell_volume 1651.699732
_symmetry_space_group_name_H-M "P 2/M"
_symmetry_group_IT_number 10
_symmetry_cell_setting 'monoclinic'
loop_
_space_group_symop_operation_xyz
x,y,z
-x,y,-z
-x,-y,-z
x,-y,z
loop_
_atom_site_type_symbol
_atom_site_label
_atom_site_fract_x
_atom_site_fract_y
_atom_site_fract_z
Si Si1 0.410696 0.825205 0.789144
Si Si2 0.548532 0.831463 0.458851
Si Si3 0.775298 0.168795 0.743845
Si Si4 0.540722 0.320747 0.735361
Si Si5 0.968995 0.820733 0.363666
Si Si6 0.981767 0.679412 0.248346
Si Si7 0.370750 0.823714 0.900535
Si Si8 0.235996 0.324965 0.538678
O O1 0.534007 0.724919 0.799140
O O2 0.459976 0.800579 0.874739
O O3 0.221380 0.769246 0.704755
O O4 0.431047 0.000000 0.778653
O O5 0.500000 0.765780 0.500000
O O6 0.383931 0.849009 0.357898
O O7 0.671210 0.703303 0.484163
O O8 0.635515 0.000000 0.496993
O O9 0.709436 0.251776 0.775197
O O10 0.912712 0.263069 0.763946
O O11 0.845521 0.000000 0.787073
O O12 0.549984 0.500000 0.730169
O O13 0.364396 0.259835 0.637581
O O14 0.061412 0.763397 0.458732
O O15 0.039380 0.752471 0.331810
O O16 0.984609 0.000000 0.364725
O O17 0.003417 0.500000 0.262159
O O18 0.791305 0.720096 0.158847
O O19 0.316770 0.000000 0.886161
O O20 0.500000 0.771637 0.000000
O O21 0.193716 0.500000 0.532637
#
# Coordination Sequence:
#
# PCOD8060564 Si02
#       8
#     4   4   4   4   4   4   4   4
#     4   9  19  35  55  78 102 134 175 214 256 310
#     4   9  17  28  43  63  89 126 172 219 263 307
#     4  10  19  32  51  73 101 139 181 219 256 306
#     4  10  21  35  50  72 105 143 181 221 265 310
#     4  10  20  34  51  72 101 138 182 227 269 313
#     4  11  21  33  53  82 113 139 169 213 266 317
#     4   9  19  38  63  88 112 137 167 205 252 311
#     4  10  20  31  44  66  97 134 177 223 268 310
#
# _framework density 19.373982000000002
#
# number of rings (size 3 to 8) (size 9 to 14) (size 15 to 20)
#    0.000    2.250    0.000    4.125    0.000    6.500 
#    0.000    2.500    0.000    0.750    0.000    5.250 
#    0.000    0.000    0.000    0.000    0.000    0.000 
#
# Total GULP energy -396579.676215 kJ/mol
# GULP energy per Si atom -12393.114882 kJ/mol
# Density = 1.932989 g / cm^3
# Si number density = 19.373982 Si / 1000 Ang^3
#
#
#
# Elastic Constant Matrix: (Units=GPa)
#
#
# Indices 1 2 3 4 5 6 
#
# 1 91.6221 31.5339 9.3648 0.0000 -19.7712 0.0000
# 2 31.5339 87.5375 16.3351 0.0000 -4.3691 0.0000
# 3 9.3648 16.3351 50.2067 0.0000 -7.8799 0.0000
# 4 0.0000 0.0000 0.0000 17.6579 0.0000 4.6394
# 5 -19.7712 -4.3691 -7.8799 0.0000 19.8348 0.0000
# 6 0.0000 0.0000 0.0000 4.6394 0.0000 26.6424
#
#
#
# Elastic Compliance Matrix: (Units=1/GPa)
#
#
# Indices 1 2 3 4 5 6 
#
# 1 0.015830 -0.005153 0.001090 0.000000 0.015077 0.000000
# 2 -0.005153 0.013866 -0.004135 0.000000 -0.003725 0.000000
# 3 0.001090 -0.004135 0.022489 0.000000 0.009111 0.000000
# 4 0.000000 0.000000 0.000000 0.059347 0.000000 -0.010334
# 5 0.015077 -0.003725 0.009111 0.000000 0.068244 0.000000
# 6 0.000000 0.000000 0.000000 -0.010334 0.000000 0.039334
#
#
# Mechanical properties :
#
#
# Convention : Reuss Voigt Hill
#
# Bulk Modulus (GPa) = 27.94101 38.20378 33.07239
# Shear Modulus (GPa) = 20.20723 24.30253 22.25488
#
# Velocity S-wave (km/s) = 3.23307 3.54558 3.39292
# Velocity P-wave (km/s) = 5.32825 6.04346 5.69709
#
# Compressibility (1/GPa) = 0.03578969
#
# Stress axis : x y z
#
# Youngs Moduli (GPa) = 63.17036 72.12006 44.46528
#
# Poissons Ratio (x) = 0.37167 -0.04848
# Poissons Ratio (y) = 0.32555 0.18385
# Poissons Ratio (z) = -0.06888 0.29820
#
# Static dielectric constant tensor:
#      x y z
#    x 3.418900 0.000000 -0.095290 
#    y 0.000000 3.520520 0.000000 
#    z -0.095290 0.000000 3.368930 
# 
# 
# High freq. dielectric constant tensor:
#      x y z
#    x 1.753950 0.000000 -0.010450 
#    y 0.000000 1.752190 0.000000 
#    z -0.010450 0.000000 1.719490 
# 
# From -- ./inp_files/83640.got.cif
#   From: 2010.06.25/outbox.cif.g09.slc.cpg/sg10_42_cif.got.tgz:83640.got - 2010.06.27 22:07:45.
