data_PCOD8060835
_publ_section_title
;
Structure prediction by ZEFSAII (Michael W. Deem and Ramdas Pophale) SiO2 
 PCOD8060835
Probable space group: P 2/M
;
_chemical_formula_sum "Si O2"
_cell_formula_units_Z 24
_cell_length_a 23.640322
_cell_length_b 7.921925
_cell_length_c 9.634668
_cell_angle_alpha 90.000000
_cell_angle_beta 134.139578
_cell_angle_gamma 90.000000
_cell_volume 1294.883752
_symmetry_space_group_name_H-M "P 2/M"
_symmetry_group_IT_number 10
_symmetry_cell_setting 'monoclinic'
loop_
_space_group_symop_operation_xyz
x,y,z
-x,y,-z
-x,-y,-z
x,-y,z
loop_
_atom_site_type_symbol
_atom_site_label
_atom_site_fract_x
_atom_site_fract_y
_atom_site_fract_z
Si Si1 0.284702 0.189494 0.469701
Si Si2 0.293677 0.702005 0.892594
Si Si3 0.841992 0.193579 0.528985
Si Si4 0.415171 0.307456 0.879228
Si Si5 0.938859 0.500000 0.598981
Si Si6 0.111704 0.500000 0.805097
Si Si7 0.257614 0.685020 0.128664
O O1 0.204991 0.247787 0.411371
O O2 0.360039 0.296502 0.648618
O O3 0.272299 0.194943 0.283634
O O4 0.303635 0.000000 0.547348
O O5 0.280848 0.500000 0.857459
O O6 0.216891 0.793535 0.701399
O O7 0.369629 0.767619 0.935972
O O8 0.302798 0.755591 0.069412
O O9 0.912201 0.328850 0.632025
O O10 0.874448 0.000000 0.593240
O O11 0.432678 0.500000 0.944270
O O12 0.500000 0.215872 0.000000
O O13 0.906288 0.500000 0.387946
O O14 0.033326 0.500000 0.762906
O O15 0.164138 0.666141 0.931957
O O16 0.292053 0.500000 0.226527
#
# Coordination Sequence:
#
# PCOD8060835 Si02
#       7
#     4   4   4   4   2   2   4
#     4  10  21  33  51  77 106 138 176 218 260 314
#     4   9  15  31  54  75 103 138 177 220 261 312
#     4  10  19  32  53  80 102 140 185 217 262 314
#     4   9  18  32  54  81 103 132 175 221 265 311
#     4  11  18  37  57  79 112 135 172 232 270 312
#     4   9  20  33  57  83 102 138 176 214 278 315
#     4   9  17  33  51  77  98 137 178 210 260 319
#
# _framework density 18.534483000000002
#
# number of rings (size 3 to 8) (size 9 to 14) (size 15 to 20)
#    0.500    2.000    2.500    0.500    2.333    1.000 
#    0.000    5.000    0.000    7.000    0.000    0.000 
#    0.000    0.000    0.000    0.000    0.000    0.000 
#
# Total GULP energy -297387.658831 kJ/mol
# GULP energy per Si atom -12391.152451 kJ/mol
# Density = 1.849230 g / cm^3
# Si number density = 18.534483 Si / 1000 Ang^3
#
#
#
# Elastic Constant Matrix: (Units=GPa)
#
#
# Indices 1 2 3 4 5 6 
#
# 1 140.1998 30.2973 60.9346 0.0000 0.9552 0.0000
# 2 30.2973 51.4250 10.7280 0.0000 2.3226 0.0000
# 3 60.9346 10.7280 78.6028 0.0000 -14.6144 0.0000
# 4 0.0000 0.0000 0.0000 10.5829 0.0000 -1.9657
# 5 0.9552 2.3226 -14.6144 0.0000 34.2597 0.0000
# 6 0.0000 0.0000 0.0000 -1.9657 0.0000 12.6070
#
#
#
# Elastic Compliance Matrix: (Units=1/GPa)
#
#
# Indices 1 2 3 4 5 6 
#
# 1 0.012526 -0.005150 -0.009784 0.000000 -0.004174 0.000000
# 2 -0.005150 0.022373 0.000743 0.000000 -0.001056 0.000000
# 3 -0.009784 0.000743 0.021991 0.000000 0.009603 0.000000
# 4 0.000000 0.000000 0.000000 0.097311 0.000000 0.015173
# 5 -0.004174 -0.001056 0.009603 0.000000 0.033473 0.000000
# 6 0.000000 0.000000 0.000000 0.015173 0.000000 0.081687
#
#
# Mechanical properties :
#
#
# Convention : Reuss Voigt Hill
#
# Bulk Modulus (GPa) = 35.07860 52.68305 43.88082
# Shear Modulus (GPa) = 16.27358 22.70777 19.49068
#
# Velocity S-wave (km/s) = 2.96635 3.50403 3.24634
# Velocity P-wave (km/s) = 5.54071 6.69754 6.14640
#
# Compressibility (1/GPa) = 0.02850741
#
# Stress axis : x y z
#
# Youngs Moduli (GPa) = 79.83123 44.69686 45.47329
#
# Poissons Ratio (x) = 0.23021 0.44490
# Poissons Ratio (y) = 0.41117 -0.03378
# Poissons Ratio (z) = 0.78105 -0.03320
#
# Static dielectric constant tensor:
#      x y z
#    x 3.756390 0.000000 -0.048330 
#    y 0.000000 3.174770 0.000000 
#    z -0.048330 0.000000 3.056720 
# 
# 
# High freq. dielectric constant tensor:
#      x y z
#    x 1.722110 0.000000 -0.015480 
#    y 0.000000 1.699830 0.000000 
#    z -0.015480 0.000000 1.689340 
# 
# From -- ./inp_files/33527.got.cif
#   From: 2010.06.25/outbox.cif.g09.slc.cpg/sg10_17_cif.got.tgz:33527.got - 2010.06.27 22:07:45.
