data_PCOD8060623
_publ_section_title
;
Structure prediction by ZEFSAII (Michael W. Deem and Ramdas Pophale) SiO2 
 PCOD8060623
Probable space group: P 2/M
;
_chemical_formula_sum "Si O2"
_cell_formula_units_Z 28
_cell_length_a 28.649492
_cell_length_b 8.498060
_cell_length_c 9.623745
_cell_angle_alpha 90.000000
_cell_angle_beta 38.926100
_cell_angle_gamma 90.000000
_cell_volume 1472.176856
_symmetry_space_group_name_H-M "P 2/M"
_symmetry_group_IT_number 10
_symmetry_cell_setting 'monoclinic'
loop_
_space_group_symop_operation_xyz
x,y,z
-x,y,-z
-x,-y,-z
x,-y,z
loop_
_atom_site_type_symbol
_atom_site_label
_atom_site_fract_x
_atom_site_fract_y
_atom_site_fract_z
Si Si1 0.918123 0.815404 0.695255
Si Si2 0.799804 0.816692 0.186042
Si Si3 0.596344 0.815347 0.896431
Si Si4 0.796986 0.816446 0.759281
Si Si5 0.306463 0.319744 0.786627
Si Si6 0.244056 0.316913 0.430097
Si Si7 0.445008 0.316968 0.299822
O O1 0.866047 0.752192 0.691122
O O2 0.000000 0.736141 0.500000
O O3 0.925989 0.000000 0.655101
O O4 0.879913 0.777246 0.932055
O O5 0.736589 0.716375 0.256506
O O6 0.800853 0.772763 0.345068
O O7 0.780851 0.000000 0.209968
O O8 0.671832 0.741539 0.778540
O O9 0.586749 0.781833 0.755739
O O10 0.598551 0.000000 0.917564
O O11 0.528358 0.739669 0.141117
O O12 0.798104 0.718832 0.615222
O O13 0.803069 0.000000 0.710664
O O14 0.721390 0.788052 0.022160
O O15 0.293067 0.500000 0.859857
O O16 0.393514 0.287013 0.554005
O O17 0.242557 0.500000 0.466658
O O18 0.444392 0.500000 0.259028
#
# Coordination Sequence:
#
# PCOD8060623 Si02
#       7
#     4   4   4   4   4   4   4
#     4   8  16  34  60  88 113 138 173 219 267 318
#     4  10  19  32  56  84 109 141 185 227 263 316
#     4  11  21  32  51  77 107 141 184 234 277 318
#     4  10  21  36  57  82 110 143 182 226 269 323
#     4  10  19  33  54  79 109 145 183 224 271 325
#     4  12  23  37  54  76 111 148 183 227 280 333
#     4  10  19  32  51  77 109 144 183 225 275 326
#
# _framework density 19.019454
#
# number of rings (size 3 to 8) (size 9 to 14) (size 15 to 20)
#    0.000    1.857    1.429    6.000    0.000    1.714 
#    0.000    1.429    0.000   24.000    0.000    0.000 
#    0.000    0.000    0.000    0.000    0.000    0.000 
#
# Total GULP energy -347209.643252 kJ/mol
# GULP energy per Si atom -12400.344402 kJ/mol
# Density = 1.897616 g / cm^3
# Si number density = 19.019454 Si / 1000 Ang^3
#
#
#
# Elastic Constant Matrix: (Units=GPa)
#
#
# Indices 1 2 3 4 5 6 
#
# 1 82.6382 10.7545 55.7205 0.0000 -1.5877 0.0000
# 2 10.7545 58.5158 17.1185 0.0000 -9.6487 0.0000
# 3 55.7205 17.1185 119.2044 0.0000 -10.3443 0.0000
# 4 0.0000 0.0000 0.0000 13.9428 0.0000 11.1115
# 5 -1.5877 -9.6487 -10.3443 0.0000 31.1883 0.0000
# 6 0.0000 0.0000 0.0000 11.1115 0.0000 20.2532
#
#
#
# Elastic Compliance Matrix: (Units=1/GPa)
#
#
# Indices 1 2 3 4 5 6 
#
# 1 0.017857 -0.001203 -0.008369 0.000000 -0.002239 0.000000
# 2 -0.001203 0.018649 -0.001668 0.000000 0.005155 0.000000
# 3 -0.008369 -0.001668 0.012828 0.000000 0.003312 0.000000
# 4 0.000000 0.000000 0.000000 0.127442 0.000000 -0.069919
# 5 -0.002239 0.005155 0.003312 0.000000 0.034643 0.000000
# 6 0.000000 0.000000 0.000000 -0.069919 0.000000 0.087735
#
#
# Mechanical properties :
#
#
# Convention : Reuss Voigt Hill
#
# Bulk Modulus (GPa) = 37.23899 47.50507 42.37203
# Shear Modulus (GPa) = 15.12473 24.86117 19.99295
#
# Velocity S-wave (km/s) = 2.82303 3.61937 3.24571
# Velocity P-wave (km/s) = 5.49981 6.51903 6.03099
#
# Compressibility (1/GPa) = 0.02685358
#
# Stress axis : x y z
#
# Youngs Moduli (GPa) = 55.99979 53.62346 77.95561
#
# Poissons Ratio (x) = 0.06450 0.65238
# Poissons Ratio (y) = 0.06736 0.13007
# Poissons Ratio (z) = 0.46864 0.08947
#
# Static dielectric constant tensor:
#      x y z
#    x 3.348450 0.000000 -0.221540 
#    y 0.000000 3.410830 0.000000 
#    z -0.221540 0.000000 3.718090 
# 
# 
# High freq. dielectric constant tensor:
#      x y z
#    x 1.707890 0.000000 -0.004120 
#    y 0.000000 1.740400 0.000000 
#    z -0.004120 0.000000 1.744400 
# 
# From -- ./inp_files/37976.got.cif
#   From: 2010.06.25/outbox.cif.g09.slc.cpg/sg10_19_cif.got.tgz:37976.got - 2010.06.27 22:07:45.
