data_PCOD8060460
_publ_section_title
;
Structure prediction by ZEFSAII (Michael W. Deem and Ramdas Pophale) SiO2 
 PCOD8060460
Probable space group: P 2/M
;
_chemical_formula_sum "Si O2"
_cell_formula_units_Z 32
_cell_length_a 19.482236
_cell_length_b 9.070316
_cell_length_c 14.263652
_cell_angle_alpha 90.000000
_cell_angle_beta 46.663173
_cell_angle_gamma 90.000000
_cell_volume 1833.261954
_symmetry_space_group_name_H-M "P 2/M"
_symmetry_group_IT_number 10
_symmetry_cell_setting 'monoclinic'
loop_
_space_group_symop_operation_xyz
x,y,z
-x,y,-z
-x,-y,-z
x,-y,z
loop_
_atom_site_type_symbol
_atom_site_label
_atom_site_fract_x
_atom_site_fract_y
_atom_site_fract_z
Si Si1 0.222806 0.828746 0.630253
Si Si2 0.400234 0.672183 0.127239
Si Si3 0.965834 0.670580 0.136768
Si Si4 0.318539 0.328659 0.013172
Si Si5 0.543658 0.173610 0.253859
Si Si6 0.296549 0.168711 0.758850
Si Si7 0.359167 0.675539 0.372196
Si Si8 0.162769 0.329786 0.019986
O O1 0.119119 0.774543 0.753974
O O2 0.294367 0.801547 0.650024
O O3 0.261770 0.737445 0.505535
O O4 0.217358 0.000000 0.608739
O O5 0.415844 0.500000 0.128119
O O6 0.320772 0.704442 0.122439
O O7 0.366896 0.736796 0.258184
O O8 0.500000 0.741962 0.000000
O O9 0.935099 0.500000 0.174243
O O10 0.000000 0.706789 0.000000
O O11 0.052063 0.709972 0.127071
O O12 0.343947 0.500000 0.970364
O O13 0.397740 0.229029 0.890620
O O14 0.215007 0.288324 0.069000
O O15 0.601743 0.213714 0.293986
O O16 0.445351 0.259429 0.351840
O O17 0.524276 0.000000 0.262819
O O18 0.211309 0.254425 0.886232
O O19 0.276601 0.000000 0.801544
O O20 0.358937 0.500000 0.378592
O O21 0.174367 0.500000 0.986764
#
# Coordination Sequence:
#
# PCOD8060460 Si02
#       8
#     4   4   4   4   4   4   4   4
#     4  11  23  37  52  73 102 138 176 211 250 302
#     4   9  16  30  53  78 101 129 168 212 254 298
#     4  10  19  33  53  79 107 132 165 211 258 299
#     4   9  16  30  52  77 103 132 168 206 250 299
#     4  10  19  32  49  73 104 136 169 205 246 297
#     4   9  19  33  49  70 102 139 170 202 245 297
#     4  11  22  36  53  73 101 137 172 212 258 301
#     4   9  17  29  51  79 104 130 164 209 250 295
#
# _framework density 17.455224999999999
#
# number of rings (size 3 to 8) (size 9 to 14) (size 15 to 20)
#    0.000    2.250    2.500    1.125    0.000    2.250 
#    0.000    4.375    0.000    0.750    0.000    5.250 
#    0.000    0.000    0.000    0.000    0.000    0.000 
#
# Total GULP energy -396704.372641 kJ/mol
# GULP energy per Si atom -12397.011645 kJ/mol
# Density = 1.741550 g / cm^3
# Si number density = 17.455225 Si / 1000 Ang^3
#
#
#
# Elastic Constant Matrix: (Units=GPa)
#
#
# Indices 1 2 3 4 5 6 
#
# 1 94.7746 32.6017 51.8271 0.0000 0.3070 0.0000
# 2 32.6017 62.7619 42.3004 0.0000 -1.1209 0.0000
# 3 51.8271 42.3004 102.1579 0.0000 2.3294 0.0000
# 4 0.0000 0.0000 0.0000 4.1084 0.0000 -6.3782
# 5 0.3070 -1.1209 2.3294 0.0000 21.2272 0.0000
# 6 0.0000 0.0000 0.0000 -6.3782 0.0000 21.1847
#
#
#
# Elastic Compliance Matrix: (Units=1/GPa)
#
#
# Indices 1 2 3 4 5 6 
#
# 1 0.015213 -0.003734 -0.006178 0.000000 0.000261 0.000000
# 2 -0.003734 0.023118 -0.007727 0.000000 0.002123 0.000000
# 3 -0.006178 -0.007727 0.016170 0.000000 -0.002093 0.000000
# 4 0.000000 0.000000 0.000000 0.457012 0.000000 0.137594
# 5 0.000261 0.002123 -0.002093 0.000000 0.047447 0.000000
# 6 0.000000 0.000000 0.000000 0.137594 0.000000 0.088630
#
#
# Mechanical properties :
#
#
# Convention : Reuss Voigt Hill
#
# Bulk Modulus (GPa) = 52.01672 57.01698 54.51685
# Shear Modulus (GPa) = 7.25398 18.16842 12.71120
#
# Velocity S-wave (km/s) = 2.04078 3.22973 2.70148
# Velocity P-wave (km/s) = 5.95129 6.82963 6.40553
#
# Compressibility (1/GPa) = 0.01922459
#
# Stress axis : x y z
#
# Youngs Moduli (GPa) = 65.73173 43.25554 61.84305
#
# Poissons Ratio (x) = 0.16152 0.38206
# Poissons Ratio (y) = 0.24546 0.47783
# Poissons Ratio (z) = 0.40608 0.33422
#
# Static dielectric constant tensor:
#      x y z
#    x 3.673860 0.000000 0.020910 
#    y 0.000000 3.160590 0.000000 
#    z 0.020910 0.000000 3.030500 
# 
# 
# High freq. dielectric constant tensor:
#      x y z
#    x 1.682440 0.000000 -0.001330 
#    y 0.000000 1.666490 0.000000 
#    z -0.001330 0.000000 1.645190 
# 
# From -- ./inp_files/58172.got.cif
#   From: 2010.06.25/outbox.cif.g09.slc.cpg/sg10_30_cif.got.tgz:58172.got - 2010.06.27 22:07:45.
