data_PCOD8060786
_publ_section_title
;
Structure prediction by ZEFSAII (Michael W. Deem and Ramdas Pophale) SiO2 
 PCOD8060786
Probable space group: P 2/M
;
_chemical_formula_sum "Si O2"
_cell_formula_units_Z 24
_cell_length_a 19.083386
_cell_length_b 7.862570
_cell_length_c 9.399907
_cell_angle_alpha 90.000000
_cell_angle_beta 118.408649
_cell_angle_gamma 90.000000
_cell_volume 1240.558548
_symmetry_space_group_name_H-M "P 2/M"
_symmetry_group_IT_number 10
_symmetry_cell_setting 'monoclinic'
loop_
_space_group_symop_operation_xyz
x,y,z
-x,y,-z
-x,-y,-z
x,-y,z
loop_
_atom_site_type_symbol
_atom_site_label
_atom_site_fract_x
_atom_site_fract_y
_atom_site_fract_z
Si Si1 0.138817 0.307027 0.308883
Si Si2 0.311947 0.688494 0.438394
Si Si3 0.411470 0.500000 0.742382
Si Si4 0.598844 0.500000 0.938111
Si Si5 0.994329 0.193323 0.340593
Si Si6 0.863662 0.198978 0.003700
Si Si7 0.319817 0.192492 0.144441
O O1 0.131627 0.500000 0.355455
O O2 0.228986 0.233836 0.418231
O O3 0.115973 0.295324 0.121630
O O4 0.079260 0.196367 0.345062
O O5 0.290680 0.500000 0.356787
O O6 0.376973 0.669277 0.628364
O O7 0.344485 0.795380 0.335685
O O8 0.505343 0.500000 0.819334
O O9 0.381834 0.500000 0.875771
O O10 0.632514 0.327485 0.903407
O O11 0.000000 0.285368 0.500000
O O12 0.968142 0.000000 0.340228
O O13 0.923986 0.277742 0.178849
O O14 0.773365 0.233149 0.965415
O O15 0.878874 0.000000 0.992366
O O16 0.339988 0.000000 0.113360
#
# Coordination Sequence:
#
# PCOD8060786 Si02
#       7
#     4   4   2   2   4   4   4
#     4  10  19  32  53  77 101 133 181 224 265 318
#     4   8  17  37  58  79 111 146 184 229 282 335
#     4   9  21  39  61  80 117 160 181 221 290 345
#     4  11  21  39  61  86 117 154 185 225 284 347
#     4  10  21  35  49  70 107 147 181 222 271 320
#     4   9  19  35  53  76 104 140 181 222 275 325
#     4  10  20  36  61  89 114 146 192 240 283 333
#
# _framework density 19.346125000000001
#
# number of rings (size 3 to 8) (size 9 to 14) (size 15 to 20)
#    0.500    2.000    0.833    1.000    1.167    6.333 
#    0.000    4.167    0.000    0.000    0.000    0.000 
#    0.000    0.000    0.000    0.000    0.000    0.000 
#
# Total GULP energy -297457.700111 kJ/mol
# GULP energy per Si atom -12394.070838 kJ/mol
# Density = 1.930209 g / cm^3
# Si number density = 19.346125 Si / 1000 Ang^3
#
#
#
# Elastic Constant Matrix: (Units=GPa)
#
#
# Indices 1 2 3 4 5 6 
#
# 1 119.5932 36.0879 71.8989 0.0000 -9.6845 0.0000
# 2 36.0879 60.8601 28.0098 0.0000 -6.0245 0.0000
# 3 71.8989 28.0098 128.3839 0.0000 -4.9492 0.0000
# 4 0.0000 0.0000 0.0000 18.6143 0.0000 2.3256
# 5 -9.6845 -6.0245 -4.9492 0.0000 20.0629 0.0000
# 6 0.0000 0.0000 0.0000 2.3256 0.0000 25.3917
#
#
#
# Elastic Compliance Matrix: (Units=1/GPa)
#
#
# Indices 1 2 3 4 5 6 
#
# 1 0.014204 -0.004958 -0.006730 0.000000 0.003707 0.000000
# 2 -0.004958 0.020416 -0.001548 0.000000 0.003355 0.000000
# 3 -0.006730 -0.001548 0.011866 0.000000 -0.000786 0.000000
# 4 0.000000 0.000000 0.000000 0.054344 0.000000 -0.004977
# 5 0.003707 0.003355 -0.000786 0.000000 0.052446 0.000000
# 6 0.000000 0.000000 0.000000 -0.004977 0.000000 0.039839
#
#
# Mechanical properties :
#
#
# Convention : Reuss Voigt Hill
#
# Bulk Modulus (GPa) = 49.96791 64.53670 57.25231
# Shear Modulus (GPa) = 22.09863 24.33649 23.21756
#
# Velocity S-wave (km/s) = 3.38343 3.55061 3.46802
# Velocity P-wave (km/s) = 6.41466 7.08805 6.75975
#
# Compressibility (1/GPa) = 0.02001284
#
# Stress axis : x y z
#
# Youngs Moduli (GPa) = 70.40194 48.98181 84.27706
#
# Poissons Ratio (x) = 0.24286 0.56719
# Poissons Ratio (y) = 0.34906 0.13047
# Poissons Ratio (z) = 0.47381 0.07583
#
# Static dielectric constant tensor:
#      x y z
#    x 3.388930 0.000000 0.062580 
#    y 0.000000 3.290310 0.000000 
#    z 0.062580 0.000000 3.637270 
# 
# 
# High freq. dielectric constant tensor:
#      x y z
#    x 1.746560 0.000000 0.003130 
#    y 0.000000 1.733310 0.000000 
#    z 0.003130 0.000000 1.747500 
# 
# From -- ./inp_files/33528.got.cif
#   From: 2010.06.25/outbox.cif.g09.slc.cpg/sg10_17_cif.got.tgz:33528.got - 2010.06.27 22:07:45.
