data_PCOD8060334
_publ_section_title
;
Structure prediction by ZEFSAII (Michael W. Deem and Ramdas Pophale) SiO2 
 PCOD8060334
Probable space group: P 2/M
;
_chemical_formula_sum "Si O2"
_cell_formula_units_Z 28
_cell_length_a 15.656995
_cell_length_b 8.706301
_cell_length_c 24.001164
_cell_angle_alpha 90.000000
_cell_angle_beta 25.780401
_cell_angle_gamma 90.000000
_cell_volume 1422.940939
_symmetry_space_group_name_H-M "P 2/M"
_symmetry_group_IT_number 10
_symmetry_cell_setting 'monoclinic'
loop_
_space_group_symop_operation_xyz
x,y,z
-x,y,-z
-x,-y,-z
x,-y,z
loop_
_atom_site_type_symbol
_atom_site_label
_atom_site_fract_x
_atom_site_fract_y
_atom_site_fract_z
Si Si1 0.283844 0.179827 0.571945
Si Si2 0.186326 0.319135 0.422448
Si Si3 0.430648 0.683569 0.864458
Si Si4 0.972832 0.678765 0.366335
Si Si5 0.690097 0.681921 0.324733
Si Si6 0.032528 0.682484 0.042835
Si Si7 0.576916 0.681080 0.896194
O O1 0.097760 0.218707 0.643448
O O2 0.241661 0.249073 0.656992
O O3 0.478038 0.255339 0.431062
O O4 0.316130 0.000000 0.558285
O O5 0.185114 0.500000 0.412461
O O6 0.389447 0.251744 0.278782
O O7 0.164767 0.281190 0.500280
O O8 0.000000 0.245609 0.500000
O O9 0.430240 0.500000 0.863988
O O10 0.454171 0.742616 0.914714
O O11 0.229953 0.749083 0.955606
O O12 0.956622 0.500000 0.359850
O O13 0.196780 0.724457 0.247302
O O14 0.679779 0.500000 0.336123
O O15 0.845719 0.736624 0.187737
O O16 0.048254 0.500000 0.031466
O O17 0.000000 0.749357 0.000000
O O18 0.549914 0.500000 0.915258
O O19 0.500000 0.753679 0.000000
#
# Coordination Sequence:
#
# PCOD8060334 Si02
#       7
#     4   4   4   4   4   4   4
#     4  11  23  38  56  78 109 147 181 223 281 330
#     4   9  15  26  45  74 108 138 173 220 267 313
#     4   9  16  27  43  70 111 147 169 209 274 325
#     4  10  19  31  53  83 107 136 182 228 271 324
#     4  10  20  37  60  84 107 136 182 231 274 322
#     4   9  19  31  48  81 118 143 169 218 280 331
#     4   9  17  27  44  75 112 141 174 222 274 321
#
# _framework density 19.677554000000001
#
# number of rings (size 3 to 8) (size 9 to 14) (size 15 to 20)
#    0.000    2.429    1.429    2.571    4.000    0.000 
#    0.000    0.000    0.000    2.571    0.000    0.000 
#    0.000    0.000    0.000    0.000    0.000    0.000 
#
# Total GULP energy -347138.845034 kJ/mol
# GULP energy per Si atom -12397.815894 kJ/mol
# Density = 1.963277 g / cm^3
# Si number density = 19.677554 Si / 1000 Ang^3
#
#
#
# Elastic Constant Matrix: (Units=GPa)
#
#
# Indices 1 2 3 4 5 6 
#
# 1 159.9475 21.9348 72.3067 0.0000 -0.6789 0.0000
# 2 21.9348 44.5089 23.6975 0.0000 0.6607 0.0000
# 3 72.3067 23.6975 152.9381 0.0000 15.4810 0.0000
# 4 0.0000 0.0000 0.0000 -0.4941 0.0000 -2.4460
# 5 -0.6789 0.6607 15.4810 0.0000 25.7827 0.0000
# 6 0.0000 0.0000 0.0000 -2.4460 0.0000 0.6967
#
#
#
# Elastic Compliance Matrix: (Units=1/GPa)
#
#
# Indices 1 2 3 4 5 6 
#
# 1 0.008293 -0.002069 -0.003862 0.000000 0.002590 0.000000
# 2 -0.002069 0.025079 -0.003021 0.000000 0.001117 0.000000
# 3 -0.003862 -0.003021 0.009407 0.000000 -0.005673 0.000000
# 4 0.000000 0.000000 0.000000 -0.110108 0.000000 -0.386592
# 5 0.002590 0.001117 -0.005673 0.000000 0.042231 0.000000
# 6 0.000000 0.000000 0.000000 -0.386592 0.000000 0.078091
#
#
# Mechanical properties :
#
#
# Convention : Reuss Voigt Hill
#
# Bulk Modulus (GPa) = 40.20198 65.91916 53.06057
# Shear Modulus (GPa) = 63.13994 21.16074 42.15034
#
# Velocity S-wave (km/s) = 5.67071 3.28285 4.63325
# Velocity P-wave (km/s) = 7.95931 6.92401 7.45964
#
# Compressibility (1/GPa) = 0.02487439
#
# Stress axis : x y z
#
# Youngs Moduli (GPa) = 120.58643 39.87434 106.30467
#
# Poissons Ratio (x) = 0.08250 0.41059
# Poissons Ratio (y) = 0.24948 0.32113
# Poissons Ratio (z) = 0.46575 0.12045
#
# Static dielectric constant tensor:
#      x y z
#    x 3.745700 0.000000 0.023010 
#    y 0.000000 2.912220 0.000000 
#    z 0.023010 0.000000 3.806290 
# 
# 
# High freq. dielectric constant tensor:
#      x y z
#    x 1.779450 0.000000 0.002230 
#    y 0.000000 1.696270 0.000000 
#    z 0.002230 0.000000 1.777390 
# 
# From -- ./inp_files/84912.got.cif
#   From: 2010.06.25/outbox.cif.g09.slc.cpg/sg10_43_cif.got.tgz:84912.got - 2010.06.27 22:07:45.
