data_PCOD8060980
_publ_section_title
;
Structure prediction by ZEFSAII (Michael W. Deem and Ramdas Pophale) SiO2 
 PCOD8060980
Probable space group: P 2/M
;
_chemical_formula_sum "Si O2"
_cell_formula_units_Z 32
_cell_length_a 20.501439
_cell_length_b 9.152660
_cell_length_c 14.079851
_cell_angle_alpha 90.000000
_cell_angle_beta 136.978657
_cell_angle_gamma 90.000000
_cell_volume 1802.546530
_symmetry_space_group_name_H-M "P 2/M"
_symmetry_group_IT_number 10
_symmetry_cell_setting 'monoclinic'
loop_
_space_group_symop_operation_xyz
x,y,z
-x,y,-z
-x,-y,-z
x,-y,z
loop_
_atom_site_type_symbol
_atom_site_label
_atom_site_fract_x
_atom_site_fract_y
_atom_site_fract_z
Si Si1 0.469733 0.332835 0.072170
Si Si2 0.791887 0.833461 0.348070
Si Si3 0.671875 0.667272 0.368292
Si Si4 0.892970 0.670741 0.908752
Si Si5 0.716814 0.168849 0.065385
Si Si6 0.959274 0.166184 0.657354
Si Si7 0.141323 0.670808 0.909836
Si Si8 0.799751 0.169785 0.643283
O O1 0.433385 0.500000 0.026903
O O2 0.557944 0.318990 0.238698
O O3 0.500000 0.277360 0.000000
O O4 0.387416 0.231047 0.025049
O O5 0.717628 0.726660 0.319802
O O6 0.786209 0.808516 0.229733
O O7 0.900093 0.802364 0.497849
O O8 0.764280 0.000000 0.346861
O O9 0.704000 0.500000 0.414867
O O10 0.706501 0.757973 0.496473
O O11 0.882450 0.500000 0.875524
O O12 0.818064 0.757558 0.764406
O O13 0.868424 0.709917 0.990328
O O14 0.000000 0.724602 0.000000
O O15 0.763165 0.252407 0.026228
O O16 0.706101 0.000000 0.027394
O O17 0.890845 0.198663 0.673603
O O18 0.048920 0.272992 0.754806
O O19 0.997101 0.000000 0.700489
O O20 0.150234 0.500000 0.901475
O O21 0.778852 0.000000 0.635404
#
# Coordination Sequence:
#
# PCOD8060980 Si02
#       8
#     4   4   4   4   4   4   4   4
#     4  10  20  36  57  83 111 142 183 227 271 319
#     4   9  19  34  51  76 109 146 184 222 265 316
#     4  10  19  32  55  82 111 143 176 223 272 319
#     4  10  20  36  57  81 108 141 185 229 273 325
#     4  11  23  37  55  78 110 149 186 226 272 327
#     4   9  18  33  51  74 107 144 182 219 263 319
#     4  11  23  37  54  77 109 145 183 230 274 323
#     4  10  20  33  54  83 113 142 177 224 272 325
#
# _framework density 17.752663999999999
#
# number of rings (size 3 to 8) (size 9 to 14) (size 15 to 20)
#    0.000    2.000    2.500    2.250    0.000    5.500 
#    0.000    2.500    0.000    0.750    0.000    5.250 
#    0.000    0.000    0.000    0.000    0.000    0.000 
#
# Total GULP energy -396920.490159 kJ/mol
# GULP energy per Si atom -12403.765317 kJ/mol
# Density = 1.771226 g / cm^3
# Si number density = 17.752664 Si / 1000 Ang^3
#
#
#
# Elastic Constant Matrix: (Units=GPa)
#
#
# Indices 1 2 3 4 5 6 
#
# 1 101.1444 62.1566 47.7879 0.0000 2.9096 0.0000
# 2 62.1566 104.0317 54.4350 0.0000 1.2913 0.0000
# 3 47.7879 54.4350 92.8736 0.0000 -1.6511 0.0000
# 4 0.0000 0.0000 0.0000 32.4002 0.0000 2.4369
# 5 2.9096 1.2913 -1.6511 0.0000 20.0799 0.0000
# 6 0.0000 0.0000 0.0000 2.4369 0.0000 27.7034
#
#
#
# Elastic Compliance Matrix: (Units=1/GPa)
#
#
# Indices 1 2 3 4 5 6 
#
# 1 0.016659 -0.007817 -0.004030 0.000000 -0.002243 0.000000
# 2 -0.007817 0.017581 -0.006292 0.000000 -0.000515 0.000000
# 3 -0.004030 -0.006292 0.016571 0.000000 0.002351 0.000000
# 4 0.000000 0.000000 0.000000 0.031070 0.000000 -0.002733
# 5 -0.002243 -0.000515 0.002351 0.000000 0.050352 0.000000
# 6 0.000000 0.000000 0.000000 -0.002733 0.000000 0.036337
#
#
# Mechanical properties :
#
#
# Convention : Reuss Voigt Hill
#
# Bulk Modulus (GPa) = 68.80666 69.64542 69.22604
# Shear Modulus (GPa) = 23.84442 24.94808 24.39625
#
# Velocity S-wave (km/s) = 3.66887 3.75282 3.71108
# Velocity P-wave (km/s) = 7.53592 7.62196 7.57907
#
# Compressibility (1/GPa) = 0.01453348
#
# Stress axis : x y z
#
# Youngs Moduli (GPa) = 60.02667 56.87805 60.34759
#
# Poissons Ratio (x) = 0.44461 0.24322
# Poissons Ratio (y) = 0.46922 0.37970
# Poissons Ratio (z) = 0.24192 0.35787
#
# Static dielectric constant tensor:
#      x y z
#    x 3.030420 0.000000 -0.071220 
#    y 0.000000 3.348940 0.000000 
#    z -0.071220 0.000000 3.315780 
# 
# 
# High freq. dielectric constant tensor:
#      x y z
#    x 1.658930 0.000000 -0.003500 
#    y 0.000000 1.696060 0.000000 
#    z -0.003500 0.000000 1.688410 
# 
# From -- ./inp_files/70042.got.cif
#   From: 2010.06.25/outbox.cif.g09.slc.cpg/sg10_36_cif.got.tgz:70042.got - 2010.06.27 22:07:45.
