data_PCOD8060108
_publ_section_title
;
Structure prediction by ZEFSAII (Michael W. Deem and Ramdas Pophale) SiO2 
 PCOD8060108
Probable space group: P 2/M
;
_chemical_formula_sum "Si O2"
_cell_formula_units_Z 32
_cell_length_a 14.439040
_cell_length_b 8.868676
_cell_length_c 23.699991
_cell_angle_alpha 90.000000
_cell_angle_beta 29.159648
_cell_angle_gamma 90.000000
_cell_volume 1478.742203
_symmetry_space_group_name_H-M "P 2/M"
_symmetry_group_IT_number 10
_symmetry_cell_setting 'monoclinic'
loop_
_space_group_symop_operation_xyz
x,y,z
-x,y,-z
-x,-y,-z
x,-y,z
loop_
_atom_site_type_symbol
_atom_site_label
_atom_site_fract_x
_atom_site_fract_y
_atom_site_fract_z
Si Si1 0.439274 0.167397 0.327706
Si Si2 0.962643 0.679850 0.292963
Si Si3 0.563135 0.677418 0.558838
Si Si4 0.008518 0.835064 0.558597
Si Si5 0.803006 0.174413 0.273917
Si Si6 0.947827 0.826303 0.964192
Si Si7 0.441093 0.679516 0.850838
Si Si8 0.743265 0.326850 0.776662
O O1 0.514105 0.271095 0.338431
O O2 0.224218 0.146670 0.460815
O O3 0.462309 0.244499 0.254911
O O4 0.537633 0.000000 0.274898
O O5 0.966795 0.500000 0.286195
O O6 0.774756 0.732364 0.428389
O O7 0.957520 0.753016 0.234005
O O8 0.162289 0.739822 0.215750
O O9 0.551434 0.500000 0.560923
O O10 0.399864 0.746923 0.605438
O O11 0.000000 0.780006 0.500000
O O12 0.912110 0.698954 0.642745
O O13 0.906813 0.000000 0.621248
O O14 0.874258 0.199213 0.171716
O O15 0.781994 0.000000 0.299379
O O16 0.882268 0.000000 0.999841
O O17 0.777456 0.725831 0.030183
O O18 0.000000 0.773207 0.000000
O O19 0.462528 0.500000 0.834306
O O20 0.549826 0.738846 0.850607
O O21 0.706176 0.500000 0.807447
#
# Coordination Sequence:
#
# PCOD8060108 Si02
#       8
#     4   4   4   4   4   4   4   4
#     4  11  21  33  53  84 124 162 197 241 294 350
#     4  10  22  40  60  85 122 164 199 238 292 353
#     4  11  22  37  60  89 121 161 203 243 294 354
#     4  10  19  31  49  78 116 160 201 237 287 346
#     4  11  24  41  63  90 117 151 198 251 304 357
#     4  10  23  45  68  88 115 152 192 243 306 360
#     4  11  23  37  60  91 120 156 203 251 298 352
#     4  10  21  37  56  83 121 161 200 242 291 347
#
# _framework density 21.640013
#
# number of rings (size 3 to 8) (size 9 to 14) (size 15 to 20)
#    0.000    1.500    2.500    2.625    0.000    6.500 
#    0.000    0.625    0.000    3.750    0.000    0.000 
#    0.000    0.000    0.000    0.000    0.000    0.000 
#
# Total GULP energy -396429.530292 kJ/mol
# GULP energy per Si atom -12388.422822 kJ/mol
# Density = 2.159076 g / cm^3
# Si number density = 21.640013 Si / 1000 Ang^3
#
#
#
# Elastic Constant Matrix: (Units=GPa)
#
#
# Indices 1 2 3 4 5 6 
#
# 1 134.8434 33.0648 26.3729 0.0000 -7.0994 0.0000
# 2 33.0648 52.5662 22.1313 0.0000 -2.7877 0.0000
# 3 26.3729 22.1313 55.9796 0.0000 -8.8812 0.0000
# 4 0.0000 0.0000 0.0000 24.6970 0.0000 4.8618
# 5 -7.0994 -2.7877 -8.8812 0.0000 35.1306 0.0000
# 6 0.0000 0.0000 0.0000 4.8618 0.0000 32.3648
#
#
#
# Elastic Compliance Matrix: (Units=1/GPa)
#
#
# Indices 1 2 3 4 5 6 
#
# 1 0.009058 -0.004694 -0.002271 0.000000 0.000884 0.000000
# 2 -0.004694 0.025263 -0.007927 0.000000 -0.000948 0.000000
# 3 -0.002271 -0.007927 0.022810 0.000000 0.004678 0.000000
# 4 0.000000 0.000000 0.000000 0.041725 0.000000 -0.006268
# 5 0.000884 -0.000948 0.004678 0.000000 0.029751 0.000000
# 6 0.000000 0.000000 0.000000 -0.006268 0.000000 0.031839
#
#
# Mechanical properties :
#
#
# Convention : Reuss Voigt Hill
#
# Bulk Modulus (GPa) = 36.56759 45.16968 40.86864
# Shear Modulus (GPa) = 25.08201 29.22649 27.15425
#
# Velocity S-wave (km/s) = 3.40819 3.67901 3.54618
# Velocity P-wave (km/s) = 5.69407 6.24222 5.97444
#
# Compressibility (1/GPa) = 0.02734662
#
# Stress axis : x y z
#
# Youngs Moduli (GPa) = 110.40144 39.58285 43.84120
#
# Poissons Ratio (x) = 0.18582 0.09957
# Poissons Ratio (y) = 0.51827 0.34751
# Poissons Ratio (z) = 0.25074 0.31376
#
# Static dielectric constant tensor:
#      x y z
#    x 4.204880 0.000000 0.102410 
#    y 0.000000 3.834830 0.000000 
#    z 0.102410 0.000000 3.023330 
# 
# 
# High freq. dielectric constant tensor:
#      x y z
#    x 1.872560 0.000000 -0.010930 
#    y 0.000000 1.836790 0.000000 
#    z -0.010930 0.000000 1.820670 
# 
# From -- ./inp_files/89526.got.cif
#   From: 2010.06.25/outbox.cif.g09.slc.cpg/sg10_45_cif.got.tgz:89526.got - 2010.06.27 22:07:45.
