data_PCOD8060525
_publ_section_title
;
Structure prediction by ZEFSAII (Michael W. Deem and Ramdas Pophale) SiO2 
 PCOD8060525
Probable space group: P 2/M
;
_chemical_formula_sum "Si O2"
_cell_formula_units_Z 32
_cell_length_a 27.961689
_cell_length_b 9.248234
_cell_length_c 22.103584
_cell_angle_alpha 90.000000
_cell_angle_beta 18.664598
_cell_angle_gamma 90.000000
_cell_volume 1829.247343
_symmetry_space_group_name_H-M "P 2/M"
_symmetry_group_IT_number 10
_symmetry_cell_setting 'monoclinic'
loop_
_space_group_symop_operation_xyz
x,y,z
-x,y,-z
-x,-y,-z
x,-y,z
loop_
_atom_site_type_symbol
_atom_site_label
_atom_site_fract_x
_atom_site_fract_y
_atom_site_fract_z
Si Si1 0.187309 0.831758 0.725549
Si Si2 0.740053 0.668773 0.703825
Si Si3 0.348692 0.831080 0.977590
Si Si4 0.129853 0.171464 0.928166
Si Si5 0.019554 0.829764 0.407515
Si Si6 0.379317 0.329086 0.695202
Si Si7 0.517744 0.668715 0.075500
Si Si8 0.483627 0.168662 0.688267
O O1 0.188951 0.771857 0.792152
O O2 0.342323 0.793992 0.506667
O O3 0.161466 0.000000 0.764856
O O4 0.044476 0.778290 0.857790
O O5 0.775879 0.500000 0.664798
O O6 0.644471 0.704341 0.758310
O O7 0.894578 0.755448 0.515612
O O8 0.646079 0.718728 0.875039
O O9 0.464681 0.753409 0.883111
O O10 0.389809 0.791260 0.859878
O O11 0.363985 0.000000 0.971945
O O12 0.180409 0.777149 0.191180
O O13 0.220510 0.257206 0.870343
O O14 0.152736 0.000000 0.910844
O O15 0.000000 0.778786 0.500000
O O16 0.999661 0.000000 0.424711
O O17 0.500000 0.283872 0.500000
O O18 0.360856 0.500000 0.721868
O O19 0.427814 0.268291 0.701475
O O20 0.532883 0.500000 0.070523
O O21 0.466033 0.000000 0.691673
#
# Coordination Sequence:
#
# PCOD8060525 Si02
#       8
#     4   4   4   4   4   4   4   4
#     4   8  15  29  52  79  99 123 166 214 251 294
#     4   9  18  32  52  78 102 131 174 214 251 303
#     4  10  21  35  52  77 105 136 174 211 258 314
#     4   9  16  30  54  79 100 126 167 212 254 298
#     4  10  19  32  50  76 108 136 167 216 265 302
#     4  11  22  34  50  78 110 137 170 212 256 305
#     4   9  18  33  52  75 103 132 169 215 256 302
#     4  10  20  36  56  75 101 138 176 212 253 309
#
# _framework density 17.493534
#
# number of rings (size 3 to 8) (size 9 to 14) (size 15 to 20)
#    0.000    2.500    2.500    1.875    0.000    2.250 
#    0.000    4.375    0.000    6.000    0.000    0.000 
#    0.000    0.000    0.000    0.000    0.000    0.000 
#
# Total GULP energy -396758.641174 kJ/mol
# GULP energy per Si atom -12398.707537 kJ/mol
# Density = 1.745372 g / cm^3
# Si number density = 17.493534 Si / 1000 Ang^3
#
#
#
# Elastic Constant Matrix: (Units=GPa)
#
#
# Indices 1 2 3 4 5 6 
#
# 1 114.2179 53.5576 64.4221 0.0000 -12.4900 0.0000
# 2 53.5576 51.7408 38.3235 0.0000 -7.2702 0.0000
# 3 64.4221 38.3235 121.1269 0.0000 -8.8239 0.0000
# 4 0.0000 0.0000 0.0000 15.4368 0.0000 -1.3611
# 5 -12.4900 -7.2702 -8.8239 0.0000 29.9507 0.0000
# 6 0.0000 0.0000 0.0000 -1.3611 0.0000 26.4981
#
#
#
# Elastic Compliance Matrix: (Units=1/GPa)
#
#
# Indices 1 2 3 4 5 6 
#
# 1 0.019378 -0.015920 -0.005071 0.000000 0.002723 0.000000
# 2 -0.015920 0.038765 -0.003675 0.000000 0.001688 0.000000
# 3 -0.005071 -0.003675 0.012157 0.000000 0.000575 0.000000
# 4 0.000000 0.000000 0.000000 0.065075 0.000000 0.003343
# 5 0.002723 0.001688 0.000575 0.000000 0.035103 0.000000
# 6 0.000000 0.000000 0.000000 0.003343 0.000000 0.037910
#
#
# Mechanical properties :
#
#
# Convention : Reuss Voigt Hill
#
# Bulk Modulus (GPa) = 47.68946 66.63243 57.16095
# Shear Modulus (GPa) = 18.88856 23.09594 20.99225
#
# Velocity S-wave (km/s) = 3.28951 3.63747 3.46786
# Velocity P-wave (km/s) = 6.46129 7.47088 6.98435
#
# Compressibility (1/GPa) = 0.02096899
#
# Stress axis : x y z
#
# Youngs Moduli (GPa) = 51.60454 25.79637 82.25382
#
# Poissons Ratio (x) = 0.41068 0.41712
# Poissons Ratio (y) = 0.82154 0.30227
# Poissons Ratio (z) = 0.26169 0.09480
#
# Static dielectric constant tensor:
#      x y z
#    x 3.135430 0.000000 -0.189270 
#    y 0.000000 3.004760 0.000000 
#    z -0.189270 0.000000 3.414780 
# 
# 
# High freq. dielectric constant tensor:
#      x y z
#    x 1.668330 0.000000 -0.020280 
#    y 0.000000 1.658010 0.000000 
#    z -0.020280 0.000000 1.671660 
# 
# From -- ./inp_files/86871.got.cif
#   From: 2010.06.25/outbox.cif.g09.slc.cpg/sg10_44_cif.got.tgz:86871.got - 2010.06.27 22:07:45.
