data_PCOD8060522
_publ_section_title
;
Structure prediction by ZEFSAII (Michael W. Deem and Ramdas Pophale) SiO2 
 PCOD8060522
Probable space group: P 2/M
;
_chemical_formula_sum "Si O2"
_cell_formula_units_Z 32
_cell_length_a 12.423487
_cell_length_b 8.593442
_cell_length_c 23.454042
_cell_angle_alpha 90.000000
_cell_angle_beta 133.510444
_cell_angle_gamma 90.000000
_cell_volume 1815.998259
_symmetry_space_group_name_H-M "P 2/M"
_symmetry_group_IT_number 10
_symmetry_cell_setting 'monoclinic'
loop_
_space_group_symop_operation_xyz
x,y,z
-x,y,-z
-x,-y,-z
x,-y,z
loop_
_atom_site_type_symbol
_atom_site_label
_atom_site_fract_x
_atom_site_fract_y
_atom_site_fract_z
Si Si1 0.328107 0.181413 0.583996
Si Si2 0.556238 0.318598 0.582474
Si Si3 0.959110 0.818188 0.592357
Si Si4 0.621857 0.179577 0.166745
Si Si5 0.847011 0.682938 0.160936
Si Si6 0.271331 0.680516 0.682097
Si Si7 0.128924 0.180952 0.312155
Si Si8 0.387817 0.327838 0.011332
O O1 0.470939 0.218687 0.598298
O O2 0.181158 0.231252 0.496317
O O3 0.338716 0.279623 0.645391
O O4 0.324987 0.000000 0.597823
O O5 0.500000 0.264407 0.500000
O O6 0.525213 0.500000 0.581147
O O7 0.729519 0.283355 0.652103
O O8 0.927227 0.772177 0.645720
O O9 0.098052 0.722467 0.620109
O O10 0.995683 0.000000 0.599852
O O11 0.741908 0.279267 0.176097
O O12 0.635189 0.221912 0.237749
O O13 0.453659 0.214823 0.083946
O O14 0.658891 0.000000 0.170593
O O15 0.879863 0.500000 0.174278
O O16 0.999604 0.778217 0.220197
O O17 0.768368 0.731586 0.072278
O O18 0.292941 0.500000 0.702925
O O19 0.170754 0.000000 0.324039
O O20 0.368693 0.500000 0.030945
O O21 0.500000 0.335737 0.000000
#
# Coordination Sequence:
#
# PCOD8060522 Si02
#       8
#     4   4   4   4   4   4   4   4
#     4  11  23  40  58  75 103 139 181 225 269 317
#     4  11  23  38  57  79 105 136 178 225 269 316
#     4  10  21  36  54  77 106 140 177 219 266 317
#     4  11  20  31  49  74 105 141 178 213 259 315
#     4  10  19  32  50  75 107 140 174 216 264 313
#     4  12  24  36  53  77 108 142 180 221 266 317
#     4  11  21  34  55  80 107 141 179 219 267 316
#     4   8  16  30  47  70 103 139 172 209 259 313
#
# _framework density 17.621162999999999
#
# number of rings (size 3 to 8) (size 9 to 14) (size 15 to 20)
#    0.000    1.500    2.500    4.875    0.000    6.250 
#    0.000    0.000    0.000    0.000    0.000    0.875 
#    0.000    7.000    0.000    0.000    0.000    0.000 
#
# Total GULP energy -396902.406362 kJ/mol
# GULP energy per Si atom -12403.200199 kJ/mol
# Density = 1.758106 g / cm^3
# Si number density = 17.621163 Si / 1000 Ang^3
#
#
#
# Elastic Constant Matrix: (Units=GPa)
#
#
# Indices 1 2 3 4 5 6 
#
# 1 67.5729 11.8301 32.2544 0.0000 1.5606 0.0000
# 2 11.8301 52.1896 18.1216 0.0000 1.4216 0.0000
# 3 32.2544 18.1216 112.1724 0.0000 15.0555 0.0000
# 4 0.0000 0.0000 0.0000 30.3090 0.0000 1.6048
# 5 1.5606 1.4216 15.0555 0.0000 15.1128 0.0000
# 6 0.0000 0.0000 0.0000 1.6048 0.0000 25.1736
#
#
#
# Elastic Compliance Matrix: (Units=1/GPa)
#
#
# Indices 1 2 3 4 5 6 
#
# 1 0.017581 -0.002290 -0.005161 0.000000 0.003541 0.000000
# 2 -0.002290 0.020630 -0.002823 0.000000 0.001108 0.000000
# 3 -0.005161 -0.002823 0.012407 0.000000 -0.011561 0.000000
# 4 0.000000 0.000000 0.000000 0.033105 0.000000 -0.002110
# 5 0.003541 0.001108 -0.011561 0.000000 0.077216 0.000000
# 6 0.000000 0.000000 0.000000 -0.002110 0.000000 0.039859
#
#
# Mechanical properties :
#
#
# Convention : Reuss Voigt Hill
#
# Bulk Modulus (GPa) = 33.25511 39.59412 36.42462
# Shear Modulus (GPa) = 21.61050 25.43432 23.52241
#
# Velocity S-wave (km/s) = 3.50579 3.80333 3.65759
# Velocity P-wave (km/s) = 5.94144 6.46572 6.20911
#
# Compressibility (1/GPa) = 0.03007057
#
# Stress axis : x y z
#
# Youngs Moduli (GPa) = 56.87859 48.47302 80.60240
#
# Poissons Ratio (x) = 0.11099 0.41597
# Poissons Ratio (y) = 0.13024 0.22755
# Poissons Ratio (z) = 0.29354 0.13685
#
# Static dielectric constant tensor:
#      x y z
#    x 2.932470 0.000000 0.104050 
#    y 0.000000 3.265980 0.000000 
#    z 0.104050 0.000000 3.619030 
# 
# 
# High freq. dielectric constant tensor:
#      x y z
#    x 1.639460 0.000000 0.008800 
#    y 0.000000 1.689740 0.000000 
#    z 0.008800 0.000000 1.690180 
# 
# From -- ./inp_files/83642.got.cif
#   From: 2010.06.25/outbox.cif.g09.slc.cpg/sg10_42_cif.got.tgz:83642.got - 2010.06.27 22:07:45.
