data_PCOD8060927
_publ_section_title
;
Structure prediction by ZEFSAII (Michael W. Deem and Ramdas Pophale) SiO2 
 PCOD8060927
Probable space group: P 2/M
;
_chemical_formula_sum "Si O2"
_cell_formula_units_Z 32
_cell_length_a 14.247134
_cell_length_b 9.322282
_cell_length_c 12.400738
_cell_angle_alpha 90.000000
_cell_angle_beta 90.023796
_cell_angle_gamma 90.000000
_cell_volume 1647.013806
_symmetry_space_group_name_H-M "P 2/M"
_symmetry_group_IT_number 10
_symmetry_cell_setting 'monoclinic'
loop_
_space_group_symop_operation_xyz
x,y,z
-x,y,-z
-x,-y,-z
x,-y,z
loop_
_atom_site_type_symbol
_atom_site_label
_atom_site_fract_x
_atom_site_fract_y
_atom_site_fract_z
Si Si1 0.029217 0.837080 0.616705
Si Si2 0.213925 0.667922 0.902016
Si Si3 0.464295 0.335506 0.383343
Si Si4 0.234456 0.841853 0.551269
Si Si5 0.996239 0.332361 0.177380
Si Si6 0.281695 0.165162 0.318606
Si Si7 0.170288 0.828903 0.106572
Si Si8 0.657745 0.662357 0.290290
O O1 0.141116 0.831913 0.621731
O O2 0.000000 0.781288 0.500000
O O3 0.986508 0.729093 0.703151
O O4 0.991970 0.000000 0.637769
O O5 0.227630 0.500000 0.930170
O O6 0.292674 0.724608 0.817141
O O7 0.110228 0.697485 0.856275
O O8 0.230002 0.765755 0.007160
O O9 0.500000 0.276852 0.500000
O O10 0.432941 0.500000 0.398045
O O11 0.378424 0.248076 0.334946
O O12 0.545349 0.322194 0.291499
O O13 0.216463 0.809989 0.424352
O O14 0.309136 0.733362 0.598830
O O15 0.278426 0.000000 0.562152
O O16 0.021064 0.500000 0.173190
O O17 0.068017 0.246936 0.100385
O O18 0.223890 0.219685 0.215231
O O19 0.308045 0.000000 0.301600
O O20 0.158699 0.000000 0.097330
O O21 0.691852 0.500000 0.298625
#
# Coordination Sequence:
#
# PCOD8060927 Si02
#       8
#     4   4   4   4   4   4   4   4
#     4  10  20  34  52  78 117 157 193 236 284 340
#     4  10  22  40  60  83 116 153 194 242 289 339
#     4  10  20  35  60  90 117 149 190 233 284 347
#     4  10  19  32  54  81 111 149 188 227 282 341
#     4  11  22  37  59  86 115 151 196 243 290 342
#     4  10  22  39  58  84 118 153 189 237 291 341
#     4  11  24  41  60  83 115 154 198 243 290 343
#     4  10  20  37  58  84 117 147 181 234 288 335
#
# _framework density 19.429102
#
# number of rings (size 3 to 8) (size 9 to 14) (size 15 to 20)
#    0.000    1.750    2.500    1.875    0.000    7.000 
#    0.000    1.875    0.000    3.750    0.000    0.000 
#    0.000    0.000    0.000    0.000    0.000    0.000 
#
# Total GULP energy -396769.103188 kJ/mol
# GULP energy per Si atom -12399.034475 kJ/mol
# Density = 1.938488 g / cm^3
# Si number density = 19.429102 Si / 1000 Ang^3
#
#
#
# Elastic Constant Matrix: (Units=GPa)
#
#
# Indices 1 2 3 4 5 6 
#
# 1 67.7493 29.0618 26.6453 0.0000 -13.2879 0.0000
# 2 29.0618 67.2582 42.5375 0.0000 -3.3780 0.0000
# 3 26.6453 42.5375 107.0905 0.0000 -15.7037 0.0000
# 4 0.0000 0.0000 0.0000 34.9752 0.0000 -2.7342
# 5 -13.2879 -3.3780 -15.7037 0.0000 27.6067 0.0000
# 6 0.0000 0.0000 0.0000 -2.7342 0.0000 22.4351
#
#
#
# Elastic Compliance Matrix: (Units=1/GPa)
#
#
# Indices 1 2 3 4 5 6 
#
# 1 0.019995 -0.007807 -0.000657 0.000000 0.008295 0.000000
# 2 -0.007807 0.023033 -0.008013 0.000000 -0.005497 0.000000
# 3 -0.000657 -0.008013 0.013631 0.000000 0.006457 0.000000
# 4 0.000000 0.000000 0.000000 0.028867 0.000000 0.003518
# 5 0.008295 -0.005497 0.006457 0.000000 0.043216 0.000000
# 6 0.000000 0.000000 0.000000 0.003518 0.000000 0.045002
#
#
# Mechanical properties :
#
#
# Convention : Reuss Voigt Hill
#
# Bulk Modulus (GPa) = 42.18646 48.73191 45.45919
# Shear Modulus (GPa) = 23.29928 26.59362 24.94645
#
# Velocity S-wave (km/s) = 3.46670 3.70368 3.58714
# Velocity P-wave (km/s) = 6.14688 6.58984 6.37221
#
# Compressibility (1/GPa) = 0.02370429
#
# Stress axis : x y z
#
# Youngs Moduli (GPa) = 50.01321 43.41606 73.36216
#
# Poissons Ratio (x) = 0.33896 0.04823
# Poissons Ratio (y) = 0.39046 0.58782
# Poissons Ratio (z) = 0.03288 0.34787
#
# Static dielectric constant tensor:
#      x y z
#    x 3.498180 0.000000 -0.229130 
#    y 0.000000 3.478400 0.000000 
#    z -0.229130 0.000000 3.646550 
# 
# 
# High freq. dielectric constant tensor:
#      x y z
#    x 1.748560 0.000000 -0.015270 
#    y 0.000000 1.750420 0.000000 
#    z -0.015270 0.000000 1.756990 
# 
# From -- ./inp_files/49824.got.cif
#   From: 2010.06.25/outbox.cif.g09.slc.cpg/sg10_25_cif.got.tgz:49824.got - 2010.06.27 22:07:45.
