data_PCOD8060781
_publ_section_title
;
Structure prediction by ZEFSAII (Michael W. Deem and Ramdas Pophale) SiO2 
 PCOD8060781
Probable space group: P 2/M
;
_chemical_formula_sum "Si O2"
_cell_formula_units_Z 32
_cell_length_a 12.661106
_cell_length_b 13.682039
_cell_length_c 9.475840
_cell_angle_alpha 90.000000
_cell_angle_beta 93.580038
_cell_angle_gamma 90.000000
_cell_volume 1638.294048
_symmetry_space_group_name_H-M "P 2/M"
_symmetry_group_IT_number 10
_symmetry_cell_setting 'monoclinic'
loop_
_space_group_symop_operation_xyz
x,y,z
-x,y,-z
-x,-y,-z
x,-y,z
loop_
_atom_site_type_symbol
_atom_site_label
_atom_site_fract_x
_atom_site_fract_y
_atom_site_fract_z
Si Si1 0.220487 0.391911 0.383323
Si Si2 0.011939 0.283201 0.334231
Si Si3 0.263014 0.889709 0.995606
Si Si4 0.802376 0.392473 0.288015
Si Si5 0.068846 0.111057 0.145133
Si Si6 0.455069 0.888405 0.205907
Si Si7 0.617185 0.232336 0.554324
Si Si8 0.333845 0.219108 0.748996
O O1 0.242854 0.500000 0.320205
O O2 0.115121 0.347283 0.304293
O O3 0.199432 0.403971 0.545705
O O4 0.321606 0.321743 0.365241
O O5 0.022687 0.176785 0.265964
O O6 0.000000 0.267636 0.500000
O O7 0.910540 0.336644 0.256801
O O8 0.184224 0.846889 0.107566
O O9 0.383038 0.881630 0.061357
O O10 0.227030 0.000000 0.966973
O O11 0.252974 0.840488 0.841118
O O12 0.799689 0.500000 0.216550
O O13 0.697674 0.332740 0.228788
O O14 0.075269 0.000000 0.203304
O O15 0.000000 0.117760 0.000000
O O16 0.389142 0.859758 0.340677
O O17 0.547677 0.808885 0.194625
O O18 0.497834 0.000000 0.227195
O O19 0.500000 0.269421 0.500000
O O20 0.680483 0.195555 0.419383
#
# Coordination Sequence:
#
# PCOD8060781 Si02
#       8
#     4   4   4   4   4   4   4   4
#     4   9  17  31  52  78 106 135 172 215 257 306
#     4  10  19  33  57  82 103 133 175 217 257 304
#     4  10  20  34  53  75 102 139 176 209 251 304
#     4   9  18  33  53  78 105 133 168 214 265 309
#     4  10  21  36  53  76 109 144 172 206 257 310
#     4  10  20  34  52  76 107 139 171 212 260 306
#     4   9  19  32  49  77 108 136 169 212 264 304
#     4  10  19  32  53  76  99 132 174 213 251 303
#
# _framework density 19.532513999999999
#
# number of rings (size 3 to 8) (size 9 to 14) (size 15 to 20)
#    0.000    2.375    0.000    2.625    0.000    5.750 
#    0.000    2.500    0.000   24.750    0.000    0.000 
#    0.000    0.000    0.000    0.000    0.000    0.000 
#
# Total GULP energy -396569.470290 kJ/mol
# GULP energy per Si atom -12392.795947 kJ/mol
# Density = 1.948806 g / cm^3
# Si number density = 19.532514 Si / 1000 Ang^3
#
#
#
# Elastic Constant Matrix: (Units=GPa)
#
#
# Indices 1 2 3 4 5 6 
#
# 1 97.4201 65.0671 17.2476 0.0000 3.7689 0.0000
# 2 65.0671 136.6768 48.8486 0.0000 -4.8696 0.0000
# 3 17.2476 48.8486 57.9628 0.0000 -10.7099 0.0000
# 4 0.0000 0.0000 0.0000 13.2951 0.0000 1.9456
# 5 3.7689 -4.8696 -10.7099 0.0000 21.8485 0.0000
# 6 0.0000 0.0000 0.0000 1.9456 0.0000 32.4379
#
#
#
# Elastic Compliance Matrix: (Units=1/GPa)
#
#
# Indices 1 2 3 4 5 6 
#
# 1 0.015527 -0.008052 0.001472 0.000000 -0.003751 0.000000
# 2 -0.008052 0.014742 -0.010077 0.000000 -0.000265 0.000000
# 3 0.001472 -0.010077 0.027319 0.000000 0.010892 0.000000
# 4 0.000000 0.000000 0.000000 0.075882 0.000000 -0.004551
# 5 -0.003751 -0.000265 0.010892 0.000000 0.051697 0.000000
# 6 0.000000 0.000000 0.000000 -0.004551 0.000000 0.031101
#
#
# Mechanical properties :
#
#
# Convention : Reuss Voigt Hill
#
# Bulk Modulus (GPa) = 41.19407 61.59848 51.39627
# Shear Modulus (GPa) = 19.40455 24.24273 21.82364
#
# Velocity S-wave (km/s) = 3.15532 3.52681 3.34623
# Velocity P-wave (km/s) = 5.86605 6.94186 6.42650
#
# Compressibility (1/GPa) = 0.02427534
#
# Stress axis : x y z
#
# Youngs Moduli (GPa) = 64.40357 67.83488 36.60456
#
# Poissons Ratio (x) = 0.54619 -0.05389
# Poissons Ratio (y) = 0.51856 0.36885
# Poissons Ratio (z) = -0.09482 0.68355
#
# Static dielectric constant tensor:
#      x y z
#    x 3.742240 0.000000 -0.141680 
#    y 0.000000 3.721420 0.000000 
#    z -0.141680 0.000000 3.389470 
# 
# 
# High freq. dielectric constant tensor:
#      x y z
#    x 1.767700 0.000000 -0.006390 
#    y 0.000000 1.750850 0.000000 
#    z -0.006390 0.000000 1.735240 
# 
# From -- ./inp_files/28611.got.cif
#   From: 2010.06.25/outbox.cif.g09.slc.cpg/sg10_15_cif.got.tgz:28611.got - 2010.06.27 22:07:45.
