data_PCOD8060453
_publ_section_title
;
Structure prediction by ZEFSAII (Michael W. Deem and Ramdas Pophale) SiO2 
 PCOD8060453
Probable space group: P 2/M
;
_chemical_formula_sum "Si O2"
_cell_formula_units_Z 32
_cell_length_a 12.582352
_cell_length_b 8.509599
_cell_length_c 17.011842
_cell_angle_alpha 90.000000
_cell_angle_beta 89.811330
_cell_angle_gamma 90.000000
_cell_volume 1821.461147
_symmetry_space_group_name_H-M "P 2/M"
_symmetry_group_IT_number 10
_symmetry_cell_setting 'monoclinic'
loop_
_space_group_symop_operation_xyz
x,y,z
-x,y,-z
-x,-y,-z
x,-y,z
loop_
_atom_site_type_symbol
_atom_site_label
_atom_site_fract_x
_atom_site_fract_y
_atom_site_fract_z
Si Si1 0.395253 0.680759 0.836737
Si Si2 0.703719 0.317913 0.678837
Si Si3 0.882819 0.315037 0.414609
Si Si4 0.374730 0.815907 0.166303
Si Si5 0.298554 0.183329 0.687528
Si Si6 0.625941 0.173944 0.006058
Si Si7 0.510668 0.683598 0.409119
Si Si8 0.110770 0.183151 0.418277
O O1 0.427984 0.500000 0.830544
O O2 0.500303 0.783619 0.823882
O O3 0.312639 0.724465 0.769163
O O4 0.340819 0.713343 0.922006
O O5 0.728735 0.500000 0.664338
O O6 0.692719 0.283520 0.771302
O O7 0.596467 0.266349 0.634943
O O8 0.800091 0.214642 0.646567
O O9 0.863151 0.500000 0.418841
O O10 0.813182 0.239635 0.346388
O O11 0.846753 0.239848 0.497332
O O12 0.005424 0.279150 0.395754
O O13 0.356480 0.000000 0.180345
O O14 0.333255 0.765108 0.079247
O O15 0.392513 0.218920 0.626320
O O16 0.294534 0.000000 0.705374
O O17 0.671432 0.000000 0.023124
O O18 0.500000 0.166258 0.000000
O O19 0.500000 0.728230 0.500000
O O20 0.535033 0.500000 0.397125
O O21 0.082755 0.000000 0.421588
#
# Coordination Sequence:
#
# PCOD8060453 Si02
#       8
#     4   4   4   4   4   4   4   4
#     4  11  20  31  48  73 104 138 175 214 258 310
#     4  11  21  33  52  77 107 141 177 216 262 310
#     4  11  22  39  59  78 103 134 176 223 270 310
#     4  10  19  32  49  72 104 139 174 215 259 309
#     4  12  23  35  53  76 105 138 176 216 262 313
#     4   8  16  30  47  68  98 136 173 210 257 306
#     4  10  21  35  50  71 103 139 174 211 257 312
#     4  11  22  38  58  80 105 134 177 221 265 312
#
# _framework density 17.568311999999999
#
# number of rings (size 3 to 8) (size 9 to 14) (size 15 to 20)
#    0.000    1.500    1.250    7.500    0.000    4.500 
#    0.000    0.000    0.000    0.000    0.000    0.875 
#    0.000    7.000    0.000    0.000    0.000    0.000 
#
# Total GULP energy -396885.433500 kJ/mol
# GULP energy per Si atom -12402.669797 kJ/mol
# Density = 1.752833 g / cm^3
# Si number density = 17.568312 Si / 1000 Ang^3
#
#
#
# Elastic Constant Matrix: (Units=GPa)
#
#
# Indices 1 2 3 4 5 6 
#
# 1 50.6531 5.8452 36.0972 0.0000 2.1529 0.0000
# 2 5.8452 64.3567 21.8321 0.0000 1.0963 0.0000
# 3 36.0972 21.8321 130.0903 0.0000 3.3954 0.0000
# 4 0.0000 0.0000 0.0000 30.4620 0.0000 -0.9162
# 5 2.1529 1.0963 3.3954 0.0000 19.7306 0.0000
# 6 0.0000 0.0000 0.0000 -0.9162 0.0000 24.7318
#
#
#
# Elastic Compliance Matrix: (Units=1/GPa)
#
#
# Indices 1 2 3 4 5 6 
#
# 1 0.024654 0.000100 -0.006818 0.000000 -0.001522 0.000000
# 2 0.000100 0.016481 -0.002782 0.000000 -0.000448 0.000000
# 3 -0.006818 -0.002782 0.010067 0.000000 -0.000834 0.000000
# 4 0.000000 0.000000 0.000000 0.032864 0.000000 0.001217
# 5 -0.001522 -0.000448 -0.000834 0.000000 0.051017 0.000000
# 6 0.000000 0.000000 0.000000 0.001217 0.000000 0.040479
#
#
# Mechanical properties :
#
#
# Convention : Reuss Voigt Hill
#
# Bulk Modulus (GPa) = 31.05403 41.40546 36.22975
# Shear Modulus (GPa) = 24.35497 27.07324 25.71410
#
# Velocity S-wave (km/s) = 3.72735 3.92985 3.82994
# Velocity P-wave (km/s) = 6.01986 6.64914 6.34231
#
# Compressibility (1/GPa) = 0.03220194
#
# Stress axis : x y z
#
# Youngs Moduli (GPa) = 40.56127 60.67717 99.33039
#
# Poissons Ratio (x) = -0.00605 0.67723
# Poissons Ratio (y) = -0.00404 0.27632
# Poissons Ratio (z) = 0.27654 0.16879
#
# Static dielectric constant tensor:
#      x y z
#    x 2.961330 0.000000 0.011650 
#    y 0.000000 3.307980 0.000000 
#    z 0.011650 0.000000 3.615010 
# 
# 
# High freq. dielectric constant tensor:
#      x y z
#    x 1.637230 0.000000 0.000650 
#    y 0.000000 1.690870 0.000000 
#    z 0.000650 0.000000 1.688800 
# 
# From -- ./inp_files/75991.got.cif
#   From: 2010.06.25/outbox.cif.g09.slc.cpg/sg10_38_cif.got.tgz:75991.got - 2010.06.27 22:07:45.
