data_PCOD8060450
_publ_section_title
;
Structure prediction by ZEFSAII (Michael W. Deem and Ramdas Pophale) SiO2 
 PCOD8060450
Probable space group: P 2/M
;
_chemical_formula_sum "Si O2"
_cell_formula_units_Z 28
_cell_length_a 9.574942
_cell_length_b 9.124134
_cell_length_c 31.289275
_cell_angle_alpha 90.000000
_cell_angle_beta 35.139924
_cell_angle_gamma 90.000000
_cell_volume 1573.350139
_symmetry_space_group_name_H-M "P 2/M"
_symmetry_group_IT_number 10
_symmetry_cell_setting 'monoclinic'
loop_
_space_group_symop_operation_xyz
x,y,z
-x,y,-z
-x,-y,-z
x,-y,z
loop_
_atom_site_type_symbol
_atom_site_label
_atom_site_fract_x
_atom_site_fract_y
_atom_site_fract_z
Si Si1 0.543251 0.326697 0.057835
Si Si2 0.875179 0.673267 0.901326
Si Si3 0.731893 0.170981 0.414642
Si Si4 0.363665 0.328786 0.739416
Si Si5 0.219443 0.167917 0.693894
Si Si6 0.330164 0.171951 0.186927
Si Si7 0.775707 0.672221 0.701172
O O1 0.539070 0.500000 0.068153
O O2 0.313605 0.274646 0.087339
O O3 0.533962 0.239794 0.104818
O O4 0.785378 0.277741 0.971150
O O5 0.876520 0.500000 0.901135
O O6 0.140883 0.736818 0.823564
O O7 0.500000 0.217965 0.500000
O O8 0.676235 0.206071 0.379075
O O9 0.958439 0.264468 0.374709
O O10 0.797161 0.000000 0.403910
O O11 0.322872 0.500000 0.743756
O O12 0.367264 0.260900 0.691374
O O13 0.615908 0.293533 0.699370
O O14 0.934578 0.206189 0.766307
O O15 0.264014 0.000000 0.694169
O O16 0.353694 0.249266 0.226727
O O17 0.373136 0.000000 0.182264
O O18 0.791674 0.500000 0.706771
#
# Coordination Sequence:
#
# PCOD8060450 Si02
#       7
#     4   4   4   4   4   4   4
#     4   9  15  27  49  72  95 129 174 220 260 295
#     4   8  15  27  46  72  99 130 169 214 259 300
#     4   9  19  38  60  80 104 133 165 202 244 295
#     4  10  19  33  51  74 104 135 168 208 255 302
#     4   9  18  31  51  77  99 127 168 205 244 296
#     4  10  19  32  49  72 101 134 174 216 255 301
#     4  10  21  34  52  77 103 134 169 205 250 302
#
# _framework density 17.796420000000001
#
# number of rings (size 3 to 8) (size 9 to 14) (size 15 to 20)
#    0.000    2.714    1.429    2.571    0.000    3.714 
#    0.000    3.571    0.000    8.571    0.000    0.000 
#    0.000    0.000    0.000    0.000    0.000    0.000 
#
# Total GULP energy -347130.101628 kJ/mol
# GULP energy per Si atom -12397.503630 kJ/mol
# Density = 1.775591 g / cm^3
# Si number density = 17.796420 Si / 1000 Ang^3
#
#
#
# Elastic Constant Matrix: (Units=GPa)
#
#
# Indices 1 2 3 4 5 6 
#
# 1 101.6451 51.3283 50.6368 0.0000 7.5516 0.0000
# 2 51.3283 65.2291 36.9303 0.0000 4.9348 0.0000
# 3 50.6368 36.9303 120.8014 0.0000 14.9807 0.0000
# 4 0.0000 0.0000 0.0000 26.2055 0.0000 4.6709
# 5 7.5516 4.9348 14.9807 0.0000 20.1000 0.0000
# 6 0.0000 0.0000 0.0000 4.6709 0.0000 24.8859
#
#
#
# Elastic Compliance Matrix: (Units=1/GPa)
#
#
# Indices 1 2 3 4 5 6 
#
# 1 0.017688 -0.011749 -0.003698 0.000000 -0.001005 0.000000
# 2 -0.011749 0.026346 -0.003167 0.000000 0.000306 0.000000
# 3 -0.003698 -0.003167 0.011600 0.000000 -0.006479 0.000000
# 4 0.000000 0.000000 0.000000 0.039481 0.000000 -0.007410
# 5 -0.001005 0.000306 -0.006479 0.000000 0.054882 0.000000
# 6 0.000000 0.000000 0.000000 -0.007410 0.000000 0.041574
#
#
# Mechanical properties :
#
#
# Convention : Reuss Voigt Hill
#
# Bulk Modulus (GPa) = 54.33267 62.82961 58.58114
# Shear Modulus (GPa) = 21.28261 24.15697 22.71979
#
# Velocity S-wave (km/s) = 3.46192 3.68830 3.57690
# Velocity P-wave (km/s) = 6.82468 7.31569 7.07445
#
# Compressibility (1/GPa) = 0.01840513
#
# Stress axis : x y z
#
# Youngs Moduli (GPa) = 56.53585 37.95681 86.20804
#
# Poissons Ratio (x) = 0.44595 0.31879
# Poissons Ratio (y) = 0.66423 0.27305
# Poissons Ratio (z) = 0.20907 0.12022
#
# Static dielectric constant tensor:
#      x y z
#    x 3.101040 0.000000 0.067850 
#    y 0.000000 3.111460 0.000000 
#    z 0.067850 0.000000 3.426390 
# 
# 
# High freq. dielectric constant tensor:
#      x y z
#    x 1.669460 0.000000 0.013980 
#    y 0.000000 1.674790 0.000000 
#    z 0.013980 0.000000 1.685810 
# 
# From -- ./inp_files/37918.got.cif
#   From: 2010.06.25/outbox.cif.g09.slc.cpg/sg10_19_cif.got.tgz:37918.got - 2010.06.27 22:07:45.
