data_PCOD8060107
_publ_section_title
;
Structure prediction by ZEFSAII (Michael W. Deem and Ramdas Pophale) SiO2 
 PCOD8060107
Probable space group: P 2/M
;
_chemical_formula_sum "Si O2"
_cell_formula_units_Z 32
_cell_length_a 29.296111
_cell_length_b 9.161376
_cell_length_c 12.444100
_cell_angle_alpha 90.000000
_cell_angle_beta 30.254679
_cell_angle_gamma 90.000000
_cell_volume 1682.793058
_symmetry_space_group_name_H-M "P 2/M"
_symmetry_group_IT_number 10
_symmetry_cell_setting 'monoclinic'
loop_
_space_group_symop_operation_xyz
x,y,z
-x,y,-z
-x,-y,-z
x,-y,z
loop_
_atom_site_type_symbol
_atom_site_label
_atom_site_fract_x
_atom_site_fract_y
_atom_site_fract_z
Si Si1 0.221252 0.834524 0.082011
Si Si2 0.708250 0.673972 0.260007
Si Si3 0.940415 0.664221 0.524076
Si Si4 0.660787 0.163669 0.959721
Si Si5 0.206756 0.671225 0.466257
Si Si6 0.010523 0.335579 0.809510
Si Si7 0.474281 0.828953 0.432341
Si Si8 0.184545 0.328656 0.749985
O O1 0.142890 0.774116 0.318978
O O2 0.310200 0.824936 0.974354
O O3 0.201805 0.000000 0.084971
O O4 0.227519 0.732018 0.965439
O O5 0.702325 0.500000 0.267289
O O6 0.609270 0.740560 0.446204
O O7 0.751216 0.730889 0.285402
O O8 0.904815 0.500000 0.618504
O O9 0.000000 0.723397 0.500000
O O10 0.001131 0.668618 0.294761
O O11 0.714605 0.266627 0.769075
O O12 0.676501 0.000000 0.885150
O O13 0.554576 0.202232 0.183101
O O14 0.203642 0.500000 0.447076
O O15 0.231666 0.704859 0.539739
O O16 0.106397 0.739921 0.647227
O O17 0.015568 0.500000 0.844557
O O18 0.918215 0.259961 0.041762
O O19 0.500000 0.774113 0.500000
O O20 0.448866 0.000000 0.488698
O O21 0.171675 0.500000 0.795296
#
# Coordination Sequence:
#
# PCOD8060107 Si02
#       8
#     4   4   4   4   4   4   4   4
#     4  11  21  35  54  77 111 151 185 220 274 339
#     4  11  22  36  57  85 115 144 181 231 283 332
#     4  10  19  31  49  78 114 147 183 232 282 326
#     4  10  21  37  57  80 110 143 177 227 282 327
#     4  10  19  34  59  84 108 144 193 233 264 320
#     4   9  16  29  52  81 109 143 186 225 268 321
#     4  10  20  39  61  81 109 146 183 223 279 339
#     4   9  19  35  54  81 115 147 180 229 282 321
#
# _framework density 19.016005
#
# number of rings (size 3 to 8) (size 9 to 14) (size 15 to 20)
#    0.000    2.000    2.500    1.875    0.000    5.000 
#    0.000    1.875    0.000    6.750    0.000    0.000 
#    0.000    0.000    0.000    0.000    0.000    0.000 
#
# Total GULP energy -396638.940773 kJ/mol
# GULP energy per Si atom -12394.966899 kJ/mol
# Density = 1.897272 g / cm^3
# Si number density = 19.016005 Si / 1000 Ang^3
#
#
#
# Elastic Constant Matrix: (Units=GPa)
#
#
# Indices 1 2 3 4 5 6 
#
# 1 87.0655 28.0089 47.8293 0.0000 9.4762 0.0000
# 2 28.0089 57.1484 38.8046 0.0000 -1.3015 0.0000
# 3 47.8293 38.8046 106.5874 0.0000 3.4556 0.0000
# 4 0.0000 0.0000 0.0000 9.5567 0.0000 0.3663
# 5 9.4762 -1.3015 3.4556 0.0000 28.6359 0.0000
# 6 0.0000 0.0000 0.0000 0.3663 0.0000 16.2608
#
#
#
# Elastic Compliance Matrix: (Units=1/GPa)
#
#
# Indices 1 2 3 4 5 6 
#
# 1 0.016553 -0.004374 -0.005674 0.000000 -0.004992 0.000000
# 2 -0.004374 0.024525 -0.007077 0.000000 0.003416 0.000000
# 3 -0.005674 -0.007077 0.014511 0.000000 -0.000195 0.000000
# 4 0.000000 0.000000 0.000000 0.104729 0.000000 -0.002359
# 5 -0.004992 0.003416 -0.000195 0.000000 0.036752 0.000000
# 6 0.000000 0.000000 0.000000 -0.002359 0.000000 0.061551
#
#
# Mechanical properties :
#
#
# Convention : Reuss Voigt Hill
#
# Bulk Modulus (GPa) = 46.86034 53.34300 50.10167
# Shear Modulus (GPa) = 16.66769 19.96792 18.31781
#
# Velocity S-wave (km/s) = 2.96380 3.24398 3.10705
# Velocity P-wave (km/s) = 6.03392 6.49182 6.26705
#
# Compressibility (1/GPa) = 0.02134001
#
# Stress axis : x y z
#
# Youngs Moduli (GPa) = 60.41302 40.77483 68.91531
#
# Poissons Ratio (x) = 0.17834 0.39099
# Poissons Ratio (y) = 0.26424 0.48769
# Poissons Ratio (z) = 0.34276 0.28855
#
# Static dielectric constant tensor:
#      x y z
#    x 3.517960 0.000000 -0.055320 
#    y 0.000000 3.154430 0.000000 
#    z -0.055320 0.000000 3.510400 
# 
# 
# High freq. dielectric constant tensor:
#      x y z
#    x 1.736580 0.000000 0.000870 
#    y 0.000000 1.701720 0.000000 
#    z 0.000870 0.000000 1.746710 
# 
# From -- ./inp_files/58175.got.cif
#   From: 2010.06.25/outbox.cif.g09.slc.cpg/sg10_30_cif.got.tgz:58175.got - 2010.06.27 22:07:45.
