data_PCOD8060236
_publ_section_title
;
Structure prediction by ZEFSAII (Michael W. Deem and Ramdas Pophale) SiO2 
 PCOD8060236
Probable space group: P 2/M
;
_chemical_formula_sum "Si O2"
_cell_formula_units_Z 24
_cell_length_a 26.947217
_cell_length_b 9.027561
_cell_length_c 12.736000
_cell_angle_alpha 90.000000
_cell_angle_beta 153.658899
_cell_angle_gamma 90.000000
_cell_volume 1374.740411
_symmetry_space_group_name_H-M "P 2/M"
_symmetry_group_IT_number 10
_symmetry_cell_setting 'monoclinic'
loop_
_space_group_symop_operation_xyz
x,y,z
-x,y,-z
-x,-y,-z
x,-y,z
loop_
_atom_site_type_symbol
_atom_site_label
_atom_site_fract_x
_atom_site_fract_y
_atom_site_fract_z
Si Si1 0.248502 0.667544 0.775358
Si Si2 0.280201 0.325490 0.246721
Si Si3 0.531770 0.667385 0.708217
Si Si4 0.876165 0.170418 0.641035
Si Si5 0.867422 0.171102 0.865871
Si Si6 0.280186 0.175444 0.037037
O O1 0.205005 0.500000 0.705796
O O2 0.202722 0.731782 0.580954
O O3 0.385046 0.673636 0.032367
O O4 0.208034 0.762015 0.801147
O O5 0.267162 0.500000 0.206280
O O6 0.409390 0.276246 0.508789
O O7 0.213006 0.276423 0.221268
O O8 0.230632 0.241716 0.050882
O O9 0.525536 0.500000 0.652386
O O10 0.590299 0.767393 0.727869
O O11 0.849755 0.211474 0.710836
O O12 0.848369 0.000000 0.566837
O O13 0.005183 0.203349 0.859454
O O14 0.837617 0.000000 0.830251
O O15 0.273827 0.000000 0.027110
#
# Coordination Sequence:
#
# PCOD8060236 Si02
#       6
#     4   4   4   4   4   4
#     4   9  18  33  53  76 103 136 171 207 250 304
#     4  11  20  33  51  76 109 138 170 208 250 301
#     4   8  18  33  49  74 107 140 167 202 252 300
#     4   9  18  37  58  75  99 132 170 213 259 302
#     4   9  20  36  55  77 102 132 168 213 259 301
#     4  10  19  31  51  78 105 137 172 206 250 302
#
# _framework density 17.457841999999999
#
# number of rings (size 3 to 8) (size 9 to 14) (size 15 to 20)
#    1.000    1.667    0.000    3.500    0.000    4.667 
#    0.000    3.333    0.000   10.000    0.000    0.000 
#    0.000    0.000    0.000    0.000    0.000    0.000 
#
# Total GULP energy -297419.530949 kJ/mol
# GULP energy per Si atom -12392.480456 kJ/mol
# Density = 1.741811 g / cm^3
# Si number density = 17.457842 Si / 1000 Ang^3
#
#
#
# Elastic Constant Matrix: (Units=GPa)
#
#
# Indices 1 2 3 4 5 6 
#
# 1 98.7527 58.5223 46.3194 0.0000 -2.2048 0.0000
# 2 58.5223 114.9523 35.3505 0.0000 -7.4488 0.0000
# 3 46.3194 35.3505 53.1293 0.0000 -15.9741 0.0000
# 4 0.0000 0.0000 0.0000 25.5337 0.0000 1.2019
# 5 -2.2048 -7.4488 -15.9741 0.0000 23.6984 0.0000
# 6 0.0000 0.0000 0.0000 1.2019 0.0000 26.2299
#
#
#
# Elastic Compliance Matrix: (Units=1/GPa)
#
#
# Indices 1 2 3 4 5 6 
#
# 1 0.022823 -0.006461 -0.019529 0.000000 -0.013071 0.000000
# 2 -0.006461 0.012830 -0.002349 0.000000 0.001849 0.000000
# 3 -0.019529 -0.002349 0.045956 0.000000 0.028422 0.000000
# 4 0.000000 0.000000 0.000000 0.039249 0.000000 -0.001798
# 5 -0.013071 0.001849 0.028422 0.000000 0.060720 0.000000
# 6 0.000000 0.000000 0.000000 -0.001798 0.000000 0.038207
#
#
# Mechanical properties :
#
#
# Convention : Reuss Voigt Hill
#
# Bulk Modulus (GPa) = 40.10747 60.80208 50.45478
# Shear Modulus (GPa) = 17.55792 23.53523 20.54658
#
# Velocity S-wave (km/s) = 3.17477 3.67566 3.43436
# Velocity P-wave (km/s) = 6.03843 7.27444 6.68506
#
# Compressibility (1/GPa) = 0.02493301
#
# Stress axis : x y z
#
# Youngs Moduli (GPa) = 43.81534 77.93982 21.76000
#
# Poissons Ratio (x) = 0.50354 0.42495
# Poissons Ratio (y) = 0.28307 0.05111
# Poissons Ratio (z) = 0.85567 0.18305
#
# Static dielectric constant tensor:
#      x y z
#    x 3.031640 0.000000 -0.064050 
#    y 0.000000 3.156550 0.000000 
#    z -0.064050 0.000000 3.149850 
# 
# 
# High freq. dielectric constant tensor:
#      x y z
#    x 1.656240 0.000000 -0.013460 
#    y 0.000000 1.679080 0.000000 
#    z -0.013460 0.000000 1.663030 
# 
# From -- ./inp_files/56696.got.cif
#   From: 2010.06.25/outbox.cif.g09.slc.cpg/sg10_29_cif.got.tgz:56696.got - 2010.06.27 22:07:45.
