data_PCOD8060332
_publ_section_title
;
Structure prediction by ZEFSAII (Michael W. Deem and Ramdas Pophale) SiO2 
 PCOD8060332
Probable space group: P 2/M
;
_chemical_formula_sum "Si O2"
_cell_formula_units_Z 32
_cell_length_a 14.578306
_cell_length_b 8.897953
_cell_length_c 14.470580
_cell_angle_alpha 90.000000
_cell_angle_beta 121.544536
_cell_angle_gamma 90.000000
_cell_volume 1599.712162
_symmetry_space_group_name_H-M "P 2/M"
_symmetry_group_IT_number 10
_symmetry_cell_setting 'monoclinic'
loop_
_space_group_symop_operation_xyz
x,y,z
-x,y,-z
-x,-y,-z
x,-y,z
loop_
_atom_site_type_symbol
_atom_site_label
_atom_site_fract_x
_atom_site_fract_y
_atom_site_fract_z
Si Si1 0.113545 0.176893 0.514959
Si Si2 0.535160 0.666263 0.304342
Si Si3 0.622016 0.177900 0.044064
Si Si4 0.889697 0.822897 0.892505
Si Si5 0.395352 0.175610 0.490582
Si Si6 0.837700 0.822042 0.663510
Si Si7 0.690662 0.676137 0.890659
Si Si8 0.715011 0.330389 0.262148
O O1 0.110762 0.235285 0.406228
O O2 0.204282 0.261535 0.620480
O O3 0.000000 0.217252 0.500000
O O4 0.138309 0.000000 0.532139
O O5 0.546157 0.500000 0.354648
O O6 0.597430 0.789512 0.397469
O O7 0.410578 0.710176 0.228749
O O8 0.593223 0.668862 0.236248
O O9 0.707947 0.232302 0.165958
O O10 0.623793 0.000000 0.041245
O O11 0.500000 0.235389 0.000000
O O12 0.669948 0.239741 0.974868
O O13 0.899132 0.770866 0.789380
O O14 0.795413 0.736902 0.894801
O O15 0.866444 0.000000 0.886678
O O16 0.000000 0.777954 0.000000
O O17 0.500000 0.254171 0.500000
O O18 0.284279 0.241678 0.391987
O O19 0.397941 0.000000 0.474028
O O20 0.835473 0.000000 0.656938
O O21 0.703153 0.500000 0.917264
O O22 0.752545 0.500000 0.258744
#
# Coordination Sequence:
#
# PCOD8060332 Si02
#       8
#     4   4   4   4   4   4   4   4
#     4  10  21  38  61  88 120 160 206 253 301 360
#     4  10  21  35  54  82 118 156 190 238 301 362
#     4  11  23  38  61  91 122 161 207 251 301 369
#     4  10  22  41  64  88 118 160 210 260 304 354
#     4  10  19  31  53  82 112 149 193 240 291 353
#     4   9  18  35  57  84 117 152 193 245 301 348
#     4  11  23  40  61  88 124 161 200 251 312 372
#     4  11  22  38  59  85 121 159 198 247 305 364
#
# _framework density 20.003599999999999
#
# number of rings (size 3 to 8) (size 9 to 14) (size 15 to 20)
#    0.000    1.750    2.500    1.875    0.000    4.750 
#    0.000    3.750    0.000    0.000    0.000    0.000 
#    0.000    0.000    0.000    0.000    0.000    0.000 
#
# Total GULP energy -396671.461849 kJ/mol
# GULP energy per Si atom -12395.983183 kJ/mol
# Density = 1.995807 g / cm^3
# Si number density = 20.003600 Si / 1000 Ang^3
#
#
#
# Elastic Constant Matrix: (Units=GPa)
#
#
# Indices 1 2 3 4 5 6 
#
# 1 115.7962 32.6262 64.9273 0.0000 0.4172 0.0000
# 2 32.6262 51.2072 36.3298 0.0000 2.8257 0.0000
# 3 64.9273 36.3298 154.9748 0.0000 -3.0993 0.0000
# 4 0.0000 0.0000 0.0000 21.2764 0.0000 -0.7561
# 5 0.4172 2.8257 -3.0993 0.0000 32.3409 0.0000
# 6 0.0000 0.0000 0.0000 -0.7561 0.0000 24.1982
#
#
#
# Elastic Compliance Matrix: (Units=1/GPa)
#
#
# Indices 1 2 3 4 5 6 
#
# 1 0.012271 -0.004994 -0.003972 0.000000 -0.000103 0.000000
# 2 -0.004994 0.025674 -0.003977 0.000000 -0.002560 0.000000
# 3 -0.003972 -0.003977 0.009075 0.000000 0.001268 0.000000
# 4 0.000000 0.000000 0.000000 0.047053 0.000000 0.001470
# 5 -0.000103 -0.002560 0.001268 0.000000 0.031267 0.000000
# 6 0.000000 0.000000 0.000000 0.001470 0.000000 0.041371
#
#
# Mechanical properties :
#
#
# Convention : Reuss Voigt Hill
#
# Bulk Modulus (GPa) = 47.32323 65.52721 56.42522
# Shear Modulus (GPa) = 25.04495 28.10276 26.57386
#
# Velocity S-wave (km/s) = 3.54223 3.75225 3.64875
# Velocity P-wave (km/s) = 6.35913 7.18340 6.78380
#
# Compressibility (1/GPa) = 0.02113127
#
# Stress axis : x y z
#
# Youngs Moduli (GPa) = 81.49580 38.95039 110.19882
#
# Poissons Ratio (x) = 0.19453 0.43772
# Poissons Ratio (y) = 0.40702 0.43829
# Poissons Ratio (z) = 0.32371 0.15492
#
# Static dielectric constant tensor:
#      x y z
#    x 3.785920 0.000000 -0.047270 
#    y 0.000000 3.437920 0.000000 
#    z -0.047270 0.000000 3.736330 
# 
# 
# High freq. dielectric constant tensor:
#      x y z
#    x 1.781350 0.000000 -0.004690 
#    y 0.000000 1.761890 0.000000 
#    z -0.004690 0.000000 1.787810 
# 
# From -- ./inp_files/66630.got.cif
#   From: 2010.06.25/outbox.cif.g09.slc.cpg/sg10_34_cif.got.tgz:66630.got - 2010.06.27 22:07:45.
