data_PCOD8060170
_publ_section_title
;
Structure prediction by ZEFSAII (Michael W. Deem and Ramdas Pophale) SiO2 
 PCOD8060170
Probable space group: P 2/M
;
_chemical_formula_sum "Si O2"
_cell_formula_units_Z 32
_cell_length_a 21.280391
_cell_length_b 8.861225
_cell_length_c 20.641536
_cell_angle_alpha 90.000000
_cell_angle_beta 26.122765
_cell_angle_gamma 90.000000
_cell_volume 1713.799701
_symmetry_space_group_name_H-M "P 2/M"
_symmetry_group_IT_number 10
_symmetry_cell_setting 'monoclinic'
loop_
_space_group_symop_operation_xyz
x,y,z
-x,y,-z
-x,-y,-z
x,-y,z
loop_
_atom_site_type_symbol
_atom_site_label
_atom_site_fract_x
_atom_site_fract_y
_atom_site_fract_z
Si Si1 0.394631 0.820813 0.795119
Si Si2 0.353158 0.675567 0.373848
Si Si3 0.198536 0.173386 0.630170
Si Si4 0.113435 0.179118 0.260614
Si Si5 0.165674 0.323187 0.427564
Si Si6 0.459964 0.824437 0.468289
Si Si7 0.336831 0.677813 0.140967
Si Si8 0.108638 0.824371 0.118451
O O1 0.501067 0.768025 0.753104
O O2 0.445806 0.755189 0.677894
O O3 0.396971 0.000000 0.789997
O O4 0.239945 0.753300 0.956679
O O5 0.389982 0.500000 0.339122
O O6 0.246408 0.712392 0.530743
O O7 0.278685 0.727925 0.376952
O O8 0.291357 0.202056 0.609277
O O9 0.031433 0.205852 0.795804
O O10 0.222631 0.000000 0.584452
O O11 0.265744 0.239745 0.145270
O O12 0.093791 0.241003 0.205078
O O13 0.984299 0.238986 0.424651
O O14 0.112131 0.000000 0.264669
O O15 0.132597 0.500000 0.462307
O O16 0.238405 0.278233 0.292922
O O17 0.500000 0.746247 0.500000
O O18 0.496462 0.000000 0.439531
O O19 0.337049 0.500000 0.127731
O O20 0.500000 0.734217 0.000000
O O21 0.139536 0.000000 0.097774
#
# Coordination Sequence:
#
# PCOD8060170 Si02
#       8
#     4   4   4   4   4   4   4   4
#     4   9  18  32  50  71 103 138 165 203 255 299
#     4  10  19  31  50  77 101 125 168 212 246 295
#     4   9  16  31  52  72 102 137 166 202 250 299
#     4  11  22  36  55  78 102 131 172 214 252 302
#     4  10  21  37  55  75 100 132 168 207 254 309
#     4   8  14  26  48  76 102 133 173 207 239 290
#     4  10  23  41  57  73 101 137 170 207 259 313
#     4   9  18  32  50  75 103 133 168 206 254 304
#
# _framework density 18.671959000000001
#
# number of rings (size 3 to 8) (size 9 to 14) (size 15 to 20)
#    0.000    2.500    1.250    1.875    1.750    2.750 
#    0.000    1.875    0.000    9.750    0.000    0.000 
#    0.000    8.000    0.000    0.000    0.000    0.000 
#
# Total GULP energy -396653.496614 kJ/mol
# GULP energy per Si atom -12395.421769 kJ/mol
# Density = 1.862946 g / cm^3
# Si number density = 18.671959 Si / 1000 Ang^3
#
#
#
# Elastic Constant Matrix: (Units=GPa)
#
#
# Indices 1 2 3 4 5 6 
#
# 1 125.8471 21.1046 59.3109 0.0000 -19.2683 0.0000
# 2 21.1046 21.7131 19.4486 0.0000 -4.1452 0.0000
# 3 59.3109 19.4486 147.4497 0.0000 -21.8234 0.0000
# 4 0.0000 0.0000 0.0000 21.3419 0.0000 -4.4610
# 5 -19.2683 -4.1452 -21.8234 0.0000 23.5216 0.0000
# 6 0.0000 0.0000 0.0000 -4.4610 0.0000 17.7100
#
#
#
# Elastic Compliance Matrix: (Units=1/GPa)
#
#
# Indices 1 2 3 4 5 6 
#
# 1 0.011337 -0.007507 -0.002772 0.000000 0.005392 0.000000
# 2 -0.007507 0.057413 -0.004597 0.000000 -0.000297 0.000000
# 3 -0.002772 -0.004597 0.009328 0.000000 0.005574 0.000000
# 4 0.000000 0.000000 0.000000 0.049460 0.000000 0.012459
# 5 0.005392 -0.000297 0.005574 0.000000 0.052050 0.000000
# 6 0.000000 0.000000 0.000000 0.012459 0.000000 0.059604
#
#
# Mechanical properties :
#
#
# Convention : Reuss Voigt Hill
#
# Bulk Modulus (GPa) = 20.69283 54.97090 37.83187
# Shear Modulus (GPa) = 17.54058 25.52442 21.53250
#
# Velocity S-wave (km/s) = 3.06830 3.70130 3.39956
# Velocity P-wave (km/s) = 4.86405 6.91161 5.97618
#
# Compressibility (1/GPa) = 0.04832591
#
# Stress axis : x y z
#
# Youngs Moduli (GPa) = 88.20582 17.41777 107.20029
#
# Poissons Ratio (x) = 0.13076 0.29716
# Poissons Ratio (y) = 0.66216 0.49280
# Poissons Ratio (z) = 0.24451 0.08007
#
# Static dielectric constant tensor:
#      x y z
#    x 3.640660 0.000000 -0.050600 
#    y 0.000000 3.088360 0.000000 
#    z -0.050600 0.000000 3.621290 
# 
# 
# High freq. dielectric constant tensor:
#      x y z
#    x 1.723120 0.000000 -0.015640 
#    y 0.000000 1.690210 0.000000 
#    z -0.015640 0.000000 1.727040 
# 
# From -- ./inp_files/90595.got.cif
#   From: 2010.06.25/outbox.cif.g09.slc.cpg/sg10_46_cif.got.tgz:90595.got - 2010.06.27 22:07:45.
