data_PCOD8060827
_publ_section_title
;
Structure prediction by ZEFSAII (Michael W. Deem and Ramdas Pophale) SiO2 
 PCOD8060827
Probable space group: P 2/M
;
_chemical_formula_sum "Si O2"
_cell_formula_units_Z 32
_cell_length_a 21.432739
_cell_length_b 8.717802
_cell_length_c 20.828466
_cell_angle_alpha 90.000000
_cell_angle_beta 25.718691
_cell_angle_gamma 90.000000
_cell_volume 1688.825071
_symmetry_space_group_name_H-M "P 2/M"
_symmetry_group_IT_number 10
_symmetry_cell_setting 'monoclinic'
loop_
_space_group_symop_operation_xyz
x,y,z
-x,y,-z
-x,-y,-z
x,-y,z
loop_
_atom_site_type_symbol
_atom_site_label
_atom_site_fract_x
_atom_site_fract_y
_atom_site_fract_z
Si Si1 0.386014 0.679241 0.793971
Si Si2 0.373721 0.822481 0.350914
Si Si3 0.193178 0.178332 0.640680
Si Si4 0.112401 0.318516 0.249509
Si Si5 0.195271 0.320727 0.408359
Si Si6 0.459750 0.817066 0.467501
Si Si7 0.337697 0.680672 0.144772
Si Si8 0.114117 0.817316 0.107179
O O1 0.395812 0.500000 0.773069
O O2 0.485446 0.726378 0.761709
O O3 0.425623 0.763432 0.691211
O O4 0.227660 0.728925 0.959295
O O5 0.252036 0.785967 0.515601
O O6 0.312988 0.771622 0.339404
O O7 0.417553 0.000000 0.309181
O O8 0.301446 0.247929 0.594055
O O9 0.032631 0.243593 0.790371
O O10 0.186276 0.000000 0.660123
O O11 0.115992 0.500000 0.233018
O O12 0.252760 0.264258 0.159793
O O13 0.118031 0.228323 0.177890
O O14 0.967803 0.273435 0.422886
O O15 0.218520 0.500000 0.399448
O O16 0.233130 0.274427 0.300554
O O17 0.500000 0.750533 0.500000
O O18 0.461327 0.000000 0.466223
O O19 0.355172 0.500000 0.125638
O O20 0.500000 0.752764 0.000000
O O21 0.132846 0.000000 0.085132
#
# Coordination Sequence:
#
# PCOD8060827 Si02
#       8
#     4   4   4   4   4   4   4   4
#     4  11  23  37  55  83 117 150 187 230 279 329
#     4  10  19  35  56  81 109 143 185 231 282 335
#     4   8  16  32  55  82 111 143 182 222 266 323
#     4  10  20  34  53  78 108 144 188 232 282 338
#     4  10  19  32  53  79 107 142 185 229 283 339
#     4   9  18  37  64  90 116 150 189 227 270 325
#     4   9  19  34  51  73 105 145 188 234 281 337
#     4  11  21  36  56  81 114 149 186 233 287 334
#
# _framework density 18.948084999999999
#
# number of rings (size 3 to 8) (size 9 to 14) (size 15 to 20)
#    0.000    2.250    1.250    3.000    1.750    1.750 
#    0.000    1.875    0.000    6.000    0.000    0.000 
#    0.000    0.000    0.000    0.000    0.000    0.000 
#
# Total GULP energy -396660.749393 kJ/mol
# GULP energy per Si atom -12395.648419 kJ/mol
# Density = 1.890496 g / cm^3
# Si number density = 18.948085 Si / 1000 Ang^3
#
#
#
# Elastic Constant Matrix: (Units=GPa)
#
#
# Indices 1 2 3 4 5 6 
#
# 1 133.1420 16.8101 52.6766 0.0000 -9.5230 0.0000
# 2 16.8101 32.4362 10.9603 0.0000 -0.0930 0.0000
# 3 52.6766 10.9603 120.5391 0.0000 -12.4877 0.0000
# 4 0.0000 0.0000 0.0000 21.0132 0.0000 2.1671
# 5 -9.5230 -0.0930 -12.4877 0.0000 23.9646 0.0000
# 6 0.0000 0.0000 0.0000 2.1671 0.0000 24.1767
#
#
#
# Elastic Compliance Matrix: (Units=1/GPa)
#
#
# Indices 1 2 3 4 5 6 
#
# 1 0.009556 -0.003716 -0.003643 0.000000 0.001885 0.000000
# 2 -0.003716 0.033301 -0.001632 0.000000 -0.002198 0.000000
# 3 -0.003643 -0.001632 0.010450 0.000000 0.003991 0.000000
# 4 0.000000 0.000000 0.000000 0.048033 0.000000 -0.004306
# 5 0.001885 -0.002198 0.003991 0.000000 0.044549 0.000000
# 6 0.000000 0.000000 0.000000 -0.004306 0.000000 0.041748
#
#
# Mechanical properties :
#
#
# Convention : Reuss Voigt Hill
#
# Bulk Modulus (GPa) = 28.30836 49.66792 38.98814
# Shear Modulus (GPa) = 22.99982 27.54223 25.27103
#
# Velocity S-wave (km/s) = 3.48779 3.81670 3.65595
# Velocity P-wave (km/s) = 5.58498 6.75962 6.20018
#
# Compressibility (1/GPa) = 0.03532525
#
# Stress axis : x y z
#
# Youngs Moduli (GPa) = 104.64564 30.02947 95.69443
#
# Poissons Ratio (x) = 0.11159 0.34861
# Poissons Ratio (y) = 0.38887 0.15614
# Poissons Ratio (z) = 0.38122 0.04900
#
# Static dielectric constant tensor:
#      x y z
#    x 3.603070 0.000000 -0.220240 
#    y 0.000000 3.202900 0.000000 
#    z -0.220240 0.000000 3.634300 
# 
# 
# High freq. dielectric constant tensor:
#      x y z
#    x 1.736010 0.000000 -0.012770 
#    y 0.000000 1.709340 0.000000 
#    z -0.012770 0.000000 1.742150 
# 
# From -- ./inp_files/90594.got.cif
#   From: 2010.06.25/outbox.cif.g09.slc.cpg/sg10_46_cif.got.tgz:90594.got - 2010.06.27 22:07:45.
