data_PCOD8060631
_publ_section_title
;
Structure prediction by ZEFSAII (Michael W. Deem and Ramdas Pophale) SiO2 
 PCOD8060631
Probable space group: P 2/M
;
_chemical_formula_sum "Si O2"
_cell_formula_units_Z 22
_cell_length_a 19.853629
_cell_length_b 12.379856
_cell_length_c 5.232787
_cell_angle_alpha 90.000000
_cell_angle_beta 72.108912
_cell_angle_gamma 90.000000
_cell_volume 1223.945964
_symmetry_space_group_name_H-M "P 2/M"
_symmetry_group_IT_number 10
_symmetry_cell_setting 'monoclinic'
loop_
_space_group_symop_operation_xyz
x,y,z
-x,y,-z
-x,-y,-z
x,-y,z
loop_
_atom_site_type_symbol
_atom_site_label
_atom_site_fract_x
_atom_site_fract_y
_atom_site_fract_z
Si Si1 0.145809 0.124712 0.414679
Si Si2 0.000000 0.206936 0.500000
Si Si3 0.932554 0.383854 0.910752
Si Si4 0.336405 0.627860 0.674476
Si Si5 0.191236 0.753173 0.848135
Si Si6 0.578572 0.626976 0.918773
O O1 0.060020 0.134920 0.569756
O O2 0.188289 0.166463 0.611650
O O3 0.163758 0.000000 0.357077
O O4 0.173276 0.184755 0.130151
O O5 0.051107 0.284280 0.285733
O O6 0.915798 0.500000 0.792754
O O7 0.863960 0.344652 0.147514
O O8 0.000000 0.405422 0.000000
O O9 0.318602 0.500000 0.688928
O O10 0.266642 0.698108 0.787575
O O11 0.374701 0.668808 0.372658
O O12 0.386088 0.657712 0.854667
O O13 0.571388 0.500000 0.895480
O O14 0.500000 0.679079 0.000000
#
# Coordination Sequence:
#
# PCOD8060631 Si02
#       6
#     4   2   4   4   4   4
#     4  11  23  38  56  73  98 131 178 232 281 315
#     4  10  20  36  52  76  96 134 176 230 268 322
#     4  10  19  33  50  73 104 140 176 212 254 306
#     4  10  19  32  51  79 113 147 173 205 253 305
#     4  11  22  37  53  78 105 137 177 221 263 317
#     4   9  17  30  50  77 112 149 178 201 236 297
#
# _framework density 17.974648999999999
#
# number of rings (size 3 to 8) (size 9 to 14) (size 15 to 20)
#    0.000    1.818    1.818    3.273    0.000    2.182 
#    0.000    4.545    0.000    0.000    0.000    0.000 
#    0.000   50.909    0.000    0.000    0.000    0.000 
#
# Total GULP energy -272569.005245 kJ/mol
# GULP energy per Si atom -12389.500238 kJ/mol
# Density = 1.793374 g / cm^3
# Si number density = 17.974649 Si / 1000 Ang^3
#
#
#
# Elastic Constant Matrix: (Units=GPa)
#
#
# Indices 1 2 3 4 5 6 
#
# 1 92.6600 46.2260 28.5222 0.0000 -12.6669 0.0000
# 2 46.2260 80.3574 35.5208 0.0000 -11.5159 0.0000
# 3 28.5222 35.5208 99.9598 0.0000 1.9384 0.0000
# 4 0.0000 0.0000 0.0000 31.3381 0.0000 6.4564
# 5 -12.6669 -11.5159 1.9384 0.0000 28.5232 0.0000
# 6 0.0000 0.0000 0.0000 6.4564 0.0000 23.6737
#
#
#
# Elastic Compliance Matrix: (Units=1/GPa)
#
#
# Indices 1 2 3 4 5 6 
#
# 1 0.015729 -0.007657 -0.001845 0.000000 0.004019 0.000000
# 2 -0.007657 0.019726 -0.004920 0.000000 0.004898 0.000000
# 3 -0.001845 -0.004920 0.012349 0.000000 -0.003645 0.000000
# 4 0.000000 0.000000 0.000000 0.033810 0.000000 -0.009221
# 5 0.004019 0.004898 -0.003645 0.000000 0.039069 0.000000
# 6 0.000000 0.000000 0.000000 -0.009221 0.000000 0.044756
#
#
# Mechanical properties :
#
#
# Convention : Reuss Voigt Hill
#
# Bulk Modulus (GPa) = 52.74000 54.83503 53.78751
# Shear Modulus (GPa) = 24.92483 27.55419 26.23951
#
# Velocity S-wave (km/s) = 3.72784 3.91954 3.82489
# Velocity P-wave (km/s) = 6.92344 7.14540 7.03530
#
# Compressibility (1/GPa) = 0.01896094
#
# Stress axis : x y z
#
# Youngs Moduli (GPa) = 63.57532 50.69552 80.97503
#
# Poissons Ratio (x) = 0.38816 0.14942
# Poissons Ratio (y) = 0.48678 0.39838
# Poissons Ratio (z) = 0.11732 0.24941
#
# Static dielectric constant tensor:
#      x y z
#    x 3.480550 0.000000 -0.127730 
#    y 0.000000 3.458450 0.000000 
#    z -0.127730 0.000000 3.351090 
# 
# 
# High freq. dielectric constant tensor:
#      x y z
#    x 1.697420 0.000000 -0.001100 
#    y 0.000000 1.670430 0.000000 
#    z -0.001100 0.000000 1.697620 
# 
# From -- ./inp_files/10921.got.cif
#   From: 2010.06.25/outbox.cif.g09.slc.cpg/sg10_6_cif.got.tgz:10921.got - 2010.06.27 22:07:45.
