data_PCOD8060129
_publ_section_title
;
Structure prediction by ZEFSAII (Michael W. Deem and Ramdas Pophale) SiO2 
 PCOD8060129
Probable space group: P 2/M
;
_chemical_formula_sum "Si O2"
_cell_formula_units_Z 32
_cell_length_a 15.516863
_cell_length_b 9.152494
_cell_length_c 27.405001
_cell_angle_alpha 90.000000
_cell_angle_beta 27.984696
_cell_angle_gamma 90.000000
_cell_volume 1826.266921
_symmetry_space_group_name_H-M "P 2/M"
_symmetry_group_IT_number 10
_symmetry_cell_setting 'monoclinic'
loop_
_space_group_symop_operation_xyz
x,y,z
-x,y,-z
-x,-y,-z
x,-y,z
loop_
_atom_site_type_symbol
_atom_site_label
_atom_site_fract_x
_atom_site_fract_y
_atom_site_fract_z
Si Si1 0.582620 0.172428 0.570553
Si Si2 0.297153 0.337325 0.581119
Si Si3 0.209849 0.668537 0.338529
Si Si4 0.417380 0.172428 0.153172
Si Si5 0.801204 0.833341 0.919789
Si Si6 0.209848 0.331463 0.451623
Si Si7 0.198796 0.166659 0.720993
Si Si8 0.297153 0.337325 0.121728
O O1 0.708418 0.245287 0.465950
O O2 0.648604 0.231780 0.589476
O O3 0.367358 0.217460 0.671195
O O4 0.610794 0.000000 0.554508
O O5 0.500000 0.345998 0.500000
O O6 0.219343 0.500000 0.609825
O O7 0.177854 0.258935 0.681990
O O8 0.244131 0.500000 0.308015
O O9 0.351397 0.768221 0.238080
O O10 0.250841 0.697011 0.374579
O O11 0.000001 0.711864 0.431176
O O12 0.291581 0.245288 0.174368
O O13 0.389205 0.000000 0.165302
O O14 0.632642 0.217461 0.038552
O O15 0.822146 0.741065 0.859844
O O16 0.999999 0.817914 0.847630
O O17 0.763625 0.000000 0.922909
O O18 0.244130 0.500000 0.447854
O O19 0.236376 0.000000 0.686534
O O20 0.219342 0.500000 0.170833
O O21 0.500000 0.345998 0.000000
#
# Coordination Sequence:
#
# PCOD8060129 Si02
#       8
#     4   4   4   4   4   4   4   4
#     4  10  19  31  50  74  98 126 160 197 238 283
#     4   9  17  29  45  66  93 125 161 198 233 271
#     4   9  19  36  55  73  94 121 153 192 241 292
#     4  10  19  31  50  74  98 126 160 197 238 283
#     4   9  18  32  48  68  98 133 165 197 233 274
#     4   9  19  36  55  73  94 121 153 192 241 292
#     4   9  18  32  48  68  98 133 165 197 233 274
#     4   9  17  29  45  66  93 125 161 198 233 271
#
# _framework density 17.522082999999999
#
# number of rings (size 3 to 8) (size 9 to 14) (size 15 to 20)
#    0.000    2.750    0.000    2.250    0.000    6.500 
#    0.000    1.250    0.000    0.750    0.000    5.250 
#    0.000    0.000    0.000    0.000    0.000    0.000 
#
# Total GULP energy -396642.381020 kJ/mol
# GULP energy per Si atom -12395.074407 kJ/mol
# Density = 1.748220 g / cm^3
# Si number density = 17.522083 Si / 1000 Ang^3
#
#
#
# Elastic Constant Matrix: (Units=GPa)
#
#
# Indices 1 2 3 4 5 6 
#
# 1 92.7908 49.8654 50.0045 0.0000 -2.7758 0.0000
# 2 49.8654 97.1646 45.3827 0.0000 3.3260 0.0000
# 3 50.0045 45.3827 98.2049 0.0000 -1.2416 0.0000
# 4 0.0000 0.0000 0.0000 21.3651 0.0000 5.5823
# 5 -2.7758 3.3260 -1.2416 0.0000 22.1262 0.0000
# 6 0.0000 0.0000 0.0000 5.5823 0.0000 28.8896
#
#
#
# Elastic Compliance Matrix: (Units=1/GPa)
#
#
# Indices 1 2 3 4 5 6 
#
# 1 0.017431 -0.006264 -0.005945 0.000000 0.002795 0.000000
# 2 -0.006264 0.015496 -0.004013 0.000000 -0.003340 0.000000
# 3 -0.005945 -0.004013 0.015074 0.000000 0.000703 0.000000
# 4 0.000000 0.000000 0.000000 0.049294 0.000000 -0.009525
# 5 0.002795 -0.003340 0.000703 0.000000 0.046087 0.000000
# 6 0.000000 0.000000 0.000000 -0.009525 0.000000 0.036455
#
#
# Mechanical properties :
#
#
# Convention : Reuss Voigt Hill
#
# Bulk Modulus (GPa) = 64.29226 64.29616 64.29421
# Shear Modulus (GPa) = 22.99195 24.00337 23.49766
#
# Velocity S-wave (km/s) = 3.62632 3.70522 3.66598
# Velocity P-wave (km/s) = 7.36922 7.42152 7.39541
#
# Compressibility (1/GPa) = 0.01555397
#
# Stress axis : x y z
#
# Youngs Moduli (GPa) = 57.36940 64.53447 66.34110
#
# Poissons Ratio (x) = 0.40427 0.39442
# Poissons Ratio (y) = 0.35939 0.26625
# Poissons Ratio (z) = 0.34108 0.25900
#
# Static dielectric constant tensor:
#      x y z
#    x 3.076940 0.000000 -0.093150 
#    y 0.000000 3.393870 0.000000 
#    z -0.093150 0.000000 3.202480 
# 
# 
# High freq. dielectric constant tensor:
#      x y z
#    x 1.653820 0.000000 -0.011370 
#    y 0.000000 1.684810 0.000000 
#    z -0.011370 0.000000 1.669140 
# 
# From -- ./inp_files/66581.got.cif
#   From: 2010.06.25/outbox.cif.g09.slc.cpg/sg10_34_cif.got.tgz:66581.got - 2010.06.27 22:07:45.
