data_PCOD8060407
_publ_section_title
;
Structure prediction by ZEFSAII (Michael W. Deem and Ramdas Pophale) SiO2 
 PCOD8060407
Probable space group: P 2/M
;
_chemical_formula_sum "Si O2"
_cell_formula_units_Z 20
_cell_length_a 10.348500
_cell_length_b 12.786059
_cell_length_c 9.498465
_cell_angle_alpha 90.000000
_cell_angle_beta 72.671539
_cell_angle_gamma 90.000000
_cell_volume 1199.761338
_symmetry_space_group_name_H-M "P 2/M"
_symmetry_group_IT_number 10
_symmetry_cell_setting 'monoclinic'
loop_
_space_group_symop_operation_xyz
x,y,z
-x,y,-z
-x,-y,-z
x,-y,z
loop_
_atom_site_type_symbol
_atom_site_label
_atom_site_fract_x
_atom_site_fract_y
_atom_site_fract_z
Si Si1 0.883018 0.000000 0.847226
Si Si2 0.654317 0.379158 0.418529
Si Si3 0.807169 0.226432 0.181375
Si Si4 0.112106 0.773620 0.165307
Si Si5 0.192101 0.000000 0.830850
Si Si6 0.852890 0.621053 0.605658
O O1 0.862776 0.889597 0.772085
O O2 0.032490 0.000000 0.860810
O O3 0.779379 0.000000 0.011554
O O4 0.500000 0.351951 0.500000
O O5 0.674352 0.500000 0.371406
O O6 0.701625 0.312031 0.269519
O O7 0.741421 0.349474 0.526670
O O8 0.952865 0.249463 0.202360
O O9 0.751836 0.110492 0.247958
O O10 0.816386 0.233252 0.009595
O O11 0.178911 0.688257 0.245175
O O12 0.845286 0.500000 0.651318
O O13 0.000000 0.650986 0.500000
#
# Coordination Sequence:
#
# PCOD8060407 Si02
#       6
#     2   4   4   4   2   4
#     4   7  12  24  42  70 102 124 144 188 245 284
#     4  10  21  36  50  66  96 134 162 190 239 293
#     4   9  16  29  50  74  97 125 160 196 233 282
#     4   9  16  28  50  76  98 121 158 200 237 277
#     4   7  12  24  44  69  98 125 150 189 240 278
#     4  10  19  32  48  70  99 125 155 200 246 278
#
# _framework density 16.669982000000001
#
# number of rings (size 3 to 8) (size 9 to 14) (size 15 to 20)
#    0.000    3.000    2.000    2.400    0.000    0.800 
#    0.000    5.000    0.000    3.600    0.000    4.200 
#    0.000    0.000    0.000    0.000    0.000    0.000 
#
# Total GULP energy -247781.070522 kJ/mol
# GULP energy per Si atom -12389.053526 kJ/mol
# Density = 1.663204 g / cm^3
# Si number density = 16.669982 Si / 1000 Ang^3
#
#
#
# Elastic Constant Matrix: (Units=GPa)
#
#
# Indices 1 2 3 4 5 6 
#
# 1 75.5429 40.1636 35.3300 0.0000 -2.3089 0.0000
# 2 40.1636 118.5520 66.8747 0.0000 -3.9996 0.0000
# 3 35.3300 66.8747 71.3468 0.0000 -1.6162 0.0000
# 4 0.0000 0.0000 0.0000 18.0127 0.0000 -1.3526
# 5 -2.3089 -3.9996 -1.6162 0.0000 17.5885 0.0000
# 6 0.0000 0.0000 0.0000 -1.3526 0.0000 14.8583
#
#
#
# Elastic Compliance Matrix: (Units=1/GPa)
#
#
# Indices 1 2 3 4 5 6 
#
# 1 0.017520 -0.002157 -0.006627 0.000000 0.001200 0.000000
# 2 -0.002157 0.018278 -0.016010 0.000000 0.002402 0.000000
# 3 -0.006627 -0.016010 0.032269 0.000000 -0.001545 0.000000
# 4 0.000000 0.000000 0.000000 0.055898 0.000000 0.005088
# 5 0.001200 0.002402 -0.001545 0.000000 0.057417 0.000000
# 6 0.000000 0.000000 0.000000 0.005088 0.000000 0.067766
#
#
# Mechanical properties :
#
#
# Convention : Reuss Voigt Hill
#
# Bulk Modulus (GPa) = 54.11288 61.13093 57.62191
# Shear Modulus (GPa) = 16.39907 18.29680 17.34793
#
# Velocity S-wave (km/s) = 3.13988 3.31658 3.22944
# Velocity P-wave (km/s) = 6.75847 7.17058 6.96757
#
# Compressibility (1/GPa) = 0.01847989
#
# Stress axis : x y z
#
# Youngs Moduli (GPa) = 57.07695 54.71074 30.98958
#
# Poissons Ratio (x) = 0.11800 0.20537
# Poissons Ratio (y) = 0.12311 0.49614
# Poissons Ratio (z) = 0.37824 0.87591
#
# Static dielectric constant tensor:
#      x y z
#    x 2.805590 0.000000 0.041990 
#    y 0.000000 3.485010 0.000000 
#    z 0.041990 0.000000 2.825170 
# 
# 
# High freq. dielectric constant tensor:
#      x y z
#    x 1.599910 0.000000 0.005660 
#    y 0.000000 1.661970 0.000000 
#    z 0.005660 0.000000 1.616900 
# 
# From -- ./inp_files/23495.got.cif
#   From: 2010.06.25/outbox.cif.g09.slc.cpg/sg10_12_cif.got.tgz:23495.got - 2010.06.27 22:07:45.
