data_PCOD8060173
_publ_section_title
;
Structure prediction by ZEFSAII (Michael W. Deem and Ramdas Pophale) SiO2 
 PCOD8060173
Probable space group: P 2/M
;
_chemical_formula_sum "Si O2"
_cell_formula_units_Z 26
_cell_length_a 30.242436
_cell_length_b 7.762217
_cell_length_c 30.242428
_cell_angle_alpha 90.000000
_cell_angle_beta 170.128163
_cell_angle_gamma 90.000000
_cell_volume 1217.148811
_symmetry_space_group_name_H-M "P 2/M"
_symmetry_group_IT_number 10
_symmetry_cell_setting 'monoclinic'
loop_
_space_group_symop_operation_xyz
x,y,z
-x,y,-z
-x,-y,-z
x,-y,z
loop_
_atom_site_type_symbol
_atom_site_label
_atom_site_fract_x
_atom_site_fract_y
_atom_site_fract_z
Si Si1 0.176374 0.803477 0.323624
Si Si2 0.025040 0.705421 0.474961
Si Si3 0.873516 0.704636 0.626489
Si Si4 0.735046 0.000000 0.764956
Si Si5 0.399702 0.295807 0.100302
Si Si6 0.700859 0.692055 0.799138
Si Si7 0.550430 0.705619 0.949570
O O1 0.437292 0.710490 0.566400
O O2 0.149972 0.797841 0.350020
O O3 0.184681 0.000000 0.315311
O O4 0.933603 0.710486 0.062710
O O5 0.024835 0.500000 0.475166
O O6 0.000000 0.777177 0.500000
O O7 0.287762 0.776069 0.712325
O O8 0.787676 0.776070 0.212239
O O9 0.870061 0.500000 0.629943
O O10 0.638528 0.769708 0.364724
O O11 0.135281 0.769708 0.861477
O O12 0.500000 0.000000 0.500000
O O13 0.720587 0.172074 0.779410
O O14 0.000000 0.000000 0.000000
O O15 0.400920 0.500000 0.099089
O O16 0.424586 0.220232 0.075415
O O17 0.711214 0.500000 0.788778
O O18 0.550741 0.500000 0.949256
#
# Coordination Sequence:
#
# PCOD8060173 Si02
#       7
#     4   4   4   2   4   4   4
#     4  12  23  42  65  94 130 167 210 263 320 373
#     4   9  15  21  30  46  69 104 158 214 265 330
#     4  10  19  31  50  77 105 140 187 236 283 347
#     4  12  26  46  72 102 142 174 220 276 324 378
#     4   9  17  28  42  64  95 129 176 229 280 345
#     4  12  25  45  71 100 134 177 221 266 323 383
#     4   9  15  23  34  48  74 114 156 211 274 327
#
# _framework density 21.3614
#
# number of rings (size 3 to 8) (size 9 to 14) (size 15 to 20)
#    0.000    1.692    1.538    4.615    0.000    7.385 
#    0.000    0.000    0.000    0.000    0.000    0.000 
#    0.000    0.000    0.000    0.000    0.000   53.846 
#
# Total GULP energy -322489.738948 kJ/mol
# GULP energy per Si atom -12403.451498 kJ/mol
# Density = 2.131278 g / cm^3
# Si number density = 21.361400 Si / 1000 Ang^3
#
#
#
# Elastic Constant Matrix: (Units=GPa)
#
#
# Indices 1 2 3 4 5 6 
#
# 1 185.5307 35.0746 101.5145 0.0000 0.3291 0.0000
# 2 35.0746 85.0446 26.7410 0.0000 -0.7352 0.0000
# 3 101.5145 26.7410 227.6227 0.0000 3.3809 0.0000
# 4 0.0000 0.0000 0.0000 18.9296 0.0000 9.7530
# 5 0.3291 -0.7352 3.3809 0.0000 44.1441 0.0000
# 6 0.0000 0.0000 0.0000 9.7530 0.0000 -91.8329
#
#
#
# Elastic Compliance Matrix: (Units=1/GPa)
#
#
# Indices 1 2 3 4 5 6 
#
# 1 0.007480 -0.002112 -0.003090 0.000000 0.000146 0.000000
# 2 -0.002112 0.012810 -0.000567 0.000000 0.000273 0.000000
# 3 -0.003090 -0.000567 0.005844 0.000000 -0.000434 0.000000
# 4 0.000000 0.000000 0.000000 0.050087 0.000000 0.005319
# 5 0.000146 0.000273 -0.000434 0.000000 0.022690 0.000000
# 6 0.000000 0.000000 0.000000 0.005319 0.000000 -0.010324
#
#
# Mechanical properties :
#
#
# Convention : Reuss Voigt Hill
#
# Bulk Modulus (GPa) = 68.51006 91.65091 80.08048
# Shear Modulus (GPa) = 47.62394 16.57268 32.09831
#
# Velocity S-wave (km/s) = 4.72682 2.78838 3.88058
# Velocity P-wave (km/s) = 7.86968 7.30512 7.59265
#
# Compressibility (1/GPa) = 0.01459640
#
# Stress axis : x y z
#
# Youngs Moduli (GPa) = 133.69819 78.06253 171.10801
#
# Poissons Ratio (x) = 0.16487 0.52868
# Poissons Ratio (y) = 0.28237 0.09704
# Poissons Ratio (z) = 0.41309 0.04427
#
# Static dielectric constant tensor:
#      x y z
#    x 3.940290 0.000000 0.019420 
#    y 0.000000 3.412940 0.000000 
#    z 0.019420 0.000000 4.160560 
# 
# 
# High freq. dielectric constant tensor:
#      x y z
#    x 1.846150 0.000000 0.001110 
#    y 0.000000 1.805480 0.000000 
#    z 0.001110 0.000000 1.858720 
# 
# From -- ./inp_files/95963.got.cif
#   From: 2010.06.25/outbox.cif.g09.slc.cpg/sg10_48_cif.got.tgz:95963.got - 2010.06.27 22:07:45.
