data_PCOD8060372
_publ_section_title
;
Structure prediction by ZEFSAII (Michael W. Deem and Ramdas Pophale) SiO2 
 PCOD8060372
Probable space group: P 2/M
;
_chemical_formula_sum "Si O2"
_cell_formula_units_Z 24
_cell_length_a 20.310392
_cell_length_b 11.097799
_cell_length_c 5.128555
_cell_angle_alpha 90.000000
_cell_angle_beta 91.573761
_cell_angle_gamma 90.000000
_cell_volume 1155.543582
_symmetry_space_group_name_H-M "P 2/M"
_symmetry_group_IT_number 10
_symmetry_cell_setting 'monoclinic'
loop_
_space_group_symop_operation_xyz
x,y,z
-x,y,-z
-x,-y,-z
x,-y,z
loop_
_atom_site_type_symbol
_atom_site_label
_atom_site_fract_x
_atom_site_fract_y
_atom_site_fract_z
Si Si1 0.174611 0.636873 0.247727
Si Si2 0.544928 0.733939 0.755172
Si Si3 0.710091 0.134060 0.211742
Si Si4 0.045135 0.000000 0.755045
Si Si5 0.456432 0.000000 0.245035
Si Si6 0.852607 0.212274 0.264503
Si Si7 0.683666 0.276217 0.701739
O O1 0.149526 0.500000 0.247574
O O2 0.138465 0.708934 0.474091
O O3 0.254341 0.633389 0.292670
O O4 0.152779 0.696370 0.975943
O O5 0.500000 0.708934 0.500000
O O6 0.613206 0.656571 0.757733
O O7 0.578908 0.869409 0.763238
O O8 0.500000 0.704989 0.000000
O O9 0.787359 0.131863 0.286291
O O10 0.673287 0.219741 0.412870
O O11 0.680556 0.000000 0.237227
O O12 0.699803 0.174628 0.915788
O O13 0.087361 0.878268 0.763822
O O14 0.000000 0.000000 0.500000
O O15 0.000000 0.000000 0.000000
O O16 0.500000 0.000000 0.500000
O O17 0.500000 0.000000 0.000000
#
# Coordination Sequence:
#
# PCOD8060372 Si02
#       7
#     4   4   4   2   2   4   4
#     4  10  21  39  65  89 117 155 205 265 307 342
#     4  10  19  32  44  63 101 145 183 232 292 367
#     4  10  19  32  51  77 112 140 181 243 291 347
#     4  12  24  40  66  98 140 174 196 236 280 354
#     4   8  16  26  36  52  78 122 170 198 250 326
#     4  10  21  39  61  92 124 161 202 237 301 351
#     4  10  21  32  51  79 102 145 191 242 303 357
#
# _framework density 20.769448000000001
#
# number of rings (size 3 to 8) (size 9 to 14) (size 15 to 20)
#    0.000    2.000    0.833    3.000    2.333    0.000 
#    3.000    0.000    0.000   11.000    0.000    0.000 
#    0.000    0.000    0.000    0.000    0.000    0.000 
#
# Total GULP energy -297400.142301 kJ/mol
# GULP energy per Si atom -12391.672596 kJ/mol
# Density = 2.072218 g / cm^3
# Si number density = 20.769448 Si / 1000 Ang^3
#
#
#
# Elastic Constant Matrix: (Units=GPa)
#
#
# Indices 1 2 3 4 5 6 
#
# 1 110.7393 24.4437 23.3831 0.0000 -20.7258 0.0000
# 2 24.4437 72.7427 18.8724 0.0000 -8.1141 0.0000
# 3 23.3831 18.8724 121.2731 0.0000 -21.0829 0.0000
# 4 0.0000 0.0000 0.0000 14.8730 0.0000 1.0571
# 5 -20.7258 -8.1141 -21.0829 0.0000 27.5567 0.0000
# 6 0.0000 0.0000 0.0000 1.0571 0.0000 12.6439
#
#
#
# Elastic Compliance Matrix: (Units=1/GPa)
#
#
# Indices 1 2 3 4 5 6 
#
# 1 0.011087 -0.002808 -0.000455 0.000000 0.007163 0.000000
# 2 -0.002808 0.015240 -0.001635 0.000000 0.001125 0.000000
# 3 -0.000455 -0.001635 0.009740 0.000000 0.006628 0.000000
# 4 0.000000 0.000000 0.000000 0.067638 0.000000 -0.005655
# 5 0.007163 0.001125 0.006628 0.000000 0.047079 0.000000
# 6 0.000000 0.000000 0.000000 -0.005655 0.000000 0.079562
#
#
# Mechanical properties :
#
#
# Convention : Reuss Voigt Hill
#
# Bulk Modulus (GPa) = 38.06506 48.68373 43.37440
# Shear Modulus (GPa) = 20.08837 26.88511 23.48674
#
# Velocity S-wave (km/s) = 3.11337 3.60176 3.36643
# Velocity P-wave (km/s) = 5.59386 6.38653 6.00330
#
# Compressibility (1/GPa) = 0.02627081
#
# Stress axis : x y z
#
# Youngs Moduli (GPa) = 90.19611 65.61538 102.66595
#
# Poissons Ratio (x) = 0.18427 0.04675
# Poissons Ratio (y) = 0.25330 0.16782
# Poissons Ratio (z) = 0.04107 0.10726
#
# Static dielectric constant tensor:
#      x y z
#    x 3.754560 0.000000 -0.042370 
#    y 0.000000 3.575780 0.000000 
#    z -0.042370 0.000000 3.952850 
# 
# 
# High freq. dielectric constant tensor:
#      x y z
#    x 1.803020 0.000000 -0.002570 
#    y 0.000000 1.779340 0.000000 
#    z -0.002570 0.000000 1.836860 
# 
# From -- ./inp_files/10982.got.cif
#   From: 2010.06.25/outbox.cif.g09.slc.cpg/sg10_6_cif.got.tgz:10982.got - 2010.06.27 22:07:45.
