data_PCOD8060610
_publ_section_title
;
Structure prediction by ZEFSAII (Michael W. Deem and Ramdas Pophale) SiO2 
 PCOD8060610
Probable space group: P 2/M
;
_chemical_formula_sum "Si O2"
_cell_formula_units_Z 32
_cell_length_a 11.420886
_cell_length_b 9.057129
_cell_length_c 31.568464
_cell_angle_alpha 90.000000
_cell_angle_beta 32.387609
_cell_angle_gamma 90.000000
_cell_volume 1749.122377
_symmetry_space_group_name_H-M "P 2/M"
_symmetry_group_IT_number 10
_symmetry_cell_setting 'monoclinic'
loop_
_space_group_symop_operation_xyz
x,y,z
-x,y,-z
-x,-y,-z
x,-y,z
loop_
_atom_site_type_symbol
_atom_site_label
_atom_site_fract_x
_atom_site_fract_y
_atom_site_fract_z
Si Si1 0.478594 0.826546 0.570822
Si Si2 0.844268 0.326918 0.863510
Si Si3 0.684245 0.326069 0.750749
Si Si4 0.289373 0.171311 0.715427
Si Si5 0.856992 0.172124 0.946006
Si Si6 0.497866 0.327455 0.897373
Si Si7 0.636152 0.168448 0.212661
Si Si8 0.144659 0.174994 0.603362
O O1 0.454227 0.780814 0.627444
O O2 0.708691 0.769947 0.481541
O O3 0.270125 0.770005 0.607434
O O4 0.480514 0.000000 0.564230
O O5 0.858901 0.500000 0.867675
O O6 0.773884 0.249258 0.928491
O O7 0.667683 0.287288 0.882153
O O8 0.075127 0.269579 0.776129
O O9 0.714920 0.500000 0.740785
O O10 0.596144 0.271474 0.823040
O O11 0.512565 0.280528 0.767463
O O12 0.914061 0.253101 0.670349
O O13 0.407233 0.197863 0.724256
O O14 0.218652 0.000000 0.732985
O O15 0.112533 0.202592 0.875172
O O16 0.807972 0.000000 0.956897
O O17 0.726732 0.239830 0.025493
O O18 0.443785 0.500000 0.912361
O O19 0.576705 0.000000 0.219011
O O20 0.105812 0.000000 0.614859
#
# Coordination Sequence:
#
# PCOD8060610 Si02
#       8
#     4   4   4   4   4   4   4   4
#     4   8  15  30  55  84 108 132 164 203 251 305
#     4  10  19  32  51  76 108 138 163 199 251 308
#     4  11  23  37  52  72 101 137 175 211 250 299
#     4   9  17  32  54  78 103 132 171 213 250 296
#     4  10  21  36  55  78 101 128 168 214 255 298
#     4  10  22  36  50  73 104 136 168 205 254 308
#     4   9  20  37  53  71  97 131 171 214 255 295
#     4   9  17  32  55  81 108 135 164 203 252 303
#
# _framework density 18.294889000000001
#
# number of rings (size 3 to 8) (size 9 to 14) (size 15 to 20)
#    0.000    2.500    0.000    3.750    0.000    6.500 
#    0.000    5.000    0.000    3.750    0.000    0.000 
#    0.000    0.000    0.000    0.000    0.000    0.000 
#
# Total GULP energy -396798.979428 kJ/mol
# GULP energy per Si atom -12399.968107 kJ/mol
# Density = 1.825325 g / cm^3
# Si number density = 18.294889 Si / 1000 Ang^3
#
#
#
# Elastic Constant Matrix: (Units=GPa)
#
#
# Indices 1 2 3 4 5 6 
#
# 1 91.1419 41.4389 66.4717 0.0000 -3.6228 0.0000
# 2 41.4389 56.4964 45.4788 0.0000 -1.7818 0.0000
# 3 66.4717 45.4788 139.5814 0.0000 8.0827 0.0000
# 4 0.0000 0.0000 0.0000 21.1910 0.0000 3.4532
# 5 -3.6228 -1.7818 8.0827 0.0000 17.4459 0.0000
# 6 0.0000 0.0000 0.0000 3.4532 0.0000 22.1547
#
#
#
# Elastic Compliance Matrix: (Units=1/GPa)
#
#
# Indices 1 2 3 4 5 6 
#
# 1 0.020684 -0.009103 -0.007274 0.000000 0.006736 0.000000
# 2 -0.009103 0.028679 -0.005209 0.000000 0.003452 0.000000
# 3 -0.007274 -0.005209 0.012787 0.000000 -0.007967 0.000000
# 4 0.000000 0.000000 0.000000 0.048420 0.000000 -0.007547
# 5 0.006736 0.003452 -0.007967 0.000000 0.062762 0.000000
# 6 0.000000 0.000000 0.000000 -0.007547 0.000000 0.046314
#
#
# Mechanical properties :
#
#
# Convention : Reuss Voigt Hill
#
# Bulk Modulus (GPa) = 52.69457 65.99983 59.34720
# Shear Modulus (GPa) = 18.57744 21.08034 19.82889
#
# Velocity S-wave (km/s) = 3.19006 3.39817 3.29576
# Velocity P-wave (km/s) = 6.51414 7.17987 6.85510
#
# Compressibility (1/GPa) = 0.01897729
#
# Stress axis : x y z
#
# Youngs Moduli (GPa) = 48.34764 34.86828 78.20479
#
# Poissons Ratio (x) = 0.31741 0.56886
# Poissons Ratio (y) = 0.44011 0.40739
# Poissons Ratio (z) = 0.35168 0.18164
#
# Static dielectric constant tensor:
#      x y z
#    x 3.263080 0.000000 0.177510 
#    y 0.000000 3.214890 0.000000 
#    z 0.177510 0.000000 3.629000 
# 
# 
# High freq. dielectric constant tensor:
#      x y z
#    x 1.698690 0.000000 0.007970 
#    y 0.000000 1.696920 0.000000 
#    z 0.007970 0.000000 1.718250 
# 
# From -- ./inp_files/94948.got.cif
#   From: 2010.06.25/outbox.cif.g09.slc.cpg/sg10_48_cif.got.tgz:94948.got - 2010.06.27 22:07:45.
