data_PCOD8060812
_publ_section_title
;
Structure prediction by ZEFSAII (Michael W. Deem and Ramdas Pophale) SiO2 
 PCOD8060812
Probable space group: P 2/M
;
_chemical_formula_sum "Si O2"
_cell_formula_units_Z 28
_cell_length_a 28.142305
_cell_length_b 8.957260
_cell_length_c 9.828401
_cell_angle_alpha 90.000000
_cell_angle_beta 142.953578
_cell_angle_gamma 90.000000
_cell_volume 1492.613261
_symmetry_space_group_name_H-M "P 2/M"
_symmetry_group_IT_number 10
_symmetry_cell_setting 'monoclinic'
loop_
_space_group_symop_operation_xyz
x,y,z
-x,y,-z
-x,-y,-z
x,-y,z
loop_
_atom_site_type_symbol
_atom_site_label
_atom_site_fract_x
_atom_site_fract_y
_atom_site_fract_z
Si Si1 0.053635 0.676233 0.744476
Si Si2 0.487777 0.825211 0.129282
Si Si3 0.200813 0.830641 0.979156
Si Si4 0.200265 0.828904 0.665207
Si Si5 0.634196 0.677211 0.957272
Si Si6 0.950512 0.331316 0.752367
Si Si7 0.376465 0.175239 0.349237
O O1 0.061253 0.500000 0.761291
O O2 0.000000 0.736600 0.500000
O O3 0.010086 0.736865 0.778063
O O4 0.142352 0.737868 0.940547
O O5 0.416596 0.731891 0.030440
O O6 0.565322 0.786464 0.394529
O O7 0.467551 0.000000 0.092085
O O8 0.500000 0.776889 0.000000
O O9 0.290057 0.770081 0.199633
O O10 0.196419 0.000000 0.018960
O O11 0.174529 0.813637 0.762928
O O12 0.128114 0.766967 0.410899
O O13 0.217899 0.000000 0.666170
O O14 0.277513 0.732181 0.812785
O O15 0.632136 0.500000 0.944135
O O16 0.599381 0.742560 0.735875
O O17 0.924971 0.500000 0.654420
O O18 0.000000 0.328257 0.000000
O O19 0.374648 0.000000 0.309492
#
# Coordination Sequence:
#
# PCOD8060812 Si02
#       7
#     4   4   4   4   4   4   4
#     4  10  19  32  53  78 105 141 182 220 266 326
#     4  10  21  39  61  83 115 153 187 225 278 336
#     4   9  18  32  53  81 108 136 178 233 277 312
#     4  10  20  36  58  82 109 142 188 233 275 327
#     4  11  22  36  59  87 114 145 186 233 282 333
#     4  10  21  37  54  76 112 149 183 225 279 333
#     4   9  19  37  59  84 113 146 187 232 277 330
#
# _framework density 18.759045
#
# number of rings (size 3 to 8) (size 9 to 14) (size 15 to 20)
#    0.000    2.143    1.429    3.000    0.000    6.000 
#    2.571    0.000    0.000    0.000    0.000    0.000 
#    0.000    0.000    0.000    0.000    0.000    0.000 
#
# Total GULP energy -347211.455020 kJ/mol
# GULP energy per Si atom -12400.409108 kJ/mol
# Density = 1.871635 g / cm^3
# Si number density = 18.759045 Si / 1000 Ang^3
#
#
#
# Elastic Constant Matrix: (Units=GPa)
#
#
# Indices 1 2 3 4 5 6 
#
# 1 131.7740 52.5511 59.5127 0.0000 3.0755 0.0000
# 2 52.5511 80.9723 40.9236 0.0000 3.9074 0.0000
# 3 59.5127 40.9236 89.3150 0.0000 5.3668 0.0000
# 4 0.0000 0.0000 0.0000 23.9678 0.0000 3.8854
# 5 3.0755 3.9074 5.3668 0.0000 25.4534 0.0000
# 6 0.0000 0.0000 0.0000 3.8854 0.0000 33.3336
#
#
#
# Elastic Compliance Matrix: (Units=1/GPa)
#
#
# Indices 1 2 3 4 5 6 
#
# 1 0.012225 -0.004980 -0.005896 0.000000 0.000530 0.000000
# 2 -0.004980 0.018122 -0.004916 0.000000 -0.001144 0.000000
# 3 -0.005896 -0.004916 0.017511 0.000000 -0.002225 0.000000
# 4 0.000000 0.000000 0.000000 0.042526 0.000000 -0.004957
# 5 0.000530 -0.001144 -0.002225 0.000000 0.039868 0.000000
# 6 0.000000 0.000000 0.000000 -0.004957 0.000000 0.030578
#
#
# Mechanical properties :
#
#
# Convention : Reuss Voigt Hill
#
# Bulk Modulus (GPa) = 61.44873 67.55955 64.50414
# Shear Modulus (GPa) = 25.27306 26.48922 25.88114
#
# Velocity S-wave (km/s) = 3.67447 3.76184 3.71841
# Velocity P-wave (km/s) = 7.12953 7.41358 7.27294
#
# Compressibility (1/GPa) = 0.01627373
#
# Stress axis : x y z
#
# Youngs Moduli (GPa) = 81.79881 55.18232 57.10586
#
# Poissons Ratio (x) = 0.27480 0.33670
# Poissons Ratio (y) = 0.40735 0.28075
# Poissons Ratio (z) = 0.48229 0.27130
#
# Static dielectric constant tensor:
#      x y z
#    x 3.419640 0.000000 0.114150 
#    y 0.000000 3.362850 0.000000 
#    z 0.114150 0.000000 3.378850 
# 
# 
# High freq. dielectric constant tensor:
#      x y z
#    x 1.727310 0.000000 0.015110 
#    y 0.000000 1.719430 0.000000 
#    z 0.015110 0.000000 1.723630 
# 
# From -- ./inp_files/37254.got.cif
#   From: 2010.06.25/outbox.cif.g09.slc.cpg/sg10_19_cif.got.tgz:37254.got - 2010.06.27 22:07:45.
