data_PCOD8060272
_publ_section_title
;
Structure prediction by ZEFSAII (Michael W. Deem and Ramdas Pophale) SiO2 
 PCOD8060272
Probable space group: P 2/M
;
_chemical_formula_sum "Si O2"
_cell_formula_units_Z 32
_cell_length_a 12.615324
_cell_length_b 8.761407
_cell_length_c 31.962606
_cell_angle_alpha 90.000000
_cell_angle_beta 152.852433
_cell_angle_gamma 90.000000
_cell_volume 1611.942332
_symmetry_space_group_name_H-M "P 2/M"
_symmetry_group_IT_number 10
_symmetry_cell_setting 'monoclinic'
loop_
_space_group_symop_operation_xyz
x,y,z
-x,y,-z
-x,-y,-z
x,-y,z
loop_
_atom_site_type_symbol
_atom_site_label
_atom_site_fract_x
_atom_site_fract_y
_atom_site_fract_z
Si Si1 0.791587 0.324397 0.702352
Si Si2 0.372528 0.674261 0.495906
Si Si3 0.795379 0.180977 0.201544
Si Si4 0.663109 0.320030 0.983370
Si Si5 0.119977 0.180586 0.674618
Si Si6 0.880283 0.181156 0.820887
Si Si7 0.460065 0.824132 0.227895
Si Si8 0.259838 0.335957 0.083018
O O1 0.857206 0.500000 0.734640
O O2 0.534034 0.311177 0.593162
O O3 0.791843 0.226249 0.744412
O O4 0.966016 0.254339 0.729968
O O5 0.500000 0.745743 0.500000
O O6 0.307653 0.500000 0.462989
O O7 0.137496 0.761811 0.423308
O O8 0.591310 0.245426 0.099543
O O9 0.770533 0.232153 0.241817
O O10 0.806580 0.000000 0.200485
O O11 0.650219 0.500000 0.987257
O O12 0.723040 0.272638 0.957513
O O13 0.862337 0.250059 0.082685
O O14 0.280090 0.240316 0.691616
O O15 0.114692 0.000000 0.672415
O O16 0.688518 0.251416 0.786400
O O17 0.899048 0.000000 0.832043
O O18 0.330052 0.798906 0.138605
O O19 0.477090 0.000000 0.244825
O O20 0.396535 0.500000 0.136692
O O21 0.000000 0.378498 0.000000
#
# Coordination Sequence:
#
# PCOD8060272 Si02
#       8
#     4   4   4   4   4   4   4   4
#     4  11  24  43  64  86 118 155 197 246 299 359
#     4  10  21  39  64  92 119 149 190 242 301 359
#     4  11  22  37  60  91 124 155 195 244 297 354
#     4  11  22  36  57  87 123 161 202 245 295 347
#     4  10  21  36  59  93 125 152 189 242 300 353
#     4  11  24  41  61  84 118 164 208 245 288 348
#     4  10  21  37  57  85 121 159 198 243 294 346
#     4  10  19  31  51  82 116 152 198 245 287 340
#
# _framework density 19.851827
#
# number of rings (size 3 to 8) (size 9 to 14) (size 15 to 20)
#    0.000    1.500    3.750    1.500    0.000    4.000 
#    0.000    3.125    0.000    3.750    0.000    0.000 
#    0.000    0.000    0.000    0.000    0.000    0.000 
#
# Total GULP energy -396584.810053 kJ/mol
# GULP energy per Si atom -12393.275314 kJ/mol
# Density = 1.980664 g / cm^3
# Si number density = 19.851827 Si / 1000 Ang^3
#
#
#
# Elastic Constant Matrix: (Units=GPa)
#
#
# Indices 1 2 3 4 5 6 
#
# 1 63.3395 18.6232 32.1258 0.0000 8.3892 0.0000
# 2 18.6232 50.8764 28.0366 0.0000 10.0008 0.0000
# 3 32.1258 28.0366 105.6202 0.0000 13.5573 0.0000
# 4 0.0000 0.0000 0.0000 35.0132 0.0000 -0.2734
# 5 8.3892 10.0008 13.5573 0.0000 31.8425 0.0000
# 6 0.0000 0.0000 0.0000 -0.2734 0.0000 22.5638
#
#
#
# Elastic Compliance Matrix: (Units=1/GPa)
#
#
# Indices 1 2 3 4 5 6 
#
# 1 0.019624 -0.004286 -0.004591 0.000000 -0.001869 0.000000
# 2 -0.004286 0.024704 -0.004658 0.000000 -0.004647 0.000000
# 3 -0.004591 -0.004658 0.012437 0.000000 -0.002623 0.000000
# 4 0.000000 0.000000 0.000000 0.028563 0.000000 0.000346
# 5 -0.001869 -0.004647 -0.002623 0.000000 0.034473 0.000000
# 6 0.000000 0.000000 0.000000 0.000346 0.000000 0.044323
#
#
# Mechanical properties :
#
#
# Convention : Reuss Voigt Hill
#
# Bulk Modulus (GPa) = 33.67405 41.93414 37.80409
# Shear Modulus (GPa) = 24.86391 27.28725 26.07558
#
# Velocity S-wave (km/s) = 3.54287 3.71151 3.62817
# Velocity P-wave (km/s) = 5.80822 6.28780 6.05276
#
# Compressibility (1/GPa) = 0.02969646
#
# Stress axis : x y z
#
# Youngs Moduli (GPa) = 50.95687 40.47857 80.40217
#
# Poissons Ratio (x) = 0.17348 0.36916
# Poissons Ratio (y) = 0.21839 0.37449
# Poissons Ratio (z) = 0.23396 0.18854
#
# Static dielectric constant tensor:
#      x y z
#    x 3.804860 0.000000 0.220510 
#    y 0.000000 3.556250 0.000000 
#    z 0.220510 0.000000 3.527170 
# 
# 
# High freq. dielectric constant tensor:
#      x y z
#    x 1.775300 0.000000 0.016180 
#    y 0.000000 1.771780 0.000000 
#    z 0.016180 0.000000 1.765500 
# 
# From -- ./inp_files/95103.got.cif
#   From: 2010.06.25/outbox.cif.g09.slc.cpg/sg10_48_cif.got.tgz:95103.got - 2010.06.27 22:07:45.
