data_PCOD8060506
_publ_section_title
;
Structure prediction by ZEFSAII (Michael W. Deem and Ramdas Pophale) SiO2 
 PCOD8060506
Probable space group: P 2/M
;
_chemical_formula_sum "Si O2"
_cell_formula_units_Z 32
_cell_length_a 12.124704
_cell_length_b 8.843229
_cell_length_c 20.105077
_cell_angle_alpha 90.000000
_cell_angle_beta 57.330966
_cell_angle_gamma 90.000000
_cell_volume 1814.671585
_symmetry_space_group_name_H-M "P 2/M"
_symmetry_group_IT_number 10
_symmetry_cell_setting 'monoclinic'
loop_
_space_group_symop_operation_xyz
x,y,z
-x,y,-z
-x,-y,-z
x,-y,z
loop_
_atom_site_type_symbol
_atom_site_label
_atom_site_fract_x
_atom_site_fract_y
_atom_site_fract_z
Si Si1 0.766709 0.824984 0.329402
Si Si2 0.890952 0.324229 0.658393
Si Si3 0.961917 0.324628 0.780958
Si Si4 0.192091 0.679542 0.893725
Si Si5 0.317156 0.822941 0.365843
Si Si6 0.089010 0.677564 0.060805
Si Si7 0.403493 0.679020 0.722412
Si Si8 0.162642 0.824717 0.547041
O O1 0.650709 0.735590 0.330841
O O2 0.757446 0.792559 0.411349
O O3 0.907640 0.773720 0.257362
O O4 0.747897 0.000000 0.319463
O O5 0.869140 0.500000 0.649241
O O6 0.880489 0.290822 0.740848
O O7 0.779459 0.224590 0.661496
O O8 0.032669 0.276170 0.585011
O O9 0.005154 0.500000 0.769153
O O10 0.873274 0.282451 0.874881
O O11 0.201277 0.500000 0.886892
O O12 0.313570 0.745261 0.811896
O O13 0.057223 0.739706 0.905239
O O14 0.192407 0.737904 0.971306
O O15 0.451508 0.736278 0.312152
O O16 0.255529 0.776502 0.456522
O O17 0.343620 0.000000 0.353348
O O18 0.083679 0.500000 0.051894
O O19 0.404290 0.500000 0.721119
O O20 0.119902 0.000000 0.556298
#
# Coordination Sequence:
#
# PCOD8060506 Si02
#       8
#     4   4   4   4   4   4   4   4
#     4  10  19  32  50  73 101 132 164 198 244 298
#     4  10  20  33  53  80 103 124 159 211 257 290
#     4   9  16  29  51  77 104 129 159 202 248 289
#     4   8  14  24  45  74 102 129 159 196 237 287
#     4  11  23  38  53  69  94 134 175 206 244 296
#     4   8  12  23  46  76 102 127 159 194 238 287
#     4  11  21  34  51  73 103 133 165 205 247 292
#     4   9  20  37  55  73  96 129 168 207 245 293
#
# _framework density 17.634045
#
# number of rings (size 3 to 8) (size 9 to 14) (size 15 to 20)
#    0.000    2.500    1.250    2.625    0.000    4.000 
#    0.000    2.500    0.000    3.000    0.000    5.250 
#    0.000    0.000    0.000    0.000    0.000    0.000 
#
# Total GULP energy -396633.938140 kJ/mol
# GULP energy per Si atom -12394.810567 kJ/mol
# Density = 1.759391 g / cm^3
# Si number density = 17.634045 Si / 1000 Ang^3
#
#
#
# Elastic Constant Matrix: (Units=GPa)
#
#
# Indices 1 2 3 4 5 6 
#
# 1 76.1634 30.7287 78.3092 0.0000 0.8474 0.0000
# 2 30.7287 48.1995 32.0793 0.0000 2.2964 0.0000
# 3 78.3092 32.0793 123.2929 0.0000 19.3680 0.0000
# 4 0.0000 0.0000 0.0000 9.0661 0.0000 -0.4589
# 5 0.8474 2.2964 19.3680 0.0000 21.3937 0.0000
# 6 0.0000 0.0000 0.0000 -0.4589 0.0000 29.5040
#
#
#
# Elastic Compliance Matrix: (Units=1/GPa)
#
#
# Indices 1 2 3 4 5 6 
#
# 1 0.057528 -0.012604 -0.038604 0.000000 0.034023 0.000000
# 2 -0.012604 0.028115 0.001266 0.000000 -0.003665 0.000000
# 3 -0.038604 0.001266 0.037401 0.000000 -0.032466 0.000000
# 4 0.000000 0.000000 0.000000 0.110388 0.000000 0.001717
# 5 0.034023 -0.003665 -0.032466 0.000000 0.075181 0.000000
# 6 0.000000 0.000000 0.000000 0.001717 0.000000 0.033920
#
#
# Mechanical properties :
#
#
# Convention : Reuss Voigt Hill
#
# Bulk Modulus (GPa) = 43.17919 58.87670 51.02795
# Shear Modulus (GPa) = 11.10776 19.09533 15.10155
#
# Velocity S-wave (km/s) = 2.51251 3.29427 2.92958
# Velocity P-wave (km/s) = 5.74076 6.92316 6.35950
#
# Compressibility (1/GPa) = 0.02315930
#
# Stress axis : x y z
#
# Youngs Moduli (GPa) = 17.38289 35.56879 26.73746
#
# Poissons Ratio (x) = 0.44830 1.03217
# Poissons Ratio (y) = 0.21909 -0.03385
# Poissons Ratio (z) = 0.67105 -0.04503
#
# Static dielectric constant tensor:
#      x y z
#    x 3.153260 0.000000 0.283220 
#    y 0.000000 3.115680 0.000000 
#    z 0.283220 0.000000 3.612310 
# 
# 
# High freq. dielectric constant tensor:
#      x y z
#    x 1.661270 0.000000 0.024000 
#    y 0.000000 1.664930 0.000000 
#    z 0.024000 0.000000 1.686800 
# 
# From -- ./inp_files/54917.got.cif
#   From: 2010.06.25/outbox.cif.g09.slc.cpg/sg10_28_cif.got.tgz:54917.got - 2010.06.27 22:07:45.
