data_PCOD8060182
_publ_section_title
;
Structure prediction by ZEFSAII (Michael W. Deem and Ramdas Pophale) SiO2 
 PCOD8060182
Probable space group: P 2/M
;
_chemical_formula_sum "Si O2"
_cell_formula_units_Z 24
_cell_length_a 19.531514
_cell_length_b 12.376156
_cell_length_c 14.095888
_cell_angle_alpha 90.000000
_cell_angle_beta 158.296047
_cell_angle_gamma 90.000000
_cell_volume 1260.067427
_symmetry_space_group_name_H-M "P 2/M"
_symmetry_group_IT_number 10
_symmetry_cell_setting 'monoclinic'
loop_
_space_group_symop_operation_xyz
x,y,z
-x,y,-z
-x,-y,-z
x,-y,z
loop_
_atom_site_type_symbol
_atom_site_label
_atom_site_fract_x
_atom_site_fract_y
_atom_site_fract_z
Si Si1 0.371602 0.626252 0.422937
Si Si2 0.256541 0.378714 0.833138
Si Si3 0.977903 0.722100 0.609604
Si Si4 0.316134 0.125015 0.702055
Si Si5 0.025887 0.378843 0.863719
Si Si6 0.629486 0.300351 0.379649
O O1 0.500000 0.656801 0.500000
O O2 0.395525 0.500000 0.481709
O O3 0.433183 0.703062 0.590594
O O4 0.160387 0.655849 0.122732
O O5 0.209371 0.500000 0.807907
O O6 0.181569 0.363769 0.629016
O O7 0.148986 0.285575 0.755998
O O8 0.474779 0.360122 0.117723
O O9 0.867441 0.836128 0.476188
O O10 0.063759 0.694515 0.821399
O O11 0.330629 0.185282 0.618542
O O12 0.291605 0.000000 0.647051
O O13 0.500000 0.147161 0.000000
O O14 0.079039 0.500000 0.903013
O O15 0.813444 0.372734 0.621183
#
# Coordination Sequence:
#
# PCOD8060182 Si02
#       6
#     4   4   4   4   4   4
#     4  10  20  34  53  80 116 156 188 219 268 333
#     4  11  20  32  51  82 121 151 174 218 278 342
#     4  10  20  34  52  78 110 148 186 224 275 333
#     4  10  21  41  60  78 106 142 193 246 287 324
#     4  10  19  31  50  77 112 151 188 221 263 330
#     4  11  21  34  56  82 110 146 189 230 278 330
#
# _framework density 19.046600000000002
#
# number of rings (size 3 to 8) (size 9 to 14) (size 15 to 20)
#    0.000    1.667    1.667    5.000    0.000    2.667 
#    0.000    5.000    0.000    8.500    0.000    0.000 
#    0.000    0.000    0.000    0.000    0.000    0.000 
#
# Total GULP energy -297402.560793 kJ/mol
# GULP energy per Si atom -12391.773366 kJ/mol
# Density = 1.900325 g / cm^3
# Si number density = 19.046600 Si / 1000 Ang^3
#
#
#
# Elastic Constant Matrix: (Units=GPa)
#
#
# Indices 1 2 3 4 5 6 
#
# 1 76.8034 37.0651 9.5393 0.0000 -5.0281 0.0000
# 2 37.0651 96.2953 28.5743 0.0000 -2.4287 0.0000
# 3 9.5393 28.5743 93.1208 0.0000 0.5550 0.0000
# 4 0.0000 0.0000 0.0000 22.3755 0.0000 0.9185
# 5 -5.0281 -2.4287 0.5550 0.0000 32.1064 0.0000
# 6 0.0000 0.0000 0.0000 0.9185 0.0000 24.1580
#
#
#
# Elastic Compliance Matrix: (Units=1/GPa)
#
#
# Indices 1 2 3 4 5 6 
#
# 1 0.016131 -0.006230 0.000247 0.000000 0.002051 0.000000
# 2 -0.006230 0.013859 -0.003615 0.000000 0.000135 0.000000
# 3 0.000247 -0.003615 0.011825 0.000000 -0.000439 0.000000
# 4 0.000000 0.000000 0.000000 0.044762 0.000000 -0.001702
# 5 0.002051 0.000135 -0.000439 0.000000 0.031485 0.000000
# 6 0.000000 0.000000 0.000000 -0.001702 0.000000 0.041459
#
#
# Mechanical properties :
#
#
# Convention : Reuss Voigt Hill
#
# Bulk Modulus (GPa) = 44.21251 46.28630 45.24941
# Shear Modulus (GPa) = 26.84460 28.46405 27.65432
#
# Velocity S-wave (km/s) = 3.75829 3.87000 3.81455
# Velocity P-wave (km/s) = 6.48816 6.65759 6.57342
#
# Compressibility (1/GPa) = 0.02261803
#
# Stress axis : x y z
#
# Youngs Moduli (GPa) = 61.99395 72.15492 84.56388
#
# Poissons Ratio (x) = 0.44956 -0.02090
# Poissons Ratio (y) = 0.38625 0.30572
# Poissons Ratio (z) = -0.01532 0.26086
#
# Static dielectric constant tensor:
#      x y z
#    x 3.577270 0.000000 -0.056670 
#    y 0.000000 3.069610 0.000000 
#    z -0.056670 0.000000 3.801740 
# 
# 
# High freq. dielectric constant tensor:
#      x y z
#    x 1.742180 0.000000 -0.003050 
#    y 0.000000 1.682460 0.000000 
#    z -0.003050 0.000000 1.762220 
# 
# From -- ./inp_files/24054.got.cif
#   From: 2010.06.25/outbox.cif.g09.slc.cpg/sg10_13_cif.got.tgz:24054.got - 2010.06.27 22:07:45.
