data_PCOD8060922
_publ_section_title
;
Structure prediction by ZEFSAII (Michael W. Deem and Ramdas Pophale) SiO2 
 PCOD8060922
Probable space group: P 2/M
;
_chemical_formula_sum "Si O2"
_cell_formula_units_Z 28
_cell_length_a 5.045651
_cell_length_b 21.786281
_cell_length_c 13.633108
_cell_angle_alpha 90.000000
_cell_angle_beta 104.102433
_cell_angle_gamma 90.000000
_cell_volume 1453.466343
_symmetry_space_group_name_H-M "P 2/M"
_symmetry_group_IT_number 10
_symmetry_cell_setting 'monoclinic'
loop_
_space_group_symop_operation_xyz
x,y,z
-x,y,-z
-x,-y,-z
x,-y,z
loop_
_atom_site_type_symbol
_atom_site_label
_atom_site_fract_x
_atom_site_fract_y
_atom_site_fract_z
Si Si1 0.453210 0.929239 0.885026
Si Si2 0.418612 0.569827 0.390332
Si Si3 0.801634 0.930375 0.567797
Si Si4 0.931192 0.250286 0.882076
Si Si5 0.570512 0.671537 0.116286
Si Si6 0.149468 0.430109 0.735225
Si Si7 0.888059 0.876750 0.783741
O O1 0.720529 0.920870 0.841949
O O2 0.209050 0.889381 0.819631
O O3 0.367615 0.000000 0.876781
O O4 0.500000 0.906117 0.000000
O O5 0.500000 0.603110 0.500000
O O6 0.329458 0.500000 0.405293
O O7 0.688631 0.573425 0.351059
O O8 0.152493 0.598642 0.312228
O O9 0.500000 0.929548 0.500000
O O10 0.807374 0.887127 0.663553
O O11 0.000000 0.905045 0.500000
O O12 0.889710 0.000000 0.604864
O O13 0.700952 0.303119 0.855557
O O14 0.825570 0.192773 0.809819
O O15 0.204409 0.275228 0.856450
O O16 0.000000 0.230304 0.000000
O O17 0.683853 0.609261 0.171874
O O18 0.500000 0.653253 0.000000
O O19 0.133279 0.500000 0.773993
#
# Coordination Sequence:
#
# PCOD8060922 Si02
#       7
#     4   4   4   4   4   4   4
#     4  11  22  34  52  84 120 144 169 217 278 333
#     4   9  17  30  50  78 109 138 171 213 263 322
#     4  10  21  37  57  82 110 142 184 228 270 320
#     4  10  21  37  57  79 105 144 187 224 268 330
#     4  10  21  37  55  78 110 143 180 226 272 325
#     4  10  19  32  54  81 108 141 181 225 278 336
#     4  12  22  37  60  81 108 148 189 227 271 325
#
# _framework density 19.264292999999999
#
# number of rings (size 3 to 8) (size 9 to 14) (size 15 to 20)
#    0.000    1.714    0.000    5.571    0.000    5.429 
#    0.000    0.000    0.000   13.714    0.000    0.000 
#    0.000    0.000    0.000    0.000    0.000    0.000 
#
# Total GULP energy -347239.904117 kJ/mol
# GULP energy per Si atom -12401.425147 kJ/mol
# Density = 1.922045 g / cm^3
# Si number density = 19.264293 Si / 1000 Ang^3
#
#
#
# Elastic Constant Matrix: (Units=GPa)
#
#
# Indices 1 2 3 4 5 6 
#
# 1 90.8164 9.8153 26.0407 0.0000 0.6725 0.0000
# 2 9.8153 70.6370 48.0302 0.0000 6.2118 0.0000
# 3 26.0407 48.0302 112.1083 0.0000 -0.9941 0.0000
# 4 0.0000 0.0000 0.0000 22.8017 0.0000 8.8393
# 5 0.6725 6.2118 -0.9941 0.0000 33.9051 0.0000
# 6 0.0000 0.0000 0.0000 8.8393 0.0000 20.0468
#
#
#
# Elastic Compliance Matrix: (Units=1/GPa)
#
#
# Indices 1 2 3 4 5 6 
#
# 1 0.011807 0.000368 -0.002903 0.000000 -0.000387 0.000000
# 2 0.000368 0.020520 -0.008913 0.000000 -0.004028 0.000000
# 3 -0.002903 -0.008913 0.013431 0.000000 0.002084 0.000000
# 4 0.000000 0.000000 0.000000 0.052898 0.000000 -0.023325
# 5 -0.000387 -0.004028 0.002084 0.000000 0.030301 0.000000
# 6 0.000000 0.000000 0.000000 -0.023325 0.000000 0.060168
#
#
# Mechanical properties :
#
#
# Convention : Reuss Voigt Hill
#
# Bulk Modulus (GPa) = 43.74147 49.03711 46.38929
# Shear Modulus (GPa) = 22.76424 27.99576 25.38000
#
# Velocity S-wave (km/s) = 3.44129 3.81628 3.63363
# Velocity P-wave (km/s) = 6.20848 6.70290 6.46042
#
# Compressibility (1/GPa) = 0.02286160
#
# Stress axis : x y z
#
# Youngs Moduli (GPa) = 84.69624 48.73251 74.45344
#
# Poissons Ratio (x) = -0.01792 0.21617
# Poissons Ratio (y) = -0.03114 0.66357
# Poissons Ratio (z) = 0.24591 0.43433
#
# Static dielectric constant tensor:
#      x y z
#    x 3.673970 0.000000 0.080440 
#    y 0.000000 3.242990 0.000000 
#    z 0.080440 0.000000 3.446270 
# 
# 
# High freq. dielectric constant tensor:
#      x y z
#    x 1.772400 0.000000 0.003510 
#    y 0.000000 1.717320 0.000000 
#    z 0.003510 0.000000 1.745020 
# 
# From -- ./inp_files/39762.got.cif
#   From: 2010.06.25/outbox.cif.g09.slc.cpg/sg10_20_cif.got.tgz:39762.got - 2010.06.27 22:07:45.
