data_PCOD8060607
_publ_section_title
;
Structure prediction by ZEFSAII (Michael W. Deem and Ramdas Pophale) SiO2 
 PCOD8060607
Probable space group: P 2/M
;
_chemical_formula_sum "Si O2"
_cell_formula_units_Z 32
_cell_length_a 11.800260
_cell_length_b 9.324864
_cell_length_c 28.848917
_cell_angle_alpha 90.000000
_cell_angle_beta 31.422034
_cell_angle_gamma 90.000000
_cell_volume 1654.942257
_symmetry_space_group_name_H-M "P 2/M"
_symmetry_group_IT_number 10
_symmetry_cell_setting 'monoclinic'
loop_
_space_group_symop_operation_xyz
x,y,z
-x,y,-z
-x,-y,-z
x,-y,z
loop_
_atom_site_type_symbol
_atom_site_label
_atom_site_fract_x
_atom_site_fract_y
_atom_site_fract_z
Si Si1 0.766914 0.663087 0.515930
Si Si2 0.629260 0.336553 0.410318
Si Si3 0.013332 0.168205 0.232611
Si Si4 0.391598 0.831746 0.165325
Si Si5 0.388384 0.163614 0.348361
Si Si6 0.137965 0.835555 0.342260
Si Si7 0.121337 0.171381 0.004021
Si Si8 0.878593 0.170226 0.179359
O O1 0.842663 0.500000 0.496723
O O2 0.524323 0.672490 0.580796
O O3 0.770564 0.743535 0.563877
O O4 0.927613 0.739227 0.423991
O O5 0.500000 0.275563 0.500000
O O6 0.701802 0.500000 0.394890
O O7 0.842335 0.243475 0.326418
O O8 0.995231 0.223360 0.185947
O O9 0.257496 0.202841 0.165132
O O10 0.962514 0.000000 0.253229
O O11 0.257689 0.770691 0.255622
O O12 0.417706 0.000000 0.163637
O O13 0.633445 0.765361 0.079517
O O14 0.308953 0.176336 0.323945
O O15 0.631762 0.225935 0.265431
O O16 0.379377 0.000000 0.369471
O O17 0.063093 0.000000 0.361026
O O18 0.000714 0.233231 0.091715
O O19 0.121727 0.000000 0.004618
O O20 0.000000 0.226841 0.000000
O O21 0.881697 0.000000 0.175227
#
# Coordination Sequence:
#
# PCOD8060607 Si02
#       8
#     4   4   4   4   4   4   4   4
#     4  11  22  34  50  74 101 131 171 216 259 306
#     4  10  21  36  52  71  99 137 178 215 254 306
#     4  10  19  32  51  76 106 135 168 215 261 302
#     4   9  18  31  48  75 106 135 171 210 254 304
#     4  10  19  33  51  72 102 136 171 209 251 306
#     4  10  20  33  50  72 101 137 172 210 254 304
#     4   9  16  28  48  75 108 141 170 206 255 310
#     4   9  17  29  48  74 103 137 172 208 257 308
#
# _framework density 19.336023000000001
#
# number of rings (size 3 to 8) (size 9 to 14) (size 15 to 20)
#    0.000    2.250    1.250    2.250    0.000    6.250 
#    0.000    2.500    0.000    0.000    0.000    4.375 
#    0.000    6.000    0.000    0.000    0.000    0.000 
#
# Total GULP energy -396815.490186 kJ/mol
# GULP energy per Si atom -12400.484068 kJ/mol
# Density = 1.929201 g / cm^3
# Si number density = 19.336023 Si / 1000 Ang^3
#
#
#
# Elastic Constant Matrix: (Units=GPa)
#
#
# Indices 1 2 3 4 5 6 
#
# 1 99.3857 19.4180 45.7979 0.0000 1.8690 0.0000
# 2 19.4180 46.7186 31.0675 0.0000 -0.9413 0.0000
# 3 45.7979 31.0675 128.4198 0.0000 3.1948 0.0000
# 4 0.0000 0.0000 0.0000 5.2826 0.0000 -1.4002
# 5 1.8690 -0.9413 3.1948 0.0000 39.2151 0.0000
# 6 0.0000 0.0000 0.0000 -1.4002 0.0000 12.1242
#
#
#
# Elastic Compliance Matrix: (Units=1/GPa)
#
#
# Indices 1 2 3 4 5 6 
#
# 1 0.012308 -0.002633 -0.003744 0.000000 -0.000345 0.000000
# 2 -0.002633 0.026121 -0.005410 0.000000 0.001193 0.000000
# 3 -0.003744 -0.005410 0.010451 0.000000 -0.000803 0.000000
# 4 0.000000 0.000000 0.000000 0.195280 0.000000 0.022552
# 5 -0.000345 0.001193 -0.000803 0.000000 0.025611 0.000000
# 6 0.000000 0.000000 0.000000 0.022552 0.000000 0.085084
#
#
# Mechanical properties :
#
#
# Convention : Reuss Voigt Hill
#
# Bulk Modulus (GPa) = 39.51603 51.89898 45.70750
# Shear Modulus (GPa) = 12.92449 23.20709 18.06579
#
# Velocity S-wave (km/s) = 2.58818 3.46815 3.05996
# Velocity P-wave (km/s) = 5.42332 6.55257 6.01451
#
# Compressibility (1/GPa) = 0.02530618
#
# Stress axis : x y z
#
# Youngs Moduli (GPa) = 81.24873 38.28386 95.68636
#
# Poissons Ratio (x) = 0.10080 0.35823
# Poissons Ratio (y) = 0.21393 0.51765
# Poissons Ratio (z) = 0.30418 0.20711
#
# Static dielectric constant tensor:
#      x y z
#    x 3.674410 0.000000 0.019920 
#    y 0.000000 3.076550 0.000000 
#    z 0.019920 0.000000 3.621810 
# 
# 
# High freq. dielectric constant tensor:
#      x y z
#    x 1.769460 0.000000 0.000400 
#    y 0.000000 1.695790 0.000000 
#    z 0.000400 0.000000 1.753550 
# 
# From -- ./inp_files/49952.got.cif
#   From: 2010.06.25/outbox.cif.g09.slc.cpg/sg10_25_cif.got.tgz:49952.got - 2010.06.27 22:07:45.
