data_PCOD8060912
_publ_section_title
;
Structure prediction by ZEFSAII (Michael W. Deem and Ramdas Pophale) SiO2 
 PCOD8060912
Probable space group: P 2/M
;
_chemical_formula_sum "Si O2"
_cell_formula_units_Z 26
_cell_length_a 5.162541
_cell_length_b 27.124282
_cell_length_c 10.176514
_cell_angle_alpha 90.000000
_cell_angle_beta 65.788838
_cell_angle_gamma 90.000000
_cell_volume 1299.675103
_symmetry_space_group_name_H-M "P 2/M"
_symmetry_group_IT_number 10
_symmetry_cell_setting 'monoclinic'
loop_
_space_group_symop_operation_xyz
x,y,z
-x,y,-z
-x,-y,-z
x,-y,z
loop_
_atom_site_type_symbol
_atom_site_label
_atom_site_fract_x
_atom_site_fract_y
_atom_site_fract_z
Si Si1 0.125229 0.386522 0.328793
Si Si2 0.168313 0.197866 0.093069
Si Si3 0.833378 0.000000 0.902967
Si Si4 0.168503 0.307170 0.097662
Si Si5 0.281128 0.100040 0.165329
Si Si6 0.667777 0.056614 0.589772
Si Si7 0.628100 0.554611 0.329906
O O1 0.110379 0.338413 0.240857
O O2 0.443493 0.408239 0.277812
O O3 0.000000 0.374436 0.500000
O O4 0.947543 0.426688 0.283514
O O5 0.062339 0.251961 0.160436
O O6 0.111902 0.152303 0.205959
O O7 0.500000 0.203566 0.000000
O O8 0.000000 0.181180 0.000000
O O9 0.917066 0.949562 0.807741
O O10 0.500000 0.000000 0.000000
O O11 0.000000 0.000000 0.000000
O O12 0.500000 0.310122 0.000000
O O13 0.000000 0.324394 0.000000
O O14 0.441161 0.091763 0.269564
O O15 0.500000 0.103252 0.000000
O O16 0.500000 0.076189 0.500000
O O17 0.000000 0.064169 0.500000
O O18 0.589393 0.000000 0.638958
O O19 0.500000 0.551185 0.500000
O O20 0.632915 0.500000 0.264359
#
# Coordination Sequence:
#
# PCOD8060912 Si02
#       7
#     4   4   2   4   4   4   4
#     4  10  19  32  54  81 107 137 183 228 263 305
#     4   9  19  34  54  79 105 135 175 223 268 318
#     4  10  20  30  48  80 106 124 159 216 265 298
#     4  10  20  36  56  76 104 144 182 217 270 326
#     4  10  20  37  58  83 105 136 179 226 263 312
#     4  10  22  38  53  75 109 144 171 203 258 324
#     4   9  17  30  51  80 111 142 176 219 268 316
#
# _framework density 20.005001
#
# number of rings (size 3 to 8) (size 9 to 14) (size 15 to 20)
#    0.000    2.308    0.769    1.846    0.000    6.769 
#    0.000    0.769    0.000   12.000    0.000    0.000 
#    0.000    0.000    0.000    0.000    0.000    0.000 
#
# Total GULP energy -322102.358991 kJ/mol
# GULP energy per Si atom -12388.552269 kJ/mol
# Density = 1.995947 g / cm^3
# Si number density = 20.005001 Si / 1000 Ang^3
#
#
#
# Elastic Constant Matrix: (Units=GPa)
#
#
# Indices 1 2 3 4 5 6 
#
# 1 110.4919 27.7989 38.4224 0.0000 37.8362 0.0000
# 2 27.7989 153.4738 62.9718 0.0000 29.6549 0.0000
# 3 38.4224 62.9718 105.8171 0.0000 34.1424 0.0000
# 4 0.0000 0.0000 0.0000 -9.3727 0.0000 50.7572
# 5 37.8362 29.6549 34.1424 0.0000 33.7323 0.0000
# 6 0.0000 0.0000 0.0000 50.7572 0.0000 -23.3180
#
#
#
# Elastic Compliance Matrix: (Units=1/GPa)
#
#
# Indices 1 2 3 4 5 6 
#
# 1 0.014754 0.000726 -0.000362 0.000000 -0.016821 0.000000
# 2 0.000726 0.008951 -0.004141 0.000000 -0.004493 0.000000
# 3 -0.000362 -0.004141 0.015949 0.000000 -0.012096 0.000000
# 4 0.000000 0.000000 0.000000 0.009890 0.000000 0.021528
# 5 -0.016821 -0.004493 -0.012096 0.000000 0.064705 0.000000
# 6 0.000000 0.000000 0.000000 0.021528 0.000000 0.003975
#
#
# Mechanical properties :
#
#
# Convention : Reuss Voigt Hill
#
# Bulk Modulus (GPa) = 31.15242 69.79657 50.47450
# Shear Modulus (GPa) = 36.63591 16.24762 26.44177
#
# Velocity S-wave (km/s) = 4.28406 2.85297 3.63954
# Velocity P-wave (km/s) = 6.33064 6.76889 6.55343
#
# Compressibility (1/GPa) = 0.03210024
#
# Stress axis : x y z
#
# Youngs Moduli (GPa) = 67.78042 111.71357 62.69965
#
# Poissons Ratio (x) = -0.08115 0.02270
# Poissons Ratio (y) = -0.04923 0.25965
# Poissons Ratio (z) = 0.02454 0.46263
#
# Static dielectric constant tensor:
#      x y z
#    x 3.782550 0.000000 0.292080 
#    y 0.000000 4.536220 0.000000 
#    z 0.292080 0.000000 3.446570 
# 
# 
# High freq. dielectric constant tensor:
#      x y z
#    x 1.789000 0.000000 0.029490 
#    y 0.000000 1.783330 0.000000 
#    z 0.029490 0.000000 1.745540 
# 
# From -- ./inp_files/15721.got.cif
#   From: 2010.06.25/outbox.cif.g09.slc.cpg/sg10_8_cif.got.tgz:15721.got - 2010.06.27 22:07:45.
