data_PCOD8060340
_publ_section_title
;
Structure prediction by ZEFSAII (Michael W. Deem and Ramdas Pophale) SiO2 
 PCOD8060340
Probable space group: P 2/M
;
_chemical_formula_sum "Si O2"
_cell_formula_units_Z 20
_cell_length_a 10.249353
_cell_length_b 7.796160
_cell_length_c 19.381824
_cell_angle_alpha 90.000000
_cell_angle_beta 45.403812
_cell_angle_gamma 90.000000
_cell_volume 1102.798616
_symmetry_space_group_name_H-M "P 2/M"
_symmetry_group_IT_number 10
_symmetry_cell_setting 'monoclinic'
loop_
_space_group_symop_operation_xyz
x,y,z
-x,y,-z
-x,-y,-z
x,-y,z
loop_
_atom_site_type_symbol
_atom_site_label
_atom_site_fract_x
_atom_site_fract_y
_atom_site_fract_z
Si Si1 0.459265 0.808144 0.316698
Si Si2 0.787396 0.191687 0.299032
Si Si3 0.706565 0.305963 0.113105
Si Si4 0.961435 0.305970 0.904713
Si Si5 0.205893 0.500000 0.448004
Si Si6 0.282774 0.500000 0.578243
O O1 0.616117 0.760899 0.313815
O O2 0.542118 0.802810 0.208034
O O3 0.298967 0.671186 0.383750
O O4 0.382919 0.000000 0.357772
O O5 0.794814 0.328385 0.357484
O O6 0.977427 0.197100 0.184743
O O7 0.766519 0.000000 0.337540
O O8 0.636519 0.500000 0.129885
O O9 0.876272 0.301266 0.101175
O O10 0.777776 0.234270 0.011903
O O11 0.925806 0.500000 0.893406
O O12 0.208833 0.500000 0.528925
O O13 0.000000 0.500000 0.500000
O O14 0.500000 0.500000 0.500000
#
# Coordination Sequence:
#
# PCOD8060340 Si02
#       6
#     4   4   4   4   2   2
#     4  10  19  33  54  80 108 140 179 218 264 319
#     4  10  19  31  53  83 111 139 175 215 264 319
#     4   8  13  23  44  72 108 146 171 201 253 315
#     4   8  13  23  42  73 112 144 168 202 254 310
#     4  12  26  42  57  75 103 139 182 230 274 313
#     4  12  22  38  59  75 103 139 180 226 270 316
#
# _framework density 18.135679
#
# number of rings (size 3 to 8) (size 9 to 14) (size 15 to 20)
#    0.000    2.400    4.000    1.200    0.000    2.400 
#    0.000    4.000    0.000    0.000    0.000    2.800 
#    0.000    3.200    0.000    0.000    0.000    0.000 
#
# Total GULP energy -247800.282608 kJ/mol
# GULP energy per Si atom -12390.014130 kJ/mol
# Density = 1.809440 g / cm^3
# Si number density = 18.135679 Si / 1000 Ang^3
#
#
#
# Elastic Constant Matrix: (Units=GPa)
#
#
# Indices 1 2 3 4 5 6 
#
# 1 52.4434 28.5727 44.6832 0.0000 -1.7684 0.0000
# 2 28.5727 112.8595 66.4586 0.0000 -2.5487 0.0000
# 3 44.6832 66.4586 136.9213 0.0000 4.8827 0.0000
# 4 0.0000 0.0000 0.0000 10.6078 0.0000 -2.5216
# 5 -1.7684 -2.5487 4.8827 0.0000 12.1025 0.0000
# 6 0.0000 0.0000 0.0000 -2.5216 0.0000 8.0324
#
#
#
# Elastic Compliance Matrix: (Units=1/GPa)
#
#
# Indices 1 2 3 4 5 6 
#
# 1 0.027375 -0.001916 -0.008251 0.000000 0.006925 0.000000
# 2 -0.001916 0.012861 -0.005787 0.000000 0.004763 0.000000
# 3 -0.008251 -0.005787 0.013080 0.000000 -0.007701 0.000000
# 4 0.000000 0.000000 0.000000 0.101872 0.000000 0.031980
# 5 0.006925 0.004763 -0.007701 0.000000 0.087750 0.000000
# 6 0.000000 0.000000 0.000000 0.031980 0.000000 0.134535
#
#
# Mechanical properties :
#
#
# Convention : Reuss Voigt Hill
#
# Bulk Modulus (GPa) = 46.71004 64.62812 55.66908
# Shear Modulus (GPa) = 12.00433 16.98254 14.49343
#
# Velocity S-wave (km/s) = 2.57557 3.06341 2.83002
# Velocity P-wave (km/s) = 5.88698 6.94449 6.43749
#
# Compressibility (1/GPa) = 0.02140867
#
# Stress axis : x y z
#
# Youngs Moduli (GPa) = 36.52923 77.75491 76.45462
#
# Poissons Ratio (x) = 0.14895 0.63082
# Poissons Ratio (y) = 0.06998 0.44245
# Poissons Ratio (z) = 0.30140 0.44998
#
# Static dielectric constant tensor:
#      x y z
#    x 2.525940 0.000000 0.118640 
#    y 0.000000 3.351110 0.000000 
#    z 0.118640 0.000000 4.045310 
# 
# 
# High freq. dielectric constant tensor:
#      x y z
#    x 1.604380 0.000000 0.011540 
#    y 0.000000 1.706540 0.000000 
#    z 0.011540 0.000000 1.726100 
# 
# From -- ./inp_files/72077.got.cif
#   From: 2010.06.25/outbox.cif.g09.slc.cpg/sg10_37_cif.got.tgz:72077.got - 2010.06.27 22:07:45.
