data_PCOD8060722
_publ_section_title
;
Structure prediction by ZEFSAII (Michael W. Deem and Ramdas Pophale) SiO2 
 PCOD8060722
Probable space group: P 2/M
;
_chemical_formula_sum "Si O2"
_cell_formula_units_Z 28
_cell_length_a 8.652405
_cell_length_b 13.868367
_cell_length_c 13.939188
_cell_angle_alpha 90.000000
_cell_angle_beta 70.351402
_cell_angle_gamma 90.000000
_cell_volume 1575.236206
_symmetry_space_group_name_H-M "P 2/M"
_symmetry_group_IT_number 10
_symmetry_cell_setting 'monoclinic'
loop_
_space_group_symop_operation_xyz
x,y,z
-x,y,-z
-x,-y,-z
x,-y,z
loop_
_atom_site_type_symbol
_atom_site_label
_atom_site_fract_x
_atom_site_fract_y
_atom_site_fract_z
Si Si1 0.389403 0.107352 0.402265
Si Si2 0.546203 0.609710 0.208831
Si Si3 0.899925 0.203160 0.429959
Si Si4 0.831832 0.390947 0.998859
Si Si5 0.355521 0.264784 0.104411
Si Si6 0.808209 0.890865 0.743940
Si Si7 0.608364 0.289014 0.393544
O O1 0.229963 0.126831 0.500977
O O2 0.336317 0.114246 0.303318
O O3 0.537424 0.181372 0.389521
O O4 0.454588 0.000000 0.411864
O O5 0.478105 0.500000 0.227402
O O6 0.413374 0.680829 0.189110
O O7 0.594900 0.644264 0.304131
O O8 0.707345 0.614177 0.112001
O O9 0.797287 0.283034 0.390999
O O10 0.000000 0.249244 0.500000
O O11 0.022260 0.151586 0.331292
O O12 0.862066 0.500000 0.958719
O O13 0.771275 0.335933 0.918627
O O14 0.000000 0.342973 0.000000
O O15 0.257279 0.168318 0.151102
O O16 0.500000 0.238405 0.000000
O O17 0.841105 0.000000 0.770614
O O18 0.500000 0.338078 0.500000
#
# Coordination Sequence:
#
# PCOD8060722 Si02
#       7
#     4   4   4   4   4   4   4
#     4   9  17  32  52  76 104 135 177 218 254 302
#     4  10  20  36  56  79 104 133 174 218 265 311
#     4   9  19  32  50  75 105 140 174 217 257 301
#     4   9  19  35  57  82 102 128 172 224 269 307
#     4  10  20  35  56  78 104 140 175 215 260 308
#     4  10  19  32  52  78 107 139 173 211 260 310
#     4  10  20  33  53  79 107 140 174 210 260 312
#
# _framework density 17.775110999999999
#
# number of rings (size 3 to 8) (size 9 to 14) (size 15 to 20)
#    0.000    2.429    1.429    0.857    2.000    7.143 
#    0.000    0.000    0.000    0.857    0.000    0.000 
#    0.000    0.000    0.000    0.000    0.000    0.000 
#
# Total GULP energy -347100.269408 kJ/mol
# GULP energy per Si atom -12396.438193 kJ/mol
# Density = 1.773465 g / cm^3
# Si number density = 17.775111 Si / 1000 Ang^3
#
#
#
# Elastic Constant Matrix: (Units=GPa)
#
#
# Indices 1 2 3 4 5 6 
#
# 1 103.9937 34.9551 35.1546 0.0000 7.8986 0.0000
# 2 34.9551 76.5932 55.5958 0.0000 -0.1142 0.0000
# 3 35.1546 55.5958 81.4853 0.0000 17.7382 0.0000
# 4 0.0000 0.0000 0.0000 20.6626 0.0000 4.8475
# 5 7.8986 -0.1142 17.7382 0.0000 22.1298 0.0000
# 6 0.0000 0.0000 0.0000 4.8475 0.0000 16.8527
#
#
#
# Elastic Compliance Matrix: (Units=1/GPa)
#
#
# Indices 1 2 3 4 5 6 
#
# 1 0.011798 -0.004308 -0.001489 0.000000 -0.003040 0.000000
# 2 -0.004308 0.034369 -0.026606 0.000000 0.023041 0.000000
# 3 -0.001489 -0.026606 0.037530 0.000000 -0.029688 0.000000
# 4 0.000000 0.000000 0.000000 0.051899 0.000000 -0.014928
# 5 -0.003040 0.023041 -0.029688 0.000000 0.070189 0.000000
# 6 0.000000 0.000000 0.000000 -0.014928 0.000000 0.063632
#
#
# Mechanical properties :
#
#
# Convention : Reuss Voigt Hill
#
# Bulk Modulus (GPa) = 52.93681 57.05371 54.99526
# Shear Modulus (GPa) = 14.68340 21.02011 17.85175
#
# Velocity S-wave (km/s) = 2.87725 3.44257 3.17253
# Velocity P-wave (km/s) = 6.39407 6.92596 6.66532
#
# Compressibility (1/GPa) = 0.01889045
#
# Stress axis : x y z
#
# Youngs Moduli (GPa) = 84.75813 29.09600 26.64518
#
# Poissons Ratio (x) = 0.12535 0.03967
# Poissons Ratio (y) = 0.36516 0.70893
# Poissons Ratio (z) = 0.12620 0.77414
#
# Static dielectric constant tensor:
#      x y z
#    x 3.461280 0.000000 0.101970 
#    y 0.000000 3.185270 0.000000 
#    z 0.101970 0.000000 3.250910 
# 
# 
# High freq. dielectric constant tensor:
#      x y z
#    x 1.693860 0.000000 0.007800 
#    y 0.000000 1.667040 0.000000 
#    z 0.007800 0.000000 1.684410 
# 
# From -- ./inp_files/60928.got.cif
#   From: 2010.06.25/outbox.cif.g09.slc.cpg/sg10_31_cif.got.tgz:60928.got - 2010.06.27 22:07:45.
