data_PCOD8060424
_publ_section_title
;
Structure prediction by ZEFSAII (Michael W. Deem and Ramdas Pophale) SiO2 
 PCOD8060424
Probable space group: P 2/M
;
_chemical_formula_sum "Si O2"
_cell_formula_units_Z 28
_cell_length_a 13.518305
_cell_length_b 8.920712
_cell_length_c 14.599159
_cell_angle_alpha 90.000000
_cell_angle_beta 122.465565
_cell_angle_gamma 90.000000
_cell_volume 1485.405279
_symmetry_space_group_name_H-M "P 2/M"
_symmetry_group_IT_number 10
_symmetry_cell_setting 'monoclinic'
loop_
_space_group_symop_operation_xyz
x,y,z
-x,y,-z
-x,-y,-z
x,-y,z
loop_
_atom_site_type_symbol
_atom_site_label
_atom_site_fract_x
_atom_site_fract_y
_atom_site_fract_z
Si Si1 0.681196 0.826838 0.739096
Si Si2 0.003219 0.821360 0.397261
Si Si3 0.435951 0.676983 0.617536
Si Si4 0.307651 0.176487 0.054899
Si Si5 0.782673 0.177790 0.176124
Si Si6 0.235753 0.826428 0.411493
Si Si7 0.572600 0.823545 0.199102
O O1 0.565190 0.734640 0.657890
O O2 0.735049 0.773458 0.864349
O O3 0.776169 0.806421 0.705092
O O4 0.642526 0.000000 0.729588
O O5 0.119951 0.764424 0.403937
O O6 0.000000 0.760130 0.500000
O O7 0.893391 0.753863 0.285758
O O8 0.998547 0.000000 0.395734
O O9 0.438467 0.500000 0.621681
O O10 0.347768 0.730959 0.495587
O O11 0.387963 0.740940 0.689163
O O12 0.442042 0.228329 0.106422
O O13 0.301404 0.000000 0.041060
O O14 0.225813 0.242786 0.932578
O O15 0.662043 0.225470 0.164822
O O16 0.796587 0.000000 0.182595
O O17 0.256232 0.000000 0.447090
O O18 0.578523 0.000000 0.220907
#
# Coordination Sequence:
#
# PCOD8060424 Si02
#       7
#     4   4   4   4   4   4   4
#     4   9  18  32  49  69  95 125 155 191 236 285
#     4   9  17  28  44  69  97 123 156 197 234 270
#     4  11  21  31  47  72  98 123 154 195 240 283
#     4   8  14  25  43  70  98 122 154 194 234 276
#     4   9  15  25  46  73  97 124 160 198 231 269
#     4  10  19  32  49  68  93 127 162 193 232 281
#     4   9  16  28  48  72  98 127 156 189 233 284
#
# _framework density 18.850075
#
# number of rings (size 3 to 8) (size 9 to 14) (size 15 to 20)
#    0.000    2.714    0.000    3.857    0.000    6.286 
#    0.000    0.714    0.000   15.000    0.000    0.000 
#    0.000    5.714    0.000    0.000    0.000    0.000 
#
# Total GULP energy -347016.075251 kJ/mol
# GULP energy per Si atom -12393.431259 kJ/mol
# Density = 1.880717 g / cm^3
# Si number density = 18.850075 Si / 1000 Ang^3
#
#
#
# Elastic Constant Matrix: (Units=GPa)
#
#
# Indices 1 2 3 4 5 6 
#
# 1 110.7701 16.4420 70.5690 0.0000 -26.6664 0.0000
# 2 16.4420 38.0312 15.6438 0.0000 -4.7470 0.0000
# 3 70.5690 15.6438 160.5039 0.0000 -19.4238 0.0000
# 4 0.0000 0.0000 0.0000 2.1070 0.0000 -1.4432
# 5 -26.6664 -4.7470 -19.4238 0.0000 26.6000 0.0000
# 6 0.0000 0.0000 0.0000 -1.4432 0.0000 4.4707
#
#
#
# Elastic Compliance Matrix: (Units=1/GPa)
#
#
# Indices 1 2 3 4 5 6 
#
# 1 0.015464 -0.003177 -0.005136 0.000000 0.011185 0.000000
# 2 -0.003177 0.028299 -0.001246 0.000000 0.000956 0.000000
# 3 -0.005136 -0.001246 0.008731 0.000000 0.001005 0.000000
# 4 0.000000 0.000000 0.000000 0.609321 0.000000 0.196692
# 5 0.011185 0.000956 0.001005 0.000000 0.049711 0.000000
# 6 0.000000 0.000000 0.000000 0.196692 0.000000 0.287173
#
#
# Mechanical properties :
#
#
# Convention : Reuss Voigt Hill
#
# Bulk Modulus (GPa) = 29.95989 57.17942 43.56966
# Shear Modulus (GPa) = 4.85936 20.41225 12.63581
#
# Velocity S-wave (km/s) = 1.60733 3.29427 2.59189
# Velocity P-wave (km/s) = 4.40147 6.69846 5.66755
#
# Compressibility (1/GPa) = 0.03337796
#
# Stress axis : x y z
#
# Youngs Moduli (GPa) = 64.66713 35.33645 114.52824
#
# Poissons Ratio (x) = 0.11226 0.58819
# Poissons Ratio (y) = 0.20543 0.14268
# Poissons Ratio (z) = 0.33212 0.04402
#
# Static dielectric constant tensor:
#      x y z
#    x 3.486340 0.000000 -0.228520 
#    y 0.000000 2.869950 0.000000 
#    z -0.228520 0.000000 3.825450 
# 
# 
# High freq. dielectric constant tensor:
#      x y z
#    x 1.725030 0.000000 -0.021730 
#    y 0.000000 1.668640 0.000000 
#    z -0.021730 0.000000 1.740380 
# 
# From -- ./inp_files/49605.got.cif
#   From: 2010.06.25/outbox.cif.g09.slc.cpg/sg10_25_cif.got.tgz:49605.got - 2010.06.27 22:07:45.
