data_PCOD8060510
_publ_section_title
;
Structure prediction by ZEFSAII (Michael W. Deem and Ramdas Pophale) SiO2 
 PCOD8060510
Probable space group: P 2/M
;
_chemical_formula_sum "Si O2"
_cell_formula_units_Z 32
_cell_length_a 15.715470
_cell_length_b 16.699271
_cell_length_c 13.505968
_cell_angle_alpha 90.000000
_cell_angle_beta 27.476298
_cell_angle_gamma 90.000000
_cell_volume 1635.350727
_symmetry_space_group_name_H-M "P 2/M"
_symmetry_group_IT_number 10
_symmetry_cell_setting 'monoclinic'
loop_
_space_group_symop_operation_xyz
x,y,z
-x,y,-z
-x,-y,-z
x,-y,z
loop_
_atom_site_type_symbol
_atom_site_label
_atom_site_fract_x
_atom_site_fract_y
_atom_site_fract_z
Si Si1 0.487267 0.092582 0.396832
Si Si2 0.292733 0.259733 0.211873
Si Si3 0.820793 0.134300 0.934205
Si Si4 0.706451 0.595006 0.300470
Si Si5 0.907234 0.088975 0.190213
Si Si6 0.208031 0.912285 0.253141
Si Si7 0.977892 0.290746 0.685345
Si Si8 0.008283 0.405352 0.832352
O O1 0.500000 0.105248 0.500000
O O2 0.631045 0.148188 0.189617
O O3 0.285535 0.127175 0.574936
O O4 0.521324 0.000000 0.330859
O O5 0.320276 0.163001 0.179238
O O6 0.184062 0.296279 0.229785
O O7 0.178505 0.280829 0.428059
O O8 0.500000 0.296556 0.000000
O O9 0.778711 0.086196 0.878474
O O10 0.927707 0.216990 0.807410
O O11 0.954038 0.080493 0.862767
O O12 0.500000 0.631620 0.500000
O O13 0.695485 0.500000 0.313496
O O14 0.805798 0.622645 0.300682
O O15 0.830822 0.622263 0.079195
O O16 0.851869 0.000000 0.209209
O O17 0.000000 0.134684 0.000000
O O18 0.000000 0.896312 0.500000
O O19 0.277460 0.000000 0.220618
O O20 0.992716 0.368378 0.738955
O O21 0.010030 0.500000 0.815648
#
# Coordination Sequence:
#
# PCOD8060510 Si02
#       8
#     4   4   4   4   4   4   4   4
#     4  10  19  32  50  73 103 142 185 220 260 324
#     4  10  21  41  61  79 112 150 184 233 296 350
#     4  11  20  35  53  75 108 142 179 231 282 333
#     4   8  15  31  56  88 121 150 183 224 269 319
#     4  10  19  32  51  72 101 145 184 218 265 319
#     4  10  19  36  59  81 106 139 185 243 289 331
#     4  10  22  40  56  82 111 145 186 232 292 349
#     4   9  18  35  60  86 117 154 190 229 276 335
#
# _framework density 19.567668000000001
#
# number of rings (size 3 to 8) (size 9 to 14) (size 15 to 20)
#    0.000    2.250    3.750    1.875    0.000    3.250 
#    2.250    1.875    0.000    0.750    0.000    0.000 
#    0.000    0.000    0.000    0.000    0.000    0.000 
#
# Total GULP energy -396540.392136 kJ/mol
# GULP energy per Si atom -12391.887254 kJ/mol
# Density = 1.952313 g / cm^3
# Si number density = 19.567668 Si / 1000 Ang^3
#
#
#
# Elastic Constant Matrix: (Units=GPa)
#
#
# Indices 1 2 3 4 5 6 
#
# 1 89.1080 32.5602 74.4795 0.0000 -5.4703 0.0000
# 2 32.5602 47.5504 29.1175 0.0000 6.0620 0.0000
# 3 74.4795 29.1175 176.0319 0.0000 -12.1238 0.0000
# 4 0.0000 0.0000 0.0000 14.5698 0.0000 5.9799
# 5 -5.4703 6.0620 -12.1238 0.0000 40.4066 0.0000
# 6 0.0000 0.0000 0.0000 5.9799 0.0000 15.3889
#
#
#
# Elastic Compliance Matrix: (Units=1/GPa)
#
#
# Indices 1 2 3 4 5 6 
#
# 1 0.021029 -0.010394 -0.007020 0.000000 0.002300 0.000000
# 2 -0.010394 0.029475 -0.000898 0.000000 -0.006098 0.000000
# 3 -0.007020 -0.000898 0.008928 0.000000 0.001863 0.000000
# 4 0.000000 0.000000 0.000000 0.081659 0.000000 -0.031731
# 5 0.002300 -0.006098 0.001863 0.000000 0.026534 0.000000
# 6 0.000000 0.000000 0.000000 -0.031731 0.000000 0.077312
#
#
# Mechanical properties :
#
#
# Convention : Reuss Voigt Hill
#
# Bulk Modulus (GPa) = 43.84365 65.00049 54.42207
# Shear Modulus (GPa) = 17.29133 25.84192 21.56663
#
# Velocity S-wave (km/s) = 2.97588 3.63801 3.32348
# Velocity P-wave (km/s) = 5.85343 7.13703 6.52686
#
# Compressibility (1/GPa) = 0.02280832
#
# Stress axis : x y z
#
# Youngs Moduli (GPa) = 47.55365 33.92711 112.01228
#
# Poissons Ratio (x) = 0.35265 0.78628
# Poissons Ratio (y) = 0.49429 0.10054
# Poissons Ratio (z) = 0.33381 0.03045
#
# Static dielectric constant tensor:
#      x y z
#    x 3.497910 0.000000 -0.105810 
#    y 0.000000 3.110930 0.000000 
#    z -0.105810 0.000000 3.904450 
# 
# 
# High freq. dielectric constant tensor:
#      x y z
#    x 1.757590 0.000000 -0.002410 
#    y 0.000000 1.714230 0.000000 
#    z -0.002410 0.000000 1.777860 
# 
# From -- ./inp_files/51929.got.cif
#   From: 2010.06.25/outbox.cif.g09.slc.cpg/sg10_26_cif.got.tgz:51929.got - 2010.06.27 22:07:45.
