data_PCOD8060545
_publ_section_title
;
Structure prediction by ZEFSAII (Michael W. Deem and Ramdas Pophale) SiO2 
 PCOD8060545
Probable space group: P 2/M
;
_chemical_formula_sum "Si O2"
_cell_formula_units_Z 28
_cell_length_a 17.265936
_cell_length_b 7.693930
_cell_length_c 20.729028
_cell_angle_alpha 90.000000
_cell_angle_beta 34.122791
_cell_angle_gamma 90.000000
_cell_volume 1544.740889
_symmetry_space_group_name_H-M "P 2/M"
_symmetry_group_IT_number 10
_symmetry_cell_setting 'monoclinic'
loop_
_space_group_symop_operation_xyz
x,y,z
-x,y,-z
-x,-y,-z
x,-y,z
loop_
_atom_site_type_symbol
_atom_site_label
_atom_site_fract_x
_atom_site_fract_y
_atom_site_fract_z
Si Si1 0.220809 0.000000 0.863750
Si Si2 0.902864 0.802315 0.510035
Si Si3 0.391729 0.302656 0.256328
Si Si4 0.371263 0.292262 0.128453
Si Si5 0.931713 0.699592 0.867489
Si Si6 0.336115 0.701752 0.863598
Si Si7 0.913301 0.295680 0.731442
Si Si8 0.951944 0.000000 0.134943
O O1 0.302117 0.823273 0.825766
O O2 0.190401 0.000000 0.807857
O O3 0.078192 0.000000 0.999445
O O4 0.755653 0.706974 0.606691
O O5 0.000000 0.720070 0.500000
O O6 0.969706 0.789631 0.393504
O O7 0.872564 0.000000 0.549299
O O8 0.435706 0.500000 0.214832
O O9 0.380030 0.213029 0.194354
O O10 0.517390 0.224190 0.211332
O O11 0.369634 0.500000 0.130145
O O12 0.233324 0.220466 0.190305
O O13 0.500000 0.218970 0.000000
O O14 0.979493 0.500000 0.843980
O O15 0.933521 0.755027 0.791671
O O16 0.777573 0.725621 0.001667
O O17 0.041383 0.824977 0.826869
O O18 0.342465 0.500000 0.836476
O O19 0.920337 0.500000 0.716200
#
# Coordination Sequence:
#
# PCOD8060545 Si02
#       8
#     2   4   4   4   4   4   4   2
#     4   9  18  32  52  78 107 140 170 200 251 317
#     4  11  23  35  47  67  99 136 177 224 262 296
#     4  10  19  32  51  71  96 133 174 213 256 299
#     4   9  16  27  47  72  96 127 168 209 250 300
#     4   9  18  32  51  78 109 137 169 212 257 306
#     4   9  18  32  51  78 109 137 169 212 257 306
#     4  10  19  32  51  71  96 133 174 213 256 299
#     4   9  18  32  52  78 107 140 170 200 251 317
#
# _framework density 18.126016
#
# number of rings (size 3 to 8) (size 9 to 14) (size 15 to 20)
#    0.000    2.429    1.429    1.286    2.000    4.571 
#    0.000    2.857    0.000    0.857    0.000    2.000 
#    0.000    4.571    0.000    0.000    0.000    0.000 
#
# Total GULP energy -347125.603996 kJ/mol
# GULP energy per Si atom -12397.343000 kJ/mol
# Density = 1.808476 g / cm^3
# Si number density = 18.126016 Si / 1000 Ang^3
#
#
#
# Elastic Constant Matrix: (Units=GPa)
#
#
# Indices 1 2 3 4 5 6 
#
# 1 166.4795 57.2463 55.9191 0.0000 2.1143 0.0000
# 2 57.2463 68.3494 17.0541 0.0000 1.7094 0.0000
# 3 55.9191 17.0541 97.7564 0.0000 -2.9264 0.0000
# 4 0.0000 0.0000 0.0000 11.6387 0.0000 2.2530
# 5 2.1143 1.7094 -2.9264 0.0000 13.1309 0.0000
# 6 0.0000 0.0000 0.0000 2.2530 0.0000 17.2592
#
#
#
# Elastic Compliance Matrix: (Units=1/GPa)
#
#
# Indices 1 2 3 4 5 6 
#
# 1 0.010037 -0.007234 -0.004530 0.000000 -0.001684 0.000000
# 2 -0.007234 0.020600 0.000502 0.000000 -0.001405 0.000000
# 3 -0.004530 0.000502 0.012839 0.000000 0.003525 0.000000
# 4 0.000000 0.000000 0.000000 0.088148 0.000000 -0.011507
# 5 -0.001684 -0.001405 0.003525 0.000000 0.077396 0.000000
# 6 0.000000 0.000000 0.000000 -0.011507 0.000000 0.059442
#
#
# Mechanical properties :
#
#
# Convention : Reuss Voigt Hill
#
# Bulk Modulus (GPa) = 47.72834 65.89157 56.80996
# Shear Modulus (GPa) = 16.78025 21.89681 19.33853
#
# Velocity S-wave (km/s) = 3.04592 3.47945 3.26988
# Velocity P-wave (km/s) = 6.22565 7.25072 6.75765
#
# Compressibility (1/GPa) = 0.02095191
#
# Stress axis : x y z
#
# Youngs Moduli (GPa) = 99.62772 48.54440 77.89000
#
# Poissons Ratio (x) = 0.35119 0.35284
# Poissons Ratio (y) = 0.72075 -0.03914
# Poissons Ratio (z) = 0.45131 -0.02439
#
# Static dielectric constant tensor:
#      x y z
#    x 3.492480 0.000000 -0.013780 
#    y 0.000000 3.234200 0.000000 
#    z -0.013780 0.000000 3.115680 
# 
# 
# High freq. dielectric constant tensor:
#      x y z
#    x 1.688990 0.000000 -0.001340 
#    y 0.000000 1.699320 0.000000 
#    z -0.001340 0.000000 1.677440 
# 
# From -- ./inp_files/55041.got.cif
#   From: 2010.06.25/outbox.cif.g09.slc.cpg/sg10_28_cif.got.tgz:55041.got - 2010.06.27 22:07:45.
