data_PCOD8060771
_publ_section_title
;
Structure prediction by ZEFSAII (Michael W. Deem and Ramdas Pophale) SiO2 
 PCOD8060771
Probable space group: P 2/M
;
_chemical_formula_sum "Si O2"
_cell_formula_units_Z 28
_cell_length_a 9.418179
_cell_length_b 13.598703
_cell_length_c 15.549466
_cell_angle_alpha 90.000000
_cell_angle_beta 124.634458
_cell_angle_gamma 90.000000
_cell_volume 1638.594156
_symmetry_space_group_name_H-M "P 2/M"
_symmetry_group_IT_number 10
_symmetry_cell_setting 'monoclinic'
loop_
_space_group_symop_operation_xyz
x,y,z
-x,y,-z
-x,-y,-z
x,-y,z
loop_
_atom_site_type_symbol
_atom_site_label
_atom_site_fract_x
_atom_site_fract_y
_atom_site_fract_z
Si Si1 0.245860 0.110043 0.153233
Si Si2 0.359848 0.391520 0.526281
Si Si3 0.757234 0.304486 0.122760
Si Si4 0.609940 0.699074 0.734850
Si Si5 0.857079 0.889156 0.073871
Si Si6 0.115806 0.615938 0.300050
Si Si7 0.570913 0.613911 0.903957
O O1 0.382123 0.185336 0.241121
O O2 0.058436 0.130409 0.128210
O O3 0.307163 0.000000 0.197134
O O4 0.243320 0.125413 0.050088
O O5 0.500000 0.397559 0.500000
O O6 0.334998 0.500000 0.558755
O O7 0.426631 0.319301 0.624341
O O8 0.183259 0.354978 0.419590
O O9 0.784692 0.187755 0.118520
O O10 0.593263 0.319520 0.127613
O O11 0.919037 0.352091 0.226287
O O12 0.729651 0.357998 0.021338
O O13 0.772861 0.670430 0.733514
O O14 0.625758 0.634060 0.825769
O O15 0.827046 0.000000 0.098380
O O16 0.138290 0.500000 0.293988
O O17 0.523531 0.500000 0.900209
#
# Coordination Sequence:
#
# PCOD8060771 Si02
#       7
#     4   4   4   4   4   4   4
#     4   9  17  30  50  77 102 125 162 217 262 289
#     4   8  16  30  48  73 100 127 164 215 253 281
#     4  11  20  35  49  70 103 141 166 200 249 304
#     4  11  18  32  53  74  99 132 170 204 253 301
#     4   9  17  32  51  73 100 130 168 213 253 293
#     4  10  19  32  53  74  96 133 178 208 240 302
#     4  11  23  34  46  72 112 140 157 203 260 296
#
# _framework density 17.087819
#
# number of rings (size 3 to 8) (size 9 to 14) (size 15 to 20)
#    0.000    2.143    2.857    4.714    0.000    0.571 
#    0.000    4.286    0.000    7.286    0.000    0.000 
#    0.000    2.286    0.000    0.000    0.000    0.000 
#
# Total GULP energy -347141.011343 kJ/mol
# GULP energy per Si atom -12397.893262 kJ/mol
# Density = 1.704893 g / cm^3
# Si number density = 17.087819 Si / 1000 Ang^3
#
#
#
# Elastic Constant Matrix: (Units=GPa)
#
#
# Indices 1 2 3 4 5 6 
#
# 1 23.3286 18.7032 21.1168 0.0000 7.1787 0.0000
# 2 18.7032 116.6483 50.1129 0.0000 3.2915 0.0000
# 3 21.1168 50.1129 130.3603 0.0000 16.9178 0.0000
# 4 0.0000 0.0000 0.0000 27.1472 0.0000 -0.7000
# 5 7.1787 3.2915 16.9178 0.0000 20.6145 0.0000
# 6 0.0000 0.0000 0.0000 -0.7000 0.0000 22.5955
#
#
#
# Elastic Compliance Matrix: (Units=1/GPa)
#
#
# Indices 1 2 3 4 5 6 
#
# 1 0.057124 -0.006702 -0.004739 0.000000 -0.014933 0.000000
# 2 -0.006702 0.011114 -0.003648 0.000000 0.003553 0.000000
# 3 -0.004739 -0.003648 0.010690 0.000000 -0.006540 0.000000
# 4 0.000000 0.000000 0.000000 0.036866 0.000000 0.001142
# 5 -0.014933 0.003553 -0.006540 0.000000 0.058510 0.000000
# 6 0.000000 0.000000 0.000000 0.001142 0.000000 0.044292
#
#
# Mechanical properties :
#
#
# Convention : Reuss Voigt Hill
#
# Bulk Modulus (GPa) = 20.51273 50.02255 35.26764
# Shear Modulus (GPa) = 18.86626 26.09842 22.48234
#
# Velocity S-wave (km/s) = 3.32637 3.91232 3.63118
# Velocity P-wave (km/s) = 5.17526 7.05306 6.18583
#
# Compressibility (1/GPa) = 0.04875021
#
# Stress axis : x y z
#
# Youngs Moduli (GPa) = 17.50579 89.97422 93.54677
#
# Poissons Ratio (x) = 0.60299 0.44332
# Poissons Ratio (y) = 0.11732 0.34126
# Poissons Ratio (z) = 0.08296 0.32823
#
# Static dielectric constant tensor:
#      x y z
#    x 2.842480 0.000000 0.069230 
#    y 0.000000 3.243220 0.000000 
#    z 0.069230 0.000000 3.444620 
# 
# 
# High freq. dielectric constant tensor:
#      x y z
#    x 1.629870 0.000000 0.003760 
#    y 0.000000 1.658940 0.000000 
#    z 0.003760 0.000000 1.653420 
# 
# From -- ./inp_files/29195.got.cif
#   From: 2010.06.25/outbox.cif.g09.slc.cpg/sg10_15_cif.got.tgz:29195.got - 2010.06.27 22:07:45.
