data_PCOD8060478
_publ_section_title
;
Structure prediction by ZEFSAII (Michael W. Deem and Ramdas Pophale) SiO2 
 PCOD8060478
Probable space group: P 2/M
;
_chemical_formula_sum "Si O2"
_cell_formula_units_Z 24
_cell_length_a 12.502329
_cell_length_b 8.994217
_cell_length_c 12.354690
_cell_angle_alpha 90.000000
_cell_angle_beta 85.114368
_cell_angle_gamma 90.000000
_cell_volume 1384.220686
_symmetry_space_group_name_H-M "P 2/M"
_symmetry_group_IT_number 10
_symmetry_cell_setting 'monoclinic'
loop_
_space_group_symop_operation_xyz
x,y,z
-x,y,-z
-x,-y,-z
x,-y,z
loop_
_atom_site_type_symbol
_atom_site_label
_atom_site_fract_x
_atom_site_fract_y
_atom_site_fract_z
Si Si1 0.625540 0.836424 0.466952
Si Si2 0.184496 0.172845 0.145865
Si Si3 0.764858 0.173862 0.105088
Si Si4 0.975032 0.332577 0.128278
Si Si5 0.407417 0.324425 0.740487
Si Si6 0.365215 0.824811 0.297635
O O1 0.500000 0.845096 0.500000
O O2 0.649193 0.721710 0.368306
O O3 0.677754 0.786756 0.577135
O O4 0.667893 0.000000 0.428393
O O5 0.274032 0.226430 0.222508
O O6 0.075447 0.260914 0.182473
O O7 0.158005 0.000000 0.161012
O O8 0.227549 0.208537 0.022668
O O9 0.868031 0.237835 0.159983
O O10 0.658341 0.255222 0.154910
O O11 0.756818 0.000000 0.129842
O O12 0.957050 0.500000 0.171794
O O13 0.000000 0.329190 0.000000
O O14 0.407114 0.500000 0.749967
O O15 0.528000 0.265440 0.739405
O O16 0.391341 0.000000 0.285470
#
# Coordination Sequence:
#
# PCOD8060478 Si02
#       6
#     4   4   4   4   4   4
#     4   8  15  30  50  68  89 121 159 195 231 276
#     4   9  18  32  51  73  95 124 160 194 230 278
#     4  10  19  32  50  70  95 127 162 195 230 277
#     4   9  17  30  48  70  96 124 156 194 234 276
#     4  11  21  31  46  70  99 127 158 196 238 280
#     4   9  18  33  51  71  96 125 158 194 233 280
#
# _framework density 17.338274999999999
#
# number of rings (size 3 to 8) (size 9 to 14) (size 15 to 20)
#    0.000    2.667    0.000    3.500    0.000    7.000 
#    0.000    3.333    0.000    1.000    0.000    7.000 
#    0.000    0.000    0.000    0.000    0.000    0.000 
#
# Total GULP energy -297550.907136 kJ/mol
# GULP energy per Si atom -12397.954464 kJ/mol
# Density = 1.729881 g / cm^3
# Si number density = 17.338275 Si / 1000 Ang^3
#
#
#
# Elastic Constant Matrix: (Units=GPa)
#
#
# Indices 1 2 3 4 5 6 
#
# 1 78.1063 39.1248 40.7793 0.0000 29.3439 0.0000
# 2 39.1248 93.7809 30.6682 0.0000 16.7689 0.0000
# 3 40.7793 30.6682 67.1956 0.0000 27.1712 0.0000
# 4 0.0000 0.0000 0.0000 18.3925 0.0000 -2.4038
# 5 29.3439 16.7689 27.1712 0.0000 18.7448 0.0000
# 6 0.0000 0.0000 0.0000 -2.4038 0.0000 20.5393
#
#
#
# Elastic Compliance Matrix: (Units=1/GPa)
#
#
# Indices 1 2 3 4 5 6 
#
# 1 0.033579 -0.005765 0.003438 0.000000 -0.052393 0.000000
# 2 -0.005765 0.013922 -0.003548 0.000000 0.001714 0.000000
# 3 0.003438 -0.003548 0.036987 0.000000 -0.055821 0.000000
# 4 0.000000 0.000000 0.000000 0.055215 0.000000 0.006462
# 5 -0.052393 0.001714 -0.055821 0.000000 0.214747 0.000000
# 6 0.000000 0.000000 0.000000 0.006462 0.000000 0.049443
#
#
# Mechanical properties :
#
#
# Convention : Reuss Voigt Hill
#
# Bulk Modulus (GPa) = 13.74802 51.13637 32.44219
# Shear Modulus (GPa) = 11.36647 20.10269 15.73458
#
# Velocity S-wave (km/s) = 2.56319 3.40875 3.01575
# Velocity P-wave (km/s) = 4.08735 6.71194 5.55682
#
# Compressibility (1/GPa) = 0.07273776
#
# Stress axis : x y z
#
# Youngs Moduli (GPa) = 29.78016 71.82717 27.03679
#
# Poissons Ratio (x) = 0.41410 -0.09296
# Poissons Ratio (y) = 0.17169 0.09594
# Poissons Ratio (z) = -0.10239 0.25488
#
# Static dielectric constant tensor:
#      x y z
#    x 3.148180 0.000000 0.173610 
#    y 0.000000 3.250170 0.000000 
#    z 0.173610 0.000000 3.383160 
# 
# 
# High freq. dielectric constant tensor:
#      x y z
#    x 1.652800 0.000000 0.007600 
#    y 0.000000 1.672080 0.000000 
#    z 0.007600 0.000000 1.653460 
# 
# From -- ./inp_files/45139.got.cif
#   From: 2010.06.25/outbox.cif.g09.slc.cpg/sg10_23_cif.got.tgz:45139.got - 2010.06.27 22:07:45.
