data_PCOD8060475
_publ_section_title
;
Structure prediction by ZEFSAII (Michael W. Deem and Ramdas Pophale) SiO2 
 PCOD8060475
Probable space group: P 2/M
;
_chemical_formula_sum "Si O2"
_cell_formula_units_Z 28
_cell_length_a 10.890475
_cell_length_b 8.835796
_cell_length_c 20.268926
_cell_angle_alpha 90.000000
_cell_angle_beta 127.792866
_cell_angle_gamma 90.000000
_cell_volume 1541.265576
_symmetry_space_group_name_H-M "P 2/M"
_symmetry_group_IT_number 10
_symmetry_cell_setting 'monoclinic'
loop_
_space_group_symop_operation_xyz
x,y,z
-x,y,-z
-x,-y,-z
x,-y,z
loop_
_atom_site_type_symbol
_atom_site_label
_atom_site_fract_x
_atom_site_fract_y
_atom_site_fract_z
Si Si1 0.059993 0.675401 0.611890
Si Si2 0.211587 0.174735 0.541445
Si Si3 0.040631 0.181234 0.939420
Si Si4 0.464822 0.823721 0.416214
Si Si5 0.833323 0.829210 0.753039
Si Si6 0.873511 0.169544 0.238869
Si Si7 0.672701 0.178490 0.050158
O O1 0.019594 0.500000 0.593226
O O2 0.177505 0.721572 0.592971
O O3 0.143456 0.712103 0.707805
O O4 0.901216 0.772628 0.555011
O O5 0.387803 0.202558 0.580838
O O6 0.178251 0.000000 0.546750
O O7 0.213521 0.237544 0.972175
O O8 0.908669 0.244364 0.844578
O O9 0.038937 0.000000 0.935658
O O10 0.000000 0.239721 0.000000
O O11 0.500000 0.750244 0.500000
O O12 0.320730 0.747675 0.328120
O O13 0.425784 0.000000 0.414892
O O14 0.955394 0.824970 0.734383
O O15 0.787761 0.000000 0.757150
O O16 0.751028 0.222291 0.144479
O O17 0.835760 0.000000 0.251569
O O18 0.657508 0.000000 0.035853
O O19 0.500000 0.251767 0.000000
#
# Coordination Sequence:
#
# PCOD8060475 Si02
#       7
#     4   4   4   4   4   4   4
#     4  11  21  33  48  66  93 126 160 195 234 276
#     4  10  19  32  50  70  94 121 155 193 234 282
#     4   8  13  22  36  57  91 130 153 177 234 296
#     4   9  16  26  43  68  94 118 149 191 232 271
#     4   8  14  25  42  66  94 121 153 190 230 281
#     4   9  16  29  50  70  93 125 158 191 233 282
#     4   8  14  25  41  66  97 122 151 195 240 282
#
# _framework density 18.166889000000001
#
# number of rings (size 3 to 8) (size 9 to 14) (size 15 to 20)
#    0.000    3.000    0.000    5.143    0.000    2.286 
#    2.571    0.000    0.000    8.143    0.000    0.000 
#    0.000    2.857    0.000    0.000    0.000    0.000 
#
# Total GULP energy -346892.120248 kJ/mol
# GULP energy per Si atom -12389.004295 kJ/mol
# Density = 1.812554 g / cm^3
# Si number density = 18.166889 Si / 1000 Ang^3
#
#
#
# Elastic Constant Matrix: (Units=GPa)
#
#
# Indices 1 2 3 4 5 6 
#
# 1 96.5815 12.9272 81.9208 0.0000 14.6177 0.0000
# 2 12.9272 29.8614 14.3274 0.0000 -3.1729 0.0000
# 3 81.9208 14.3274 134.3640 0.0000 4.7094 0.0000
# 4 0.0000 0.0000 0.0000 3.7545 0.0000 0.2360
# 5 14.6177 -3.1729 4.7094 0.0000 34.7382 0.0000
# 6 0.0000 0.0000 0.0000 0.2360 0.0000 -0.3506
#
#
#
# Elastic Compliance Matrix: (Units=1/GPa)
#
#
# Indices 1 2 3 4 5 6 
#
# 1 0.024047 -0.004682 -0.013858 0.000000 -0.008668 0.000000
# 2 -0.004682 0.036699 -0.001251 0.000000 0.005492 0.000000
# 3 -0.013858 -0.001251 0.015900 0.000000 0.003562 0.000000
# 4 0.000000 0.000000 0.000000 0.255535 0.000000 0.172039
# 5 -0.008668 0.005492 0.003562 0.000000 0.032453 0.000000
# 6 0.000000 0.000000 0.000000 0.172039 0.000000 -2.736582
#
#
# Mechanical properties :
#
#
# Convention : Reuss Voigt Hill
#
# Bulk Modulus (GPa) = 26.98084 53.23973 40.11028
# Shear Modulus (GPa) = -2.15516 17.73719 7.79101
#
# Velocity S-wave (km/s) = -1.09036 3.12804 2.07313
# Velocity P-wave (km/s) = 3.64674 6.51274 5.27800
#
# Compressibility (1/GPa) = 0.03706334
#
# Stress axis : x y z
#
# Youngs Moduli (GPa) = 41.58486 27.24890 62.89154
#
# Poissons Ratio (x) = 0.12758 0.87157
# Poissons Ratio (y) = 0.19470 0.07868
# Poissons Ratio (z) = 0.57630 0.03409
#
# Static dielectric constant tensor:
#      x y z
#    x 3.425380 0.000000 0.082280 
#    y 0.000000 2.746800 0.000000 
#    z 0.082280 0.000000 3.598760 
# 
# 
# High freq. dielectric constant tensor:
#      x y z
#    x 1.703120 0.000000 0.000730 
#    y 0.000000 1.636960 0.000000 
#    z 0.000730 0.000000 1.711370 
# 
# From -- ./inp_files/83411.got.cif
#   From: 2010.06.25/outbox.cif.g09.slc.cpg/sg10_42_cif.got.tgz:83411.got - 2010.06.27 22:07:45.
