data_PCOD8060948
_publ_section_title
;
Structure prediction by ZEFSAII (Michael W. Deem and Ramdas Pophale) SiO2 
 PCOD8060948
Probable space group: P 2/M
;
_chemical_formula_sum "Si O2"
_cell_formula_units_Z 20
_cell_length_a 9.080835
_cell_length_b 14.663165
_cell_length_c 16.262494
_cell_angle_alpha 90.000000
_cell_angle_beta 27.851938
_cell_angle_gamma 90.000000
_cell_volume 1011.655447
_symmetry_space_group_name_H-M "P 2/M"
_symmetry_group_IT_number 10
_symmetry_cell_setting 'monoclinic'
loop_
_space_group_symop_operation_xyz
x,y,z
-x,y,-z
-x,-y,-z
x,-y,z
loop_
_atom_site_type_symbol
_atom_site_label
_atom_site_fract_x
_atom_site_fract_y
_atom_site_fract_z
Si Si1 0.365188 0.605865 0.829305
Si Si2 0.388341 0.896240 0.644801
Si Si3 0.647075 0.901159 0.017369
Si Si4 0.620470 0.717043 0.847521
Si Si5 0.224890 0.743952 0.464865
O O1 0.439999 0.500000 0.781534
O O2 0.474782 0.635803 0.866020
O O3 0.555026 0.657954 0.664341
O O4 0.000000 0.628200 0.000000
O O5 0.500000 0.866931 0.500000
O O6 0.558796 0.831485 0.625748
O O7 0.016674 0.882888 0.832139
O O8 0.487242 0.000000 0.615810
O O9 0.580124 0.000000 0.093927
O O10 0.500000 0.905427 0.000000
O O11 0.490645 0.814027 0.138731
O O12 0.002329 0.716776 0.652817
O O13 0.500000 0.705820 0.000000
O O14 0.000000 0.767651 0.500000
#
# Coordination Sequence:
#
# PCOD8060948 Si02
#       5
#     4   4   4   4   4
#     4  10  22  41  61  80 108 146 185 231 289 344
#     4  10  19  32  54  83 115 152 192 234 277 324
#     4   9  17  30  50  78 112 147 183 225 273 324
#     4  10  20  35  58  85 112 146 188 233 277 327
#     4  10  22  37  57  84 116 153 187 229 282 339
#
# _framework density 19.769577000000002
#
# number of rings (size 3 to 8) (size 9 to 14) (size 15 to 20)
#    0.000    2.200    0.000    3.600    0.000    6.800 
#    0.000    3.000    0.000   13.800    0.000    0.000 
#    0.000    0.000    0.000    0.000    0.000    0.000 
#
# Total GULP energy -247905.569364 kJ/mol
# GULP energy per Si atom -12395.278468 kJ/mol
# Density = 1.972458 g / cm^3
# Si number density = 19.769577 Si / 1000 Ang^3
#
#
#
# Elastic Constant Matrix: (Units=GPa)
#
#
# Indices 1 2 3 4 5 6 
#
# 1 62.1294 49.7164 48.9290 0.0000 -11.9271 0.0000
# 2 49.7164 131.8442 77.8411 0.0000 -11.0343 0.0000
# 3 48.9290 77.8411 139.9809 0.0000 -3.7095 0.0000
# 4 0.0000 0.0000 0.0000 35.1684 0.0000 -5.4793
# 5 -11.9271 -11.0343 -3.7095 0.0000 38.5940 0.0000
# 6 0.0000 0.0000 0.0000 -5.4793 0.0000 29.8703
#
#
#
# Elastic Compliance Matrix: (Units=1/GPa)
#
#
# Indices 1 2 3 4 5 6 
#
# 1 0.026702 -0.006185 -0.005736 0.000000 0.005932 0.000000
# 2 -0.006185 0.012998 -0.005031 0.000000 0.001321 0.000000
# 3 -0.005736 -0.005031 0.011892 0.000000 -0.002068 0.000000
# 4 0.000000 0.000000 0.000000 0.029271 0.000000 0.005369
# 5 0.005932 0.001321 -0.002068 0.000000 0.027923 0.000000
# 6 0.000000 0.000000 0.000000 0.005369 0.000000 0.034463
#
#
# Mechanical properties :
#
#
# Convention : Reuss Voigt Hill
#
# Bulk Modulus (GPa) = 56.54299 76.32528 66.43413
# Shear Modulus (GPa) = 27.31508 31.22441 29.26974
#
# Velocity S-wave (km/s) = 3.72112 3.97850 3.85196
# Velocity P-wave (km/s) = 6.86479 7.73278 7.31168
#
# Compressibility (1/GPa) = 0.01768566
#
# Stress axis : x y z
#
# Youngs Moduli (GPa) = 37.45107 76.93517 84.09216
#
# Poissons Ratio (x) = 0.47588 0.48239
# Poissons Ratio (y) = 0.23165 0.42306
# Poissons Ratio (z) = 0.21484 0.38705
#
# Static dielectric constant tensor:
#      x y z
#    x 3.309010 0.000000 -0.120580 
#    y 0.000000 3.903290 0.000000 
#    z -0.120580 0.000000 3.928450 
# 
# 
# High freq. dielectric constant tensor:
#      x y z
#    x 1.748460 0.000000 -0.014380 
#    y 0.000000 1.774570 0.000000 
#    z -0.014380 0.000000 1.786330 
# 
# From -- ./inp_files/75161.got.cif
#   From: 2010.06.25/outbox.cif.g09.slc.cpg/sg10_38_cif.got.tgz:75161.got - 2010.06.27 22:07:45.
