data_PCOD8060378
_publ_section_title
;
Structure prediction by ZEFSAII (Michael W. Deem and Ramdas Pophale) SiO2 
 PCOD8060378
Probable space group: P 2/M
;
_chemical_formula_sum "Si O2"
_cell_formula_units_Z 30
_cell_length_a 17.704435
_cell_length_b 25.047819
_cell_length_c 17.089940
_cell_angle_alpha 90.000000
_cell_angle_beta 163.268381
_cell_angle_gamma 90.000000
_cell_volume 2181.813785
_symmetry_space_group_name_H-M "P 2/M"
_symmetry_group_IT_number 10
_symmetry_cell_setting 'monoclinic'
loop_
_space_group_symop_operation_xyz
x,y,z
-x,y,-z
-x,-y,-z
x,-y,z
loop_
_atom_site_type_symbol
_atom_site_label
_atom_site_fract_x
_atom_site_fract_y
_atom_site_fract_z
Si Si1 0.967789 0.063151 0.054770
Si Si2 0.455901 0.936789 0.638537
Si Si3 0.258939 0.000000 0.704467
Si Si4 0.084862 0.158990 0.672400
Si Si5 0.452734 0.664736 0.860273
Si Si6 0.746047 0.442220 0.298512
Si Si7 0.400093 0.895983 0.752524
Si Si8 0.954898 0.281429 0.364965
O O1 0.690750 0.080707 0.814842
O O2 0.991769 0.000000 0.072058
O O3 0.000000 0.088183 0.000000
O O4 0.193183 0.083953 0.336236
O O5 0.492580 0.906714 0.756462
O O6 0.455517 0.000000 0.653459
O O7 0.272372 0.051401 0.663030
O O8 0.000000 0.000000 0.500000
O O9 0.500000 0.000000 0.000000
O O10 0.000000 0.145408 0.500000
O O11 0.839791 0.145817 0.485566
O O12 0.145533 0.221184 0.744809
O O13 0.347372 0.125331 0.949864
O O14 0.339615 0.605406 0.727289
O O15 0.242224 0.706431 0.614128
O O16 0.500000 0.671200 0.000000
O O17 0.737793 0.679983 0.107911
O O18 0.804500 0.500000 0.398347
O O19 0.000000 0.424150 0.500000
O O20 0.500000 0.451526 0.000000
O O21 0.000000 0.296317 0.500000
#
# Coordination Sequence:
#
# PCOD8060378 Si02
#       8
#     4   4   2   4   4   4   4   4
#     4   9  17  29  48  68  86 103 118 135 159 203
#     4  10  19  32  46  64  85 101 120 141 175 219
#     4  12  24  36  48  58  71  96 127 154 188 232
#     4  11  22  34  46  57  74  94 129 167 201 229
#     4   9  14  23  36  49  65  83 109 137 177 219
#     4   9  15  21  30  46  67  87 105 128 163 215
#     4  12  22  35  47  61  77  99 121 157 194 232
#     4   9  17  27  39  52  63  84 113 153 188 219
#
# _framework density 13.750028
#
# number of rings (size 3 to 8) (size 9 to 14) (size 15 to 20)
#    0.000    2.000    0.667    6.400    0.000    3.733 
#    0.000    0.000    0.000    0.000    0.000    0.000 
#    0.000    0.000    0.000    0.000    0.000    0.000 
#
# Total GULP energy -371712.425769 kJ/mol
# GULP energy per Si atom -12390.414192 kJ/mol
# Density = 1.371873 g / cm^3
# Si number density = 13.750028 Si / 1000 Ang^3
#
#
#
# Elastic Constant Matrix: (Units=GPa)
#
#
# Indices 1 2 3 4 5 6 
#
# 1 46.7773 19.0555 15.8711 0.0000 2.4984 0.0000
# 2 19.0555 65.8508 34.7908 0.0000 2.8898 0.0000
# 3 15.8711 34.7908 93.3042 0.0000 13.7501 0.0000
# 4 0.0000 0.0000 0.0000 18.5416 0.0000 5.6599
# 5 2.4984 2.8898 13.7501 0.0000 16.4438 0.0000
# 6 0.0000 0.0000 0.0000 5.6599 0.0000 3.8052
#
#
#
# Elastic Compliance Matrix: (Units=1/GPa)
#
#
# Indices 1 2 3 4 5 6 
#
# 1 0.024523 -0.006145 -0.001700 0.000000 -0.001225 0.000000
# 2 -0.006145 0.020576 -0.007108 0.000000 0.003261 0.000000
# 3 -0.001700 -0.007108 0.015323 0.000000 -0.011306 0.000000
# 4 0.000000 0.000000 0.000000 0.098786 0.000000 -0.146937
# 5 -0.001225 0.003261 -0.011306 0.000000 0.069880 0.000000
# 6 0.000000 0.000000 0.000000 -0.146937 0.000000 0.481359
#
#
# Mechanical properties :
#
#
# Convention : Reuss Voigt Hill
#
# Bulk Modulus (GPa) = 32.76723 38.37412 35.57067
# Shear Modulus (GPa) = 6.66202 16.83911 11.75057
#
# Velocity S-wave (km/s) = 2.20355 3.50331 2.92650
# Velocity P-wave (km/s) = 5.50968 6.65832 6.11105
#
# Compressibility (1/GPa) = 0.03051830
#
# Stress axis : x y z
#
# Youngs Moduli (GPa) = 40.77786 48.60035 65.26103
#
# Poissons Ratio (x) = 0.29863 0.11093
# Poissons Ratio (y) = 0.25056 0.46385
# Poissons Ratio (z) = 0.06931 0.34543
#
# Static dielectric constant tensor:
#      x y z
#    x 2.395860 0.000000 0.168840 
#    y 0.000000 2.792280 0.000000 
#    z 0.168840 0.000000 2.986500 
# 
# 
# High freq. dielectric constant tensor:
#      x y z
#    x 1.460930 0.000000 0.024650 
#    y 0.000000 1.507550 0.000000 
#    z 0.024650 0.000000 1.550890 
# 
# From -- ./inp_files/68013.got.cif
#   From: 2010.06.25/outbox.cif.g09.slc.cpg/sg10_35_cif.got.tgz:68013.got - 2010.06.27 22:07:45.
