data_PCOD8060216
_publ_section_title
;
Structure prediction by ZEFSAII (Michael W. Deem and Ramdas Pophale) SiO2 
 PCOD8060216
Probable space group: P 2/M
;
_chemical_formula_sum "Si O2"
_cell_formula_units_Z 32
_cell_length_a 22.793342
_cell_length_b 8.947016
_cell_length_c 29.931179
_cell_angle_alpha 90.000000
_cell_angle_beta 163.643615
_cell_angle_gamma 90.000000
_cell_volume 1718.936551
_symmetry_space_group_name_H-M "P 2/M"
_symmetry_group_IT_number 10
_symmetry_cell_setting 'monoclinic'
loop_
_space_group_symop_operation_xyz
x,y,z
-x,y,-z
-x,-y,-z
x,-y,z
loop_
_atom_site_type_symbol
_atom_site_label
_atom_site_fract_x
_atom_site_fract_y
_atom_site_fract_z
Si Si1 0.033039 0.823395 0.732446
Si Si2 0.177687 0.322304 0.096352
Si Si3 0.616904 0.322945 0.454158
Si Si4 0.678265 0.677443 0.598844
Si Si5 0.873862 0.677844 0.042855
Si Si6 0.351667 0.822508 0.042336
Si Si7 0.208087 0.177967 0.675444
Si Si8 0.724006 0.177567 0.176179
O O1 0.808263 0.749269 0.568424
O O2 0.119391 0.770613 0.747819
O O3 0.011048 0.000000 0.719374
O O4 0.184192 0.767135 0.882851
O O5 0.167313 0.500000 0.090169
O O6 0.401761 0.263931 0.276247
O O7 0.148177 0.265459 0.024157
O O8 0.000000 0.258032 0.000000
O O9 0.635077 0.500000 0.463927
O O10 0.625349 0.266794 0.510984
O O11 0.500000 0.746492 0.500000
O O12 0.677517 0.500000 0.601921
O O13 0.903142 0.738049 0.777553
O O14 0.854104 0.500000 0.031546
O O15 0.698033 0.749725 0.945991
O O16 0.582272 0.767654 0.196499
O O17 0.344589 0.000000 0.041720
O O18 0.205970 0.240266 0.724536
O O19 0.000000 0.242344 0.500000
O O20 0.204388 0.000000 0.672731
O O21 0.709321 0.000000 0.167687
O O22 0.500000 0.244823 0.000000
#
# Coordination Sequence:
#
# PCOD8060216 Si02
#       8
#     4   4   4   4   4   4   4   4
#     4  10  19  31  51  76 102 132 166 207 251 296
#     4   9  18  33  53  76 101 130 167 210 250 290
#     4  10  19  32  51  75 101 128 161 206 251 292
#     4   9  16  27  47  73  95 120 162 206 236 275
#     4  10  19  32  52  76 100 131 166 201 250 303
#     4  10  19  32  51  75 104 133 162 206 255 295
#     4   9  17  29  47  72  98 125 165 211 245 281
#     4   9  15  27  47  68  91 126 168 203 240 285
#
# _framework density 18.616161000000002
#
# number of rings (size 3 to 8) (size 9 to 14) (size 15 to 20)
#    0.000    2.500    2.500    0.750    0.000    4.000 
#    0.000    1.875    0.000    6.000    0.000    0.000 
#    0.000    0.000    0.000    0.000    0.000    0.000 
#
# Total GULP energy -396731.234216 kJ/mol
# GULP energy per Si atom -12397.851069 kJ/mol
# Density = 1.857379 g / cm^3
# Si number density = 18.616161 Si / 1000 Ang^3
#
#
#
# Elastic Constant Matrix: (Units=GPa)
#
#
# Indices 1 2 3 4 5 6 
#
# 1 190.8675 22.6738 94.4152 0.0000 5.2300 0.0000
# 2 22.6738 11.0337 18.0688 0.0000 2.7275 0.0000
# 3 94.4152 18.0688 167.8227 0.0000 4.2186 0.0000
# 4 0.0000 0.0000 0.0000 15.7155 0.0000 8.0842
# 5 5.2300 2.7275 4.2186 0.0000 40.7154 0.0000
# 6 0.0000 0.0000 0.0000 8.0842 0.0000 22.0853
#
#
#
# Elastic Compliance Matrix: (Units=1/GPa)
#
#
# Indices 1 2 3 4 5 6 
#
# 1 0.008296 -0.011433 -0.003438 0.000000 0.000056 0.000000
# 2 -0.011433 0.127348 -0.007120 0.000000 -0.006325 0.000000
# 3 -0.003438 -0.007120 0.008659 0.000000 0.000021 0.000000
# 4 0.000000 0.000000 0.000000 0.078393 0.000000 -0.028695
# 5 0.000056 -0.006325 0.000021 0.000000 0.024975 0.000000
# 6 0.000000 0.000000 0.000000 -0.028695 0.000000 0.055783
#
#
# Mechanical properties :
#
#
# Convention : Reuss Voigt Hill
#
# Bulk Modulus (GPa) = 9.96790 71.11550 40.54170
# Shear Modulus (GPa) = 13.12759 31.34098 22.23429
#
# Velocity S-wave (km/s) = 2.65839 4.10754 3.45969
# Velocity P-wave (km/s) = 3.84562 7.79614 6.14689
#
# Compressibility (1/GPa) = 0.10032199
#
# Stress axis : x y z
#
# Youngs Moduli (GPa) = 120.53296 7.85247 115.48787
#
# Poissons Ratio (x) = 0.08978 0.39705
# Poissons Ratio (y) = 1.37802 0.82229
# Poissons Ratio (z) = 0.41439 0.05591
#
# Static dielectric constant tensor:
#      x y z
#    x 3.669690 0.000000 -0.026730 
#    y 0.000000 2.781370 0.000000 
#    z -0.026730 0.000000 3.629190 
# 
# 
# High freq. dielectric constant tensor:
#      x y z
#    x 1.740290 0.000000 0.003710 
#    y 0.000000 1.657170 0.000000 
#    z 0.003710 0.000000 1.731980 
# 
# From -- ./inp_files/78949.got.cif
#   From: 2010.06.25/outbox.cif.g09.slc.cpg/sg10_40_cif.got.tgz:78949.got - 2010.06.27 22:07:45.
