data_PCOD8060005
_publ_section_title
;
Structure prediction by ZEFSAII (Michael W. Deem and Ramdas Pophale) SiO2 
 PCOD8060005
Probable space group: P 2/M
;
_chemical_formula_sum "Si O2"
_cell_formula_units_Z 28
_cell_length_a 16.567518
_cell_length_b 8.902880
_cell_length_c 12.687461
_cell_angle_alpha 90.000000
_cell_angle_beta 123.980248
_cell_angle_gamma 90.000000
_cell_volume 1551.807522
_symmetry_space_group_name_H-M "P 2/M"
_symmetry_group_IT_number 10
_symmetry_cell_setting 'monoclinic'
loop_
_space_group_symop_operation_xyz
x,y,z
-x,y,-z
-x,-y,-z
x,-y,z
loop_
_atom_site_type_symbol
_atom_site_label
_atom_site_fract_x
_atom_site_fract_y
_atom_site_fract_z
Si Si1 0.490217 0.176877 0.172938
Si Si2 0.906863 0.320682 0.799324
Si Si3 0.706934 0.674411 0.035838
Si Si4 0.759808 0.672102 0.523658
Si Si5 0.877578 0.678360 0.011808
Si Si6 0.683915 0.325748 0.252740
Si Si7 0.457814 0.672672 0.578801
O O1 0.390445 0.233105 0.050699
O O2 0.580060 0.244032 0.172772
O O3 0.494050 0.226012 0.296878
O O4 0.495185 0.000000 0.167263
O O5 0.902088 0.500000 0.794078
O O6 0.842886 0.249708 0.656886
O O7 0.863753 0.266535 0.881002
O O8 0.018020 0.264426 0.868369
O O9 0.687196 0.500000 0.995590
O O10 0.791857 0.742218 0.023609
O O11 0.738967 0.694158 0.181764
O O12 0.790152 0.500000 0.534847
O O13 0.750325 0.739971 0.397687
O O14 0.658029 0.691914 0.509490
O O15 0.876206 0.500000 0.016035
O O16 0.661434 0.500000 0.261639
O O17 0.500000 0.731717 0.500000
O O18 0.487585 0.500000 0.621040
#
# Coordination Sequence:
#
# PCOD8060005 Si02
#       7
#     4   4   4   4   4   4   4
#     4  11  22  33  47  69  98 130 161 199 245 287
#     4   8  13  24  42  67  98 123 148 191 242 294
#     4  10  19  31  49  69  94 125 164 206 241 285
#     4   8  14  25  43  65  92 125 155 186 234 286
#     4   8  15  25  41  69  98 121 151 195 245 287
#     4   9  18  33  48  67  94 127 164 202 240 287
#     4   9  18  31  49  73  99 129 164 196 231 284
#
# _framework density 18.043475000000001
#
# number of rings (size 3 to 8) (size 9 to 14) (size 15 to 20)
#    0.000    3.000    0.000    3.429    2.000    2.571 
#    0.000    0.714    0.000    4.286    0.000    6.000 
#    0.000    5.714    0.000    0.000    0.000    0.000 
#
# Total GULP energy -347015.938239 kJ/mol
# GULP energy per Si atom -12393.426366 kJ/mol
# Density = 1.800241 g / cm^3
# Si number density = 18.043475 Si / 1000 Ang^3
#
#
#
# Elastic Constant Matrix: (Units=GPa)
#
#
# Indices 1 2 3 4 5 6 
#
# 1 99.4130 19.1972 71.2351 0.0000 -13.7118 0.0000
# 2 19.1972 41.2731 22.8535 0.0000 -1.3949 0.0000
# 3 71.2351 22.8535 141.1278 0.0000 6.4423 0.0000
# 4 0.0000 0.0000 0.0000 5.8498 0.0000 -3.1714
# 5 -13.7118 -1.3949 6.4423 0.0000 24.6895 0.0000
# 6 0.0000 0.0000 0.0000 -3.1714 0.0000 2.7921
#
#
#
# Elastic Compliance Matrix: (Units=1/GPa)
#
#
# Indices 1 2 3 4 5 6 
#
# 1 0.019721 -0.003152 -0.010056 0.000000 0.013398 0.000000
# 2 -0.003152 0.027293 -0.002853 0.000000 0.000536 0.000000
# 3 -0.010056 -0.002853 0.013041 0.000000 -0.009149 0.000000
# 4 0.000000 0.000000 0.000000 0.444938 0.000000 0.505386
# 5 0.013398 0.000536 -0.009149 0.000000 0.050362 0.000000
# 6 0.000000 0.000000 0.000000 0.505386 0.000000 0.932200
#
#
# Mechanical properties :
#
#
# Convention : Reuss Voigt Hill
#
# Bulk Modulus (GPa) = 35.79924 56.48730 46.14327
# Shear Modulus (GPa) = 3.27014 17.90147 10.58580
#
# Velocity S-wave (km/s) = 1.34770 3.15323 2.42478
# Velocity P-wave (km/s) = 4.72285 6.68067 5.78518
#
# Compressibility (1/GPa) = 0.02793355
#
# Stress axis : x y z
#
# Youngs Moduli (GPa) = 50.70719 36.63959 76.68121
#
# Poissons Ratio (x) = 0.11549 0.77107
# Poissons Ratio (y) = 0.15983 0.21878
# Poissons Ratio (z) = 0.50989 0.10454
#
# Static dielectric constant tensor:
#      x y z
#    x 3.430760 0.000000 -0.099920 
#    y 0.000000 2.794490 0.000000 
#    z -0.099920 0.000000 3.696000 
# 
# 
# High freq. dielectric constant tensor:
#      x y z
#    x 1.689790 0.000000 -0.010370 
#    y 0.000000 1.639450 0.000000 
#    z -0.010370 0.000000 1.711200 
# 
# From -- ./inp_files/50108.got.cif
#   From: 2010.06.25/outbox.cif.g09.slc.cpg/sg10_26_cif.got.tgz:50108.got - 2010.06.27 22:07:45.
