data_PCOD8060320
_publ_section_title
;
Structure prediction by ZEFSAII (Michael W. Deem and Ramdas Pophale) SiO2 
 PCOD8060320
Probable space group: P 2/M
;
_chemical_formula_sum "Si O2"
_cell_formula_units_Z 32
_cell_length_a 13.064829
_cell_length_b 12.800293
_cell_length_c 11.017917
_cell_angle_alpha 90.000000
_cell_angle_beta 77.569510
_cell_angle_gamma 90.000000
_cell_volume 1799.372673
_symmetry_space_group_name_H-M "P 2/M"
_symmetry_group_IT_number 10
_symmetry_cell_setting 'monoclinic'
loop_
_space_group_symop_operation_xyz
x,y,z
-x,y,-z
-x,-y,-z
x,-y,z
loop_
_atom_site_type_symbol
_atom_site_label
_atom_site_fract_x
_atom_site_fract_y
_atom_site_fract_z
Si Si1 0.452510 0.378462 0.135825
Si Si2 0.632041 0.877221 0.616121
Si Si3 0.757792 0.244427 0.393060
Si Si4 0.877678 0.622752 0.551955
Si Si5 0.461415 0.288650 0.638156
Si Si6 0.251774 0.742570 0.224940
Si Si7 0.138100 0.882653 0.076205
Si Si8 0.097083 0.116750 0.810677
O O1 0.463116 0.500000 0.119466
O O2 0.508970 0.349632 0.247691
O O3 0.330996 0.349514 0.172321
O O4 0.500000 0.326130 0.000000
O O5 0.709335 0.847415 0.487043
O O6 0.517689 0.824923 0.628531
O O7 0.687388 0.835063 0.722342
O O8 0.615381 0.000000 0.628629
O O9 0.805252 0.340191 0.458252
O O10 0.664570 0.284069 0.329658
O O11 0.852461 0.199418 0.291646
O O12 0.857485 0.500000 0.577726
O O13 0.843593 0.690400 0.677031
O O14 0.000000 0.645927 0.500000
O O15 0.500000 0.342321 0.500000
O O16 0.212156 0.794881 0.112279
O O17 0.027319 0.877157 0.173078
O O18 0.183861 0.000000 0.080048
O O19 0.128055 0.853703 0.938767
O O20 0.136310 0.000000 0.769348
#
# Coordination Sequence:
#
# PCOD8060320 Si02
#       8
#     4   4   4   4   4   4   4   4
#     4  10  22  38  55  76 103 136 176 223 268 312
#     4   9  18  32  49  76 108 135 167 206 252 303
#     4  10  19  31  53  77 100 136 172 209 255 305
#     4  10  21  36  54  78 105 133 170 217 267 314
#     4   9  20  34  52  78 105 136 173 215 261 310
#     4  10  19  33  56  75 100 139 172 209 257 313
#     4   9  18  32  50  73 103 137 169 206 251 300
#     4   9  18  31  48  74 104 134 171 208 247 301
#
# _framework density 17.783975000000002
#
# number of rings (size 3 to 8) (size 9 to 14) (size 15 to 20)
#    0.000    2.500    0.000    3.375    1.750    3.500 
#    0.000    0.000    0.000    7.875    0.000    4.375 
#    0.000    0.000    0.000    0.000    0.000    0.000 
#
# Total GULP energy -396644.494474 kJ/mol
# GULP energy per Si atom -12395.140452 kJ/mol
# Density = 1.774350 g / cm^3
# Si number density = 17.783975 Si / 1000 Ang^3
#
#
#
# Elastic Constant Matrix: (Units=GPa)
#
#
# Indices 1 2 3 4 5 6 
#
# 1 72.8727 27.6805 15.2726 0.0000 8.9088 0.0000
# 2 27.6805 75.2890 24.6172 0.0000 7.4166 0.0000
# 3 15.2726 24.6172 74.2099 0.0000 7.8420 0.0000
# 4 0.0000 0.0000 0.0000 23.8601 0.0000 1.3468
# 5 8.9088 7.4166 7.8420 0.0000 25.8380 0.0000
# 6 0.0000 0.0000 0.0000 1.3468 0.0000 16.4611
#
#
#
# Elastic Compliance Matrix: (Units=1/GPa)
#
#
# Indices 1 2 3 4 5 6 
#
# 1 0.016446 -0.005269 -0.001237 0.000000 -0.003782 0.000000
# 2 -0.005269 0.016795 -0.004308 0.000000 -0.001697 0.000000
# 3 -0.001237 -0.004308 0.015480 0.000000 -0.003035 0.000000
# 4 0.000000 0.000000 0.000000 0.042105 0.000000 -0.003445
# 5 -0.003782 -0.001697 -0.003035 0.000000 0.041415 0.000000
# 6 0.000000 0.000000 0.000000 -0.003445 0.000000 0.061031
#
#
# Mechanical properties :
#
#
# Convention : Reuss Voigt Hill
#
# Bulk Modulus (GPa) = 36.91038 39.72357 38.31698
# Shear Modulus (GPa) = 22.32836 23.55194 22.94015
#
# Velocity S-wave (km/s) = 3.54719 3.64309 3.59546
# Velocity P-wave (km/s) = 6.12998 6.33098 6.23129
#
# Compressibility (1/GPa) = 0.02709265
#
# Stress axis : x y z
#
# Youngs Moduli (GPa) = 60.80600 59.54143 64.60153
#
# Poissons Ratio (x) = 0.31374 0.07991
# Poissons Ratio (y) = 0.32041 0.27828
# Poissons Ratio (z) = 0.07521 0.25648
#
# Static dielectric constant tensor:
#      x y z
#    x 3.344790 0.000000 0.029750 
#    y 0.000000 3.074550 0.000000 
#    z 0.029750 0.000000 3.403000 
# 
# 
# High freq. dielectric constant tensor:
#      x y z
#    x 1.693710 0.000000 0.003210 
#    y 0.000000 1.674800 0.000000 
#    z 0.003210 0.000000 1.688880 
# 
# From -- ./inp_files/47001.got.cif
#   From: 2010.06.25/outbox.cif.g09.slc.cpg/sg10_24_cif.got.tgz:47001.got - 2010.06.27 22:07:45.
