data_PCOD8060558
_publ_section_title
;
Structure prediction by ZEFSAII (Michael W. Deem and Ramdas Pophale) SiO2 
 PCOD8060558
Probable space group: P 2/M
;
_chemical_formula_sum "Si O2"
_cell_formula_units_Z 28
_cell_length_a 18.156909
_cell_length_b 9.307523
_cell_length_c 22.930108
_cell_angle_alpha 90.000000
_cell_angle_beta 23.608490
_cell_angle_gamma 90.000000
_cell_volume 1551.915917
_symmetry_space_group_name_H-M "P 2/M"
_symmetry_group_IT_number 10
_symmetry_cell_setting 'monoclinic'
loop_
_space_group_symop_operation_xyz
x,y,z
-x,y,-z
-x,-y,-z
x,-y,z
loop_
_atom_site_type_symbol
_atom_site_label
_atom_site_fract_x
_atom_site_fract_y
_atom_site_fract_z
Si Si1 0.880792 0.831580 0.259268
Si Si2 0.851424 0.839446 0.720663
Si Si3 0.869267 0.655240 0.539871
Si Si4 0.861798 0.669317 0.152585
Si Si5 0.580531 0.332052 0.838155
Si Si6 0.543264 0.342254 0.536300
Si Si7 0.221894 0.159400 0.092840
O O1 0.912375 0.755989 0.174194
O O2 0.709190 0.771077 0.422158
O O3 0.062531 0.799220 0.163995
O O4 0.846169 0.000000 0.274481
O O5 0.681885 0.748212 0.817994
O O6 0.856389 0.839735 0.785813
O O7 0.051227 0.775842 0.560014
O O8 0.833592 0.000000 0.708059
O O9 0.857032 0.500000 0.516430
O O10 0.673035 0.701313 0.708357
O O11 0.000000 0.637613 0.500000
O O12 0.883175 0.500000 0.150218
O O13 0.646765 0.704221 0.292600
O O14 0.000000 0.716214 0.000000
O O15 0.584987 0.500000 0.850312
O O16 0.375497 0.279866 0.977790
O O17 0.500000 0.353522 0.500000
O O18 0.605785 0.500000 0.513905
O O19 0.300415 0.000000 0.021594
#
# Coordination Sequence:
#
# PCOD8060558 Si02
#       7
#     4   4   4   4   4   4   4
#     4  10  20  34  51  73 103 135 167 204 246 293
#     4  10  19  32  51  72  96 131 172 209 251 303
#     4   8  16  31  48  69  95 118 152 205 253 294
#     4   9  18  34  56  80 105 131 162 202 244 291
#     4  10  20  33  51  74  98 128 169 215 258 298
#     4   8  15  30  52  75  98 127 161 193 233 289
#     4  10  22  36  48  69 102 135 167 207 252 298
#
# _framework density 18.042214000000001
#
# number of rings (size 3 to 8) (size 9 to 14) (size 15 to 20)
#    0.000    2.714    0.000    3.429    0.000   10.000 
#    0.000    1.429    0.000    6.857    0.000    0.000 
#    0.000    0.000    0.000    0.000    0.000    0.000 
#
# Total GULP energy -346989.137566 kJ/mol
# GULP energy per Si atom -12392.469199 kJ/mol
# Density = 1.800115 g / cm^3
# Si number density = 18.042214 Si / 1000 Ang^3
#
#
#
# Elastic Constant Matrix: (Units=GPa)
#
#
# Indices 1 2 3 4 5 6 
#
# 1 65.1876 52.3570 49.7583 0.0000 -8.3434 0.0000
# 2 52.3570 82.8410 -18.5291 0.0000 41.5695 0.0000
# 3 49.7583 -18.5291 -74.7729 0.0000 115.0060 0.0000
# 4 0.0000 0.0000 0.0000 23.9782 0.0000 10.2626
# 5 -8.3434 41.5695 115.0060 0.0000 -38.1311 0.0000
# 6 0.0000 0.0000 0.0000 10.2626 0.0000 -5.1400
#
#
#
# Elastic Compliance Matrix: (Units=1/GPa)
#
#
# Indices 1 2 3 4 5 6 
#
# 1 0.019346 -0.007542 0.001213 0.000000 -0.008797 0.000000
# 2 -0.007542 0.014541 -0.005028 0.000000 0.002336 0.000000
# 3 0.001213 -0.005028 0.005540 0.000000 0.010962 0.000000
# 4 0.000000 0.000000 0.000000 0.022488 0.000000 0.044900
# 5 -0.008797 0.002336 0.010962 0.000000 0.011310 0.000000
# 6 0.000000 0.000000 0.000000 0.044900 0.000000 -0.104906
#
#
# Mechanical properties :
#
#
# Convention : Reuss Voigt Hill
#
# Bulk Modulus (GPa) = 59.83469 26.71421 43.27445
# Shear Modulus (GPa) = -1471.84934 -4.54728 -738.19831
#
# Velocity S-wave (km/s) = -28.59286 -1.58928 -20.24942
# Velocity P-wave (km/s) = 32.50897 3.38687 22.86222
#
# Compressibility (1/GPa) = 0.01671271
#
# Stress axis : x y z
#
# Youngs Moduli (GPa) = 51.69064 68.77285 180.50193
#
# Poissons Ratio (x) = 0.51865 -0.21892
# Poissons Ratio (y) = 0.38983 0.90761
# Poissons Ratio (z) = -0.06269 0.34581
#
# Static dielectric constant tensor:
#      x y z
#    x 2.979240 0.000000 0.204970 
#    y 0.000000 3.562570 0.000000 
#    z 0.204970 0.000000 4.067890 
# 
# 
# High freq. dielectric constant tensor:
#      x y z
#    x 1.657600 0.000000 0.004590 
#    y 0.000000 1.707910 0.000000 
#    z 0.004590 0.000000 1.708200 
# 
# From -- ./inp_files/93516.got.cif
#   From: 2010.06.25/outbox.cif.g09.slc.cpg/sg10_47_cif.got.tgz:93516.got - 2010.06.27 22:07:45.
