data_PCOD8060274
_publ_section_title
;
Structure prediction by ZEFSAII (Michael W. Deem and Ramdas Pophale) SiO2 
 PCOD8060274
Probable space group: P 2/M
;
_chemical_formula_sum "Si O2"
_cell_formula_units_Z 28
_cell_length_a 7.776908
_cell_length_b 17.752418
_cell_length_c 12.982785
_cell_angle_alpha 90.000000
_cell_angle_beta 50.332481
_cell_angle_gamma 90.000000
_cell_volume 1379.712361
_symmetry_space_group_name_H-M "P 2/M"
_symmetry_group_IT_number 10
_symmetry_cell_setting 'monoclinic'
loop_
_space_group_symop_operation_xyz
x,y,z
-x,y,-z
-x,-y,-z
x,-y,z
loop_
_atom_site_type_symbol
_atom_site_label
_atom_site_fract_x
_atom_site_fract_y
_atom_site_fract_z
Si Si1 0.344636 0.824791 0.658655
Si Si2 0.131230 0.693144 0.854413
Si Si3 0.882568 0.671594 0.743006
Si Si4 0.692547 0.086538 0.623862
Si Si5 0.298906 0.584413 0.509278
Si Si6 0.972769 0.839016 0.658280
Si Si7 0.499403 0.585430 0.211628
O O1 0.500000 0.807410 0.500000
O O2 0.316374 0.749050 0.735672
O O3 0.438529 0.891227 0.695961
O O4 0.098856 0.854026 0.718055
O O5 0.260807 0.621465 0.852632
O O6 0.948188 0.669623 0.838677
O O7 0.000000 0.731711 0.000000
O O8 0.876043 0.754881 0.696498
O O9 0.640345 0.632538 0.820772
O O10 0.072643 0.629226 0.607848
O O11 0.763870 0.104165 0.715474
O O12 0.840963 0.144399 0.500385
O O13 0.737089 0.000000 0.578042
O O14 0.500000 0.621271 0.500000
O O15 0.259856 0.500000 0.566176
O O16 0.350193 0.584869 0.370080
O O17 0.539374 0.500000 0.156682
#
# Coordination Sequence:
#
# PCOD8060274 Si02
#       7
#     4   4   4   4   4   4   4
#     4   9  20  36  60  86 111 149 191 233 284 346
#     4  11  25  42  61  85 116 153 197 252 301 347
#     4  11  22  36  61  83 117 157 198 243 291 350
#     4  10  19  31  51  84 122 149 177 227 286 342
#     4  10  20  34  56  87 120 152 191 243 296 343
#     4   9  19  29  48  82 114 150 178 224 279 337
#     4  11  24  38  58  85 116 157 200 246 298 354
#
# _framework density 20.294086
#
# number of rings (size 3 to 8) (size 9 to 14) (size 15 to 20)
#    0.000    1.857    1.429    2.571   10.000    5.714 
#    0.000    0.714    0.000    0.429    0.000    4.000 
#    0.000    0.000    0.000    0.000    0.000    0.000 
#
# Total GULP energy -346956.752651 kJ/mol
# GULP energy per Si atom -12391.312595 kJ/mol
# Density = 2.024790 g / cm^3
# Si number density = 20.294086 Si / 1000 Ang^3
#
#
#
# Elastic Constant Matrix: (Units=GPa)
#
#
# Indices 1 2 3 4 5 6 
#
# 1 155.3412 76.0520 16.6351 0.0000 4.1841 0.0000
# 2 76.0520 120.3576 21.7051 0.0000 1.1721 0.0000
# 3 16.6351 21.7051 54.2900 0.0000 7.2325 0.0000
# 4 0.0000 0.0000 0.0000 3.3059 0.0000 1.6492
# 5 4.1841 1.1721 7.2325 0.0000 12.7077 0.0000
# 6 0.0000 0.0000 0.0000 1.6492 0.0000 30.4464
#
#
#
# Elastic Compliance Matrix: (Units=1/GPa)
#
#
# Indices 1 2 3 4 5 6 
#
# 1 0.009405 -0.005882 -0.000205 0.000000 -0.002437 0.000000
# 2 -0.005882 0.012653 -0.003634 0.000000 0.002838 0.000000
# 3 -0.000205 -0.003634 0.021513 0.000000 -0.011841 0.000000
# 4 0.000000 0.000000 0.000000 0.310886 0.000000 -0.016840
# 5 -0.002437 0.002838 -0.011841 0.000000 0.085972 0.000000
# 6 0.000000 0.000000 0.000000 -0.016840 0.000000 0.033757
#
#
# Mechanical properties :
#
#
# Convention : Reuss Voigt Hill
#
# Bulk Modulus (GPa) = 41.44708 62.08591 51.76649
# Shear Modulus (GPa) = 9.96666 23.66512 16.81589
#
# Velocity S-wave (km/s) = 2.21851 3.41854 2.88168
# Velocity P-wave (km/s) = 5.19903 6.80010 6.05274
#
# Compressibility (1/GPa) = 0.02412715
#
# Stress axis : x y z
#
# Youngs Moduli (GPa) = 106.32900 79.03217 46.48328
#
# Poissons Ratio (x) = 0.46486 0.00955
# Poissons Ratio (y) = 0.62542 0.16894
# Poissons Ratio (z) = 0.02185 0.28724
#
# Static dielectric constant tensor:
#      x y z
#    x 4.652030 0.000000 0.103660 
#    y 0.000000 3.592080 0.000000 
#    z 0.103660 0.000000 3.160640 
# 
# 
# High freq. dielectric constant tensor:
#      x y z
#    x 1.827930 0.000000 0.004120 
#    y 0.000000 1.780170 0.000000 
#    z 0.004120 0.000000 1.729730 
# 
# From -- ./inp_files/35238.got.cif
#   From: 2010.06.25/outbox.cif.g09.slc.cpg/sg10_18_cif.got.tgz:35238.got - 2010.06.27 22:07:45.
