data_PCOD8060304
_publ_section_title
;
Structure prediction by ZEFSAII (Michael W. Deem and Ramdas Pophale) SiO2 
 PCOD8060304
Probable space group: P 2/M
;
_chemical_formula_sum "Si O2"
_cell_formula_units_Z 32
_cell_length_a 23.122617
_cell_length_b 9.520227
_cell_length_c 15.047981
_cell_angle_alpha 90.000000
_cell_angle_beta 30.654144
_cell_angle_gamma 90.000000
_cell_volume 1688.919112
_symmetry_space_group_name_H-M "P 2/M"
_symmetry_group_IT_number 10
_symmetry_cell_setting 'monoclinic'
loop_
_space_group_symop_operation_xyz
x,y,z
-x,y,-z
-x,-y,-z
x,-y,z
loop_
_atom_site_type_symbol
_atom_site_label
_atom_site_fract_x
_atom_site_fract_y
_atom_site_fract_z
Si Si1 0.509741 0.835441 0.388302
Si Si2 0.333728 0.166560 0.973310
Si Si3 0.754441 0.161060 0.515929
Si Si4 0.737724 0.159140 0.337349
Si Si5 0.050031 0.663541 0.671267
Si Si6 0.072617 0.161890 0.315508
Si Si7 0.922427 0.661273 0.022725
Si Si8 0.503603 0.165821 0.896397
O O1 0.500000 0.766451 0.500000
O O2 0.612772 0.774919 0.190759
O O3 0.394503 0.801694 0.487923
O O4 0.530195 0.000000 0.373244
O O5 0.404488 0.228344 0.963907
O O6 0.347850 0.000000 0.954651
O O7 0.202760 0.210224 0.158005
O O8 0.788625 0.181611 0.368238
O O9 0.828506 0.261200 0.480840
O O10 0.624288 0.205487 0.695780
O O11 0.773322 0.000000 0.521678
O O12 0.804588 0.254624 0.178867
O O13 0.753951 0.000000 0.283735
O O14 0.068883 0.500000 0.624898
O O15 0.978836 0.735059 0.688500
O O16 0.982076 0.687229 0.851119
O O17 0.000000 0.181441 0.500000
O O18 0.067707 0.000000 0.289532
O O19 0.892592 0.500000 0.078865
O O20 0.000000 0.719236 0.000000
O O21 0.486603 0.000000 0.925035
O O22 0.500000 0.232090 0.000000
#
# Coordination Sequence:
#
# PCOD8060304 Si02
#       8
#     4   4   4   4   4   4   4   4
#     4   9  17  29  47  75 110 145 176 215 276 339
#     4   9  17  32  51  79 116 145 176 221 277 337
#     4  10  19  33  55  85 115 141 185 239 281 332
#     4  10  19  31  52  81 110 140 181 231 279 329
#     4  11  24  40  58  79 111 156 197 231 280 340
#     4  10  23  40  61  88 115 147 192 241 283 329
#     4  10  21  37  53  74 109 150 186 220 271 338
#     4   9  17  29  52  82 111 143 173 218 285 341
#
# _framework density 18.947030000000002
#
# number of rings (size 3 to 8) (size 9 to 14) (size 15 to 20)
#    0.000    2.250    2.500    0.375    3.500    1.500 
#    0.000    0.000    0.000    2.250    0.000    0.000 
#    0.000    0.000    0.000    0.000    0.000    0.000 
#
# Total GULP energy -396712.453362 kJ/mol
# GULP energy per Si atom -12397.264168 kJ/mol
# Density = 1.890391 g / cm^3
# Si number density = 18.947030 Si / 1000 Ang^3
#
#
#
# Elastic Constant Matrix: (Units=GPa)
#
#
# Indices 1 2 3 4 5 6 
#
# 1 135.6584 47.2455 62.8535 0.0000 -5.7679 0.0000
# 2 47.2455 59.8212 42.7638 0.0000 -8.3028 0.0000
# 3 62.8535 42.7638 118.8573 0.0000 -9.5747 0.0000
# 4 0.0000 0.0000 0.0000 5.0793 0.0000 9.7104
# 5 -5.7679 -8.3028 -9.5747 0.0000 30.3173 0.0000
# 6 0.0000 0.0000 0.0000 9.7104 0.0000 14.9134
#
#
#
# Elastic Compliance Matrix: (Units=1/GPa)
#
#
# Indices 1 2 3 4 5 6 
#
# 1 0.011283 -0.006339 -0.003748 0.000000 -0.000773 0.000000
# 2 -0.006339 0.026478 -0.005836 0.000000 0.004202 0.000000
# 3 -0.003748 -0.005836 0.012630 0.000000 0.001678 0.000000
# 4 0.000000 0.000000 0.000000 -0.804285 0.000000 0.523685
# 5 -0.000773 0.004202 0.001678 0.000000 0.034518 0.000000
# 6 0.000000 0.000000 0.000000 0.523685 0.000000 -0.273928
#
#
# Mechanical properties :
#
#
# Convention : Reuss Voigt Hill
#
# Bulk Modulus (GPa) = 53.92212 68.89585 61.40898
# Shear Modulus (GPa) = -5.23409 20.82695 7.79643
#
# Velocity S-wave (km/s) = -1.66388 3.31904 2.03071
# Velocity P-wave (km/s) = 4.98296 7.15048 6.16276
#
# Compressibility (1/GPa) = 0.01854527
#
# Stress axis : x y z
#
# Youngs Moduli (GPa) = 88.63055 37.76741 79.17423
#
# Poissons Ratio (x) = 0.23940 0.29676
# Poissons Ratio (y) = 0.56181 0.46205
# Poissons Ratio (z) = 0.33220 0.22041
#
# Static dielectric constant tensor:
#      x y z
#    x 3.560590 0.000000 0.001900 
#    y 0.000000 3.031600 0.000000 
#    z 0.001900 0.000000 3.513010 
# 
# 
# High freq. dielectric constant tensor:
#      x y z
#    x 1.742590 0.000000 0.000180 
#    y 0.000000 1.681130 0.000000 
#    z 0.000180 0.000000 1.747480 
# 
# From -- ./inp_files/71403.got.cif
#   From: 2010.06.25/outbox.cif.g09.slc.cpg/sg10_36_cif.got.tgz:71403.got - 2010.06.27 22:07:45.
