data_PCOD8060824
_publ_section_title
;
Structure prediction by ZEFSAII (Michael W. Deem and Ramdas Pophale) SiO2 
 PCOD8060824
Probable space group: P 2/M
;
_chemical_formula_sum "Si O2"
_cell_formula_units_Z 24
_cell_length_a 20.342743
_cell_length_b 9.289247
_cell_length_c 8.936419
_cell_angle_alpha 90.000000
_cell_angle_beta 49.748196
_cell_angle_gamma 90.000000
_cell_volume 1288.839413
_symmetry_space_group_name_H-M "P 2/M"
_symmetry_group_IT_number 10
_symmetry_cell_setting 'monoclinic'
loop_
_space_group_symop_operation_xyz
x,y,z
-x,y,-z
-x,-y,-z
x,-y,z
loop_
_atom_site_type_symbol
_atom_site_label
_atom_site_fract_x
_atom_site_fract_y
_atom_site_fract_z
Si Si1 0.737863 0.830163 0.721225
Si Si2 0.908718 0.661256 0.816259
Si Si3 0.253477 0.167430 0.946531
Si Si4 0.902328 0.662703 0.470283
Si Si5 0.581490 0.834463 0.485362
Si Si6 0.414017 0.667221 0.219686
O O1 0.828323 0.770757 0.522127
O O2 0.661689 0.755772 0.744813
O O3 0.733991 0.000000 0.700157
O O4 0.727828 0.787697 0.909886
O O5 0.892693 0.500000 0.897707
O O6 0.905779 0.666957 0.642912
O O7 0.003903 0.713012 0.730340
O O8 0.832372 0.758966 0.994341
O O9 0.334203 0.215168 0.728947
O O10 0.236044 0.000000 0.962512
O O11 0.881933 0.500000 0.446304
O O12 0.500000 0.815391 0.500000
O O13 0.568990 0.728595 0.641407
O O14 0.589668 0.000000 0.527560
O O15 0.388398 0.500000 0.266653
O O16 0.500000 0.690976 0.000000
#
# Coordination Sequence:
#
# PCOD8060824 Si02
#       6
#     4   4   4   4   4   4
#     4  10  19  32  53  79 106 138 173 210 256 304
#     4   8  14  25  44  70 102 140 174 207 251 299
#     4   9  18  31  50  78 107 135 171 214 256 301
#     4   8  14  26  44  70 104 138 173 211 250 295
#     4  10  21  38  58  78 103 135 170 210 257 308
#     4  11  24  39  55  77 104 134 170 212 256 304
#
# _framework density 18.621404999999999
#
# number of rings (size 3 to 8) (size 9 to 14) (size 15 to 20)
#    0.000    2.667    0.000    3.000    0.000    5.000 
#    0.000    3.333    0.000    1.000    0.000    7.000 
#    0.000    0.000    0.000    0.000    0.000    0.000 
#
# Total GULP energy -297529.177848 kJ/mol
# GULP energy per Si atom -12397.049077 kJ/mol
# Density = 1.857902 g / cm^3
# Si number density = 18.621405 Si / 1000 Ang^3
#
#
#
# Elastic Constant Matrix: (Units=GPa)
#
#
# Indices 1 2 3 4 5 6 
#
# 1 98.2037 62.6626 50.4467 0.0000 -25.3930 0.0000
# 2 62.6626 88.4146 50.5739 0.0000 -14.8210 0.0000
# 3 50.4467 50.5739 98.3286 0.0000 -23.7696 0.0000
# 4 0.0000 0.0000 0.0000 23.3553 0.0000 -7.6231
# 5 -25.3930 -14.8210 -23.7696 0.0000 32.0795 0.0000
# 6 0.0000 0.0000 0.0000 -7.6231 0.0000 32.9960
#
#
#
# Elastic Compliance Matrix: (Units=1/GPa)
#
#
# Indices 1 2 3 4 5 6 
#
# 1 0.021966 -0.012517 -0.002468 0.000000 0.009775 0.000000
# 2 -0.012517 0.023224 -0.006486 0.000000 -0.003985 0.000000
# 3 -0.002468 -0.006486 0.016538 0.000000 0.007303 0.000000
# 4 0.000000 0.000000 0.000000 0.046309 0.000000 0.010699
# 5 0.009775 -0.003985 0.007303 0.000000 0.042481 0.000000
# 6 0.000000 0.000000 0.000000 0.010699 0.000000 0.032778
#
#
# Mechanical properties :
#
#
# Convention : Reuss Voigt Hill
#
# Bulk Modulus (GPa) = 53.23660 68.03479 60.63570
# Shear Modulus (GPa) = 21.50531 25.77042 23.63787
#
# Velocity S-wave (km/s) = 3.40203 3.72414 3.56672
# Velocity P-wave (km/s) = 6.63948 7.42343 7.04237
#
# Compressibility (1/GPa) = 0.01878407
#
# Stress axis : x y z
#
# Youngs Moduli (GPa) = 45.52582 43.05872 60.46737
#
# Poissons Ratio (x) = 0.53898 0.14924
# Poissons Ratio (y) = 0.56986 0.39221
# Poissons Ratio (z) = 0.11236 0.27929
#
# Static dielectric constant tensor:
#      x y z
#    x 3.489120 0.000000 -0.425860 
#    y 0.000000 3.506840 0.000000 
#    z -0.425860 0.000000 3.571680 
# 
# 
# High freq. dielectric constant tensor:
#      x y z
#    x 1.718320 0.000000 -0.030240 
#    y 0.000000 1.721390 0.000000 
#    z -0.030240 0.000000 1.709080 
# 
# From -- ./inp_files/33794.got.cif
#   From: 2010.06.25/outbox.cif.g09.slc.cpg/sg10_17_cif.got.tgz:33794.got - 2010.06.27 22:07:45.
