data_PCOD8060415
_publ_section_title
;
Structure prediction by ZEFSAII (Michael W. Deem and Ramdas Pophale) SiO2 
 PCOD8060415
Probable space group: P 2/M
;
_chemical_formula_sum "Si O2"
_cell_formula_units_Z 32
_cell_length_a 15.546068
_cell_length_b 8.916013
_cell_length_c 14.263684
_cell_angle_alpha 90.000000
_cell_angle_beta 87.957780
_cell_angle_gamma 90.000000
_cell_volume 1975.818422
_symmetry_space_group_name_H-M "P 2/M"
_symmetry_group_IT_number 10
_symmetry_cell_setting 'monoclinic'
loop_
_space_group_symop_operation_xyz
x,y,z
-x,y,-z
-x,-y,-z
x,-y,z
loop_
_atom_site_type_symbol
_atom_site_label
_atom_site_fract_x
_atom_site_fract_y
_atom_site_fract_z
Si Si1 0.403507 0.177587 0.903684
Si Si2 0.010501 0.668768 0.388784
Si Si3 0.400989 0.177701 0.111149
Si Si4 0.672936 0.821921 0.282096
Si Si5 0.817655 0.825310 0.600576
Si Si6 0.501335 0.825515 0.390209
Si Si7 0.342892 0.677212 0.294613
Si Si8 0.838902 0.175195 0.381552
O O1 0.500515 0.231253 0.878104
O O2 0.340170 0.237381 0.824218
O O3 0.406143 0.000000 0.902970
O O4 0.371608 0.229827 0.007682
O O5 0.022028 0.500000 0.350567
O O6 0.925460 0.740594 0.346175
O O7 0.000000 0.671211 0.500000
O O8 0.093568 0.766213 0.357471
O O9 0.341473 0.261282 0.188429
O O10 0.391157 0.000000 0.124888
O O11 0.592995 0.768583 0.348415
O O12 0.761604 0.758119 0.321018
O O13 0.677495 0.000000 0.285039
O O14 0.739933 0.736726 0.648860
O O15 0.815168 0.793356 0.490041
O O16 0.808258 0.000000 0.623444
O O17 0.500000 0.795453 0.500000
O O18 0.427614 0.730550 0.344522
O O19 0.485554 0.000000 0.366716
O O20 0.339904 0.500000 0.292838
O O21 0.854040 0.000000 0.363956
#
# Coordination Sequence:
#
# PCOD8060415 Si02
#       8
#     4   4   4   4   4   4   4   4
#     4   8  14  26  49  72  88 114 157 207 243 269
#     4   9  17  30  47  68  95 124 153 191 238 280
#     4   9  16  30  50  68  87 118 161 202 240 279
#     4   9  15  26  46  71  94 118 156 198 232 269
#     4  10  19  32  49  68  92 125 165 201 229 270
#     4  10  19  32  49  66  90 128 168 199 227 267
#     4  12  23  32  44  67  98 129 157 193 242 289
#     4   9  17  29  48  72  95 122 157 194 230 274
#
# _framework density 16.195820000000001
#
# number of rings (size 3 to 8) (size 9 to 14) (size 15 to 20)
#    0.000    2.500    1.250    3.375    0.000    4.250 
#    0.000    1.875    0.000    0.000    0.000    0.875 
#    0.000    7.000    0.000    0.000    0.000    0.000 
#
# Total GULP energy -396713.239606 kJ/mol
# GULP energy per Si atom -12397.288738 kJ/mol
# Density = 1.615896 g / cm^3
# Si number density = 16.195820 Si / 1000 Ang^3
#
#
#
# Elastic Constant Matrix: (Units=GPa)
#
#
# Indices 1 2 3 4 5 6 
#
# 1 116.4741 39.3245 49.1759 0.0000 25.1103 0.0000
# 2 39.3245 70.7403 37.0102 0.0000 3.3099 0.0000
# 3 49.1759 37.0102 83.9838 0.0000 17.5907 0.0000
# 4 0.0000 0.0000 0.0000 9.9428 0.0000 -1.2776
# 5 25.1103 3.3099 17.5907 0.0000 10.7332 0.0000
# 6 0.0000 0.0000 0.0000 -1.2776 0.0000 16.8450
#
#
#
# Elastic Compliance Matrix: (Units=1/GPa)
#
#
# Indices 1 2 3 4 5 6 
#
# 1 0.023553 -0.012311 0.003624 0.000000 -0.057246 0.000000
# 2 -0.012311 0.025803 -0.012986 0.000000 0.042127 0.000000
# 3 0.003624 -0.012986 0.025040 0.000000 -0.045513 0.000000
# 4 0.000000 0.000000 0.000000 0.101565 0.000000 0.007703
# 5 -0.057246 0.042127 -0.045513 0.000000 0.288695 0.000000
# 6 0.000000 0.000000 0.000000 0.007703 0.000000 0.059949
#
#
# Mechanical properties :
#
#
# Convention : Reuss Voigt Hill
#
# Bulk Modulus (GPa) = 32.20471 58.02438 45.11455
# Shear Modulus (GPa) = 8.64600 17.21672 12.93136
#
# Velocity S-wave (km/s) = 2.31301 3.26396 2.82873
# Velocity P-wave (km/s) = 5.20203 7.07878 6.21169
#
# Compressibility (1/GPa) = 0.03105136
#
# Stress axis : x y z
#
# Youngs Moduli (GPa) = 42.45666 38.75561 39.93535
#
# Poissons Ratio (x) = 0.47712 -0.14473
# Poissons Ratio (y) = 0.52268 0.51860
# Poissons Ratio (z) = -0.15387 0.50328
#
# Static dielectric constant tensor:
#      x y z
#    x 3.226690 0.000000 0.134110 
#    y 0.000000 2.889080 0.000000 
#    z 0.134110 0.000000 3.221950 
# 
# 
# High freq. dielectric constant tensor:
#      x y z
#    x 1.614800 0.000000 0.004020 
#    y 0.000000 1.602450 0.000000 
#    z 0.004020 0.000000 1.607820 
# 
# From -- ./inp_files/66112.got.cif
#   From: 2010.06.25/outbox.cif.g09.slc.cpg/sg10_34_cif.got.tgz:66112.got - 2010.06.27 22:07:45.
