data_PCOD8060915
_publ_section_title
;
Structure prediction by ZEFSAII (Michael W. Deem and Ramdas Pophale) SiO2 
 PCOD8060915
Probable space group: P 2/M
;
_chemical_formula_sum "Si O2"
_cell_formula_units_Z 28
_cell_length_a 11.765208
_cell_length_b 8.942161
_cell_length_c 15.731544
_cell_angle_alpha 90.000000
_cell_angle_beta 62.952126
_cell_angle_gamma 90.000000
_cell_volume 1474.039905
_symmetry_space_group_name_H-M "P 2/M"
_symmetry_group_IT_number 10
_symmetry_cell_setting 'monoclinic'
loop_
_space_group_symop_operation_xyz
x,y,z
-x,y,-z
-x,-y,-z
x,-y,z
loop_
_atom_site_type_symbol
_atom_site_label
_atom_site_fract_x
_atom_site_fract_y
_atom_site_fract_z
Si Si1 0.584572 0.174230 0.287808
Si Si2 0.524662 0.821808 0.117778
Si Si3 0.317267 0.324716 0.074282
Si Si4 0.784035 0.676364 0.329574
Si Si5 0.118604 0.172791 0.407259
Si Si6 0.331742 0.171577 0.469380
Si Si7 0.930809 0.327009 0.746999
O O1 0.541272 0.228087 0.209563
O O2 0.712917 0.258407 0.271546
O O3 0.476120 0.210781 0.394498
O O4 0.614890 0.000000 0.275254
O O5 0.398151 0.743076 0.124880
O O6 0.511569 0.000000 0.112422
O O7 0.647378 0.762717 0.023870
O O8 0.349568 0.500000 0.054382
O O9 0.166612 0.299511 0.142006
O O10 0.781929 0.500000 0.323090
O O11 0.713279 0.723387 0.439719
O O12 0.929276 0.739123 0.279228
O O13 0.247989 0.199901 0.414341
O O14 0.131891 0.252255 0.313338
O O15 0.000000 0.241323 0.500000
O O16 0.092684 0.000000 0.397627
O O17 0.319541 0.000000 0.504132
O O18 0.945161 0.500000 0.720696
#
# Coordination Sequence:
#
# PCOD8060915 Si02
#       7
#     4   4   4   4   4   4   4
#     4  10  22  38  56  77 106 143 181 222 271 319
#     4  10  20  37  60  86 111 136 174 225 273 317
#     4  10  20  36  59  85 112 142 174 214 271 330
#     4  11  23  37  53  76 108 145 186 225 261 311
#     4  10  19  32  54  81 107 139 179 220 266 319
#     4  10  20  36  55  78 108 142 179 222 270 320
#     4  10  22  37  53  78 113 148 179 218 270 320
#
# _framework density 18.995415000000001
#
# number of rings (size 3 to 8) (size 9 to 14) (size 15 to 20)
#    0.000    1.857    1.429    3.429    0.000    7.143 
#    0.000    0.714    0.000    4.286    0.000    0.000 
#    0.000    0.000    0.000    0.000    0.000    0.000 
#
# Total GULP energy -347249.867801 kJ/mol
# GULP energy per Si atom -12401.780993 kJ/mol
# Density = 1.895218 g / cm^3
# Si number density = 18.995415 Si / 1000 Ang^3
#
#
#
# Elastic Constant Matrix: (Units=GPa)
#
#
# Indices 1 2 3 4 5 6 
#
# 1 90.3876 30.4155 38.0966 0.0000 -6.3571 0.0000
# 2 30.4155 53.8509 29.6930 0.0000 0.8802 0.0000
# 3 38.0966 29.6930 87.4604 0.0000 -2.1616 0.0000
# 4 0.0000 0.0000 0.0000 -2.7077 0.0000 -26.2769
# 5 -6.3571 0.8802 -2.1616 0.0000 22.0299 0.0000
# 6 0.0000 0.0000 0.0000 -26.2769 0.0000 1.9205
#
#
#
# Elastic Compliance Matrix: (Units=1/GPa)
#
#
# Indices 1 2 3 4 5 6 
#
# 1 0.015353 -0.006288 -0.004448 0.000000 0.004245 0.000000
# 2 -0.006288 0.025484 -0.005997 0.000000 -0.003421 0.000000
# 3 -0.004448 -0.005997 0.015419 0.000000 0.000469 0.000000
# 4 0.000000 0.000000 0.000000 -0.002761 0.000000 -0.037772
# 5 0.004245 -0.003421 0.000469 0.000000 0.046801 0.000000
# 6 0.000000 0.000000 0.000000 -0.037772 0.000000 0.003892
#
#
# Mechanical properties :
#
#
# Convention : Reuss Voigt Hill
#
# Bulk Modulus (GPa) = 43.88065 47.56767 45.72416
# Shear Modulus (GPa) = 34.42320 13.14814 23.78567
#
# Velocity S-wave (km/s) = 4.26159 2.63377 3.54245
# Velocity P-wave (km/s) = 6.88228 5.86046 6.39182
#
# Compressibility (1/GPa) = 0.02278909
#
# Stress axis : x y z
#
# Youngs Moduli (GPa) = 65.13544 39.23973 64.85602
#
# Poissons Ratio (x) = 0.24675 0.28845
# Poissons Ratio (y) = 0.40959 0.38897
# Poissons Ratio (z) = 0.28969 0.23534
#
# Static dielectric constant tensor:
#      x y z
#    x 3.590180 0.000000 -0.108830 
#    y 0.000000 3.416720 0.000000 
#    z -0.108830 0.000000 3.474980 
# 
# 
# High freq. dielectric constant tensor:
#      x y z
#    x 1.740650 0.000000 -0.007650 
#    y 0.000000 1.734930 0.000000 
#    z -0.007650 0.000000 1.735940 
# 
# From -- ./inp_files/63645.got.cif
#   From: 2010.06.25/outbox.cif.g09.slc.cpg/sg10_32_cif.got.tgz:63645.got - 2010.06.27 22:07:45.
