data_PCOD8060963
_publ_section_title
;
Structure prediction by ZEFSAII (Michael W. Deem and Ramdas Pophale) SiO2 
 PCOD8060963
Probable space group: P 2/M
;
_chemical_formula_sum "Si O2"
_cell_formula_units_Z 28
_cell_length_a 15.137736
_cell_length_b 8.603087
_cell_length_c 12.395085
_cell_angle_alpha 90.000000
_cell_angle_beta 53.014501
_cell_angle_gamma 90.000000
_cell_volume 1289.425258
_symmetry_space_group_name_H-M "P 2/M"
_symmetry_group_IT_number 10
_symmetry_cell_setting 'monoclinic'
loop_
_space_group_symop_operation_xyz
x,y,z
-x,y,-z
-x,-y,-z
x,-y,z
loop_
_atom_site_type_symbol
_atom_site_label
_atom_site_fract_x
_atom_site_fract_y
_atom_site_fract_z
Si Si1 0.397607 0.832787 0.004156
Si Si2 0.472941 0.322179 0.745705
Si Si3 0.194615 0.817139 0.293920
Si Si4 0.236999 0.317148 0.868053
Si Si5 0.086401 0.681095 0.176600
Si Si6 0.861534 0.180677 0.265246
Si Si7 0.718900 0.317033 0.553508
O O1 0.304784 0.767441 0.151231
O O2 0.361885 0.000000 0.975538
O O3 0.500000 0.875731 0.000000
O O4 0.433020 0.698102 0.897053
O O5 0.489095 0.500000 0.704988
O O6 0.365674 0.260970 0.757083
O O7 0.593548 0.242639 0.639441
O O8 0.099132 0.737054 0.291714
O O9 0.205104 0.754563 0.407683
O O10 0.172341 0.000000 0.315536
O O11 0.225199 0.500000 0.852218
O O12 0.161372 0.220377 0.842421
O O13 0.194731 0.283479 0.022230
O O14 0.056634 0.500000 0.198359
O O15 0.986674 0.775724 0.198102
O O16 0.776806 0.280484 0.398689
O O17 0.842121 0.000000 0.302047
O O18 0.711753 0.500000 0.578827
#
# Coordination Sequence:
#
# PCOD8060963 Si02
#       7
#     4   4   4   4   4   4   4
#     4  10  19  32  54  88 129 167 198 244 308 368
#     4  10  21  37  62  94 125 161 206 254 302 364
#     4  11  22  37  61  95 132 165 203 252 309 369
#     4  10  22  42  67  95 125 159 204 258 313 365
#     4  11  23  42  69  96 124 160 207 259 311 367
#     4  12  27  45  64  88 123 165 212 261 312 370
#     4  11  24  42  64  91 127 170 212 252 303 369
#
# _framework density 21.715102000000002
#
# number of rings (size 3 to 8) (size 9 to 14) (size 15 to 20)
#    0.000    1.286    2.857    3.000    0.000    6.000 
#    0.000    5.714    0.000    0.000    0.000    0.000 
#    0.000    0.000    0.000    0.000    0.000    0.000 
#
# Total GULP energy -347020.231945 kJ/mol
# GULP energy per Si atom -12393.579712 kJ/mol
# Density = 2.166568 g / cm^3
# Si number density = 21.715102 Si / 1000 Ang^3
#
#
#
# Elastic Constant Matrix: (Units=GPa)
#
#
# Indices 1 2 3 4 5 6 
#
# 1 116.6756 30.7071 7.5597 0.0000 -2.8372 0.0000
# 2 30.7071 58.3901 11.5749 0.0000 2.0714 0.0000
# 3 7.5597 11.5749 53.7060 0.0000 -7.6137 0.0000
# 4 0.0000 0.0000 0.0000 28.6522 0.0000 1.7335
# 5 -2.8372 2.0714 -7.6137 0.0000 24.8455 0.0000
# 6 0.0000 0.0000 0.0000 1.7335 0.0000 27.6228
#
#
#
# Elastic Compliance Matrix: (Units=1/GPa)
#
#
# Indices 1 2 3 4 5 6 
#
# 1 0.010010 -0.005312 -0.000041 0.000000 0.001573 0.000000
# 2 -0.005312 0.020897 -0.004275 0.000000 -0.003659 0.000000
# 3 -0.000041 -0.004275 0.020487 0.000000 0.006630 0.000000
# 4 0.000000 0.000000 0.000000 0.035034 0.000000 -0.002199
# 5 0.001573 -0.003659 0.006630 0.000000 0.042765 0.000000
# 6 0.000000 0.000000 0.000000 -0.002199 0.000000 0.036340
#
#
# Mechanical properties :
#
#
# Convention : Reuss Voigt Hill
#
# Bulk Modulus (GPa) = 31.11569 36.49501 33.80535
# Shear Modulus (GPa) = 25.57540 28.15279 26.86410
#
# Velocity S-wave (km/s) = 3.43559 3.60455 3.52108
# Velocity P-wave (km/s) = 5.48615 5.84521 5.66852
#
# Compressibility (1/GPa) = 0.03213813
#
# Stress axis : x y z
#
# Youngs Moduli (GPa) = 99.90369 47.85427 48.81176
#
# Poissons Ratio (x) = 0.25419 0.00201
# Poissons Ratio (y) = 0.53066 0.20866
# Poissons Ratio (z) = 0.00411 0.20457
#
# Static dielectric constant tensor:
#      x y z
#    x 4.165420 0.000000 -0.124360 
#    y 0.000000 3.764470 0.000000 
#    z -0.124360 0.000000 3.740630 
# 
# 
# High freq. dielectric constant tensor:
#      x y z
#    x 1.869300 0.000000 -0.006990 
#    y 0.000000 1.844230 0.000000 
#    z -0.006990 0.000000 1.839220 
# 
# From -- ./inp_files/49659.got.cif
#   From: 2010.06.25/outbox.cif.g09.slc.cpg/sg10_25_cif.got.tgz:49659.got - 2010.06.27 22:07:45.
