data_PCOD8060254
_publ_section_title
;
Structure prediction by ZEFSAII (Michael W. Deem and Ramdas Pophale) SiO2 
 PCOD8060254
Probable space group: P 2/M
;
_chemical_formula_sum "Si O2"
_cell_formula_units_Z 30
_cell_length_a 5.065403
_cell_length_b 24.363125
_cell_length_c 14.488275
_cell_angle_alpha 90.000000
_cell_angle_beta 119.917047
_cell_angle_gamma 90.000000
_cell_volume 1549.732442
_symmetry_space_group_name_H-M "P 2/M"
_symmetry_group_IT_number 10
_symmetry_cell_setting 'monoclinic'
loop_
_space_group_symop_operation_xyz
x,y,z
-x,y,-z
-x,-y,-z
x,-y,z
loop_
_atom_site_type_symbol
_atom_site_label
_atom_site_fract_x
_atom_site_fract_y
_atom_site_fract_z
Si Si1 0.849954 0.000000 0.575025
Si Si2 0.357055 0.641782 0.068847
Si Si3 0.301456 0.437096 0.742343
Si Si4 0.367608 0.562842 0.385356
Si Si5 0.575920 0.853784 0.251701
Si Si6 0.232773 0.882747 0.378315
Si Si7 0.358799 0.233472 0.071412
Si Si8 0.660317 0.937896 0.930555
O O1 0.500000 0.000000 0.500000
O O2 0.913485 0.944452 0.643564
O O3 0.000000 0.000000 0.500000
O O4 0.457900 0.601464 0.166458
O O5 0.466528 0.704001 0.106657
O O6 0.500000 0.619037 0.000000
O O7 0.000000 0.638991 0.000000
O O8 0.339571 0.500000 0.783557
O O9 0.377799 0.432065 0.647879
O O10 0.962370 0.412810 0.700751
O O11 0.500000 0.592418 0.500000
O O12 0.291461 0.500000 0.397139
O O13 0.366494 0.866497 0.303031
O O14 0.471612 0.799022 0.180943
O O15 0.541325 0.904530 0.176426
O O16 0.930865 0.845951 0.343588
O O17 0.500000 0.873273 0.500000
O O18 0.500000 0.210434 0.000000
O O19 0.000000 0.228119 0.000000
O O20 0.682374 0.000000 0.896945
O O21 0.500000 0.934958 0.000000
O O22 0.000000 0.912603 0.000000
#
# Coordination Sequence:
#
# PCOD8060254 Si02
#       8
#     2   4   4   4   4   4   4   4
#     4  10  20  38  56  76 110 146 180 222 258 306
#     4  10  21  36  55  79 110 145 179 226 275 326
#     4  10  19  31  51  79 110 144 183 227 275 334
#     4   9  17  30  49  74 106 144 183 225 268 315
#     4  12  22  36  62  81 105 146 183 220 270 320
#     4  11  24  38  57  83 113 144 183 225 265 316
#     4  10  21  39  61  84 107 137 187 232 270 326
#     4  10  21  35  51  77 111 135 163 211 264 317
#
# _framework density 19.358181999999999
#
# number of rings (size 3 to 8) (size 9 to 14) (size 15 to 20)
#    0.000    1.733    0.000    5.600    1.867    2.133 
#    0.000    0.000    0.000    4.800    0.000    0.000 
#    0.000    0.000    0.000    0.000    0.000    0.000 
#
# Total GULP energy -371909.256317 kJ/mol
# GULP energy per Si atom -12396.975211 kJ/mol
# Density = 1.931412 g / cm^3
# Si number density = 19.358182 Si / 1000 Ang^3
#
#
#
# Elastic Constant Matrix: (Units=GPa)
#
#
# Indices 1 2 3 4 5 6 
#
# 1 123.5204 19.1065 24.4521 0.0000 -4.6061 0.0000
# 2 19.1065 70.1210 45.9079 0.0000 -4.1720 0.0000
# 3 24.4521 45.9079 89.3646 0.0000 -0.0317 0.0000
# 4 0.0000 0.0000 0.0000 13.0811 0.0000 -4.9113
# 5 -4.6061 -4.1720 -0.0317 0.0000 38.2613 0.0000
# 6 0.0000 0.0000 0.0000 -4.9113 0.0000 15.1172
#
#
#
# Elastic Compliance Matrix: (Units=1/GPa)
#
#
# Indices 1 2 3 4 5 6 
#
# 1 0.008659 -0.001136 -0.001785 0.000000 0.000917 0.000000
# 2 -0.001136 0.021848 -0.010912 0.000000 0.002236 0.000000
# 3 -0.001785 -0.010912 0.017284 0.000000 -0.001390 0.000000
# 4 0.000000 0.000000 0.000000 0.087067 0.000000 0.028286
# 5 0.000917 0.002236 -0.001390 0.000000 0.026489 0.000000
# 6 0.000000 0.000000 0.000000 0.028286 0.000000 0.075340
#
#
# Mechanical properties :
#
#
# Convention : Reuss Voigt Hill
#
# Bulk Modulus (GPa) = 49.69180 51.32655 50.50917
# Shear Modulus (GPa) = 18.44608 26.19455 22.32031
#
# Velocity S-wave (km/s) = 3.09023 3.68251 3.39929
# Velocity P-wave (km/s) = 6.20146 6.68228 6.44635
#
# Compressibility (1/GPa) = 0.02012405
#
# Stress axis : x y z
#
# Youngs Moduli (GPa) = 115.48429 45.77170 57.85794
#
# Poissons Ratio (x) = 0.05199 0.10330
# Poissons Ratio (y) = 0.13118 0.63133
# Poissons Ratio (z) = 0.20619 0.49945
#
# Static dielectric constant tensor:
#      x y z
#    x 3.712480 0.000000 0.078150 
#    y 0.000000 3.201570 0.000000 
#    z 0.078150 0.000000 3.455760 
# 
# 
# High freq. dielectric constant tensor:
#      x y z
#    x 1.779640 0.000000 0.004960 
#    y 0.000000 1.721410 0.000000 
#    z 0.004960 0.000000 1.750900 
# 
# From -- ./inp_files/59732.got.cif
#   From: 2010.06.25/outbox.cif.g09.slc.cpg/sg10_30_cif.got.tgz:59732.got - 2010.06.27 22:07:45.
