data_PCOD8060112
_publ_section_title
;
Structure prediction by ZEFSAII (Michael W. Deem and Ramdas Pophale) SiO2 
 PCOD8060112
Probable space group: P 2/M
;
_chemical_formula_sum "Si O2"
_cell_formula_units_Z 32
_cell_length_a 11.644790
_cell_length_b 9.180589
_cell_length_c 21.218448
_cell_angle_alpha 90.000000
_cell_angle_beta 127.202232
_cell_angle_gamma 90.000000
_cell_volume 1806.779155
_symmetry_space_group_name_H-M "P 2/M"
_symmetry_group_IT_number 10
_symmetry_cell_setting 'monoclinic'
loop_
_space_group_symop_operation_xyz
x,y,z
-x,y,-z
-x,-y,-z
x,-y,z
loop_
_atom_site_type_symbol
_atom_site_label
_atom_site_fract_x
_atom_site_fract_y
_atom_site_fract_z
Si Si1 0.674240 0.669352 0.903287
Si Si2 0.144623 0.173659 0.282280
Si Si3 0.230203 0.839203 0.177074
Si Si4 0.361991 0.667993 0.748541
Si Si5 0.657997 0.673347 0.037509
Si Si6 0.139683 0.670611 0.783263
Si Si7 0.550694 0.163704 0.336842
Si Si8 0.566485 0.667556 0.590635
O O1 0.702639 0.500000 0.907713
O O2 0.784511 0.740062 0.889740
O O3 0.508486 0.708643 0.833849
O O4 0.708804 0.726708 0.985151
O O5 0.134323 0.216058 0.204312
O O6 0.283231 0.246673 0.359995
O O7 0.005134 0.236324 0.270753
O O8 0.156754 0.000000 0.294593
O O9 0.392839 0.838500 0.255208
O O10 0.181884 0.000000 0.140728
O O11 0.365468 0.500000 0.729434
O O12 0.228953 0.702100 0.749814
O O13 0.342756 0.763179 0.678924
O O14 0.647398 0.500000 0.035969
O O15 0.770999 0.728593 0.126866
O O16 0.500000 0.738577 0.000000
O O17 0.103393 0.500000 0.778062
O O18 0.547709 0.258877 0.399423
O O19 0.604229 0.000000 0.369724
O O20 0.500000 0.678285 0.500000
O O21 0.592400 0.500000 0.619453
#
# Coordination Sequence:
#
# PCOD8060112 Si02
#       8
#     4   4   4   4   4   4   4   4
#     4   9  15  25  46  71  92 121 165 216 260 296
#     4  10  21  36  52  72 102 137 169 202 246 305
#     4   8  16  30  45  63  91 127 164 204 248 294
#     4   9  16  27  46  72  99 131 172 214 254 293
#     4   9  15  27  46  70  99 128 167 218 263 299
#     4  10  19  31  50  73 100 136 174 216 259 299
#     4   9  17  29  48  75 105 134 164 200 242 292
#     4  10  20  35  58  85 107 127 157 200 246 293
#
# _framework density 17.711075000000001
#
# number of rings (size 3 to 8) (size 9 to 14) (size 15 to 20)
#    0.000    2.750    1.250    1.875    0.000    5.000 
#    0.000    1.250    0.000    5.250    0.000    5.250 
#    0.000    0.000    0.000    0.000    0.000    0.000 
#
# Total GULP energy -396701.242451 kJ/mol
# GULP energy per Si atom -12396.913827 kJ/mol
# Density = 1.767076 g / cm^3
# Si number density = 17.711075 Si / 1000 Ang^3
#
#
#
# Elastic Constant Matrix: (Units=GPa)
#
#
# Indices 1 2 3 4 5 6 
#
# 1 105.5438 55.1510 41.8068 0.0000 -13.6999 0.0000
# 2 55.1510 89.1737 42.3545 0.0000 -10.9455 0.0000
# 3 41.8068 42.3545 64.6994 0.0000 -14.2805 0.0000
# 4 0.0000 0.0000 0.0000 10.1841 0.0000 -1.4837
# 5 -13.6999 -10.9455 -14.2805 0.0000 25.1573 0.0000
# 6 0.0000 0.0000 0.0000 -1.4837 0.0000 24.1514
#
#
#
# Elastic Compliance Matrix: (Units=1/GPa)
#
#
# Indices 1 2 3 4 5 6 
#
# 1 0.015308 -0.006853 -0.004828 0.000000 0.002614 0.000000
# 2 -0.006853 0.019373 -0.008251 0.000000 0.000013 0.000000
# 3 -0.004828 -0.008251 0.025842 0.000000 0.008450 0.000000
# 4 0.000000 0.000000 0.000000 0.099079 0.000000 0.006087
# 5 0.002614 0.000013 0.008450 0.000000 0.045976 0.000000
# 6 0.000000 0.000000 0.000000 0.006087 0.000000 0.041779
#
#
# Mechanical properties :
#
#
# Convention : Reuss Voigt Hill
#
# Bulk Modulus (GPa) = 48.40636 59.78238 54.09437
# Shear Modulus (GPa) = 17.00058 19.90555 18.45306
#
# Velocity S-wave (km/s) = 3.10156 3.35610 3.23134
# Velocity P-wave (km/s) = 6.34166 6.98895 6.67316
#
# Compressibility (1/GPa) = 0.02065844
#
# Stress axis : x y z
#
# Youngs Moduli (GPa) = 65.32743 51.61773 38.69604
#
# Poissons Ratio (x) = 0.35375 0.18682
# Poissons Ratio (y) = 0.44771 0.31929
# Poissons Ratio (z) = 0.31540 0.42590
#
# Static dielectric constant tensor:
#      x y z
#    x 3.381530 0.000000 -0.291110 
#    y 0.000000 3.274710 0.000000 
#    z -0.291110 0.000000 3.017340 
# 
# 
# High freq. dielectric constant tensor:
#      x y z
#    x 1.684220 0.000000 -0.025340 
#    y 0.000000 1.675440 0.000000 
#    z -0.025340 0.000000 1.652060 
# 
# From -- ./inp_files/83353.got.cif
#   From: 2010.06.25/outbox.cif.g09.slc.cpg/sg10_42_cif.got.tgz:83353.got - 2010.06.27 22:07:45.
