data_PCOD8060040
_publ_section_title
;
Structure prediction by ZEFSAII (Michael W. Deem and Ramdas Pophale) SiO2 
 PCOD8060040
Probable space group: P 2/M
;
_chemical_formula_sum "Si O2"
_cell_formula_units_Z 30
_cell_length_a 21.997110
_cell_length_b 17.477567
_cell_length_c 19.363827
_cell_angle_alpha 90.000000
_cell_angle_beta 12.531262
_cell_angle_gamma 90.000000
_cell_volume 1615.258499
_symmetry_space_group_name_H-M "P 2/M"
_symmetry_group_IT_number 10
_symmetry_cell_setting 'monoclinic'
loop_
_space_group_symop_operation_xyz
x,y,z
-x,y,-z
-x,-y,-z
x,-y,z
loop_
_atom_site_type_symbol
_atom_site_label
_atom_site_fract_x
_atom_site_fract_y
_atom_site_fract_z
Si Si1 0.536263 0.820847 0.606250
Si Si2 0.959087 0.913137 0.901498
Si Si3 0.134316 0.672827 0.276141
Si Si4 0.634019 0.584336 0.776639
Si Si5 0.324795 0.500000 0.625345
Si Si6 0.673024 0.667271 0.378291
Si Si7 0.732379 0.172091 0.945998
Si Si8 0.227570 0.915352 0.454017
O O1 0.579971 0.733997 0.533380
O O2 0.830032 0.867183 0.281933
O O3 0.334162 0.867191 0.777805
O O4 0.401404 0.813816 0.831026
O O5 0.093069 0.918303 0.678198
O O6 0.908807 0.000000 0.985302
O O7 0.199859 0.750713 0.166918
O O8 0.000000 0.686938 0.500000
O O9 0.928654 0.627210 0.453563
O O10 0.424672 0.627193 0.957546
O O11 0.688421 0.500000 0.685995
O O12 0.500000 0.578607 0.000000
O O13 0.500000 0.500000 0.500000
O O14 0.390584 0.582714 0.515707
O O15 0.000000 0.500000 0.000000
O O16 0.500000 0.676352 0.500000
O O17 0.000000 0.676346 0.000000
O O18 0.022088 0.126549 0.629102
O O19 0.524198 0.126574 0.126986
O O20 0.279250 0.000000 0.367913
#
# Coordination Sequence:
#
# PCOD8060040 Si02
#       8
#     4   4   4   4   2   4   4   4
#     4  10  19  31  51  75  97 128 159 205 246 284
#     4   9  17  30  49  73  98 127 166 200 236 285
#     4  10  19  31  49  72  98 129 162 201 242 289
#     4   9  17  30  49  70  91 122 165 202 230 274
#     4   8  16  30  50  72  90 118 157 196 231 270
#     4  10  19  33  53  75  97 125 163 202 239 287
#     4  10  19  31  49  74  98 127 158 202 249 288
#     4   9  17  30  49  71  94 124 167 206 237 283
#
# _framework density 18.572879
#
# number of rings (size 3 to 8) (size 9 to 14) (size 15 to 20)
#    0.000    2.533    0.000    2.800    0.000    4.800 
#    0.000    0.000    2.933   10.400    3.467    0.000 
#    0.000    0.000    0.000    0.000    0.000    0.000 
#
# Total GULP energy -371872.568203 kJ/mol
# GULP energy per Si atom -12395.752273 kJ/mol
# Density = 1.853061 g / cm^3
# Si number density = 18.572879 Si / 1000 Ang^3
#
#
#
# Elastic Constant Matrix: (Units=GPa)
#
#
# Indices 1 2 3 4 5 6 
#
# 1 -0.0784 56.1992 99.6030 0.0000 -9.4683 0.0000
# 2 56.1992 222.1673 79.9587 0.0000 -27.9694 0.0000
# 3 99.6030 79.9587 68.7563 0.0000 -72.5521 0.0000
# 4 0.0000 0.0000 0.0000 35.2377 0.0000 -2.2538
# 5 -9.4683 -27.9694 -72.5521 0.0000 29.7776 0.0000
# 6 0.0000 0.0000 0.0000 -2.2538 0.0000 33.3605
#
#
#
# Elastic Compliance Matrix: (Units=1/GPa)
#
#
# Indices 1 2 3 4 5 6 
#
# 1 0.028233 -0.007971 0.019133 0.000000 0.048106 0.000000
# 2 -0.007971 0.007322 -0.004848 0.000000 -0.007468 0.000000
# 3 0.019133 -0.004848 0.003768 0.000000 0.010712 0.000000
# 4 0.000000 0.000000 0.000000 0.028502 0.000000 0.001926
# 5 0.048106 -0.007468 0.010712 0.000000 0.067964 0.000000
# 6 0.000000 0.000000 0.000000 0.001926 0.000000 0.030106
#
#
# Mechanical properties :
#
#
# Convention : Reuss Voigt Hill
#
# Bulk Modulus (GPa) = 19.24888 84.70745 51.97817
# Shear Modulus (GPa) = 29.31106 23.34745 26.32926
#
# Velocity S-wave (km/s) = 3.97692 3.54937 3.76921
# Velocity P-wave (km/s) = 5.61020 7.90598 6.85488
#
# Compressibility (1/GPa) = 0.05195106
#
# Stress axis : x y z
#
# Youngs Moduli (GPa) = 35.41963 136.57425 265.35988
#
# Poissons Ratio (x) = 1.08870 -5.07708
# Poissons Ratio (y) = 0.28235 1.28633
# Poissons Ratio (z) = -0.67768 0.66204
#
# Static dielectric constant tensor:
#      x y z
#    x 3.082140 0.000000 -0.404480 
#    y 0.000000 3.888880 0.000000 
#    z -0.404480 0.000000 3.418650 
# 
# 
# High freq. dielectric constant tensor:
#      x y z
#    x 1.685370 0.000000 -0.042330 
#    y 0.000000 1.745560 0.000000 
#    z -0.042330 0.000000 1.720570 
# 
# From -- ./inp_files/91309.got.cif
#   From: 2010.06.25/outbox.cif.g09.slc.cpg/sg10_46_cif.got.tgz:91309.got - 2010.06.27 22:07:45.
