data_PCOD8060728
_publ_section_title
;
Structure prediction by ZEFSAII (Michael W. Deem and Ramdas Pophale) SiO2 
 PCOD8060728
Probable space group: P 2/M
;
_chemical_formula_sum "Si O2"
_cell_formula_units_Z 32
_cell_length_a 9.010871
_cell_length_b 13.996417
_cell_length_c 13.933343
_cell_angle_alpha 90.000000
_cell_angle_beta 61.276344
_cell_angle_gamma 90.000000
_cell_volume 1541.035789
_symmetry_space_group_name_H-M "P 2/M"
_symmetry_group_IT_number 10
_symmetry_cell_setting 'monoclinic'
loop_
_space_group_symop_operation_xyz
x,y,z
-x,y,-z
-x,-y,-z
x,-y,z
loop_
_atom_site_type_symbol
_atom_site_label
_atom_site_fract_x
_atom_site_fract_y
_atom_site_fract_z
Si Si1 0.250810 0.893167 0.095784
Si Si2 0.682413 0.239118 0.088482
Si Si3 0.701835 0.391636 0.936467
Si Si4 0.145675 0.108590 0.811252
Si Si5 0.680717 0.223295 0.399630
Si Si6 0.473338 0.398834 0.621164
Si Si7 0.184336 0.684442 0.455658
Si Si8 0.693093 0.252565 0.770955
O O1 0.279204 0.850899 0.192016
O O2 0.054168 0.887223 0.130740
O O3 0.319106 0.000000 0.073848
O O4 0.360213 0.833978 0.984821
O O5 0.804407 0.185869 0.124399
O O6 0.505368 0.268557 0.193049
O O7 0.765086 0.334028 0.012478
O O8 0.774561 0.500000 0.914700
O O9 0.761941 0.336256 0.821300
O O10 0.500000 0.392329 0.000000
O O11 0.229404 0.136378 0.682820
O O12 0.204471 0.000000 0.818717
O O13 0.500000 0.190466 0.500000
O O14 0.651337 0.307939 0.327620
O O15 0.801581 0.259415 0.447982
O O16 0.500000 0.403760 0.500000
O O17 0.395378 0.500000 0.683374
O O18 0.661380 0.389767 0.607588
O O19 0.201051 0.755077 0.359823
O O20 0.000000 0.634812 0.500000
#
# Coordination Sequence:
#
# PCOD8060728 Si02
#       8
#     4   4   4   4   4   4   4   4
#     4  10  21  36  54  77 107 140 172 220 284 337
#     4  10  19  34  57  82 107 135 178 227 271 324
#     4   8  16  32  54  80 108 136 169 212 263 321
#     4  11  22  36  55  79 106 141 184 227 277 329
#     4   9  19  36  54  73 107 146 184 225 268 318
#     4   8  16  32  52  73 100 136 176 217 263 311
#     4  10  19  32  52  78 110 146 182 222 266 311
#     4  10  20  34  54  80 108 142 181 219 265 320
#
# _framework density 20.765253999999999
#
# number of rings (size 3 to 8) (size 9 to 14) (size 15 to 20)
#    0.000    2.750    0.000    4.125    0.000    3.500 
#    0.000    3.750    0.000   15.750    0.000    0.000 
#    0.000    0.000    0.000    0.000    0.000    0.000 
#
# Total GULP energy -396461.723686 kJ/mol
# GULP energy per Si atom -12389.428865 kJ/mol
# Density = 2.071799 g / cm^3
# Si number density = 20.765254 Si / 1000 Ang^3
#
#
#
# Elastic Constant Matrix: (Units=GPa)
#
#
# Indices 1 2 3 4 5 6 
#
# 1 82.6011 21.8234 21.9352 0.0000 7.8253 0.0000
# 2 21.8234 115.2920 26.7085 0.0000 3.6081 0.0000
# 3 21.9352 26.7085 56.8478 0.0000 5.2667 0.0000
# 4 0.0000 0.0000 0.0000 101.5634 0.0000 53.0796
# 5 7.8253 3.6081 5.2667 0.0000 23.8287 0.0000
# 6 0.0000 0.0000 0.0000 53.0796 0.0000 53.6910
#
#
#
# Elastic Compliance Matrix: (Units=1/GPa)
#
#
# Indices 1 2 3 4 5 6 
#
# 1 0.013992 -0.001531 -0.004365 0.000000 -0.003398 0.000000
# 2 -0.001531 0.009906 -0.004054 0.000000 -0.000101 0.000000
# 3 -0.004365 -0.004054 0.021429 0.000000 -0.002689 0.000000
# 4 0.000000 0.000000 0.000000 0.020371 0.000000 -0.020140
# 5 -0.003398 -0.000101 -0.002689 0.000000 0.043692 0.000000
# 6 0.000000 0.000000 0.000000 -0.020140 0.000000 0.038535
#
#
# Mechanical properties :
#
#
# Convention : Reuss Voigt Hill
#
# Bulk Modulus (GPa) = 39.32802 43.96392 41.64597
# Shear Modulus (GPa) = 28.36076 48.10154 38.23115
#
# Velocity S-wave (km/s) = 3.69965 4.81817 4.29547
# Velocity P-wave (km/s) = 6.10167 7.22294 6.68585
#
# Compressibility (1/GPa) = 0.02542716
#
# Stress axis : x y z
#
# Youngs Moduli (GPa) = 71.46990 100.95189 46.66629
#
# Poissons Ratio (x) = 0.15456 0.20369
# Poissons Ratio (y) = 0.10942 0.18918
# Poissons Ratio (z) = 0.31195 0.40924
#
# Static dielectric constant tensor:
#      x y z
#    x 3.689620 0.000000 0.157220 
#    y 0.000000 4.370470 0.000000 
#    z 0.157220 0.000000 3.643350 
# 
# 
# High freq. dielectric constant tensor:
#      x y z
#    x 1.805100 0.000000 0.012930 
#    y 0.000000 1.799200 0.000000 
#    z 0.012930 0.000000 1.802170 
# 
# From -- ./inp_files/61829.got.cif
#   From: 2010.06.25/outbox.cif.g09.slc.cpg/sg10_31_cif.got.tgz:61829.got - 2010.06.27 22:07:45.
