data_PCOD8060327
_publ_section_title
;
Structure prediction by ZEFSAII (Michael W. Deem and Ramdas Pophale) SiO2 
 PCOD8060327
Probable space group: P 2/M
;
_chemical_formula_sum "Si O2"
_cell_formula_units_Z 28
_cell_length_a 26.021056
_cell_length_b 9.156203
_cell_length_c 9.253418
_cell_angle_alpha 90.000000
_cell_angle_beta 136.846260
_cell_angle_gamma 90.000000
_cell_volume 1507.898637
_symmetry_space_group_name_H-M "P 2/M"
_symmetry_group_IT_number 10
_symmetry_cell_setting 'monoclinic'
loop_
_space_group_symop_operation_xyz
x,y,z
-x,y,-z
-x,-y,-z
x,-y,z
loop_
_atom_site_type_symbol
_atom_site_label
_atom_site_fract_x
_atom_site_fract_y
_atom_site_fract_z
Si Si1 0.076439 0.172575 0.975034
Si Si2 0.200397 0.327157 0.057332
Si Si3 0.665397 0.327878 0.459327
Si Si4 0.907829 0.171888 0.670359
Si Si5 0.496126 0.339132 0.820409
Si Si6 0.778585 0.168990 0.196081
Si Si7 0.639511 0.167454 0.112839
O O1 0.121992 0.258307 0.946783
O O2 0.988986 0.212276 0.771232
O O3 0.090310 0.000000 0.986554
O O4 0.101055 0.231206 0.184148
O O5 0.192476 0.500000 0.031660
O O6 0.222397 0.265745 0.947726
O O7 0.264730 0.278379 0.301037
O O8 0.664933 0.500000 0.426897
O O9 0.588689 0.284571 0.388823
O O10 0.671530 0.248317 0.318737
O O11 0.842607 0.234193 0.433989
O O12 0.899903 0.000000 0.666400
O O13 0.510803 0.500000 0.783846
O O14 0.500000 0.346884 0.000000
O O15 0.559889 0.230459 0.892296
O O16 0.697851 0.186693 0.103375
O O17 0.795415 0.000000 0.192671
O O18 0.627625 0.000000 0.130966
#
# Coordination Sequence:
#
# PCOD8060327 Si02
#       7
#     4   4   4   4   4   4   4
#     4   9  17  34  59  81 100 127 166 210 253 297
#     4  11  23  36  50  73 104 137 173 209 248 295
#     4   9  19  35  53  73 100 135 172 206 245 301
#     4   8  16  33  58  81  99 128 170 206 243 303
#     4   8  15  30  51  73  99 132 167 203 247 300
#     4  10  21  36  51  72 104 138 170 204 247 301
#     4  10  19  31  53  82 104 125 163 214 259 296
#
# _framework density 18.568885999999999
#
# number of rings (size 3 to 8) (size 9 to 14) (size 15 to 20)
#    0.000    2.714    0.000    3.429    0.000    6.571 
#    0.000    6.429    0.000    4.286    0.000    0.000 
#    0.000    0.000    0.000    0.000    0.000    0.000 
#
# Total GULP energy -347140.552666 kJ/mol
# GULP energy per Si atom -12397.876881 kJ/mol
# Density = 1.852662 g / cm^3
# Si number density = 18.568886 Si / 1000 Ang^3
#
#
#
# Elastic Constant Matrix: (Units=GPa)
#
#
# Indices 1 2 3 4 5 6 
#
# 1 103.1672 46.9321 37.1950 0.0000 8.2903 0.0000
# 2 46.9321 63.5918 24.7933 0.0000 1.1476 0.0000
# 3 37.1950 24.7933 35.6319 0.0000 7.5163 0.0000
# 4 0.0000 0.0000 0.0000 24.8312 0.0000 4.9337
# 5 8.2903 1.1476 7.5163 0.0000 26.0100 0.0000
# 6 0.0000 0.0000 0.0000 4.9337 0.0000 0.1544
#
#
#
# Elastic Compliance Matrix: (Units=1/GPa)
#
#
# Indices 1 2 3 4 5 6 
#
# 1 0.018329 -0.008481 -0.012863 0.000000 -0.001751 0.000000
# 2 -0.008481 0.025826 -0.010061 0.000000 0.004471 0.000000
# 3 -0.012863 -0.010061 0.050619 0.000000 -0.010084 0.000000
# 4 0.000000 0.000000 0.000000 -0.007528 0.000000 0.240575
# 5 -0.001751 0.004471 -0.010084 0.000000 0.041722 0.000000
# 6 0.000000 0.000000 0.000000 0.240575 0.000000 -1.210799
#
#
# Mechanical properties :
#
#
# Convention : Reuss Voigt Hill
#
# Bulk Modulus (GPa) = 31.28297 46.69241 38.98769
# Shear Modulus (GPa) = -4.95851 16.43048 5.73598
#
# Velocity S-wave (km/s) = -1.63589 2.97785 1.75947
# Velocity P-wave (km/s) = 3.64902 6.08470 5.01692
#
# Compressibility (1/GPa) = 0.03196627
#
# Stress axis : x y z
#
# Youngs Moduli (GPa) = 54.55799 38.72064 19.75530
#
# Poissons Ratio (x) = 0.32838 0.25411
# Poissons Ratio (y) = 0.46269 0.19875
# Poissons Ratio (z) = 0.70177 0.38955
#
# Static dielectric constant tensor:
#      x y z
#    x 3.377210 0.000000 0.316690 
#    y 0.000000 3.247520 0.000000 
#    z 0.316690 0.000000 3.748310 
# 
# 
# High freq. dielectric constant tensor:
#      x y z
#    x 1.719390 0.000000 0.021400 
#    y 0.000000 1.702610 0.000000 
#    z 0.021400 0.000000 1.715420 
# 
# From -- ./inp_files/37294.got.cif
#   From: 2010.06.25/outbox.cif.g09.slc.cpg/sg10_19_cif.got.tgz:37294.got - 2010.06.27 22:07:45.
