data_PCOD8060625
_publ_section_title
;
Structure prediction by ZEFSAII (Michael W. Deem and Ramdas Pophale) SiO2 
 PCOD8060625
Probable space group: P 2/M
;
_chemical_formula_sum "Si O2"
_cell_formula_units_Z 32
_cell_length_a 20.038102
_cell_length_b 9.160246
_cell_length_c 25.919255
_cell_angle_alpha 90.000000
_cell_angle_beta 158.518780
_cell_angle_gamma 90.000000
_cell_volume 1742.208454
_symmetry_space_group_name_H-M "P 2/M"
_symmetry_group_IT_number 10
_symmetry_cell_setting 'monoclinic'
loop_
_space_group_symop_operation_xyz
x,y,z
-x,y,-z
-x,-y,-z
x,-y,z
loop_
_atom_site_type_symbol
_atom_site_label
_atom_site_fract_x
_atom_site_fract_y
_atom_site_fract_z
Si Si1 0.682800 0.329958 0.658128
Si Si2 0.914343 0.326029 0.318867
Si Si3 0.198887 0.833192 0.156414
Si Si4 0.301464 0.327037 0.638356
Si Si5 0.779802 0.673105 0.113043
Si Si6 0.061206 0.329875 0.880207
Si Si7 0.354690 0.167529 0.158350
Si Si8 0.373607 0.326731 0.805880
O O1 0.500000 0.268377 0.500000
O O2 0.662589 0.500000 0.655270
O O3 0.707904 0.253956 0.730771
O O4 0.850482 0.298023 0.740353
O O5 0.908871 0.500000 0.316133
O O6 0.871773 0.264486 0.231157
O O7 0.763737 0.262893 0.250089
O O8 0.112651 0.270733 0.478443
O O9 0.329803 0.819469 0.201578
O O10 0.174159 0.000000 0.156608
O O11 0.000000 0.766827 0.000000
O O12 0.325584 0.500000 0.650486
O O13 0.462253 0.251743 0.723088
O O14 0.305165 0.277627 0.700496
O O15 0.770130 0.500000 0.109575
O O16 0.899192 0.721685 0.149758
O O17 0.575581 0.737000 0.960889
O O18 0.111154 0.500000 0.923230
O O19 0.182025 0.238149 0.006302
O O20 0.369451 0.000000 0.151311
O O21 0.377963 0.500000 0.812699
#
# Coordination Sequence:
#
# PCOD8060625 Si02
#       8
#     4   4   4   4   4   4   4   4
#     4  10  22  37  56  86 119 145 173 216 272 330
#     4   9  17  27  45  76 110 139 169 214 263 309
#     4  10  21  38  58  80 106 141 186 227 263 313
#     4  10  19  32  51  78 107 137 173 216 267 315
#     4   9  16  27  46  74 106 138 172 212 258 306
#     4  10  19  34  55  78 107 140 175 215 263 317
#     4  11  22  36  56  79 104 136 180 226 264 310
#     4   9  15  26  46  74 107 138 173 214 259 310
#
# _framework density 18.367491999999999
#
# number of rings (size 3 to 8) (size 9 to 14) (size 15 to 20)
#    0.000    2.250    2.500    1.125    0.000    5.500 
#    0.000    2.500    0.000    2.250    0.000    0.875 
#    0.000    0.000    0.000    0.000    0.000    0.000 
#
# Total GULP energy -396831.912035 kJ/mol
# GULP energy per Si atom -12400.997251 kJ/mol
# Density = 1.832569 g / cm^3
# Si number density = 18.367492 Si / 1000 Ang^3
#
#
#
# Elastic Constant Matrix: (Units=GPa)
#
#
# Indices 1 2 3 4 5 6 
#
# 1 132.8335 35.6190 80.9378 0.0000 -3.7611 0.0000
# 2 35.6190 33.0890 37.0840 0.0000 -1.3481 0.0000
# 3 80.9378 37.0840 174.0547 0.0000 -9.8865 0.0000
# 4 0.0000 0.0000 0.0000 10.0625 0.0000 4.6145
# 5 -3.7611 -1.3481 -9.8865 0.0000 36.4838 0.0000
# 6 0.0000 0.0000 0.0000 4.6145 0.0000 -9.3747
#
#
#
# Elastic Compliance Matrix: (Units=1/GPa)
#
#
# Indices 1 2 3 4 5 6 
#
# 1 0.012226 -0.008916 -0.003791 0.000000 -0.000096 0.000000
# 2 -0.008916 0.046229 -0.005747 0.000000 -0.000768 0.000000
# 3 -0.003791 -0.005747 0.008834 0.000000 0.001791 0.000000
# 4 0.000000 0.000000 0.000000 0.081078 0.000000 0.039909
# 5 -0.000096 -0.000768 0.001791 0.000000 0.027856 0.000000
# 6 0.000000 0.000000 0.000000 0.039909 0.000000 -0.087026
#
#
# Mechanical properties :
#
#
# Convention : Reuss Voigt Hill
#
# Bulk Modulus (GPa) = 32.91535 71.91766 52.41651
# Shear Modulus (GPa) = 36.70156 19.85673 28.27914
#
# Velocity S-wave (km/s) = 4.47495 3.29155 3.92807
# Velocity P-wave (km/s) = 6.68278 7.32704 7.01232
#
# Compressibility (1/GPa) = 0.03038096
#
# Stress axis : x y z
#
# Youngs Moduli (GPa) = 81.78997 21.63146 113.19286
#
# Poissons Ratio (x) = 0.19287 0.42914
# Poissons Ratio (y) = 0.72926 0.65052
# Poissons Ratio (z) = 0.31009 0.12432
#
# Static dielectric constant tensor:
#      x y z
#    x 3.570340 0.000000 0.013810 
#    y 0.000000 2.958440 0.000000 
#    z 0.013810 0.000000 3.564980 
# 
# 
# High freq. dielectric constant tensor:
#      x y z
#    x 1.727800 0.000000 0.002910 
#    y 0.000000 1.662100 0.000000 
#    z 0.002910 0.000000 1.719910 
# 
# From -- ./inp_files/86750.got.cif
#   From: 2010.06.25/outbox.cif.g09.slc.cpg/sg10_44_cif.got.tgz:86750.got - 2010.06.27 22:07:45.
