data_PCOD8060318
_publ_section_title
;
Structure prediction by ZEFSAII (Michael W. Deem and Ramdas Pophale) SiO2 
 PCOD8060318
Probable space group: P 2/M
;
_chemical_formula_sum "Si O2"
_cell_formula_units_Z 28
_cell_length_a 12.136229
_cell_length_b 14.119348
_cell_length_c 9.907902
_cell_angle_alpha 90.000000
_cell_angle_beta 122.939231
_cell_angle_gamma 90.000000
_cell_volume 1424.853762
_symmetry_space_group_name_H-M "P 2/M"
_symmetry_group_IT_number 10
_symmetry_cell_setting 'monoclinic'
loop_
_space_group_symop_operation_xyz
x,y,z
-x,y,-z
-x,-y,-z
x,-y,z
loop_
_atom_site_type_symbol
_atom_site_label
_atom_site_fract_x
_atom_site_fract_y
_atom_site_fract_z
Si Si1 0.595204 0.390905 0.729495
Si Si2 0.234421 0.604589 0.893356
Si Si3 0.823250 0.216287 0.487376
Si Si4 0.854280 0.110905 0.943415
Si Si5 0.353411 0.206486 0.389653
Si Si6 0.886853 0.796994 0.237306
Si Si7 0.685029 0.395035 0.344220
O O1 0.599623 0.500000 0.679994
O O2 0.640717 0.319933 0.640355
O O3 0.449559 0.359788 0.677501
O O4 0.685600 0.377189 0.918445
O O5 0.167118 0.500000 0.853489
O O6 0.125864 0.686471 0.810859
O O7 0.332127 0.609367 0.829858
O O8 0.708415 0.179278 0.507080
O O9 0.810737 0.176921 0.325795
O O10 0.807745 0.330281 0.470543
O O11 0.959421 0.184716 0.642335
O O12 0.735621 0.158638 0.783746
O O13 0.846000 0.000000 0.912270
O O14 0.830700 0.134593 0.084967
O O15 0.000000 0.149309 0.000000
O O16 0.500000 0.163986 0.500000
O O17 0.719885 0.500000 0.416325
#
# Coordination Sequence:
#
# PCOD8060318 Si02
#       7
#     4   4   4   4   4   4   4
#     4  10  19  31  52  84 120 163 205 243 287 348
#     4   9  17  30  52  83 117 159 205 249 291 342
#     4  10  21  35  57  90 122 160 199 244 302 351
#     4  11  24  45  71  92 115 154 201 249 308 373
#     4  12  23  39  62  93 128 160 196 253 304 355
#     4  10  20  39  62  86 121 158 203 249 292 368
#     4   9  17  30  49  80 122 165 207 241 285 348
#
# _framework density 19.651139000000001
#
# number of rings (size 3 to 8) (size 9 to 14) (size 15 to 20)
#    0.000    1.857    4.286    0.429    0.000    3.429 
#    0.000    5.714    0.000    3.429    0.000    0.000 
#    0.000    0.000    0.000    0.000    0.000    0.000 
#
# Total GULP energy -346991.852600 kJ/mol
# GULP energy per Si atom -12392.566164 kJ/mol
# Density = 1.960641 g / cm^3
# Si number density = 19.651139 Si / 1000 Ang^3
#
#
#
# Elastic Constant Matrix: (Units=GPa)
#
#
# Indices 1 2 3 4 5 6 
#
# 1 109.2679 25.9562 54.3323 0.0000 -10.2116 0.0000
# 2 25.9562 45.7142 21.0594 0.0000 2.1137 0.0000
# 3 54.3323 21.0594 121.0455 0.0000 -3.0926 0.0000
# 4 0.0000 0.0000 0.0000 11.4900 0.0000 1.4448
# 5 -10.2116 2.1137 -3.0926 0.0000 30.7985 0.0000
# 6 0.0000 0.0000 0.0000 1.4448 0.0000 18.9334
#
#
#
# Elastic Compliance Matrix: (Units=1/GPa)
#
#
# Indices 1 2 3 4 5 6 
#
# 1 0.013295 -0.005488 -0.004903 0.000000 0.004292 0.000000
# 2 -0.005488 0.026177 -0.002189 0.000000 -0.003836 0.000000
# 3 -0.004903 -0.002189 0.010833 0.000000 -0.000388 0.000000
# 4 0.000000 0.000000 0.000000 0.087875 0.000000 -0.006706
# 5 0.004292 -0.003836 -0.000388 0.000000 0.034117 0.000000
# 6 0.000000 0.000000 0.000000 -0.006706 0.000000 0.053328
#
#
# Mechanical properties :
#
#
# Convention : Reuss Voigt Hill
#
# Bulk Modulus (GPa) = 39.77014 53.19149 46.48081
# Shear Modulus (GPa) = 19.29263 23.88970 21.59117
#
# Velocity S-wave (km/s) = 3.13670 3.49046 3.31830
# Velocity P-wave (km/s) = 5.77932 6.58567 6.19563
#
# Compressibility (1/GPa) = 0.02514449
#
# Stress axis : x y z
#
# Youngs Moduli (GPa) = 75.21848 38.20148 92.31110
#
# Poissons Ratio (x) = 0.20967 0.45259
# Poissons Ratio (y) = 0.41283 0.20205
# Poissons Ratio (z) = 0.36879 0.08361
#
# Static dielectric constant tensor:
#      x y z
#    x 3.598830 0.000000 -0.150690 
#    y 0.000000 3.364930 0.000000 
#    z -0.150690 0.000000 3.726090 
# 
# 
# High freq. dielectric constant tensor:
#      x y z
#    x 1.754430 0.000000 -0.015390 
#    y 0.000000 1.738130 0.000000 
#    z -0.015390 0.000000 1.781070 
# 
# From -- ./inp_files/25425.got.cif
#   From: 2010.06.25/outbox.cif.g09.slc.cpg/sg10_13_cif.got.tgz:25425.got - 2010.06.27 22:07:45.
