data_PCOD8060542
_publ_section_title
;
Structure prediction by ZEFSAII (Michael W. Deem and Ramdas Pophale) SiO2 
 PCOD8060542
Probable space group: P 2/M
;
_chemical_formula_sum "Si O2"
_cell_formula_units_Z 32
_cell_length_a 28.682378
_cell_length_b 9.372083
_cell_length_c 20.996007
_cell_angle_alpha 90.000000
_cell_angle_beta 20.085128
_cell_angle_gamma 90.000000
_cell_volume 1938.243886
_symmetry_space_group_name_H-M "P 2/M"
_symmetry_group_IT_number 10
_symmetry_cell_setting 'monoclinic'
loop_
_space_group_symop_operation_xyz
x,y,z
-x,y,-z
-x,-y,-z
x,-y,z
loop_
_atom_site_type_symbol
_atom_site_label
_atom_site_fract_x
_atom_site_fract_y
_atom_site_fract_z
Si Si1 0.361458 0.666830 0.925145
Si Si2 0.622898 0.336017 0.380792
Si Si3 0.097135 0.668939 0.031768
Si Si4 0.641472 0.335882 0.502986
Si Si5 0.913863 0.830885 0.173119
Si Si6 0.043799 0.839428 0.544684
Si Si7 0.889879 0.333471 0.837421
Si Si8 0.217756 0.160516 0.208231
O O1 0.347782 0.500000 0.953379
O O2 0.513163 0.708868 0.710179
O O3 0.253309 0.716606 0.009886
O O4 0.333526 0.740194 0.029229
O O5 0.500000 0.260530 0.500000
O O6 0.630071 0.500000 0.349866
O O7 0.592628 0.317819 0.493505
O O8 0.767509 0.270092 0.175907
O O9 0.074953 0.500000 0.049423
O O10 0.107764 0.709597 0.092011
O O11 0.974368 0.754973 0.157710
O O12 0.686636 0.500000 0.457688
O O13 0.762177 0.227639 0.361613
O O14 0.910151 0.000000 0.187949
O O15 0.000000 0.788599 0.000000
O O16 0.173363 0.787335 0.336194
O O17 0.019004 0.740170 0.637630
O O18 0.912826 0.833596 0.668595
O O19 0.069522 0.000000 0.535814
O O20 0.910038 0.500000 0.802274
O O21 0.274760 0.000000 0.138884
#
# Coordination Sequence:
#
# PCOD8060542 Si02
#       8
#     4   4   4   4   4   4   4   4
#     4   9  17  28  44  71 102 125 151 192 237 279
#     4   9  16  27  47  72  94 119 152 187 224 273
#     4  10  19  32  51  71  92 122 159 194 233 281
#     4  10  19  32  51  71  92 122 159 194 233 281
#     4  11  23  37  51  67  90 119 158 207 245 274
#     4   8  14  25  41  62  91 129 166 191 218 268
#     4   9  17  28  44  71 102 125 151 192 237 279
#     4   8  14  25  41  62  91 129 166 191 218 268
#
# _framework density 16.509789999999999
#
# number of rings (size 3 to 8) (size 9 to 14) (size 15 to 20)
#    0.000    2.750    1.250    1.875    0.000    5.000 
#    0.000    2.500    0.000    3.000    0.000    0.875 
#    0.000    7.000    0.000    0.000    0.000    0.000 
#
# Total GULP energy -396665.098307 kJ/mol
# GULP energy per Si atom -12395.784322 kJ/mol
# Density = 1.647221 g / cm^3
# Si number density = 16.509790 Si / 1000 Ang^3
#
#
#
# Elastic Constant Matrix: (Units=GPa)
#
#
# Indices 1 2 3 4 5 6 
#
# 1 41.8283 29.8820 44.1074 0.0000 -2.0808 0.0000
# 2 29.8820 50.6370 48.7524 0.0000 5.0419 0.0000
# 3 44.1074 48.7524 122.4301 0.0000 17.3870 0.0000
# 4 0.0000 0.0000 0.0000 25.2843 0.0000 5.4529
# 5 -2.0808 5.0419 17.3870 0.0000 27.9401 0.0000
# 6 0.0000 0.0000 0.0000 5.4529 0.0000 17.2069
#
#
#
# Elastic Compliance Matrix: (Units=1/GPa)
#
#
# Indices 1 2 3 4 5 6 
#
# 1 0.053194 -0.020025 -0.013455 0.000000 0.015948 0.000000
# 2 -0.020025 0.039709 -0.008083 0.000000 -0.003627 0.000000
# 3 -0.013455 -0.008083 0.017737 0.000000 -0.010581 0.000000
# 4 0.000000 0.000000 0.000000 0.042452 0.000000 -0.013453
# 5 0.015948 -0.003627 -0.010581 0.000000 0.044217 0.000000
# 6 0.000000 0.000000 0.000000 -0.013453 0.000000 0.062379
#
#
# Mechanical properties :
#
#
# Convention : Reuss Voigt Hill
#
# Bulk Modulus (GPa) = 36.34488 51.15322 43.74905
# Shear Modulus (GPa) = 14.20516 20.22986 17.21751
#
# Velocity S-wave (km/s) = 2.93645 3.50426 3.23285
# Velocity P-wave (km/s) = 5.79301 6.88651 6.36329
#
# Compressibility (1/GPa) = 0.02751419
#
# Stress axis : x y z
#
# Youngs Moduli (GPa) = 18.79897 25.18338 56.38076
#
# Poissons Ratio (x) = 0.50430 0.75860
# Poissons Ratio (y) = 0.37645 0.45572
# Poissons Ratio (z) = 0.25294 0.20355
#
# Static dielectric constant tensor:
#      x y z
#    x 2.968570 0.000000 0.226290 
#    y 0.000000 3.006760 0.000000 
#    z 0.226290 0.000000 3.305820 
# 
# 
# High freq. dielectric constant tensor:
#      x y z
#    x 1.609600 0.000000 0.019140 
#    y 0.000000 1.618430 0.000000 
#    z 0.019140 0.000000 1.635430 
# 
# From -- ./inp_files/87170.got.cif
#   From: 2010.06.25/outbox.cif.g09.slc.cpg/sg10_44_cif.got.tgz:87170.got - 2010.06.27 22:07:45.
