data_PCOD8060673
_publ_section_title
;
Structure prediction by ZEFSAII (Michael W. Deem and Ramdas Pophale) SiO2 
 PCOD8060673
Probable space group: P 2/M
;
_chemical_formula_sum "Si O2"
_cell_formula_units_Z 32
_cell_length_a 22.304334
_cell_length_b 9.352046
_cell_length_c 11.242213
_cell_angle_alpha 90.000000
_cell_angle_beta 48.343808
_cell_angle_gamma 90.000000
_cell_volume 1752.078358
_symmetry_space_group_name_H-M "P 2/M"
_symmetry_group_IT_number 10
_symmetry_cell_setting 'monoclinic'
loop_
_space_group_symop_operation_xyz
x,y,z
-x,y,-z
-x,-y,-z
x,-y,z
loop_
_atom_site_type_symbol
_atom_site_label
_atom_site_fract_x
_atom_site_fract_y
_atom_site_fract_z
Si Si1 0.666415 0.835280 0.264013
Si Si2 0.743568 0.667056 0.551137
Si Si3 0.424413 0.834550 0.853227
Si Si4 0.064127 0.836172 0.083585
Si Si5 0.393016 0.832910 0.396912
Si Si6 0.713292 0.335674 0.858232
Si Si7 0.805406 0.668113 0.970567
Si Si8 0.112308 0.164283 0.752186
O O1 0.601498 0.801338 0.247855
O O2 0.625932 0.796729 0.441687
O O3 0.694400 0.000000 0.222511
O O4 0.744503 0.737222 0.145736
O O5 0.739258 0.500000 0.527309
O O6 0.662034 0.740508 0.616445
O O7 0.753245 0.696001 0.678737
O O8 0.819500 0.732336 0.384971
O O9 0.515935 0.786296 0.749287
O O10 0.414084 0.000000 0.896524
O O11 0.369101 0.751090 0.019349
O O12 0.106688 0.734585 0.123976
O O13 0.969165 0.805963 0.213297
O O14 0.081723 0.000000 0.093578
O O15 0.098192 0.801276 0.908469
O O16 0.379238 0.000000 0.389102
O O17 0.689218 0.500000 0.904391
O O18 0.777882 0.291518 0.873461
O O19 0.808785 0.500000 0.987772
O O20 0.139562 0.000000 0.700216
#
# Coordination Sequence:
#
# PCOD8060673 Si02
#       8
#     4   4   4   4   4   4   4   4
#     4   9  17  31  51  75 105 135 161 199 254 307
#     4  11  23  37  52  71  99 136 175 209 246 295
#     4   9  18  33  54  77  98 128 171 211 248 297
#     4   9  18  34  56  81 107 132 158 194 247 304
#     4  10  20  33  51  76 104 131 163 208 258 303
#     4   9  21  39  52  67  99 139 172 208 253 293
#     4  10  19  32  52  76 101 132 171 209 245 291
#     4   9  19  36  56  78 106 135 160 195 246 299
#
# _framework density 18.264023000000002
#
# number of rings (size 3 to 8) (size 9 to 14) (size 15 to 20)
#    0.000    2.500    0.000    2.625    0.000    8.500 
#    0.000    4.375    0.000    7.500    0.000    0.000 
#    0.000    0.000    0.000    0.000    0.000    0.000 
#
# Total GULP energy -396872.913684 kJ/mol
# GULP energy per Si atom -12402.278553 kJ/mol
# Density = 1.822245 g / cm^3
# Si number density = 18.264023 Si / 1000 Ang^3
#
#
#
# Elastic Constant Matrix: (Units=GPa)
#
#
# Indices 1 2 3 4 5 6 
#
# 1 101.2337 50.3052 33.3107 0.0000 -17.5974 0.0000
# 2 50.3052 67.8007 22.7312 0.0000 -4.8545 0.0000
# 3 33.3107 22.7312 34.6031 0.0000 -1.1184 0.0000
# 4 0.0000 0.0000 0.0000 12.4922 0.0000 9.9327
# 5 -17.5974 -4.8545 -1.1184 0.0000 22.6665 0.0000
# 6 0.0000 0.0000 0.0000 9.9327 0.0000 24.3169
#
#
#
# Elastic Compliance Matrix: (Units=1/GPa)
#
#
# Indices 1 2 3 4 5 6 
#
# 1 0.022365 -0.010906 -0.013902 0.000000 0.014341 0.000000
# 2 -0.010906 0.024506 -0.005712 0.000000 -0.003501 0.000000
# 3 -0.013902 -0.005712 0.045719 0.000000 -0.009760 0.000000
# 4 0.000000 0.000000 0.000000 0.118553 0.000000 -0.048425
# 5 0.014341 -0.003501 -0.009760 0.000000 0.054021 0.000000
# 6 0.000000 0.000000 0.000000 -0.048425 0.000000 0.060904
#
#
# Mechanical properties :
#
#
# Convention : Reuss Voigt Hill
#
# Bulk Modulus (GPa) = 31.69691 46.25907 38.97799
# Shear Modulus (GPa) = 12.57470 18.38116 15.47793
#
# Velocity S-wave (km/s) = 2.62677 3.17584 2.91427
# Velocity P-wave (km/s) = 5.15678 6.23145 5.71941
#
# Compressibility (1/GPa) = 0.03154882
#
# Stress axis : x y z
#
# Youngs Moduli (GPa) = 44.71280 40.80712 21.87292
#
# Poissons Ratio (x) = 0.44505 0.30407
# Poissons Ratio (y) = 0.48765 0.12494
# Poissons Ratio (z) = 0.62158 0.23310
#
# Static dielectric constant tensor:
#      x y z
#    x 3.532370 0.000000 -0.048940 
#    y 0.000000 3.323390 0.000000 
#    z -0.048940 0.000000 3.219140 
# 
# 
# High freq. dielectric constant tensor:
#      x y z
#    x 1.715460 0.000000 -0.005410 
#    y 0.000000 1.705200 0.000000 
#    z -0.005410 0.000000 1.694320 
# 
# From -- ./inp_files/55285.got.cif
#   From: 2010.06.25/outbox.cif.g09.slc.cpg/sg10_28_cif.got.tgz:55285.got - 2010.06.27 22:07:45.
