data_PCOD8060711
_publ_section_title
;
Structure prediction by ZEFSAII (Michael W. Deem and Ramdas Pophale) SiO2 
 PCOD8060711
Probable space group: P 2/M
;
_chemical_formula_sum "Si O2"
_cell_formula_units_Z 32
_cell_length_a 11.045299
_cell_length_b 9.535442
_cell_length_c 21.843969
_cell_angle_alpha 90.000000
_cell_angle_beta 131.466665
_cell_angle_gamma 90.000000
_cell_volume 1723.968859
_symmetry_space_group_name_H-M "P 2/M"
_symmetry_group_IT_number 10
_symmetry_cell_setting 'monoclinic'
loop_
_space_group_symop_operation_xyz
x,y,z
-x,y,-z
-x,-y,-z
x,-y,z
loop_
_atom_site_type_symbol
_atom_site_label
_atom_site_fract_x
_atom_site_fract_y
_atom_site_fract_z
Si Si1 0.903984 0.841052 0.159474
Si Si2 0.176638 0.337262 0.399598
Si Si3 0.831301 0.336116 0.467589
Si Si4 0.479596 0.342275 0.163128
Si Si5 0.826888 0.345665 0.240106
Si Si6 0.508677 0.663503 0.696392
Si Si7 0.741616 0.167023 0.689671
Si Si8 0.385943 0.161319 0.017284
O O1 0.803664 0.759521 0.176738
O O2 0.090755 0.792422 0.219045
O O3 0.899784 0.000000 0.180106
O O4 0.804570 0.820837 0.063275
O O5 0.226114 0.500000 0.404141
O O6 0.222363 0.282960 0.482664
O O7 0.262895 0.237641 0.378885
O O8 0.984176 0.315057 0.332687
O O9 0.864540 0.500000 0.486134
O O10 0.683139 0.303978 0.372327
O O11 0.000000 0.266482 0.500000
O O12 0.424334 0.500000 0.128325
O O13 0.673006 0.331758 0.232006
O O14 0.424503 0.301582 0.213227
O O15 0.406169 0.242330 0.087365
O O16 0.838303 0.500000 0.214416
O O17 0.541113 0.500000 0.690891
O O18 0.598677 0.766180 0.680438
O O19 0.717762 0.000000 0.675859
O O20 0.430779 0.000000 0.044412
O O21 0.500000 0.218363 0.000000
#
# Coordination Sequence:
#
# PCOD8060711 Si02
#       8
#     4   4   4   4   4   4   4   4
#     4   9  18  33  51  73 101 133 170 211 254 303
#     4   9  17  31  54  81 105 135 175 216 257 301
#     4   9  17  32  57  85 110 136 171 214 259 309
#     4  10  20  32  49  76 108 137 167 209 265 316
#     4   9  16  27  47  76 106 132 162 205 258 312
#     4  10  21  37  55  76 105 140 177 217 257 305
#     4  10  21  37  55  74 102 141 182 218 255 303
#     4  10  19  32  52  78 105 133 169 213 259 312
#
# _framework density 18.561820000000001
#
# number of rings (size 3 to 8) (size 9 to 14) (size 15 to 20)
#    0.000    2.500    1.250    1.125    0.000    5.250 
#    0.000    3.750    0.000    6.750    0.000    0.000 
#    0.000    0.000    0.000    0.000    0.000    0.000 
#
# Total GULP energy -396615.052994 kJ/mol
# GULP energy per Si atom -12394.220406 kJ/mol
# Density = 1.851957 g / cm^3
# Si number density = 18.561820 Si / 1000 Ang^3
#
#
#
# Elastic Constant Matrix: (Units=GPa)
#
#
# Indices 1 2 3 4 5 6 
#
# 1 87.7176 39.3357 35.7385 0.0000 -12.2957 0.0000
# 2 39.3357 65.5470 41.3030 0.0000 -11.8324 0.0000
# 3 35.7385 41.3030 97.3723 0.0000 -17.9154 0.0000
# 4 0.0000 0.0000 0.0000 102.2632 0.0000 -103.6695
# 5 -12.2957 -11.8324 -17.9154 0.0000 24.0784 0.0000
# 6 0.0000 0.0000 0.0000 -103.6695 0.0000 159.5614
#
#
#
# Elastic Compliance Matrix: (Units=1/GPa)
#
#
# Indices 1 2 3 4 5 6 
#
# 1 0.016181 -0.007895 -0.002067 0.000000 0.002846 0.000000
# 2 -0.007895 0.025054 -0.007191 0.000000 0.002930 0.000000
# 3 -0.002067 -0.007191 0.015333 0.000000 0.006820 0.000000
# 4 0.000000 0.000000 0.000000 0.028647 0.000000 0.018613
# 5 0.002846 0.002930 0.006820 0.000000 0.049498 0.000000
# 6 0.000000 0.000000 0.000000 0.018613 0.000000 0.018360
#
#
# Mechanical properties :
#
#
# Convention : Reuss Voigt Hill
#
# Bulk Modulus (GPa) = 44.91436 53.71013 49.31224
# Shear Modulus (GPa) = 25.66743 66.13124 45.89933
#
# Velocity S-wave (km/s) = 3.72265 5.97536 4.97810
# Velocity P-wave (km/s) = 6.53660 8.75244 7.72439
#
# Compressibility (1/GPa) = 0.02226459
#
# Stress axis : x y z
#
# Youngs Moduli (GPa) = 61.79921 39.91400 65.21796
#
# Poissons Ratio (x) = 0.31511 0.13479
# Poissons Ratio (y) = 0.48789 0.46895
# Poissons Ratio (z) = 0.12772 0.28700
#
# Static dielectric constant tensor:
#      x y z
#    x 3.280320 0.000000 0.056090 
#    y 0.000000 3.284420 0.000000 
#    z 0.056090 0.000000 3.466480 
# 
# 
# High freq. dielectric constant tensor:
#      x y z
#    x 1.704900 0.000000 0.003690 
#    y 0.000000 1.700280 0.000000 
#    z 0.003690 0.000000 1.724070 
# 
# From -- ./inp_files/83604.got.cif
#   From: 2010.06.25/outbox.cif.g09.slc.cpg/sg10_42_cif.got.tgz:83604.got - 2010.06.27 22:07:45.
