data_PCOD8060682
_publ_section_title
;
Structure prediction by ZEFSAII (Michael W. Deem and Ramdas Pophale) SiO2 
 PCOD8060682
Probable space group: P 2/M
;
_chemical_formula_sum "Si O2"
_cell_formula_units_Z 32
_cell_length_a 5.131127
_cell_length_b 12.644302
_cell_length_c 26.493314
_cell_angle_alpha 90.000000
_cell_angle_beta 88.158275
_cell_angle_gamma 90.000000
_cell_volume 1717.985545
_symmetry_space_group_name_H-M "P 2/M"
_symmetry_group_IT_number 10
_symmetry_cell_setting 'monoclinic'
loop_
_space_group_symop_operation_xyz
x,y,z
-x,y,-z
-x,-y,-z
x,-y,z
loop_
_atom_site_type_symbol
_atom_site_label
_atom_site_fract_x
_atom_site_fract_y
_atom_site_fract_z
Si Si1 0.034991 0.624715 0.587857
Si Si2 0.522916 0.759239 0.940897
Si Si3 0.505645 0.873955 0.653096
Si Si4 0.023006 0.114650 0.940666
Si Si5 0.460607 0.377927 0.848975
Si Si6 0.454199 0.741233 0.444567
Si Si7 0.005881 0.245998 0.313644
Si Si8 0.961607 0.375071 0.787615
O O1 0.998585 0.500000 0.583939
O O2 0.325574 0.655067 0.569595
O O3 0.984541 0.661117 0.645288
O O4 0.823612 0.682106 0.553687
O O5 0.311290 0.846093 0.925986
O O6 0.473846 0.657976 0.906882
O O7 0.804395 0.804035 0.923619
O O8 0.500000 0.727307 0.000000
O O9 0.539890 0.838397 0.594659
O O10 0.232365 0.833866 0.676549
O O11 0.732271 0.823546 0.685911
O O12 0.517983 0.000000 0.655630
O O13 0.983192 0.000000 0.914953
O O14 0.000000 0.101200 0.000000
O O15 0.514000 0.500000 0.851586
O O16 0.182859 0.349556 0.827242
O O17 0.690514 0.332092 0.812275
O O18 0.500000 0.788926 0.500000
O O19 0.975834 0.305404 0.261251
O O20 0.956587 0.500000 0.773673
#
# Coordination Sequence:
#
# PCOD8060682 Si02
#       8
#     4   4   4   4   4   4   4   4
#     4  10  20  33  51  77 107 136 171 215 261 313
#     4  10  19  32  52  76 105 140 174 212 255 300
#     4  10  21  37  57  79 104 137 177 218 258 302
#     4   9  17  30  50  74  97 128 172 215 253 292
#     4  10  21  35  53  79 108 139 173 206 250 310
#     4  10  21  34  50  76 107 142 180 212 251 304
#     4  10  20  36  58  80 101 130 173 219 261 311
#     4  10  20  36  58  80 104 134 167 211 264 311
#
# _framework density 18.626465
#
# number of rings (size 3 to 8) (size 9 to 14) (size 15 to 20)
#    0.000    2.125    0.000    3.375    0.000    3.500 
#    0.000    3.750    0.000   24.000    0.000    0.000 
#    0.000    0.000    0.000    0.000    0.000    0.000 
#
# Total GULP energy -396790.046699 kJ/mol
# GULP energy per Si atom -12399.688959 kJ/mol
# Density = 1.858407 g / cm^3
# Si number density = 18.626465 Si / 1000 Ang^3
#
#
#
# Elastic Constant Matrix: (Units=GPa)
#
#
# Indices 1 2 3 4 5 6 
#
# 1 93.6390 19.9852 10.0397 0.0000 10.1742 0.0000
# 2 19.9852 63.5618 42.8748 0.0000 10.2555 0.0000
# 3 10.0397 42.8748 82.2130 0.0000 10.7408 0.0000
# 4 0.0000 0.0000 0.0000 19.1144 0.0000 -2.5171
# 5 10.1742 10.2555 10.7408 0.0000 21.4171 0.0000
# 6 0.0000 0.0000 0.0000 -2.5171 0.0000 25.2381
#
#
#
# Elastic Compliance Matrix: (Units=1/GPa)
#
#
# Indices 1 2 3 4 5 6 
#
# 1 0.011838 -0.003744 0.001078 0.000000 -0.004371 0.000000
# 2 -0.003744 0.026109 -0.012582 0.000000 -0.004414 0.000000
# 3 0.001078 -0.012582 0.019127 0.000000 -0.004079 0.000000
# 4 0.000000 0.000000 0.000000 0.053013 0.000000 0.005287
# 5 -0.004371 -0.004414 -0.004079 0.000000 0.052928 0.000000
# 6 0.000000 0.000000 0.000000 0.005287 0.000000 0.040150
#
#
# Mechanical properties :
#
#
# Convention : Reuss Voigt Hill
#
# Bulk Modulus (GPa) = 37.62637 42.80146 40.21392
# Shear Modulus (GPa) = 20.61689 24.25487 22.43588
#
# Velocity S-wave (km/s) = 3.33056 3.61248 3.47438
# Velocity P-wave (km/s) = 5.91900 6.35836 6.14261
#
# Compressibility (1/GPa) = 0.02657710
#
# Stress axis : x y z
#
# Youngs Moduli (GPa) = 84.47550 38.30050 52.28303
#
# Poissons Ratio (x) = 0.14339 -0.05636
# Poissons Ratio (y) = 0.31626 0.65785
# Poissons Ratio (z) = -0.09106 0.48191
#
# Static dielectric constant tensor:
#      x y z
#    x 4.209710 0.000000 -0.269900 
#    y 0.000000 3.278370 0.000000 
#    z -0.269900 0.000000 3.503570 
# 
# 
# High freq. dielectric constant tensor:
#      x y z
#    x 1.746790 0.000000 0.003270 
#    y 0.000000 1.708690 0.000000 
#    z 0.003270 0.000000 1.709550 
# 
# From -- ./inp_files/8088.got.cif
#   From: 2010.06.25/outbox.cif.g09.slc.cpg/sg10_5_cif.got.tgz:8088.got - 2010.06.27 22:07:45.
