data_PCOD8060140
_publ_section_title
;
Structure prediction by ZEFSAII (Michael W. Deem and Ramdas Pophale) SiO2 
 PCOD8060140
Probable space group: P 2/M
;
_chemical_formula_sum "Si O2"
_cell_formula_units_Z 32
_cell_length_a 22.717177
_cell_length_b 9.061935
_cell_length_c 27.933108
_cell_angle_alpha 90.000000
_cell_angle_beta 162.010516
_cell_angle_gamma 90.000000
_cell_volume 1775.953256
_symmetry_space_group_name_H-M "P 2/M"
_symmetry_group_IT_number 10
_symmetry_cell_setting 'monoclinic'
loop_
_space_group_symop_operation_xyz
x,y,z
-x,y,-z
-x,-y,-z
x,-y,z
loop_
_atom_site_type_symbol
_atom_site_label
_atom_site_fract_x
_atom_site_fract_y
_atom_site_fract_z
Si Si1 0.579865 0.174853 0.454935
Si Si2 0.813652 0.673965 0.826174
Si Si3 0.804629 0.170777 0.263542
Si Si4 0.286802 0.662225 0.353882
Si Si5 0.224118 0.328020 0.481315
Si Si6 0.456261 0.172612 0.851405
Si Si7 0.240062 0.829621 0.589428
Si Si8 0.784257 0.671214 0.151490
O O1 0.367090 0.238174 0.293764
O O2 0.718231 0.224359 0.605846
O O3 0.668991 0.232476 0.475180
O O4 0.569593 0.000000 0.446887
O O5 0.773409 0.500000 0.801255
O O6 0.843256 0.711704 0.792298
O O7 0.000000 0.723350 0.000000
O O8 0.695848 0.226166 0.226601
O O9 0.726591 0.258152 0.157512
O O10 0.027405 0.202102 0.443653
O O11 0.764083 0.000000 0.222189
O O12 0.500000 0.651871 0.500000
O O13 0.221322 0.500000 0.321592
O O14 0.271882 0.500000 0.511673
O O15 0.296647 0.274565 0.589119
O O16 0.000381 0.294713 0.304103
O O17 0.380440 0.213353 0.740588
O O18 0.494141 0.000000 0.885799
O O19 0.654223 0.258272 0.009873
O O20 0.261157 0.000000 0.590203
O O21 0.743133 0.500000 0.123519
#
# Coordination Sequence:
#
# PCOD8060140 Si02
#       8
#     4   4   4   4   4   4   4   4
#     4  11  21  33  54  80 104 134 172 211 250 292
#     4   9  18  34  56  82 112 143 170 199 242 293
#     4   9  17  31  51  73  98 130 165 201 250 311
#     4   8  15  30  52  77 105 136 169 202 237 283
#     4  10  21  38  55  70  94 132 176 212 249 300
#     4  10  19  31  50  75 101 129 160 201 257 314
#     4   9  18  33  52  74 100 129 166 210 252 300
#     4  10  21  34  49  71  98 129 167 213 255 294
#
# _framework density 18.018491999999998
#
# number of rings (size 3 to 8) (size 9 to 14) (size 15 to 20)
#    0.000    2.500    0.000    3.375    0.000    8.000 
#    0.000    1.250    0.000    5.250    0.000    0.000 
#    0.000    0.000    0.000    0.000    0.000    0.000 
#
# Total GULP energy -396791.532287 kJ/mol
# GULP energy per Si atom -12399.735384 kJ/mol
# Density = 1.797748 g / cm^3
# Si number density = 18.018492 Si / 1000 Ang^3
#
#
#
# Elastic Constant Matrix: (Units=GPa)
#
#
# Indices 1 2 3 4 5 6 
#
# 1 113.2573 62.6988 61.9196 0.0000 -10.1724 0.0000
# 2 62.6988 90.9128 54.1599 0.0000 -5.6692 0.0000
# 3 61.9196 54.1599 98.1566 0.0000 -28.7503 0.0000
# 4 0.0000 0.0000 0.0000 24.2262 0.0000 -1.8240
# 5 -10.1724 -5.6692 -28.7503 0.0000 26.5855 0.0000
# 6 0.0000 0.0000 0.0000 -1.8240 0.0000 25.2767
#
#
#
# Elastic Compliance Matrix: (Units=1/GPa)
#
#
# Indices 1 2 3 4 5 6 
#
# 1 0.016602 -0.007223 -0.007432 0.000000 -0.003225 0.000000
# 2 -0.007223 0.021223 -0.009715 0.000000 -0.008744 0.000000
# 3 -0.007432 -0.009715 0.027511 0.000000 0.024836 0.000000
# 4 0.000000 0.000000 0.000000 0.041503 0.000000 0.002995
# 5 -0.003225 -0.008744 0.024836 0.000000 0.061374 0.000000
# 6 0.000000 0.000000 0.000000 0.002995 0.000000 0.039778
#
#
# Mechanical properties :
#
#
# Convention : Reuss Voigt Hill
#
# Bulk Modulus (GPa) = 60.25608 73.32037 66.78822
# Shear Modulus (GPa) = 19.06486 23.45425 21.25956
#
# Velocity S-wave (km/s) = 3.25633 3.61179 3.43866
# Velocity P-wave (km/s) = 6.90305 7.62715 7.27412
#
# Compressibility (1/GPa) = 0.01659584
#
# Stress axis : x y z
#
# Youngs Moduli (GPa) = 60.23530 47.11781 36.34938
#
# Poissons Ratio (x) = 0.34034 0.27014
# Poissons Ratio (y) = 0.43509 0.35314
# Poissons Ratio (z) = 0.44765 0.45775
#
# Static dielectric constant tensor:
#      x y z
#    x 3.388400 0.000000 -0.284730 
#    y 0.000000 3.292830 0.000000 
#    z -0.284730 0.000000 3.388650 
# 
# 
# High freq. dielectric constant tensor:
#      x y z
#    x 1.692740 0.000000 -0.017080 
#    y 0.000000 1.694180 0.000000 
#    z -0.017080 0.000000 1.687310 
# 
# From -- ./inp_files/93709.got.cif
#   From: 2010.06.25/outbox.cif.g09.slc.cpg/sg10_47_cif.got.tgz:93709.got - 2010.06.27 22:07:45.
