data_PCOD8060977
_publ_section_title
;
Structure prediction by ZEFSAII (Michael W. Deem and Ramdas Pophale) SiO2 
 PCOD8060977
Probable space group: P 2/M
;
_chemical_formula_sum "Si O2"
_cell_formula_units_Z 32
_cell_length_a 26.296150
_cell_length_b 8.834342
_cell_length_c 20.816824
_cell_angle_alpha 90.000000
_cell_angle_beta 158.806392
_cell_angle_gamma 90.000000
_cell_volume 1748.291490
_symmetry_space_group_name_H-M "P 2/M"
_symmetry_group_IT_number 10
_symmetry_cell_setting 'monoclinic'
loop_
_space_group_symop_operation_xyz
x,y,z
-x,y,-z
-x,-y,-z
x,-y,z
loop_
_atom_site_type_symbol
_atom_site_label
_atom_site_fract_x
_atom_site_fract_y
_atom_site_fract_z
Si Si1 0.487359 0.677543 0.667166
Si Si2 0.908499 0.322739 0.453994
Si Si3 0.606924 0.322343 0.943468
Si Si4 0.095347 0.179028 0.021208
Si Si5 0.795859 0.178920 0.714375
Si Si6 0.877872 0.176799 0.210310
Si Si7 0.758206 0.822901 0.933288
Si Si8 0.385137 0.825426 0.918774
O O1 0.496500 0.500000 0.668725
O O2 0.514134 0.724038 0.772635
O O3 0.335165 0.735267 0.469288
O O4 0.605372 0.749101 0.760420
O O5 0.915452 0.500000 0.476398
O O6 0.748923 0.274874 0.256102
O O7 0.000000 0.276850 0.500000
O O8 0.968575 0.232487 0.586689
O O9 0.602949 0.500000 0.952553
O O10 0.767514 0.272928 0.121790
O O11 0.547482 0.232746 0.934945
O O12 0.934601 0.235181 0.839536
O O13 0.090052 0.000000 0.010443
O O14 0.187783 0.226166 0.191767
O O15 0.165504 0.247487 0.039581
O O16 0.773580 0.000000 0.681122
O O17 0.856384 0.000000 0.199304
O O18 0.857938 0.212301 0.111479
O O19 0.732586 0.000000 0.894519
O O20 0.340879 0.000000 0.872674
O O21 0.500000 0.799575 0.000000
#
# Coordination Sequence:
#
# PCOD8060977 Si02
#       8
#     4   4   4   4   4   4   4   4
#     4  10  21  35  52  78 111 141 176 217 260 315
#     4  11  22  36  58  83 107 143 182 215 262 324
#     4  10  20  36  56  76 106 145 180 215 264 323
#     4   8  16  33  56  80 105 136 177 224 264 311
#     4   9  17  33  57  79 103 140 182 218 262 314
#     4  10  19  32  55  82 108 137 177 228 272 310
#     4   9  18  34  55  79 107 138 176 221 270 312
#     4  11  24  40  58  82 109 137 176 226 272 312
#
# _framework density 18.303585000000002
#
# number of rings (size 3 to 8) (size 9 to 14) (size 15 to 20)
#    0.000    2.250    1.250    2.625    0.000    4.000 
#    2.250    5.000    0.000    0.000    0.000    0.000 
#    0.000    0.000    0.000    0.000    0.000    0.000 
#
# Total GULP energy -396837.332881 kJ/mol
# GULP energy per Si atom -12401.166653 kJ/mol
# Density = 1.826193 g / cm^3
# Si number density = 18.303585 Si / 1000 Ang^3
#
#
#
# Elastic Constant Matrix: (Units=GPa)
#
#
# Indices 1 2 3 4 5 6 
#
# 1 135.8726 37.9693 57.2077 0.0000 -2.8303 0.0000
# 2 37.9693 41.6457 28.0024 0.0000 -0.8346 0.0000
# 3 57.2077 28.0024 122.5941 0.0000 -5.6176 0.0000
# 4 0.0000 0.0000 0.0000 24.6661 0.0000 -8.4327
# 5 -2.8303 -0.8346 -5.6176 0.0000 19.0227 0.0000
# 6 0.0000 0.0000 0.0000 -8.4327 0.0000 12.0946
#
#
#
# Elastic Compliance Matrix: (Units=1/GPa)
#
#
# Indices 1 2 3 4 5 6 
#
# 1 0.010921 -0.007719 -0.003319 0.000000 0.000306 0.000000
# 2 -0.007719 0.033834 -0.004167 0.000000 -0.000895 0.000000
# 3 -0.003319 -0.004167 0.010772 0.000000 0.002505 0.000000
# 4 0.000000 0.000000 0.000000 0.053229 0.000000 0.037113
# 5 0.000306 -0.000895 0.002505 0.000000 0.053315 0.000000
# 6 0.000000 0.000000 0.000000 0.037113 0.000000 0.108557
#
#
# Mechanical properties :
#
#
# Convention : Reuss Voigt Hill
#
# Bulk Modulus (GPa) = 39.81410 60.71903 50.26657
# Shear Modulus (GPa) = 16.15981 22.95224 19.55602
#
# Velocity S-wave (km/s) = 2.97455 3.54499 3.27222
# Velocity P-wave (km/s) = 5.79625 7.07116 6.46521
#
# Compressibility (1/GPa) = 0.02511673
#
# Stress axis : x y z
#
# Youngs Moduli (GPa) = 91.57007 29.55647 92.83026
#
# Poissons Ratio (x) = 0.22814 0.30809
# Poissons Ratio (y) = 0.70681 0.38684
# Poissons Ratio (z) = 0.30391 0.12317
#
# Static dielectric constant tensor:
#      x y z
#    x 3.705440 0.000000 -0.111430 
#    y 0.000000 3.256720 0.000000 
#    z -0.111430 0.000000 3.368790 
# 
# 
# High freq. dielectric constant tensor:
#      x y z
#    x 1.707090 0.000000 -0.011070 
#    y 0.000000 1.703410 0.000000 
#    z -0.011070 0.000000 1.709140 
# 
# From -- ./inp_files/86975.got.cif
#   From: 2010.06.25/outbox.cif.g09.slc.cpg/sg10_44_cif.got.tgz:86975.got - 2010.06.27 22:07:45.
