data_PCOD8060996
_publ_section_title
;
Structure prediction by ZEFSAII (Michael W. Deem and Ramdas Pophale) SiO2 
 PCOD8060996
Probable space group: P 2/M
;
_chemical_formula_sum "Si O2"
_cell_formula_units_Z 32
_cell_length_a 15.013434
_cell_length_b 9.254820
_cell_length_c 22.630118
_cell_angle_alpha 90.000000
_cell_angle_beta 31.719312
_cell_angle_gamma 90.000000
_cell_volume 1653.183451
_symmetry_space_group_name_H-M "P 2/M"
_symmetry_group_IT_number 10
_symmetry_cell_setting 'monoclinic'
loop_
_space_group_symop_operation_xyz
x,y,z
-x,y,-z
-x,-y,-z
x,-y,z
loop_
_atom_site_type_symbol
_atom_site_label
_atom_site_fract_x
_atom_site_fract_y
_atom_site_fract_z
Si Si1 0.987151 0.671663 0.251550
Si Si2 0.409672 0.835396 0.714792
Si Si3 0.744601 0.164976 0.587880
Si Si4 0.956413 0.831627 0.659092
Si Si5 0.326137 0.169635 0.630750
Si Si6 0.382515 0.832475 0.216812
Si Si7 0.171529 0.666890 0.930190
Si Si8 0.280061 0.666376 0.998113
O O1 0.963070 0.500000 0.267630
O O2 0.004677 0.735063 0.306558
O O3 0.824888 0.738796 0.311256
O O4 0.157723 0.714527 0.120231
O O5 0.611451 0.818714 0.609187
O O6 0.351626 0.779083 0.683828
O O7 0.330163 0.744895 0.812228
O O8 0.353065 0.000000 0.754985
O O9 0.678081 0.238675 0.686325
O O10 0.922630 0.225606 0.462605
O O11 0.775509 0.000000 0.588453
O O12 0.763148 0.809926 0.749350
O O13 0.996390 0.000000 0.650562
O O14 0.500000 0.206443 0.500000
O O15 0.283622 0.000000 0.649911
O O16 0.548101 0.756506 0.097556
O O17 0.428520 0.000000 0.199633
O O18 0.185857 0.500000 0.905321
O O19 0.173387 0.694340 0.998852
O O20 0.000000 0.733575 0.000000
O O21 0.332688 0.500000 0.974043
#
# Coordination Sequence:
#
# PCOD8060996 Si02
#       8
#     4   4   4   4   4   4   4   4
#     4  11  24  41  59  82 115 158 203 241 283 341
#     4  10  19  32  55  85 112 141 180 228 280 334
#     4   9  17  34  59  88 119 146 181 232 291 351
#     4  10  21  38  61  87 115 150 191 241 298 348
#     4  10  21  38  60  86 117 154 192 236 290 342
#     4  10  20  36  62  90 114 147 193 241 290 349
#     4  10  20  35  54  76 106 146 187 227 277 334
#     4  10  22  39  57  79 115 158 194 238 292 341
#
# _framework density 19.356594000000001
#
# number of rings (size 3 to 8) (size 9 to 14) (size 15 to 20)
#    0.000    2.000    1.250    2.250    0.000    7.500 
#    0.000    5.000    0.000    1.500    0.000    0.000 
#    0.000    0.000    0.000    0.000    0.000    0.000 
#
# Total GULP energy -396812.065858 kJ/mol
# GULP energy per Si atom -12400.377058 kJ/mol
# Density = 1.931254 g / cm^3
# Si number density = 19.356594 Si / 1000 Ang^3
#
#
#
# Elastic Constant Matrix: (Units=GPa)
#
#
# Indices 1 2 3 4 5 6 
#
# 1 80.2365 31.5265 28.9452 0.0000 -2.1528 0.0000
# 2 31.5265 54.1984 44.4290 0.0000 -2.4115 0.0000
# 3 28.9452 44.4290 122.4135 0.0000 -2.2127 0.0000
# 4 0.0000 0.0000 0.0000 43.6281 0.0000 -6.1436
# 5 -2.1528 -2.4115 -2.2127 0.0000 34.2232 0.0000
# 6 0.0000 0.0000 0.0000 -6.1436 0.0000 28.7819
#
#
#
# Elastic Compliance Matrix: (Units=1/GPa)
#
#
# Indices 1 2 3 4 5 6 
#
# 1 0.016189 -0.008923 -0.000583 0.000000 0.000352 0.000000
# 2 -0.008923 0.031236 -0.009208 0.000000 0.001044 0.000000
# 3 -0.000583 -0.009208 0.011650 0.000000 0.000068 0.000000
# 4 0.000000 0.000000 0.000000 0.023631 0.000000 0.005044
# 5 0.000352 0.001044 0.000068 0.000000 0.029320 0.000000
# 6 0.000000 0.000000 0.000000 0.005044 0.000000 0.035821
#
#
# Mechanical properties :
#
#
# Convention : Reuss Voigt Hill
#
# Bulk Modulus (GPa) = 46.19699 51.84997 49.02348
# Shear Modulus (GPa) = 25.97516 31.45650 28.71583
#
# Velocity S-wave (km/s) = 3.66721 4.03563 3.85582
# Velocity P-wave (km/s) = 6.46910 6.96850 6.72344
#
# Compressibility (1/GPa) = 0.02164643
#
# Stress axis : x y z
#
# Youngs Moduli (GPa) = 61.76998 32.01428 85.83646
#
# Poissons Ratio (x) = 0.28568 0.05004
# Poissons Ratio (y) = 0.55120 0.79038
# Poissons Ratio (z) = 0.03601 0.29479
#
# Static dielectric constant tensor:
#      x y z
#    x 3.606060 0.000000 0.030300 
#    y 0.000000 3.312900 0.000000 
#    z 0.030300 0.000000 3.640910 
# 
# 
# High freq. dielectric constant tensor:
#      x y z
#    x 1.764410 0.000000 -0.002020 
#    y 0.000000 1.727040 0.000000 
#    z -0.002020 0.000000 1.763700 
# 
# From -- ./inp_files/89476.got.cif
#   From: 2010.06.25/outbox.cif.g09.slc.cpg/sg10_45_cif.got.tgz:89476.got - 2010.06.27 22:07:45.
