data_PCOD8060760
_publ_section_title
;
Structure prediction by ZEFSAII (Michael W. Deem and Ramdas Pophale) SiO2 
 PCOD8060760
Probable space group: P 2/M
;
_chemical_formula_sum "Si O2"
_cell_formula_units_Z 32
_cell_length_a 25.165380
_cell_length_b 9.154551
_cell_length_c 16.574928
_cell_angle_alpha 90.000000
_cell_angle_beta 154.578856
_cell_angle_gamma 90.000000
_cell_volume 1639.159354
_symmetry_space_group_name_H-M "P 2/M"
_symmetry_group_IT_number 10
_symmetry_cell_setting 'monoclinic'
loop_
_space_group_symop_operation_xyz
x,y,z
-x,y,-z
-x,-y,-z
x,-y,z
loop_
_atom_site_type_symbol
_atom_site_label
_atom_site_fract_x
_atom_site_fract_y
_atom_site_fract_z
Si Si1 0.588175 0.666355 0.736948
Si Si2 0.789749 0.335846 0.881237
Si Si3 0.656936 0.828729 0.573179
Si Si4 0.966546 0.671732 0.265201
Si Si5 0.223409 0.169489 0.894298
Si Si6 0.630946 0.830722 0.352405
Si Si7 0.248533 0.328412 0.625583
Si Si8 0.359517 0.166681 0.922898
O O1 0.567068 0.500000 0.737035
O O2 0.661181 0.668650 0.753324
O O3 0.458694 0.745758 0.546523
O O4 0.662827 0.752496 0.906967
O O5 0.817888 0.500000 0.889706
O O6 0.778057 0.230301 0.787273
O O7 0.900416 0.280162 0.091039
O O8 0.668850 0.790856 0.495362
O O9 0.641218 0.000000 0.565917
O O10 0.944798 0.500000 0.249616
O O11 0.109065 0.715890 0.456780
O O12 0.906216 0.756807 0.258092
O O13 0.245920 0.188177 0.829494
O O14 0.222560 0.000000 0.917985
O O15 0.719925 0.737420 0.417718
O O16 0.654031 0.000000 0.365831
O O17 0.487813 0.789005 0.141675
O O18 0.265510 0.500000 0.644299
O O19 0.340979 0.267166 0.819808
O O20 0.365136 0.000000 0.900448
#
# Coordination Sequence:
#
# PCOD8060760 Si02
#       8
#     4   4   4   4   4   4   4   4
#     4  10  19  32  52  80 118 155 184 222 280 338
#     4   9  19  35  54  78 110 151 187 221 279 341
#     4  11  21  34  54  83 114 146 187 234 279 331
#     4   9  21  41  58  79 118 154 185 233 286 331
#     4  10  19  34  58  87 116 149 190 229 275 337
#     4  10  22  41  59  80 116 152 183 230 290 338
#     4  11  24  40  60  85 109 145 197 241 278 333
#     4  10  21  39  60  84 117 150 180 228 292 343
#
# _framework density 19.522200999999999
#
# number of rings (size 3 to 8) (size 9 to 14) (size 15 to 20)
#    0.000    2.000    1.250    3.000    0.000    9.500 
#    0.000    3.125    0.000    3.750    0.000    0.000 
#    0.000    0.000    0.000    0.000    0.000    0.000 
#
# Total GULP energy -396866.633592 kJ/mol
# GULP energy per Si atom -12402.082300 kJ/mol
# Density = 1.947777 g / cm^3
# Si number density = 19.522201 Si / 1000 Ang^3
#
#
#
# Elastic Constant Matrix: (Units=GPa)
#
#
# Indices 1 2 3 4 5 6 
#
# 1 67.6829 35.6735 20.8135 0.0000 -6.5247 0.0000
# 2 35.6735 81.4317 24.2083 0.0000 -3.6254 0.0000
# 3 20.8135 24.2083 36.7287 0.0000 -8.4254 0.0000
# 4 0.0000 0.0000 0.0000 25.1223 0.0000 4.1579
# 5 -6.5247 -3.6254 -8.4254 0.0000 27.0269 0.0000
# 6 0.0000 0.0000 0.0000 4.1579 0.0000 18.8208
#
#
#
# Elastic Compliance Matrix: (Units=1/GPa)
#
#
# Indices 1 2 3 4 5 6 
#
# 1 0.020705 -0.007001 -0.006664 0.000000 0.001982 0.000000
# 2 -0.007001 0.017675 -0.008106 0.000000 -0.001846 0.000000
# 3 -0.006664 -0.008106 0.038479 0.000000 0.009299 0.000000
# 4 0.000000 0.000000 0.000000 0.041316 0.000000 -0.009128
# 5 0.001982 -0.001846 0.009299 0.000000 0.040130 0.000000
# 6 0.000000 0.000000 0.000000 -0.009128 0.000000 0.055149
#
#
# Mechanical properties :
#
#
# Convention : Reuss Voigt Hill
#
# Bulk Modulus (GPa) = 30.01473 38.58154 34.29813
# Shear Modulus (GPa) = 18.64962 21.20385 19.92674
#
# Velocity S-wave (km/s) = 3.09415 3.29924 3.19834
# Velocity P-wave (km/s) = 5.30783 5.85825 5.58982
#
# Compressibility (1/GPa) = 0.03331698
#
# Stress axis : x y z
#
# Youngs Moduli (GPa) = 48.29687 56.57770 25.98825
#
# Poissons Ratio (x) = 0.39611 0.17319
# Poissons Ratio (y) = 0.33814 0.21065
# Poissons Ratio (z) = 0.32186 0.45860
#
# Static dielectric constant tensor:
#      x y z
#    x 3.482600 0.000000 -0.022830 
#    y 0.000000 3.570340 0.000000 
#    z -0.022830 0.000000 3.496890 
# 
# 
# High freq. dielectric constant tensor:
#      x y z
#    x 1.750140 0.000000 -0.010270 
#    y 0.000000 1.763610 0.000000 
#    z -0.010270 0.000000 1.754720 
# 
# From -- ./inp_files/71590.got.cif
#   From: 2010.06.25/outbox.cif.g09.slc.cpg/sg10_36_cif.got.tgz:71590.got - 2010.06.27 22:07:45.
