data_PCOD8060842
_publ_section_title
;
Structure prediction by ZEFSAII (Michael W. Deem and Ramdas Pophale) SiO2 
 PCOD8060842
Probable space group: P 2/M
;
_chemical_formula_sum "Si O2"
_cell_formula_units_Z 28
_cell_length_a 15.104344
_cell_length_b 9.456046
_cell_length_c 11.953348
_cell_angle_alpha 90.000000
_cell_angle_beta 120.416971
_cell_angle_gamma 90.000000
_cell_volume 1472.283677
_symmetry_space_group_name_H-M "P 2/M"
_symmetry_group_IT_number 10
_symmetry_cell_setting 'monoclinic'
loop_
_space_group_symop_operation_xyz
x,y,z
-x,y,-z
-x,-y,-z
x,-y,z
loop_
_atom_site_type_symbol
_atom_site_label
_atom_site_fract_x
_atom_site_fract_y
_atom_site_fract_z
Si Si1 0.009627 0.667811 0.875004
Si Si2 0.681617 0.844828 0.752179
Si Si3 0.615769 0.833465 0.089129
Si Si4 0.503598 0.343402 0.370399
Si Si5 0.204582 0.839878 0.955709
Si Si6 0.323546 0.162805 0.625734
Si Si7 0.830403 0.160931 0.652517
O O1 0.014418 0.500000 0.864257
O O2 0.108679 0.735965 0.878771
O O3 0.914890 0.726114 0.742206
O O4 0.000000 0.709721 0.000000
O O5 0.598371 0.732237 0.738994
O O6 0.729010 0.811818 0.661889
O O7 0.629100 0.000000 0.718083
O O8 0.774113 0.841022 0.899023
O O9 0.695382 0.779397 0.045734
O O10 0.667756 0.789730 0.239898
O O11 0.604892 0.000000 0.069832
O O12 0.500000 0.767974 0.000000
O O13 0.500000 0.348940 0.500000
O O14 0.506856 0.500000 0.320383
O O15 0.602584 0.259141 0.398543
O O16 0.177756 0.000000 0.897208
O O17 0.208161 0.183402 0.500921
O O18 0.357616 0.000000 0.634653
O O19 0.871412 0.000000 0.696148
#
# Coordination Sequence:
#
# PCOD8060842 Si02
#       7
#     4   4   4   4   4   4   4
#     4  11  23  37  56  83 116 151 184 228 284 339
#     4  10  19  32  53  80 108 141 181 228 279 328
#     4   9  18  35  60  87 113 144 185 231 277 326
#     4  11  22  32  47  76 113 148 181 221 276 339
#     4  10  20  36  60  85 110 144 187 233 278 329
#     4  10  20  36  57  80 110 146 187 233 279 329
#     4  10  20  34  55  82 109 141 183 231 280 330
#
# _framework density 19.018075
#
# number of rings (size 3 to 8) (size 9 to 14) (size 15 to 20)
#    0.000    1.857    2.857    1.714    0.000    5.143 
#    0.000    1.429    0.000    6.000    0.000    0.000 
#    0.000    0.000    0.000    0.000    0.000    0.000 
#
# Total GULP energy -347081.089970 kJ/mol
# GULP energy per Si atom -12395.753213 kJ/mol
# Density = 1.897479 g / cm^3
# Si number density = 19.018075 Si / 1000 Ang^3
#
#
#
# Elastic Constant Matrix: (Units=GPa)
#
#
# Indices 1 2 3 4 5 6 
#
# 1 89.9224 46.8881 40.3816 0.0000 11.5797 0.0000
# 2 46.8881 86.8495 39.1155 0.0000 15.5368 0.0000
# 3 40.3816 39.1155 113.0242 0.0000 7.4951 0.0000
# 4 0.0000 0.0000 0.0000 4.4818 0.0000 -11.5473
# 5 11.5797 15.5368 7.4951 0.0000 27.8958 0.0000
# 6 0.0000 0.0000 0.0000 -11.5473 0.0000 -33.9073
#
#
#
# Elastic Compliance Matrix: (Units=1/GPa)
#
#
# Indices 1 2 3 4 5 6 
#
# 1 0.016573 -0.007080 -0.003336 0.000000 -0.002040 0.000000
# 2 -0.007080 0.017906 -0.003259 0.000000 -0.006158 0.000000
# 3 -0.003336 -0.003259 0.011154 0.000000 0.000203 0.000000
# 4 0.000000 0.000000 0.000000 0.118845 0.000000 -0.040473
# 5 -0.002040 -0.006158 0.000203 0.000000 0.040070 0.000000
# 6 0.000000 0.000000 0.000000 -0.040473 0.000000 -0.015709
#
#
# Mechanical properties :
#
#
# Convention : Reuss Voigt Hill
#
# Bulk Modulus (GPa) = 54.69438 60.28516 57.48977
# Shear Modulus (GPa) = 22.49378 10.58814 16.54096
#
# Velocity S-wave (km/s) = 3.44286 2.36210 2.95235
# Velocity P-wave (km/s) = 6.68026 6.26155 6.47429
#
# Compressibility (1/GPa) = 0.01828341
#
# Stress axis : x y z
#
# Youngs Moduli (GPa) = 60.33846 55.84699 89.65515
#
# Poissons Ratio (x) = 0.39541 0.29906
# Poissons Ratio (y) = 0.42721 0.29218
# Poissons Ratio (z) = 0.20127 0.18200
#
# Static dielectric constant tensor:
#      x y z
#    x 3.374900 0.000000 -0.024530 
#    y 0.000000 3.435050 0.000000 
#    z -0.024530 0.000000 3.589430 
# 
# 
# High freq. dielectric constant tensor:
#      x y z
#    x 1.721180 0.000000 0.006350 
#    y 0.000000 1.719300 0.000000 
#    z 0.006350 0.000000 1.741840 
# 
# From -- ./inp_files/49616.got.cif
#   From: 2010.06.25/outbox.cif.g09.slc.cpg/sg10_25_cif.got.tgz:49616.got - 2010.06.27 22:07:45.
