data_PCOD8060348
_publ_section_title
;
Structure prediction by ZEFSAII (Michael W. Deem and Ramdas Pophale) SiO2 
 PCOD8060348
Probable space group: P 2/M
;
_chemical_formula_sum "Si O2"
_cell_formula_units_Z 32
_cell_length_a 11.870767
_cell_length_b 9.316913
_cell_length_c 14.828170
_cell_angle_alpha 90.000000
_cell_angle_beta 93.057602
_cell_angle_gamma 90.000000
_cell_volume 1637.644690
_symmetry_space_group_name_H-M "P 2/M"
_symmetry_group_IT_number 10
_symmetry_cell_setting 'monoclinic'
loop_
_space_group_symop_operation_xyz
x,y,z
-x,y,-z
-x,-y,-z
x,-y,z
loop_
_atom_site_type_symbol
_atom_site_label
_atom_site_fract_x
_atom_site_fract_y
_atom_site_fract_z
Si Si1 0.933007 0.831949 0.585805
Si Si2 0.630925 0.332380 0.994504
Si Si3 0.407858 0.662907 0.307360
Si Si4 0.722169 0.662012 0.526362
Si Si5 0.258713 0.830290 0.166277
Si Si6 0.656686 0.670361 0.330617
Si Si7 0.007973 0.833185 0.211954
Si Si8 0.206810 0.332543 0.834202
O O1 0.815199 0.752243 0.582234
O O2 0.000000 0.779868 0.500000
O O3 0.995876 0.791474 0.681773
O O4 0.908484 0.000000 0.581265
O O5 0.639025 0.500000 0.970001
O O6 0.689790 0.240682 0.919978
O O7 0.500000 0.287157 0.000000
O O8 0.698608 0.295728 0.088153
O O9 0.394770 0.500000 0.268634
O O10 0.387088 0.663334 0.414053
O O11 0.321496 0.768237 0.255502
O O12 0.533033 0.724874 0.296579
O O13 0.766887 0.500000 0.514291
O O14 0.693362 0.734346 0.428853
O O15 0.126703 0.791724 0.171072
O O16 0.277011 0.000000 0.163115
O O17 0.649123 0.500000 0.338312
O O18 0.745391 0.720833 0.259721
O O19 0.910539 0.749037 0.153826
O O20 0.983272 0.000000 0.198528
O O21 0.179463 0.500000 0.832397
#
# Coordination Sequence:
#
# PCOD8060348 Si02
#       8
#     4   4   4   4   4   4   4   4
#     4  10  20  35  54  75 109 158 201 237 282 336
#     4  10  22  42  66  91 118 148 184 231 291 351
#     4  10  19  34  57  83 115 154 191 233 289 346
#     4  10  19  31  53  84 113 146 190 238 285 338
#     4  11  23  39  60  85 116 154 194 240 287 338
#     4   9  18  34  55  83 117 149 186 235 292 346
#     4  10  22  39  56  79 116 155 191 236 289 339
#     4  10  21  37  60  86 112 146 189 237 283 338
#
# _framework density 19.540258000000001
#
# number of rings (size 3 to 8) (size 9 to 14) (size 15 to 20)
#    0.000    2.000    1.250    2.250    0.000    6.500 
#    0.000    5.000    0.000    1.500    0.000    0.000 
#    0.000    0.000    0.000    0.000    0.000    0.000 
#
# Total GULP energy -396808.326782 kJ/mol
# GULP energy per Si atom -12400.260212 kJ/mol
# Density = 1.949578 g / cm^3
# Si number density = 19.540258 Si / 1000 Ang^3
#
#
#
# Elastic Constant Matrix: (Units=GPa)
#
#
# Indices 1 2 3 4 5 6 
#
# 1 146.7717 54.4394 55.9585 0.0000 8.7649 0.0000
# 2 54.4394 51.8188 41.4766 0.0000 2.4137 0.0000
# 3 55.9585 41.4766 111.2723 0.0000 -0.8784 0.0000
# 4 0.0000 0.0000 0.0000 18.8437 0.0000 -18.0598
# 5 8.7649 2.4137 -0.8784 0.0000 34.5676 0.0000
# 6 0.0000 0.0000 0.0000 -18.0598 0.0000 -11.9593
#
#
#
# Elastic Compliance Matrix: (Units=1/GPa)
#
#
# Indices 1 2 3 4 5 6 
#
# 1 0.011585 -0.010530 -0.001919 0.000000 -0.002251 0.000000
# 2 -0.010530 0.037241 -0.008587 0.000000 -0.000149 0.000000
# 3 -0.001919 -0.008587 0.013164 0.000000 0.001421 0.000000
# 4 0.000000 0.000000 0.000000 0.021684 0.000000 -0.032746
# 5 -0.002251 -0.000149 0.001421 0.000000 0.029546 0.000000
# 6 0.000000 0.000000 0.000000 -0.032746 0.000000 -0.034167
#
#
# Mechanical properties :
#
#
# Convention : Reuss Voigt Hill
#
# Bulk Modulus (GPa) = 50.20627 68.17908 59.19267
# Shear Modulus (GPa) = 39.13444 18.82296 28.97870
#
# Velocity S-wave (km/s) = 4.48008 3.10706 3.85518
# Velocity P-wave (km/s) = 7.24645 6.91658 7.08343
#
# Compressibility (1/GPa) = 0.01991783
#
# Stress axis : x y z
#
# Youngs Moduli (GPa) = 86.31780 26.85211 75.96544
#
# Poissons Ratio (x) = 0.28276 0.14575
# Poissons Ratio (y) = 0.90896 0.65232
# Poissons Ratio (z) = 0.16562 0.23058
#
# Static dielectric constant tensor:
#      x y z
#    x 3.577630 0.000000 -0.066920 
#    y 0.000000 3.308520 0.000000 
#    z -0.066920 0.000000 3.682550 
# 
# 
# High freq. dielectric constant tensor:
#      x y z
#    x 1.768990 0.000000 -0.003490 
#    y 0.000000 1.736860 0.000000 
#    z -0.003490 0.000000 1.769080 
# 
# From -- ./inp_files/49844.got.cif
#   From: 2010.06.25/outbox.cif.g09.slc.cpg/sg10_25_cif.got.tgz:49844.got - 2010.06.27 22:07:45.
