data_PCOD8060973
_publ_section_title
;
Structure prediction by ZEFSAII (Michael W. Deem and Ramdas Pophale) SiO2 
 PCOD8060973
Probable space group: P 2/M
;
_chemical_formula_sum "Si O2"
_cell_formula_units_Z 32
_cell_length_a 13.027344
_cell_length_b 9.020963
_cell_length_c 25.863315
_cell_angle_alpha 90.000000
_cell_angle_beta 35.122194
_cell_angle_gamma 90.000000
_cell_volume 1748.654657
_symmetry_space_group_name_H-M "P 2/M"
_symmetry_group_IT_number 10
_symmetry_cell_setting 'monoclinic'
loop_
_space_group_symop_operation_xyz
x,y,z
-x,y,-z
-x,-y,-z
x,-y,z
loop_
_atom_site_type_symbol
_atom_site_label
_atom_site_fract_x
_atom_site_fract_y
_atom_site_fract_z
Si Si1 0.279887 0.337585 0.955612
Si Si2 0.224356 0.824576 0.598978
Si Si3 0.396418 0.673254 0.734149
Si Si4 0.575721 0.335408 0.916539
Si Si5 0.554902 0.824421 0.395591
Si Si6 0.830437 0.823909 0.735474
Si Si7 0.414012 0.326675 0.243283
Si Si8 0.052358 0.829507 0.919434
O O1 0.202148 0.500000 0.972138
O O2 0.403914 0.355194 0.953030
O O3 0.399853 0.272287 0.859129
O O4 0.123380 0.226755 0.037874
O O5 0.369116 0.770611 0.497426
O O6 0.284073 0.773695 0.632267
O O7 0.031149 0.762927 0.661849
O O8 0.221230 0.000000 0.600372
O O9 0.370623 0.500000 0.735759
O O10 0.430243 0.748963 0.665776
O O11 0.564439 0.703007 0.704010
O O12 0.219636 0.734973 0.833262
O O13 0.659318 0.500000 0.892116
O O14 0.719270 0.228656 0.830892
O O15 0.500000 0.261871 0.000000
O O16 0.558506 0.000000 0.385931
O O17 0.752994 0.759861 0.713225
O O18 0.824138 0.000000 0.734550
O O19 0.385367 0.500000 0.242448
O O20 0.090642 0.000000 0.891017
O O21 0.000000 0.799304 0.000000
#
# Coordination Sequence:
#
# PCOD8060973 Si02
#       8
#     4   4   4   4   4   4   4   4
#     4   9  17  32  51  69  95 138 179 212 257 306
#     4   8  17  36  60  83 108 139 173 216 274 325
#     4  11  22  36  54  78 110 142 179 222 268 319
#     4   9  19  35  51  71 104 143 177 210 258 314
#     4   9  18  37  61  81 107 141 175 216 268 323
#     4  10  19  32  55  82 104 133 179 224 263 312
#     4   9  19  35  52  72 104 144 176 209 262 318
#     4  11  22  33  49  75 104 136 177 218 258 309
#
# _framework density 18.299783000000001
#
# number of rings (size 3 to 8) (size 9 to 14) (size 15 to 20)
#    0.000    2.500    1.250    2.625    0.000    4.750 
#    0.000    6.875    0.000    3.750    0.000    0.000 
#    0.000    0.000    0.000    0.000    0.000    0.000 
#
# Total GULP energy -396577.641953 kJ/mol
# GULP energy per Si atom -12393.051311 kJ/mol
# Density = 1.825813 g / cm^3
# Si number density = 18.299783 Si / 1000 Ang^3
#
#
#
# Elastic Constant Matrix: (Units=GPa)
#
#
# Indices 1 2 3 4 5 6 
#
# 1 129.7927 51.1489 82.3614 0.0000 0.1244 0.0000
# 2 51.1489 67.7741 43.1446 0.0000 0.1067 0.0000
# 3 82.3614 43.1446 86.6865 0.0000 -2.1303 0.0000
# 4 0.0000 0.0000 0.0000 44.7989 0.0000 7.7989
# 5 0.1244 0.1067 -2.1303 0.0000 34.9182 0.0000
# 6 0.0000 0.0000 0.0000 7.7989 0.0000 28.1452
#
#
#
# Elastic Compliance Matrix: (Units=1/GPa)
#
#
# Indices 1 2 3 4 5 6 
#
# 1 0.020321 -0.004430 -0.017130 0.000000 -0.001104 0.000000
# 2 -0.004430 0.022582 -0.007042 0.000000 -0.000483 0.000000
# 3 -0.017130 -0.007042 0.031365 0.000000 0.001996 0.000000
# 4 0.000000 0.000000 0.000000 0.023453 0.000000 -0.006499
# 5 -0.001104 -0.000483 0.001996 0.000000 0.028766 0.000000
# 6 0.000000 0.000000 0.000000 -0.006499 0.000000 0.037331
#
#
# Mechanical properties :
#
#
# Convention : Reuss Voigt Hill
#
# Bulk Modulus (GPa) = 58.60135 70.84037 64.72086
# Shear Modulus (GPa) = 22.05469 28.74568 25.40018
#
# Velocity S-wave (km/s) = 3.47535 3.96766 3.72964
# Velocity P-wave (km/s) = 6.94237 7.73206 7.34784
#
# Compressibility (1/GPa) = 0.01706445
#
# Stress axis : x y z
#
# Youngs Moduli (GPa) = 49.20967 44.28318 31.88291
#
# Poissons Ratio (x) = 0.19617 0.54614
# Poissons Ratio (y) = 0.21800 0.22452
# Poissons Ratio (z) = 0.84294 0.31185
#
# Static dielectric constant tensor:
#      x y z
#    x 3.628200 0.000000 -0.048410 
#    y 0.000000 3.235430 0.000000 
#    z -0.048410 0.000000 3.435500 
# 
# 
# High freq. dielectric constant tensor:
#      x y z
#    x 1.718150 0.000000 0.000710 
#    y 0.000000 1.697530 0.000000 
#    z 0.000710 0.000000 1.691500 
# 
# From -- ./inp_files/93122.got.cif
#   From: 2010.06.25/outbox.cif.g09.slc.cpg/sg10_47_cif.got.tgz:93122.got - 2010.06.27 22:07:45.
