data_PCOD8060538
_publ_section_title
;
Structure prediction by ZEFSAII (Michael W. Deem and Ramdas Pophale) SiO2 
 PCOD8060538
Probable space group: P 2/M
;
_chemical_formula_sum "Si O2"
_cell_formula_units_Z 28
_cell_length_a 21.313991
_cell_length_b 9.676311
_cell_length_c 9.897064
_cell_angle_alpha 90.000000
_cell_angle_beta 126.730251
_cell_angle_gamma 90.000000
_cell_volume 1635.922879
_symmetry_space_group_name_H-M "P 2/M"
_symmetry_group_IT_number 10
_symmetry_cell_setting 'monoclinic'
loop_
_space_group_symop_operation_xyz
x,y,z
-x,y,-z
-x,-y,-z
x,-y,z
loop_
_atom_site_type_symbol
_atom_site_label
_atom_site_fract_x
_atom_site_fract_y
_atom_site_fract_z
Si Si1 0.002278 0.835093 0.849142
Si Si2 0.548076 0.656652 0.696980
Si Si3 0.313484 0.158649 0.054132
Si Si4 0.442847 0.340160 0.803473
Si Si5 0.691873 0.841556 0.268187
Si Si6 0.868069 0.163952 0.479215
Si Si7 0.137782 0.164257 0.829134
O O1 0.079879 0.780628 0.871467
O O2 0.928344 0.777378 0.668417
O O3 0.001181 0.000000 0.851457
O O4 0.000000 0.776929 0.000000
O O5 0.500000 0.664744 0.500000
O O6 0.573980 0.500000 0.764967
O O7 0.625674 0.748734 0.784779
O O8 0.489569 0.714529 0.734458
O O9 0.324874 0.000000 0.112461
O O10 0.328844 0.177172 0.915263
O O11 0.226079 0.210858 0.978313
O O12 0.418759 0.500000 0.759650
O O13 0.363682 0.253163 0.713222
O O14 0.500000 0.312122 0.000000
O O15 0.780707 0.792552 0.410169
O O16 0.680200 0.000000 0.297359
O O17 0.887029 0.220753 0.352041
O O18 0.874227 0.000000 0.481842
O O19 0.135157 0.000000 0.818657
#
# Coordination Sequence:
#
# PCOD8060538 Si02
#       7
#     4   4   4   4   4   4   4
#     4   9  15  23  37  59  89 120 148 181 222 264
#     4  10  21  36  50  66  92 124 157 193 232 277
#     4   9  17  30  48  70  96 122 154 193 232 275
#     4  10  19  32  51  71  90 118 158 196 229 271
#     4   9  17  29  47  72  97 121 152 193 236 273
#     4   8  14  25  40  59  86 119 152 181 216 268
#     4   8  14  25  41  60  84 118 152 182 219 266
#
# _framework density 17.11572
#
# number of rings (size 3 to 8) (size 9 to 14) (size 15 to 20)
#    0.000    3.000    1.429    2.143    0.000    2.857 
#    2.571    0.000    0.000    0.000    0.000    1.000 
#    0.000    5.714    0.000    0.000    0.000    0.000 
#
# Total GULP energy -347069.728622 kJ/mol
# GULP energy per Si atom -12395.347451 kJ/mol
# Density = 1.707676 g / cm^3
# Si number density = 17.115720 Si / 1000 Ang^3
#
#
#
# Elastic Constant Matrix: (Units=GPa)
#
#
# Indices 1 2 3 4 5 6 
#
# 1 133.0999 33.4805 66.6472 0.0000 8.0504 0.0000
# 2 33.4805 33.2538 26.0459 0.0000 9.2728 0.0000
# 3 66.6472 26.0459 88.0721 0.0000 6.0291 0.0000
# 4 0.0000 0.0000 0.0000 9.6551 0.0000 -7.5160
# 5 8.0504 9.2728 6.0291 0.0000 27.2954 0.0000
# 6 0.0000 0.0000 0.0000 -7.5160 0.0000 7.6966
#
#
#
# Elastic Compliance Matrix: (Units=1/GPa)
#
#
# Indices 1 2 3 4 5 6 
#
# 1 0.013292 -0.007250 -0.007935 0.000000 0.000295 0.000000
# 2 -0.007250 0.046572 -0.007463 0.000000 -0.012035 0.000000
# 3 -0.007935 -0.007463 0.019527 0.000000 0.000562 0.000000
# 4 0.000000 0.000000 0.000000 0.431877 0.000000 0.421741
# 5 0.000295 -0.012035 0.000562 0.000000 0.040513 0.000000
# 6 0.000000 0.000000 0.000000 0.421741 0.000000 0.541770
#
#
# Mechanical properties :
#
#
# Convention : Reuss Voigt Hill
#
# Bulk Modulus (GPa) = 29.32846 56.30810 42.81828
# Shear Modulus (GPa) = 4.34702 17.47955 10.91329
#
# Velocity S-wave (km/s) = 1.59540 3.19918 2.52785
# Velocity P-wave (km/s) = 4.53501 6.82761 5.79580
#
# Compressibility (1/GPa) = 0.03409658
#
# Stress axis : x y z
#
# Youngs Moduli (GPa) = 75.23176 21.47192 51.21041
#
# Poissons Ratio (x) = 0.15568 0.40634
# Poissons Ratio (y) = 0.54546 0.38216
# Poissons Ratio (z) = 0.59694 0.16024
#
# Static dielectric constant tensor:
#      x y z
#    x 3.348540 0.000000 0.054830 
#    y 0.000000 2.749020 0.000000 
#    z 0.054830 0.000000 3.248380 
# 
# 
# High freq. dielectric constant tensor:
#      x y z
#    x 1.668570 0.000000 0.007900 
#    y 0.000000 1.604550 0.000000 
#    z 0.007900 0.000000 1.655550 
# 
# From -- ./inp_files/34680.got.cif
#   From: 2010.06.25/outbox.cif.g09.slc.cpg/sg10_18_cif.got.tgz:34680.got - 2010.06.27 22:07:45.
