data_PCOD8060314
_publ_section_title
;
Structure prediction by ZEFSAII (Michael W. Deem and Ramdas Pophale) SiO2 
 PCOD8060314
Probable space group: P 2/M
;
_chemical_formula_sum "Si O2"
_cell_formula_units_Z 32
_cell_length_a 17.393094
_cell_length_b 9.109823
_cell_length_c 17.642321
_cell_angle_alpha 90.000000
_cell_angle_beta 38.648361
_cell_angle_gamma 90.000000
_cell_volume 1745.830525
_symmetry_space_group_name_H-M "P 2/M"
_symmetry_group_IT_number 10
_symmetry_cell_setting 'monoclinic'
loop_
_space_group_symop_operation_xyz
x,y,z
-x,y,-z
-x,-y,-z
x,-y,z
loop_
_atom_site_type_symbol
_atom_site_label
_atom_site_fract_x
_atom_site_fract_y
_atom_site_fract_z
Si Si1 0.737508 0.668270 0.126400
Si Si2 0.168364 0.168966 0.800612
Si Si3 0.235443 0.669729 0.402283
Si Si4 0.399406 0.832049 0.520811
Si Si5 0.872932 0.161644 0.642586
Si Si6 0.023541 0.330198 0.145091
Si Si7 0.030142 0.174163 0.657136
Si Si8 0.461509 0.332224 0.324628
O O1 0.740270 0.500000 0.153148
O O2 0.770315 0.773887 0.170116
O O3 0.602485 0.714000 0.199565
O O4 0.832043 0.688667 0.984250
O O5 0.263721 0.185685 0.658532
O O6 0.049295 0.264920 0.871103
O O7 0.129621 0.000000 0.842112
O O8 0.197088 0.500000 0.434984
O O9 0.219188 0.726501 0.328367
O O10 0.151244 0.757450 0.526240
O O11 0.378466 0.694486 0.313942
O O12 0.500000 0.759930 0.500000
O O13 0.400762 0.755835 0.439349
O O14 0.436212 0.000000 0.479256
O O15 0.000000 0.155214 0.500000
O O16 0.908216 0.211598 0.700791
O O17 0.811624 0.000000 0.690336
O O18 0.987550 0.500000 0.184329
O O19 0.990290 0.239401 0.244722
O O20 0.050640 0.000000 0.647118
O O21 0.455807 0.500000 0.354302
#
# Coordination Sequence:
#
# PCOD8060314 Si02
#       8
#     4   4   4   4   4   4   4   4
#     4  10  22  39  54  70  99 138 176 216 258 299
#     4  11  22  36  55  77 102 132 170 216 261 306
#     4  10  19  31  52  83 111 135 168 207 250 306
#     4  10  20  34  50  73 102 131 166 207 252 302
#     4   8  16  31  51  76 107 139 166 200 252 306
#     4  11  23  37  54  75 100 133 175 218 258 302
#     4  10  20  35  54  78 108 138 168 206 255 307
#     4  10  21  35  52  75 103 137 173 209 253 304
#
# _framework density 18.329386
#
# number of rings (size 3 to 8) (size 9 to 14) (size 15 to 20)
#    0.000    2.000    1.250    3.375    0.000    9.500 
#    0.000    0.000    0.000    0.750    0.000    5.250 
#    0.000    0.000    0.000    0.000    0.000    0.000 
#
# Total GULP energy -396794.013748 kJ/mol
# GULP energy per Si atom -12399.812930 kJ/mol
# Density = 1.828767 g / cm^3
# Si number density = 18.329386 Si / 1000 Ang^3
#
#
#
# Elastic Constant Matrix: (Units=GPa)
#
#
# Indices 1 2 3 4 5 6 
#
# 1 123.8092 58.0081 34.1778 0.0000 -10.4162 0.0000
# 2 58.0081 98.2294 33.7870 0.0000 -6.0079 0.0000
# 3 34.1778 33.7870 55.4491 0.0000 -13.8526 0.0000
# 4 0.0000 0.0000 0.0000 14.8495 0.0000 4.3819
# 5 -10.4162 -6.0079 -13.8526 0.0000 19.0965 0.0000
# 6 0.0000 0.0000 0.0000 4.3819 0.0000 35.0484
#
#
#
# Elastic Compliance Matrix: (Units=1/GPa)
#
#
# Indices 1 2 3 4 5 6 
#
# 1 0.011857 -0.005751 -0.003225 0.000000 0.002319 0.000000
# 2 -0.005751 0.015732 -0.006826 0.000000 -0.003139 0.000000
# 3 -0.003225 -0.006826 0.028342 0.000000 0.016653 0.000000
# 4 0.000000 0.000000 0.000000 0.069922 0.000000 -0.008742
# 5 0.002319 -0.003139 0.016653 0.000000 0.064723 0.000000
# 6 0.000000 0.000000 0.000000 -0.008742 0.000000 0.029625
#
#
# Mechanical properties :
#
#
# Convention : Reuss Voigt Hill
#
# Bulk Modulus (GPa) = 41.10477 58.82594 49.96536
# Shear Modulus (GPa) = 19.23733 23.89987 21.56860
#
# Velocity S-wave (km/s) = 3.24317 3.61489 3.43406
# Velocity P-wave (km/s) = 6.04140 7.04178 6.56068
#
# Compressibility (1/GPa) = 0.02432808
#
# Stress axis : x y z
#
# Youngs Moduli (GPa) = 84.34104 63.56457 35.28393
#
# Poissons Ratio (x) = 0.36555 0.11378
# Poissons Ratio (y) = 0.48503 0.24083
# Poissons Ratio (z) = 0.27198 0.43386
#
# Static dielectric constant tensor:
#      x y z
#    x 3.660300 0.000000 -0.094770 
#    y 0.000000 3.472920 0.000000 
#    z -0.094770 0.000000 3.187730 
# 
# 
# High freq. dielectric constant tensor:
#      x y z
#    x 1.717130 0.000000 -0.005890 
#    y 0.000000 1.718460 0.000000 
#    z -0.005890 0.000000 1.680320 
# 
# From -- ./inp_files/78641.got.cif
#   From: 2010.06.25/outbox.cif.g09.slc.cpg/sg10_40_cif.got.tgz:78641.got - 2010.06.27 22:07:45.
