data_PCOD8060869
_publ_section_title
;
Structure prediction by ZEFSAII (Michael W. Deem and Ramdas Pophale) SiO2 
 PCOD8060869
Probable space group: P 2/M
;
_chemical_formula_sum "Si O2"
_cell_formula_units_Z 24
_cell_length_a 21.866593
_cell_length_b 7.732209
_cell_length_c 9.125390
_cell_angle_alpha 90.000000
_cell_angle_beta 128.754271
_cell_angle_gamma 90.000000
_cell_volume 1203.207237
_symmetry_space_group_name_H-M "P 2/M"
_symmetry_group_IT_number 10
_symmetry_cell_setting 'monoclinic'
loop_
_space_group_symop_operation_xyz
x,y,z
-x,y,-z
-x,-y,-z
x,-y,z
loop_
_atom_site_type_symbol
_atom_site_label
_atom_site_fract_x
_atom_site_fract_y
_atom_site_fract_z
Si Si1 0.082520 0.500000 0.545948
Si Si2 0.805661 0.193441 0.625760
Si Si3 0.805661 0.806559 0.291224
Si Si4 0.082520 0.500000 0.201613
Si Si5 0.653760 0.297087 0.560716
Si Si6 0.500000 0.294270 0.834448
Si Si7 0.653760 0.702913 0.900564
O O1 0.129693 0.670544 0.667671
O O2 0.067622 0.500000 0.351433
O O3 0.000000 0.500000 0.500000
O O4 0.781901 0.237967 0.422852
O O5 0.870307 0.329456 0.778592
O O6 0.728984 0.201085 0.610253
O O7 0.841103 0.000000 0.690993
O O8 0.841103 0.000000 0.332316
O O9 0.728984 0.798915 0.076697
O O10 0.000000 0.500000 0.000000
O O11 0.664264 0.500000 0.549077
O O12 0.576947 0.224597 0.363599
O O13 0.644828 0.252167 0.717242
O O14 0.500000 0.500000 0.831128
O O15 0.576947 0.224596 0.867243
O O16 0.500000 0.223068 0.000000
O O17 0.664264 0.500000 0.943716
#
# Coordination Sequence:
#
# PCOD8060869 Si02
#       7
#     2   4   4   2   4   4   4
#     4  10  22  40  62  87 116 147 184 230 281 340
#     4  10  21  38  60  85 114 151 192 232 279 338
#     4  10  21  38  60  85 114 151 192 232 279 338
#     4  10  22  40  62  87 116 147 184 230 281 340
#     4  10  19  32  53  82 116 152 192 239 288 335
#     4   9  17  29  50  79 112 154 199 239 282 333
#     4  10  19  32  53  82 116 152 192 239 288 335
#
# _framework density 19.946688000000002
#
# number of rings (size 3 to 8) (size 9 to 14) (size 15 to 20)
#    0.000    2.167    1.667    1.500    0.000    6.000 
#    0.000    0.833    0.000    5.000    0.000    0.000 
#    0.000    0.000    0.000    0.000    0.000    0.000 
#
# Total GULP energy -297672.144307 kJ/mol
# GULP energy per Si atom -12403.006013 kJ/mol
# Density = 1.990129 g / cm^3
# Si number density = 19.946688 Si / 1000 Ang^3
#
#
#
# Elastic Constant Matrix: (Units=GPa)
#
#
# Indices 1 2 3 4 5 6 
#
# 1 149.0609 51.9802 55.7752 0.0000 14.2455 0.0000
# 2 51.9802 101.8309 48.1835 0.0000 10.7715 0.0000
# 3 55.7752 48.1835 137.8163 0.0000 17.6566 0.0000
# 4 0.0000 0.0000 0.0000 11.4880 0.0000 -6.3894
# 5 14.2455 10.7715 17.6566 0.0000 34.4542 0.0000
# 6 0.0000 0.0000 0.0000 -6.3894 0.0000 9.2360
#
#
#
# Elastic Compliance Matrix: (Units=1/GPa)
#
#
# Indices 1 2 3 4 5 6 
#
# 1 0.008835 -0.003297 -0.002234 0.000000 -0.001478 0.000000
# 2 -0.003297 0.013089 -0.003095 0.000000 -0.001142 0.000000
# 3 -0.002234 -0.003095 0.009632 0.000000 -0.003045 0.000000
# 4 0.000000 0.000000 0.000000 0.141483 0.000000 0.097876
# 5 -0.001478 -0.001142 -0.003045 0.000000 0.031553 0.000000
# 6 0.000000 0.000000 0.000000 0.097876 0.000000 0.175981
#
#
# Mechanical properties :
#
#
# Convention : Reuss Voigt Hill
#
# Bulk Modulus (GPa) = 69.90895 77.84288 73.87592
# Shear Modulus (GPa) = 12.41949 26.55360 19.48654
#
# Velocity S-wave (km/s) = 2.49797 3.65256 3.12898
# Velocity P-wave (km/s) = 6.59119 7.54311 7.08316
#
# Compressibility (1/GPa) = 0.01430432
#
# Stress axis : x y z
#
# Youngs Moduli (GPa) = 113.18136 76.40230 103.81613
#
# Poissons Ratio (x) = 0.25188 0.23190
# Poissons Ratio (y) = 0.37314 0.32136
# Poissons Ratio (z) = 0.25282 0.23650
#
# Static dielectric constant tensor:
#      x y z
#    x 3.553110 0.000000 -0.050510 
#    y 0.000000 3.591560 0.000000 
#    z -0.050510 0.000000 3.570920 
# 
# 
# High freq. dielectric constant tensor:
#      x y z
#    x 1.773950 0.000000 -0.003900 
#    y 0.000000 1.772400 0.000000 
#    z -0.003900 0.000000 1.775320 
# 
# From -- ./inp_files/33986.got.cif
#   From: 2010.06.25/outbox.cif.g09.slc.cpg/sg10_17_cif.got.tgz:33986.got - 2010.06.27 22:07:45.
