data_PCOD8060900
_publ_section_title
;
Structure prediction by ZEFSAII (Michael W. Deem and Ramdas Pophale) SiO2 
 PCOD8060900
Probable space group: P 2/M
;
_chemical_formula_sum "Si O2"
_cell_formula_units_Z 28
_cell_length_a 15.144007
_cell_length_b 9.035594
_cell_length_c 12.299867
_cell_angle_alpha 90.000000
_cell_angle_beta 60.642850
_cell_angle_gamma 90.000000
_cell_volume 1466.916964
_symmetry_space_group_name_H-M "P 2/M"
_symmetry_group_IT_number 10
_symmetry_cell_setting 'monoclinic'
loop_
_space_group_symop_operation_xyz
x,y,z
-x,y,-z
-x,-y,-z
x,-y,z
loop_
_atom_site_type_symbol
_atom_site_label
_atom_site_fract_x
_atom_site_fract_y
_atom_site_fract_z
Si Si1 0.842168 0.824949 0.915202
Si Si2 0.726788 0.332244 0.798704
Si Si3 0.443234 0.174401 0.639085
Si Si4 0.066757 0.824969 0.716537
Si Si5 0.193776 0.668098 0.473170
Si Si6 0.780696 0.175977 0.189657
Si Si7 0.617105 0.826128 0.692226
O O1 0.760417 0.751673 0.885814
O O2 0.954480 0.773521 0.815357
O O3 0.830055 0.000000 0.913285
O O4 0.820437 0.767000 0.049497
O O5 0.697217 0.500000 0.846119
O O6 0.816541 0.328184 0.652787
O O7 0.628402 0.250457 0.804492
O O8 0.500000 0.243650 0.500000
O O9 0.331107 0.242578 0.720319
O O10 0.507134 0.210033 0.709307
O O11 0.433298 0.000000 0.627662
O O12 0.097242 0.747065 0.585269
O O13 0.142697 0.767589 0.764242
O O14 0.072889 0.000000 0.697688
O O15 0.202837 0.500000 0.509903
O O16 0.296886 0.758618 0.441212
O O17 0.778261 0.000000 0.189925
O O18 0.636107 0.000000 0.691300
#
# Coordination Sequence:
#
# PCOD8060900 Si02
#       7
#     4   4   4   4   4   4   4
#     4  10  20  34  54  78 105 141 182 219 258 308
#     4   9  20  36  53  74 107 144 178 217 265 313
#     4   9  16  27  51  84 110 134 165 209 267 317
#     4  10  19  32  54  80 106 139 177 220 264 308
#     4   9  19  33  51  76 107 139 173 213 265 313
#     4   9  18  33  52  80 113 138 170 218 266 314
#     4   9  16  30  53  79 104 132 171 217 260 308
#
# _framework density 19.087651000000001
#
# number of rings (size 3 to 8) (size 9 to 14) (size 15 to 20)
#    0.857    1.857    0.000    2.143    0.000    5.143 
#    0.000    4.286    0.000   15.429    0.000    0.000 
#    0.000    0.000    0.000    0.000    0.000    0.000 
#
# Total GULP energy -347013.594531 kJ/mol
# GULP energy per Si atom -12393.342662 kJ/mol
# Density = 1.904421 g / cm^3
# Si number density = 19.087651 Si / 1000 Ang^3
#
#
#
# Elastic Constant Matrix: (Units=GPa)
#
#
# Indices 1 2 3 4 5 6 
#
# 1 71.1067 16.3962 -4.7902 0.0000 7.1149 0.0000
# 2 16.3962 46.5689 4.5186 0.0000 3.6537 0.0000
# 3 -4.7902 4.5186 35.6140 0.0000 6.0556 0.0000
# 4 0.0000 0.0000 0.0000 13.6224 0.0000 -0.3768
# 5 7.1149 3.6537 6.0556 0.0000 29.3608 0.0000
# 6 0.0000 0.0000 0.0000 -0.3768 0.0000 4.5320
#
#
#
# Elastic Compliance Matrix: (Units=1/GPa)
#
#
# Indices 1 2 3 4 5 6 
#
# 1 0.015999 -0.005670 0.003535 0.000000 -0.003900 0.000000
# 2 -0.005670 0.023890 -0.003650 0.000000 -0.000846 0.000000
# 3 0.003535 -0.003650 0.030143 0.000000 -0.006619 0.000000
# 4 0.000000 0.000000 0.000000 0.073578 0.000000 0.006117
# 5 -0.003900 -0.000846 -0.006619 0.000000 0.036475 0.000000
# 6 0.000000 0.000000 0.000000 0.006117 0.000000 0.221164
#
#
# Mechanical properties :
#
#
# Convention : Reuss Voigt Hill
#
# Bulk Modulus (GPa) = 17.10521 20.61543 18.86032
# Shear Modulus (GPa) = 11.56587 18.64737 15.10662
#
# Velocity S-wave (km/s) = 2.46424 3.12898 2.81630
# Velocity P-wave (km/s) = 4.13250 4.88650 4.52523
#
# Compressibility (1/GPa) = 0.05846170
#
# Stress axis : x y z
#
# Youngs Moduli (GPa) = 62.50315 41.85776 33.17537
#
# Poissons Ratio (x) = 0.23733 -0.11726
# Poissons Ratio (y) = 0.35439 0.12109
# Poissons Ratio (z) = -0.22092 0.15278
#
# Static dielectric constant tensor:
#      x y z
#    x 3.416620 0.000000 -0.019040 
#    y 0.000000 3.142730 0.000000 
#    z -0.019040 0.000000 3.438920 
# 
# 
# High freq. dielectric constant tensor:
#      x y z
#    x 1.735890 0.000000 0.006160 
#    y 0.000000 1.711490 0.000000 
#    z 0.006160 0.000000 1.733250 
# 
# From -- ./inp_files/49176.got.cif
#   From: 2010.06.25/outbox.cif.g09.slc.cpg/sg10_25_cif.got.tgz:49176.got - 2010.06.27 22:07:45.
