data_PCOD8060362
_publ_section_title
;
Structure prediction by ZEFSAII (Michael W. Deem and Ramdas Pophale) SiO2 
 PCOD8060362
Probable space group: P 2/M
;
_chemical_formula_sum "Si O2"
_cell_formula_units_Z 28
_cell_length_a 13.244269
_cell_length_b 13.932200
_cell_length_c 9.022312
_cell_angle_alpha 90.000000
_cell_angle_beta 48.321964
_cell_angle_gamma 90.000000
_cell_volume 1243.437626
_symmetry_space_group_name_H-M "P 2/M"
_symmetry_group_IT_number 10
_symmetry_cell_setting 'monoclinic'
loop_
_space_group_symop_operation_xyz
x,y,z
-x,y,-z
-x,-y,-z
x,-y,z
loop_
_atom_site_type_symbol
_atom_site_label
_atom_site_fract_x
_atom_site_fract_y
_atom_site_fract_z
Si Si1 0.789075 0.892838 0.969247
Si Si2 0.102771 0.105602 0.672354
Si Si3 0.329585 0.105338 0.225797
Si Si4 0.799983 0.691200 0.359785
Si Si5 0.457428 0.709318 0.200713
Si Si6 0.720507 0.300430 0.120503
Si Si7 0.044709 0.611863 0.293708
O O1 0.701165 0.865405 0.911717
O O2 0.947390 0.880747 0.782796
O O3 0.755908 0.000000 0.058758
O O4 0.742425 0.813143 0.131964
O O5 0.182432 0.106518 0.441791
O O6 0.157883 0.196992 0.710455
O O7 0.123512 0.000000 0.733029
O O8 0.438987 0.176062 0.193139
O O9 0.395148 0.000000 0.176069
O O10 0.685999 0.672655 0.596433
O O11 0.748511 0.649148 0.251755
O O12 0.928701 0.631198 0.286473
O O13 0.567411 0.682374 0.217232
O O14 0.500000 0.662081 0.000000
O O15 0.819577 0.335584 0.892932
O O16 0.077059 0.500000 0.270683
O O17 0.000000 0.650742 0.500000
#
# Coordination Sequence:
#
# PCOD8060362 Si02
#       7
#     4   4   4   4   4   4   4
#     4  10  19  31  55  91 132 174 221 266 315 369
#     4   9  18  32  54  88 129 172 216 266 318 371
#     4   9  18  32  53  85 124 175 231 274 309 359
#     4  11  24  41  66  95 134 172 213 263 321 388
#     4  11  22  39  62  91 127 176 218 269 311 374
#     4  12  24  40  63  99 134 173 212 263 327 378
#     4  11  26  48  75 101 125 159 209 265 322 389
#
# _framework density 22.518217
#
# number of rings (size 3 to 8) (size 9 to 14) (size 15 to 20)
#    0.000    1.571    2.857    2.143    2.000    4.286 
#    0.000    2.143    0.000    8.571    0.000    0.000 
#    0.000    0.000    0.000    0.000    0.000    0.000 
#
# Total GULP energy -346963.543966 kJ/mol
# GULP energy per Si atom -12391.555142 kJ/mol
# Density = 2.246696 g / cm^3
# Si number density = 22.518217 Si / 1000 Ang^3
#
#
#
# Elastic Constant Matrix: (Units=GPa)
#
#
# Indices 1 2 3 4 5 6 
#
# 1 112.7647 2.8376 14.7059 0.0000 -2.5960 0.0000
# 2 2.8376 46.4728 5.0438 0.0000 -0.2577 0.0000
# 3 14.7059 5.0438 56.2328 0.0000 -0.9481 0.0000
# 4 0.0000 0.0000 0.0000 10.6388 0.0000 2.8935
# 5 -2.5960 -0.2577 -0.9481 0.0000 44.0432 0.0000
# 6 0.0000 0.0000 0.0000 2.8935 0.0000 6.6645
#
#
#
# Elastic Compliance Matrix: (Units=1/GPa)
#
#
# Indices 1 2 3 4 5 6 
#
# 1 0.009196 -0.000302 -0.002370 0.000000 0.000489 0.000000
# 2 -0.000302 0.021740 -0.001870 0.000000 0.000069 0.000000
# 3 -0.002370 -0.001870 0.018575 0.000000 0.000249 0.000000
# 4 0.000000 0.000000 0.000000 0.106581 0.000000 -0.046275
# 5 0.000489 0.000069 0.000249 0.000000 0.022740 0.000000
# 6 0.000000 0.000000 0.000000 -0.046275 0.000000 0.170141
#
#
# Mechanical properties :
#
#
# Convention : Reuss Voigt Hill
#
# Bulk Modulus (GPa) = 24.73519 28.96055 26.84787
# Shear Modulus (GPa) = 13.45784 25.12816 19.29300
#
# Velocity S-wave (km/s) = 2.44733 3.34414 2.93024
# Velocity P-wave (km/s) = 4.35824 5.27256 4.83705
#
# Compressibility (1/GPa) = 0.04042822
#
# Stress axis : x y z
#
# Youngs Moduli (GPa) = 108.74411 45.99875 53.83634
#
# Poissons Ratio (x) = 0.01387 0.12757
# Poissons Ratio (y) = 0.03280 0.10067
# Poissons Ratio (z) = 0.25768 0.08601
#
# Static dielectric constant tensor:
#      x y z
#    x 3.844140 0.000000 -0.116520 
#    y 0.000000 3.959260 0.000000 
#    z -0.116520 0.000000 4.061610 
# 
# 
# High freq. dielectric constant tensor:
#      x y z
#    x 1.890080 0.000000 -0.012060 
#    y 0.000000 1.860800 0.000000 
#    z -0.012060 0.000000 1.887670 
# 
# From -- ./inp_files/25175.got.cif
#   From: 2010.06.25/outbox.cif.g09.slc.cpg/sg10_13_cif.got.tgz:25175.got - 2010.06.27 22:07:45.
