data_PCOD8060106
_publ_section_title
;
Structure prediction by ZEFSAII (Michael W. Deem and Ramdas Pophale) SiO2 
 PCOD8060106
Probable space group: P 2/M
;
_chemical_formula_sum "Si O2"
_cell_formula_units_Z 32
_cell_length_a 12.925898
_cell_length_b 9.011125
_cell_length_c 33.364396
_cell_angle_alpha 90.000000
_cell_angle_beta 154.525923
_cell_angle_gamma 90.000000
_cell_volume 1671.456814
_symmetry_space_group_name_H-M "P 2/M"
_symmetry_group_IT_number 10
_symmetry_cell_setting 'monoclinic'
loop_
_space_group_symop_operation_xyz
x,y,z
-x,y,-z
-x,-y,-z
x,-y,z
loop_
_atom_site_type_symbol
_atom_site_label
_atom_site_fract_x
_atom_site_fract_y
_atom_site_fract_z
Si Si1 0.917745 0.172856 0.234944
Si Si2 0.994341 0.828268 0.415822
Si Si3 0.231423 0.176909 0.416598
Si Si4 0.961249 0.331879 0.874164
Si Si5 0.698918 0.331713 0.415980
Si Si6 0.794486 0.339112 0.725247
Si Si7 0.494764 0.170340 0.268692
Si Si8 0.447981 0.823372 0.027476
O O1 0.658280 0.236244 0.130755
O O2 0.034888 0.241806 0.316149
O O3 0.100435 0.203560 0.262727
O O4 0.890826 0.000000 0.231282
O O5 0.138971 0.769370 0.427599
O O6 0.063773 0.731418 0.479279
O O7 0.704399 0.810982 0.308157
O O8 0.059527 0.000000 0.446813
O O9 0.500000 0.237829 0.500000
O O10 0.234622 0.000000 0.415234
O O11 0.003720 0.500000 0.903439
O O12 0.870565 0.322750 0.797507
O O13 0.749170 0.260439 0.827509
O O14 0.208437 0.242322 0.963271
O O15 0.743899 0.500000 0.416051
O O16 0.492884 0.330884 0.377947
O O17 0.616837 0.224516 0.352097
O O18 0.883941 0.500000 0.740062
O O19 0.418262 0.000000 0.246918
O O20 0.428964 0.000000 0.020499
O O21 0.500000 0.766921 0.000000
#
# Coordination Sequence:
#
# PCOD8060106 Si02
#       8
#     4   4   4   4   4   4   4   4
#     4  10  19  31  51  75 101 137 174 211 257 307
#     4  10  20  34  52  74  99 132 175 219 261 306
#     4   9  18  33  53  77 103 133 174 217 255 300
#     4  10  20  33  50  74 104 138 170 204 257 316
#     4  10  20  32  48  74 105 137 172 211 258 311
#     4   9  18  30  44  68 102 134 165 203 248 304
#     4  10  20  33  51  74 102 134 170 215 263 309
#     4  10  19  31  49  78 110 136 169 212 260 313
#
# _framework density 19.144976
#
# number of rings (size 3 to 8) (size 9 to 14) (size 15 to 20)
#    0.000    2.250    1.250    3.000    0.000    6.750 
#    0.000    0.625    0.000    3.000    0.000    5.250 
#    0.000    0.000    0.000    0.000    0.000    0.000 
#
# Total GULP energy -396560.074947 kJ/mol
# GULP energy per Si atom -12392.502342 kJ/mol
# Density = 1.910140 g / cm^3
# Si number density = 19.144976 Si / 1000 Ang^3
#
#
#
# Elastic Constant Matrix: (Units=GPa)
#
#
# Indices 1 2 3 4 5 6 
#
# 1 64.0497 12.4814 26.1845 0.0000 20.9517 0.0000
# 2 12.4814 39.7802 19.6048 0.0000 4.9386 0.0000
# 3 26.1845 19.6048 111.8450 0.0000 18.2626 0.0000
# 4 0.0000 0.0000 0.0000 17.9947 0.0000 6.7949
# 5 20.9517 4.9386 18.2626 0.0000 30.1513 0.0000
# 6 0.0000 0.0000 0.0000 6.7949 0.0000 11.1308
#
#
#
# Elastic Compliance Matrix: (Units=1/GPa)
#
#
# Indices 1 2 3 4 5 6 
#
# 1 0.021553 -0.004060 -0.002216 0.000000 -0.012969 0.000000
# 2 -0.004060 0.028364 -0.004132 0.000000 0.000678 0.000000
# 3 -0.002216 -0.004132 0.010900 0.000000 -0.004385 0.000000
# 4 0.000000 0.000000 0.000000 0.072219 0.000000 -0.044087
# 5 -0.012969 0.000678 -0.004385 0.000000 0.044723 0.000000
# 6 0.000000 0.000000 0.000000 -0.044087 0.000000 0.116754
#
#
# Mechanical properties :
#
#
# Convention : Reuss Voigt Hill
#
# Bulk Modulus (GPa) = 24.99997 36.91292 30.95645
# Shear Modulus (GPa) = 15.21313 22.34897 18.78105
#
# Velocity S-wave (km/s) = 2.82197 3.42036 3.13548
# Velocity P-wave (km/s) = 4.86874 5.90941 5.41414
#
# Compressibility (1/GPa) = 0.04000005
#
# Stress axis : x y z
#
# Youngs Moduli (GPa) = 46.39827 35.25572 91.74151
#
# Poissons Ratio (x) = 0.14313 0.20334
# Poissons Ratio (y) = 0.18837 0.37908
# Poissons Ratio (z) = 0.10284 0.14568
#
# Static dielectric constant tensor:
#      x y z
#    x 3.507290 0.000000 0.335090 
#    y 0.000000 3.379100 0.000000 
#    z 0.335090 0.000000 3.754850 
# 
# 
# High freq. dielectric constant tensor:
#      x y z
#    x 1.723480 0.000000 0.032850 
#    y 0.000000 1.729760 0.000000 
#    z 0.032850 0.000000 1.738920 
# 
# From -- ./inp_files/95078.got.cif
#   From: 2010.06.25/outbox.cif.g09.slc.cpg/sg10_48_cif.got.tgz:95078.got - 2010.06.27 22:07:45.
