data_PCOD8060137
_publ_section_title
;
Structure prediction by ZEFSAII (Michael W. Deem and Ramdas Pophale) SiO2 
 PCOD8060137
Probable space group: P 2/M
;
_chemical_formula_sum "Si O2"
_cell_formula_units_Z 28
_cell_length_a 9.403657
_cell_length_b 9.230524
_cell_length_c 29.439041
_cell_angle_alpha 90.000000
_cell_angle_beta 142.861530
_cell_angle_gamma 90.000000
_cell_volume 1542.762842
_symmetry_space_group_name_H-M "P 2/M"
_symmetry_group_IT_number 10
_symmetry_cell_setting 'monoclinic'
loop_
_space_group_symop_operation_xyz
x,y,z
-x,y,-z
-x,-y,-z
x,-y,z
loop_
_atom_site_type_symbol
_atom_site_label
_atom_site_fract_x
_atom_site_fract_y
_atom_site_fract_z
Si Si1 0.038645 0.664114 0.061612
Si Si2 0.811314 0.829964 0.769122
Si Si3 0.154465 0.171914 0.497420
Si Si4 0.037448 0.172006 0.649223
Si Si5 0.514793 0.668403 0.767202
Si Si6 0.317472 0.828876 0.363777
Si Si7 0.241011 0.830424 0.938390
O O1 0.963228 0.500000 0.053182
O O2 0.307455 0.689630 0.145406
O O3 0.866948 0.770828 0.043401
O O4 0.000000 0.703827 0.000000
O O5 0.617382 0.741543 0.747853
O O6 0.799330 0.782747 0.713648
O O7 0.074519 0.790765 0.853170
O O8 0.754540 0.000000 0.761062
O O9 0.418919 0.236795 0.566550
O O10 0.000000 0.234773 0.500000
O O11 0.039021 0.219244 0.420650
O O12 0.165355 0.000000 0.504128
O O13 0.278191 0.252440 0.722474
O O14 0.841338 0.228304 0.635035
O O15 0.075077 0.000000 0.662635
O O16 0.467105 0.500000 0.744788
O O17 0.334915 0.000000 0.372332
O O18 0.262172 0.000000 0.949763
O O19 0.500000 0.760616 0.000000
#
# Coordination Sequence:
#
# PCOD8060137 Si02
#       7
#     4   4   4   4   4   4   4
#     4   9  19  35  52  70  94 127 166 203 238 282
#     4   9  17  32  52  71  95 129 166 201 239 287
#     4   9  16  27  47  74 100 127 161 200 238 279
#     4  10  19  31  50  75 101 128 159 198 244 290
#     4  10  20  34  51  71  97 128 163 202 241 285
#     4   9  17  29  48  75 101 125 160 204 242 280
#     4   9  18  31  48  73 102 128 157 198 246 292
#
# _framework density 18.149256999999999
#
# number of rings (size 3 to 8) (size 9 to 14) (size 15 to 20)
#    0.000    2.714    0.000    1.714    0.000    6.286 
#    0.000    2.143    0.000    5.571    0.000    0.000 
#    0.000    0.000    0.000    0.000    0.000    0.000 
#
# Total GULP energy -347164.468377 kJ/mol
# GULP energy per Si atom -12398.731013 kJ/mol
# Density = 1.810795 g / cm^3
# Si number density = 18.149257 Si / 1000 Ang^3
#
#
#
# Elastic Constant Matrix: (Units=GPa)
#
#
# Indices 1 2 3 4 5 6 
#
# 1 145.7612 26.2952 86.9173 0.0000 6.0520 0.0000
# 2 26.2952 20.6864 27.8129 0.0000 4.9417 0.0000
# 3 86.9173 27.8129 124.6848 0.0000 7.9666 0.0000
# 4 0.0000 0.0000 0.0000 38.9672 0.0000 80.6958
# 5 6.0520 4.9417 7.9666 0.0000 39.3316 0.0000
# 6 0.0000 0.0000 0.0000 80.6958 0.0000 346.6384
#
#
#
# Elastic Compliance Matrix: (Units=1/GPa)
#
#
# Indices 1 2 3 4 5 6 
#
# 1 0.012217 -0.005898 -0.007222 0.000000 0.000324 0.000000
# 2 -0.005898 0.073149 -0.011830 0.000000 -0.005887 0.000000
# 3 -0.007222 -0.011830 0.015731 0.000000 -0.000589 0.000000
# 4 0.000000 0.000000 0.000000 0.049550 0.000000 -0.011535
# 5 0.000324 -0.005887 -0.000589 0.000000 0.026234 0.000000
# 6 0.000000 0.000000 0.000000 -0.011535 0.000000 0.005570
#
#
# Mechanical properties :
#
#
# Convention : Reuss Voigt Hill
#
# Bulk Modulus (GPa) = 19.53162 63.68701 41.60931
# Shear Modulus (GPa) = 20.04684 94.99456 57.52070
#
# Velocity S-wave (km/s) = 3.32709 7.24254 5.63577
# Velocity P-wave (km/s) = 5.05415 10.25212 8.08240
#
# Compressibility (1/GPa) = 0.05119903
#
# Stress axis : x y z
#
# Youngs Moduli (GPa) = 81.85053 13.67077 63.56886
#
# Poissons Ratio (x) = 0.08062 0.45909
# Poissons Ratio (y) = 0.48271 0.75200
# Poissons Ratio (z) = 0.59111 0.16172
#
# Static dielectric constant tensor:
#      x y z
#    x 3.444230 0.000000 0.077800 
#    y 0.000000 3.022140 0.000000 
#    z 0.077800 0.000000 3.576260 
# 
# 
# High freq. dielectric constant tensor:
#      x y z
#    x 1.703830 0.000000 0.001470 
#    y 0.000000 1.665350 0.000000 
#    z 0.001470 0.000000 1.718020 
# 
# From -- ./inp_files/34566.got.cif
#   From: 2010.06.25/outbox.cif.g09.slc.cpg/sg10_18_cif.got.tgz:34566.got - 2010.06.27 22:07:45.
