data_PCOD8060634
_publ_section_title
;
Structure prediction by ZEFSAII (Michael W. Deem and Ramdas Pophale) SiO2 
 PCOD8060634
Probable space group: P 2/M
;
_chemical_formula_sum "Si O2"
_cell_formula_units_Z 32
_cell_length_a 25.518140
_cell_length_b 8.728263
_cell_length_c 16.885489
_cell_angle_alpha 90.000000
_cell_angle_beta 154.888093
_cell_angle_gamma 90.000000
_cell_volume 1596.074553
_symmetry_space_group_name_H-M "P 2/M"
_symmetry_group_IT_number 10
_symmetry_cell_setting 'monoclinic'
loop_
_space_group_symop_operation_xyz
x,y,z
-x,y,-z
-x,-y,-z
x,-y,z
loop_
_atom_site_type_symbol
_atom_site_label
_atom_site_fract_x
_atom_site_fract_y
_atom_site_fract_z
Si Si1 0.158389 0.679559 0.587802
Si Si2 0.723383 0.819610 0.639233
Si Si3 0.473617 0.819200 0.755283
Si Si4 0.274478 0.819277 0.606124
Si Si5 0.164493 0.674715 0.064678
Si Si6 0.095061 0.822593 0.809283
Si Si7 0.749670 0.178714 0.132163
Si Si8 0.107092 0.324726 0.251603
O O1 0.177108 0.500000 0.607496
O O2 0.268649 0.761831 0.688816
O O3 0.166848 0.733764 0.689792
O O4 0.025645 0.722348 0.371138
O O5 0.603585 0.759618 0.426486
O O6 0.844553 0.778604 0.754050
O O7 0.719367 0.000000 0.647302
O O8 0.727078 0.737717 0.729803
O O9 0.403386 0.772343 0.740526
O O10 0.482381 0.000000 0.760466
O O11 0.611214 0.750592 0.943854
O O12 0.160853 0.736076 0.407771
O O13 0.254497 0.000000 0.573901
O O14 0.192072 0.500000 0.078656
O O15 0.160166 0.775706 0.979888
O O16 0.039578 0.689087 0.944357
O O17 0.194470 0.790733 0.877223
O O18 0.055865 0.000000 0.758499
O O19 0.750325 0.000000 0.155030
O O20 0.148022 0.500000 0.293471
#
# Coordination Sequence:
#
# PCOD8060634 Si02
#       8
#     4   4   4   4   4   4   4   4
#     4  12  24  38  58  87 121 151 183 233 294 349
#     4  10  20  34  56  84 114 152 194 234 277 336
#     4   8  18  38  61  85 114 149 192 240 285 327
#     4  10  19  34  59  87 116 152 191 233 281 339
#     4  11  22  35  54  82 118 154 187 233 289 340
#     4  11  23  39  62  87 112 147 194 242 285 338
#     4  10  22  42  64  84 109 148 197 243 285 336
#     4  10  19  32  51  80 118 155 186 227 287 341
#
# _framework density 20.049188000000001
#
# number of rings (size 3 to 8) (size 9 to 14) (size 15 to 20)
#    0.000    1.750    1.250    4.500    0.000    6.000 
#    0.000    6.875    0.000    3.750    0.000    0.000 
#    0.000    0.000    0.000    0.000    0.000    0.000 
#
# Total GULP energy -396857.455875 kJ/mol
# GULP energy per Si atom -12401.795496 kJ/mol
# Density = 2.000356 g / cm^3
# Si number density = 20.049188 Si / 1000 Ang^3
#
#
#
# Elastic Constant Matrix: (Units=GPa)
#
#
# Indices 1 2 3 4 5 6 
#
# 1 86.4169 21.2808 47.7523 0.0000 -4.1007 0.0000
# 2 21.2808 51.1016 22.8951 0.0000 5.9412 0.0000
# 3 47.7523 22.8951 62.6053 0.0000 -8.3194 0.0000
# 4 0.0000 0.0000 0.0000 11.8041 0.0000 -10.6590
# 5 -4.1007 5.9412 -8.3194 0.0000 30.5320 0.0000
# 6 0.0000 0.0000 0.0000 -10.6590 0.0000 17.9576
#
#
#
# Elastic Compliance Matrix: (Units=1/GPa)
#
#
# Indices 1 2 3 4 5 6 
#
# 1 0.020171 -0.001580 -0.014948 0.000000 -0.001056 0.000000
# 2 -0.001580 0.025132 -0.008990 0.000000 -0.007552 0.000000
# 3 -0.014948 -0.008990 0.031778 0.000000 0.008401 0.000000
# 4 0.000000 0.000000 0.000000 0.182571 0.000000 0.108368
# 5 -0.001056 -0.007552 0.008401 0.000000 0.036369 0.000000
# 6 0.000000 0.000000 0.000000 0.108368 0.000000 0.120010
#
#
# Mechanical properties :
#
#
# Convention : Reuss Voigt Hill
#
# Bulk Modulus (GPa) = 38.39225 42.66446 40.52835
# Shear Modulus (GPa) = 10.50975 19.27178 14.89076
#
# Velocity S-wave (km/s) = 2.29202 3.10373 2.72823
# Velocity P-wave (km/s) = 5.11811 5.84553 5.49388
#
# Compressibility (1/GPa) = 0.02604693
#
# Stress axis : x y z
#
# Youngs Moduli (GPa) = 49.57708 39.78918 31.46791
#
# Poissons Ratio (x) = 0.06287 0.47038
# Poissons Ratio (y) = 0.07833 0.28288
# Poissons Ratio (z) = 0.74107 0.35769
#
# Static dielectric constant tensor:
#      x y z
#    x 3.680120 0.000000 -0.054670 
#    y 0.000000 3.547030 0.000000 
#    z -0.054670 0.000000 3.715060 
# 
# 
# High freq. dielectric constant tensor:
#      x y z
#    x 1.779430 0.000000 -0.015390 
#    y 0.000000 1.776300 0.000000 
#    z -0.015390 0.000000 1.773710 
# 
# From -- ./inp_files/71673.got.cif
#   From: 2010.06.25/outbox.cif.g09.slc.cpg/sg10_36_cif.got.tgz:71673.got - 2010.06.27 22:07:45.
