data_PCOD8060353
_publ_section_title
;
Structure prediction by ZEFSAII (Michael W. Deem and Ramdas Pophale) SiO2 
 PCOD8060353
Probable space group: P 2/M
;
_chemical_formula_sum "Si O2"
_cell_formula_units_Z 32
_cell_length_a 21.639079
_cell_length_b 8.665949
_cell_length_c 12.005157
_cell_angle_alpha 90.000000
_cell_angle_beta 133.962794
_cell_angle_gamma 90.000000
_cell_volume 1620.425238
_symmetry_space_group_name_H-M "P 2/M"
_symmetry_group_IT_number 10
_symmetry_cell_setting 'monoclinic'
loop_
_space_group_symop_operation_xyz
x,y,z
-x,y,-z
-x,-y,-z
x,-y,z
loop_
_atom_site_type_symbol
_atom_site_label
_atom_site_fract_x
_atom_site_fract_y
_atom_site_fract_z
Si Si1 0.529119 0.816401 0.418016
Si Si2 0.630908 0.817622 0.917565
Si Si3 0.404713 0.321388 0.899689
Si Si4 0.106225 0.181261 0.539074
Si Si5 0.720555 0.818056 0.627666
Si Si6 0.783508 0.182021 0.950250
Si Si7 0.073219 0.681737 0.729527
Si Si8 0.754497 0.678273 0.443214
O O1 0.500000 0.748144 0.500000
O O2 0.461631 0.758122 0.241347
O O3 0.623338 0.754397 0.507510
O O4 0.531096 0.000000 0.427805
O O5 0.705135 0.756351 0.928305
O O6 0.633962 0.000000 0.921600
O O7 0.644130 0.757168 0.058351
O O8 0.414373 0.500000 0.940809
O O9 0.344712 0.293152 0.717031
O O10 0.500000 0.249129 0.000000
O O11 0.119840 0.265155 0.674378
O O12 0.184949 0.219934 0.558297
O O13 0.018394 0.236174 0.371743
O O14 0.102559 0.000000 0.556752
O O15 0.766197 0.775224 0.800437
O O16 0.768553 0.731343 0.587669
O O17 0.723377 0.000000 0.609301
O O18 0.795940 0.000000 0.981132
O O19 0.869543 0.269935 0.093597
O O20 0.058783 0.500000 0.709206
O O21 0.780216 0.500000 0.462704
#
# Coordination Sequence:
#
# PCOD8060353 Si02
#       8
#     4   4   4   4   4   4   4   4
#     4   9  15  29  52  79 110 146 189 239 286 325
#     4  10  19  31  54  83 109 142 188 239 285 331
#     4  10  22  38  53  74 111 154 189 229 281 335
#     4  11  22  40  65  90 115 146 187 232 282 340
#     4  10  20  35  57  82 113 153 197 242 285 334
#     4  10  20  35  55  84 117 149 188 235 285 335
#     4  11  22  38  62  91 121 148 180 227 285 342
#     4  11  23  39  58  81 115 155 194 235 285 342
#
# _framework density 19.747903000000001
#
# number of rings (size 3 to 8) (size 9 to 14) (size 15 to 20)
#    0.000    1.750    1.250    4.875    0.000    4.250 
#    0.000    0.625    0.000    4.500    0.000    0.000 
#    0.000    0.000    0.000    0.000    0.000    0.000 
#
# Total GULP energy -396890.877117 kJ/mol
# GULP energy per Si atom -12402.839910 kJ/mol
# Density = 1.970296 g / cm^3
# Si number density = 19.747903 Si / 1000 Ang^3
#
#
#
# Elastic Constant Matrix: (Units=GPa)
#
#
# Indices 1 2 3 4 5 6 
#
# 1 86.9720 13.5352 30.6676 0.0000 -4.3725 0.0000
# 2 13.5352 40.7780 21.0045 0.0000 0.0688 0.0000
# 3 30.6676 21.0045 113.6499 0.0000 -3.2130 0.0000
# 4 0.0000 0.0000 0.0000 24.2851 0.0000 2.8778
# 5 -4.3725 0.0688 -3.2130 0.0000 30.5232 0.0000
# 6 0.0000 0.0000 0.0000 2.8778 0.0000 15.7574
#
#
#
# Elastic Compliance Matrix: (Units=1/GPa)
#
#
# Indices 1 2 3 4 5 6 
#
# 1 0.013058 -0.002812 -0.002960 0.000000 0.001565 0.000000
# 2 -0.002812 0.027720 -0.004390 0.000000 -0.000928 0.000000
# 3 -0.002960 -0.004390 0.010428 0.000000 0.000684 0.000000
# 4 0.000000 0.000000 0.000000 0.042088 0.000000 -0.007687
# 5 0.001565 -0.000928 0.000684 0.000000 0.033060 0.000000
# 6 0.000000 0.000000 0.000000 -0.007687 0.000000 0.064866
#
#
# Mechanical properties :
#
#
# Convention : Reuss Voigt Hill
#
# Bulk Modulus (GPa) = 32.38227 41.31272 36.84749
# Shear Modulus (GPa) = 22.53889 25.85933 24.19911
#
# Velocity S-wave (km/s) = 3.38202 3.62259 3.50437
# Velocity P-wave (km/s) = 5.62887 6.20185 5.92230
#
# Compressibility (1/GPa) = 0.03088110
#
# Stress axis : x y z
#
# Youngs Moduli (GPa) = 76.58187 36.07558 95.89288
#
# Poissons Ratio (x) = 0.10146 0.28380
# Poissons Ratio (y) = 0.21538 0.42100
# Poissons Ratio (z) = 0.22665 0.15838
#
# Static dielectric constant tensor:
#      x y z
#    x 3.532940 0.000000 0.051360 
#    y 0.000000 3.349700 0.000000 
#    z 0.051360 0.000000 3.691710 
# 
# 
# High freq. dielectric constant tensor:
#      x y z
#    x 1.764340 0.000000 0.000410 
#    y 0.000000 1.752010 0.000000 
#    z 0.000410 0.000000 1.777050 
# 
# From -- ./inp_files/55312.got.cif
#   From: 2010.06.25/outbox.cif.g09.slc.cpg/sg10_28_cif.got.tgz:55312.got - 2010.06.27 22:07:45.
