data_PCOD8060435
_publ_section_title
;
Structure prediction by ZEFSAII (Michael W. Deem and Ramdas Pophale) SiO2 
 PCOD8060435
Probable space group: P 2/M
;
_chemical_formula_sum "Si O2"
_cell_formula_units_Z 28
_cell_length_a 22.720993
_cell_length_b 12.495457
_cell_length_c 12.464075
_cell_angle_alpha 90.000000
_cell_angle_beta 150.130009
_cell_angle_gamma 90.000000
_cell_volume 1762.374397
_symmetry_space_group_name_H-M "P 2/M"
_symmetry_group_IT_number 10
_symmetry_cell_setting 'monoclinic'
loop_
_space_group_symop_operation_xyz
x,y,z
-x,y,-z
-x,-y,-z
x,-y,z
loop_
_atom_site_type_symbol
_atom_site_label
_atom_site_fract_x
_atom_site_fract_y
_atom_site_fract_z
Si Si1 0.650553 0.308474 0.850811
Si Si2 0.187433 0.500000 0.837757
Si Si3 0.041724 0.876689 0.395762
Si Si4 0.049706 0.691526 0.249964
Si Si5 0.393575 0.625242 0.454530
Si Si6 0.962891 0.500000 0.613214
Si Si7 0.167379 0.625242 0.228333
Si Si8 0.812315 0.876689 0.166352
O O1 0.654997 0.320146 0.729732
O O2 0.517551 0.322415 0.684750
O O3 0.733099 0.395105 0.037476
O O4 0.696229 0.191710 0.956498
O O5 0.111119 0.500000 0.611118
O O6 0.102707 0.500000 0.808120
O O7 0.064040 0.808290 0.324309
O O8 0.146656 0.857152 0.646656
O O9 0.917978 0.842223 0.253933
O O10 0.037890 0.000000 0.354635
O O11 0.071275 0.604895 0.375651
O O12 0.149649 0.677584 0.316849
O O13 0.919738 0.679856 0.994473
O O14 0.411685 0.500000 0.458846
O O15 0.301928 0.645201 0.405784
O O16 0.135476 0.500000 0.182634
O O17 0.778855 0.000000 0.095600
#
# Coordination Sequence:
#
# PCOD8060435 Si02
#       8
#     4   2   4   4   4   2   4   4
#     4  11  18  31  49  72  96 125 159 194 237 285
#     4  11  20  27  43  73  99 117 147 198 246 281
#     4   9  18  32  50  72  98 128 158 192 240 291
#     4  11  18  31  49  72  96 125 159 194 237 285
#     4  10  19  32  49  69  98 132 161 190 233 289
#     4  11  20  27  43  73  99 117 147 198 246 281
#     4  10  19  32  49  69  98 132 161 190 233 289
#     4   9  18  32  50  72  98 128 158 192 240 291
#
# _framework density 15.887656
#
# number of rings (size 3 to 8) (size 9 to 14) (size 15 to 20)
#    0.000    1.857    2.857    5.143    0.000    2.286 
#    0.000    2.857    0.000    6.857    0.000    2.000 
#    0.000    0.000    0.000    0.000    0.000    0.000 
#
# Total GULP energy -347270.250628 kJ/mol
# GULP energy per Si atom -12402.508951 kJ/mol
# Density = 1.585149 g / cm^3
# Si number density = 15.887656 Si / 1000 Ang^3
#
#
#
# Elastic Constant Matrix: (Units=GPa)
#
#
# Indices 1 2 3 4 5 6 
#
# 1 109.5856 47.0676 47.2645 0.0000 4.9622 0.0000
# 2 47.0676 95.5229 50.3634 0.0000 -1.6895 0.0000
# 3 47.2645 50.3634 84.3471 0.0000 7.9775 0.0000
# 4 0.0000 0.0000 0.0000 33.9502 0.0000 -4.5062
# 5 4.9622 -1.6895 7.9775 0.0000 24.7750 0.0000
# 6 0.0000 0.0000 0.0000 -4.5062 0.0000 25.1614
#
#
#
# Elastic Compliance Matrix: (Units=1/GPa)
#
#
# Indices 1 2 3 4 5 6 
#
# 1 0.012914 -0.003846 -0.004817 0.000000 -0.001298 0.000000
# 2 -0.003846 0.016840 -0.008335 0.000000 0.004603 0.000000
# 3 -0.004817 -0.008335 0.020107 0.000000 -0.006078 0.000000
# 4 0.000000 0.000000 0.000000 0.030172 0.000000 0.005404
# 5 -0.001298 0.004603 -0.006078 0.000000 0.042894 0.000000
# 6 0.000000 0.000000 0.000000 0.005404 0.000000 0.040711
#
#
# Mechanical properties :
#
#
# Convention : Reuss Voigt Hill
#
# Bulk Modulus (GPa) = 63.03724 64.31629 63.67676
# Shear Modulus (GPa) = 24.64004 26.42800 25.53402
#
# Velocity S-wave (km/s) = 3.94241 4.08294 4.01329
# Velocity P-wave (km/s) = 7.77730 7.92446 7.85123
#
# Compressibility (1/GPa) = 0.01586364
#
# Stress axis : x y z
#
# Youngs Moduli (GPa) = 77.43788 59.38284 49.73490
#
# Poissons Ratio (x) = 0.22840 0.23957
# Poissons Ratio (y) = 0.29785 0.41454
# Poissons Ratio (z) = 0.37301 0.49496
#
# Static dielectric constant tensor:
#      x y z
#    x 2.991360 0.000000 0.030500 
#    y 0.000000 2.988850 0.000000 
#    z 0.030500 0.000000 2.931880 
# 
# 
# High freq. dielectric constant tensor:
#      x y z
#    x 1.599370 0.000000 -0.002670 
#    y 0.000000 1.603920 0.000000 
#    z -0.002670 0.000000 1.604570 
# 
# From -- ./inp_files/46069.got.cif
#   From: 2010.06.25/outbox.cif.g09.slc.cpg/sg10_24_cif.got.tgz:46069.got - 2010.06.27 22:07:45.
