data_PCOD8060881
_publ_section_title
;
Structure prediction by ZEFSAII (Michael W. Deem and Ramdas Pophale) SiO2 
 PCOD8060881
Probable space group: P 2/M
;
_chemical_formula_sum "Si O2"
_cell_formula_units_Z 32
_cell_length_a 30.087781
_cell_length_b 9.361356
_cell_length_c 10.968542
_cell_angle_alpha 90.000000
_cell_angle_beta 32.344123
_cell_angle_gamma 90.000000
_cell_volume 1652.852647
_symmetry_space_group_name_H-M "P 2/M"
_symmetry_group_IT_number 10
_symmetry_cell_setting 'monoclinic'
loop_
_space_group_symop_operation_xyz
x,y,z
-x,y,-z
-x,-y,-z
x,-y,z
loop_
_atom_site_type_symbol
_atom_site_label
_atom_site_fract_x
_atom_site_fract_y
_atom_site_fract_z
Si Si1 0.661128 0.336998 0.938167
Si Si2 0.199822 0.330894 0.814610
Si Si3 0.183706 0.333096 0.573221
Si Si4 0.950593 0.833113 0.736738
Si Si5 0.253764 0.841135 0.072548
Si Si6 0.093625 0.835439 0.585801
Si Si7 0.670469 0.836555 0.353487
Si Si8 0.519558 0.664074 0.594698
O O1 0.680493 0.500000 0.921078
O O2 0.724793 0.281938 0.686233
O O3 0.676950 0.258758 0.029010
O O4 0.564347 0.315621 0.129454
O O5 0.206947 0.500000 0.819950
O O6 0.175895 0.292266 0.731977
O O7 0.289671 0.258121 0.631117
O O8 0.130716 0.264481 0.063934
O O9 0.171511 0.500000 0.580910
O O10 0.110004 0.255366 0.669953
O O11 0.000000 0.790885 0.500000
O O12 0.005564 0.799934 0.729282
O O13 0.925085 0.000000 0.790536
O O14 0.161567 0.795104 0.325596
O O15 0.272932 0.000000 0.075187
O O16 0.260279 0.831665 0.912687
O O17 0.098945 0.000000 0.611703
O O18 0.585017 0.769838 0.503810
O O19 0.654189 0.000000 0.433591
O O20 0.500000 0.705273 0.500000
O O21 0.551032 0.500000 0.528743
#
# Coordination Sequence:
#
# PCOD8060881 Si02
#       8
#     4   4   4   4   4   4   4   4
#     4   9  17  32  54  78 108 143 178 220 273 327
#     4  11  24  40  57  78 108 146 190 233 274 323
#     4   9  20  38  57  78 107 147 190 230 271 321
#     4  10  21  39  61  85 117 148 179 221 275 335
#     4   9  17  30  50  78 109 139 174 217 268 325
#     4   9  18  33  56  83 108 141 182 224 268 320
#     4  11  22  35  54  79 111 148 185 225 280 337
#     4  10  19  32  53  84 116 142 177 227 280 333
#
# _framework density 19.360467
#
# number of rings (size 3 to 8) (size 9 to 14) (size 15 to 20)
#    0.000    2.250    1.250    1.500    0.000    5.500 
#    0.000    5.625    0.000    3.750    0.000    0.000 
#    0.000    0.000    0.000    0.000    0.000    0.000 
#
# Total GULP energy -396727.456199 kJ/mol
# GULP energy per Si atom -12397.733006 kJ/mol
# Density = 1.931640 g / cm^3
# Si number density = 19.360467 Si / 1000 Ang^3
#
#
#
# Elastic Constant Matrix: (Units=GPa)
#
#
# Indices 1 2 3 4 5 6 
#
# 1 99.4321 56.7765 28.9639 0.0000 -10.5351 0.0000
# 2 56.7765 86.5131 33.5305 0.0000 -11.5754 0.0000
# 3 28.9639 33.5305 57.1270 0.0000 -7.4964 0.0000
# 4 0.0000 0.0000 0.0000 15.6551 0.0000 -4.3301
# 5 -10.5351 -11.5754 -7.4964 0.0000 27.7372 0.0000
# 6 0.0000 0.0000 0.0000 -4.3301 0.0000 33.5019
#
#
#
# Elastic Compliance Matrix: (Units=1/GPa)
#
#
# Indices 1 2 3 4 5 6 
#
# 1 0.016437 -0.009615 -0.002485 0.000000 0.001559 0.000000
# 2 -0.009615 0.021031 -0.007047 0.000000 0.003220 0.000000
# 3 -0.002485 -0.007047 0.023214 0.000000 0.002389 0.000000
# 4 0.000000 0.000000 0.000000 0.066245 0.000000 0.008562
# 5 0.001559 0.003220 0.002389 0.000000 0.038634 0.000000
# 6 0.000000 0.000000 0.000000 0.008562 0.000000 0.030956
#
#
# Mechanical properties :
#
#
# Convention : Reuss Voigt Hill
#
# Bulk Modulus (GPa) = 44.66695 53.51267 49.08981
# Shear Modulus (GPa) = 20.63778 23.63227 22.13502
#
# Velocity S-wave (km/s) = 3.26847 3.49756 3.38496
# Velocity P-wave (km/s) = 6.11270 6.63406 6.37871
#
# Compressibility (1/GPa) = 0.02238792
#
# Stress axis : x y z
#
# Youngs Moduli (GPa) = 60.84019 47.54873 43.07660
#
# Poissons Ratio (x) = 0.45718 0.10706
# Poissons Ratio (y) = 0.58498 0.30354
# Poissons Ratio (z) = 0.15121 0.33506
#
# Static dielectric constant tensor:
#      x y z
#    x 3.422980 0.000000 -0.033770 
#    y 0.000000 3.494380 0.000000 
#    z -0.033770 0.000000 3.576230 
# 
# 
# High freq. dielectric constant tensor:
#      x y z
#    x 1.740600 0.000000 -0.009480 
#    y 0.000000 1.750460 0.000000 
#    z -0.009480 0.000000 1.750410 
# 
# From -- ./inp_files/58108.got.cif
#   From: 2010.06.25/outbox.cif.g09.slc.cpg/sg10_30_cif.got.tgz:58108.got - 2010.06.27 22:07:45.
