data_PCOD8060497
_publ_section_title
;
Structure prediction by ZEFSAII (Michael W. Deem and Ramdas Pophale) SiO2 
 PCOD8060497
Probable space group: P 2/M
;
_chemical_formula_sum "Si O2"
_cell_formula_units_Z 32
_cell_length_a 16.073372
_cell_length_b 9.047825
_cell_length_c 12.251467
_cell_angle_alpha 90.000000
_cell_angle_beta 78.803597
_cell_angle_gamma 90.000000
_cell_volume 1747.808448
_symmetry_space_group_name_H-M "P 2/M"
_symmetry_group_IT_number 10
_symmetry_cell_setting 'monoclinic'
loop_
_space_group_symop_operation_xyz
x,y,z
-x,y,-z
-x,-y,-z
x,-y,z
loop_
_atom_site_type_symbol
_atom_site_label
_atom_site_fract_x
_atom_site_fract_y
_atom_site_fract_z
Si Si1 0.142008 0.325726 0.099641
Si Si2 0.793981 0.827947 0.292407
Si Si3 0.067074 0.341061 0.394247
Si Si4 0.721899 0.325208 0.110162
Si Si5 0.989315 0.826880 0.221158
Si Si6 0.595539 0.826549 0.990435
Si Si7 0.213386 0.166943 0.459809
Si Si8 0.731608 0.168022 0.782264
O O1 0.134762 0.500000 0.100737
O O2 0.047081 0.256273 0.114805
O O3 0.188755 0.270296 0.199766
O O4 0.197943 0.271337 0.982973
O O5 0.733638 0.734741 0.228967
O O6 0.758208 0.795275 0.423830
O O7 0.891371 0.774979 0.249063
O O8 0.785989 0.000000 0.265709
O O9 0.087507 0.500000 0.328567
O O10 0.031945 0.214950 0.324351
O O11 0.144954 0.284201 0.443659
O O12 0.000000 0.381686 0.500000
O O13 0.713156 0.500000 0.114097
O O14 0.636083 0.257707 0.082583
O O15 0.995964 0.000000 0.199143
O O16 0.646078 0.785184 0.866583
O O17 0.597802 0.000000 0.014946
O O18 0.500000 0.769379 0.000000
O O19 0.284657 0.180469 0.345068
O O20 0.176109 0.000000 0.470973
O O21 0.756127 0.000000 0.807517
#
# Coordination Sequence:
#
# PCOD8060497 Si02
#       8
#     4   4   4   4   4   4   4   4
#     4  10  20  33  49  72 101 134 174 222 270 307
#     4  10  22  36  50  70 100 141 184 221 256 302
#     4  11  21  30  44  69 100 136 179 227 267 302
#     4  10  22  38  55  76 105 137 171 213 259 316
#     4  11  21  32  48  70  98 137 183 227 265 303
#     4   9  18  35  61  89 111 130 159 203 255 315
#     4  10  19  32  50  72 101 137 178 219 258 304
#     4   9  17  30  52  80 106 134 166 207 262 311
#
# _framework density 18.308641999999999
#
# number of rings (size 3 to 8) (size 9 to 14) (size 15 to 20)
#    0.000    2.000    2.500    1.500    0.000    4.250 
#    0.000    2.500    0.000    0.750    0.000    5.250 
#    0.000    0.000    0.000    0.000    0.000    0.000 
#
# Total GULP energy -396561.281886 kJ/mol
# GULP energy per Si atom -12392.540059 kJ/mol
# Density = 1.826697 g / cm^3
# Si number density = 18.308642 Si / 1000 Ang^3
#
#
#
# Elastic Constant Matrix: (Units=GPa)
#
#
# Indices 1 2 3 4 5 6 
#
# 1 95.0501 37.1312 49.0763 0.0000 2.4975 0.0000
# 2 37.1312 62.1045 31.6021 0.0000 6.9233 0.0000
# 3 49.0763 31.6021 108.4472 0.0000 13.0534 0.0000
# 4 0.0000 0.0000 0.0000 14.8617 0.0000 -1.3482
# 5 2.4975 6.9233 13.0534 0.0000 19.3233 0.0000
# 6 0.0000 0.0000 0.0000 -1.3482 0.0000 17.8537
#
#
#
# Elastic Compliance Matrix: (Units=1/GPa)
#
#
# Indices 1 2 3 4 5 6 
#
# 1 0.016207 -0.007254 -0.005749 0.000000 0.004388 0.000000
# 2 -0.007254 0.022350 -0.002590 0.000000 -0.005321 0.000000
# 3 -0.005749 -0.002590 0.013472 0.000000 -0.007430 0.000000
# 4 0.000000 0.000000 0.000000 0.067751 0.000000 0.005116
# 5 0.004388 -0.005321 -0.007430 0.000000 0.058109 0.000000
# 6 0.000000 0.000000 0.000000 0.005116 0.000000 0.056397
#
#
# Mechanical properties :
#
#
# Convention : Reuss Voigt Hill
#
# Bulk Modulus (GPa) = 47.97572 55.69121 51.83347
# Shear Modulus (GPa) = 18.35407 20.26055 19.30731
#
# Velocity S-wave (km/s) = 3.16963 3.33019 3.25090
# Velocity P-wave (km/s) = 6.29732 6.72836 6.51640
#
# Compressibility (1/GPa) = 0.02084387
#
# Stress axis : x y z
#
# Youngs Moduli (GPa) = 61.70013 44.74298 74.23070
#
# Poissons Ratio (x) = 0.32457 0.42673
# Poissons Ratio (y) = 0.44757 0.19224
# Poissons Ratio (z) = 0.35470 0.11587
#
# Static dielectric constant tensor:
#      x y z
#    x 3.177380 0.000000 -0.242280 
#    y 0.000000 3.331300 0.000000 
#    z -0.242280 0.000000 3.548940 
# 
# 
# High freq. dielectric constant tensor:
#      x y z
#    x 1.666760 0.000000 -0.013430 
#    y 0.000000 1.715880 0.000000 
#    z -0.013430 0.000000 1.715170 
# 
# From -- ./inp_files/49769.got.cif
#   From: 2010.06.25/outbox.cif.g09.slc.cpg/sg10_25_cif.got.tgz:49769.got - 2010.06.27 22:07:45.
