data_PCOD8060273
_publ_section_title
;
Structure prediction by ZEFSAII (Michael W. Deem and Ramdas Pophale) SiO2 
 PCOD8060273
Probable space group: P 2/M
;
_chemical_formula_sum "Si O2"
_cell_formula_units_Z 32
_cell_length_a 11.897955
_cell_length_b 8.978034
_cell_length_c 32.036734
_cell_angle_alpha 90.000000
_cell_angle_beta 26.915983
_cell_angle_gamma 90.000000
_cell_volume 1549.160566
_symmetry_space_group_name_H-M "P 2/M"
_symmetry_group_IT_number 10
_symmetry_cell_setting 'monoclinic'
loop_
_space_group_symop_operation_xyz
x,y,z
-x,y,-z
-x,-y,-z
x,-y,z
loop_
_atom_site_type_symbol
_atom_site_label
_atom_site_fract_x
_atom_site_fract_y
_atom_site_fract_z
Si Si1 0.484934 0.825148 0.381701
Si Si2 0.646917 0.675117 0.864693
Si Si3 0.129853 0.328816 0.555776
Si Si4 0.195293 0.172985 0.268972
Si Si5 0.383090 0.168953 0.807530
Si Si6 0.036944 0.172465 0.173452
Si Si7 0.853853 0.831005 0.958226
Si Si8 0.684714 0.669625 0.641246
O O1 0.390040 0.744851 0.455428
O O2 0.316150 0.772968 0.398950
O O3 0.768545 0.778554 0.279415
O O4 0.453877 0.000000 0.397689
O O5 0.671155 0.500000 0.852812
O O6 0.807158 0.749381 0.774977
O O7 0.752796 0.730208 0.873787
O O8 0.359231 0.719854 0.956589
O O9 0.171911 0.500000 0.554217
O O10 0.022310 0.243389 0.631277
O O11 0.946248 0.311606 0.577483
O O12 0.467073 0.199298 0.199474
O O13 0.135884 0.000000 0.282819
O O14 0.466527 0.283659 0.744690
O O15 0.088131 0.190410 0.911919
O O16 0.437132 0.000000 0.773844
O O17 0.052106 0.205455 0.119427
O O18 0.088674 0.000000 0.165975
O O19 0.751613 0.000000 0.994802
O O20 0.640436 0.500000 0.641789
#
# Coordination Sequence:
#
# PCOD8060273 Si02
#       8
#     4   4   4   4   4   4   4   4
#     4  11  21  35  57  86 116 152 198 242 285 342
#     4  12  26  41  59  85 117 154 197 243 293 351
#     4  10  21  36  55  85 122 157 191 234 290 346
#     4  10  21  40  64  86 115 156 201 242 284 340
#     4   9  18  35  60  89 117 151 194 239 287 343
#     4  10  22  41  63  86 116 152 195 246 292 339
#     4  10  20  39  64  89 118 150 190 241 295 348
#     4  10  19  31  51  82 123 160 188 228 289 349
#
# _framework density 20.65635
#
# number of rings (size 3 to 8) (size 9 to 14) (size 15 to 20)
#    0.000    1.750    1.250    3.375    0.000    7.500 
#    0.000    3.125    0.000    3.750    0.000    0.000 
#    0.000    0.000    0.000    0.000    0.000    0.000 
#
# Total GULP energy -396912.370641 kJ/mol
# GULP energy per Si atom -12403.511583 kJ/mol
# Density = 2.060934 g / cm^3
# Si number density = 20.656350 Si / 1000 Ang^3
#
#
#
# Elastic Constant Matrix: (Units=GPa)
#
#
# Indices 1 2 3 4 5 6 
#
# 1 27.7217 12.2288 -1.2208 0.0000 9.9470 0.0000
# 2 12.2288 103.4758 35.7739 0.0000 7.6171 0.0000
# 3 -1.2208 35.7739 81.9719 0.0000 1.9634 0.0000
# 4 0.0000 0.0000 0.0000 30.6771 0.0000 5.9275
# 5 9.9470 7.6171 1.9634 0.0000 15.1302 0.0000
# 6 0.0000 0.0000 0.0000 5.9275 0.0000 20.8352
#
#
#
# Elastic Compliance Matrix: (Units=1/GPa)
#
#
# Indices 1 2 3 4 5 6 
#
# 1 0.049273 -0.004815 0.003564 0.000000 -0.030432 0.000000
# 2 -0.004815 0.012258 -0.005366 0.000000 -0.002309 0.000000
# 3 0.003564 -0.005366 0.014631 0.000000 -0.001540 0.000000
# 4 0.000000 0.000000 0.000000 0.034494 0.000000 -0.009813
# 5 -0.030432 -0.002309 -0.001540 0.000000 0.087462 0.000000
# 6 0.000000 0.000000 0.000000 -0.009813 0.000000 0.050788
#
#
# Mechanical properties :
#
#
# Convention : Reuss Voigt Hill
#
# Bulk Modulus (GPa) = 15.89102 34.08146 24.98624
# Shear Modulus (GPa) = 17.66055 24.42102 21.04078
#
# Velocity S-wave (km/s) = 2.92716 3.44212 3.19503
# Velocity P-wave (km/s) = 4.37425 5.68618 5.07281
#
# Compressibility (1/GPa) = 0.06292862
#
# Stress axis : x y z
#
# Youngs Moduli (GPa) = 20.29491 81.57709 68.34737
#
# Poissons Ratio (x) = 0.39281 -0.24360
# Poissons Ratio (y) = 0.09772 0.36676
# Poissons Ratio (z) = -0.07233 0.43775
#
# Static dielectric constant tensor:
#      x y z
#    x 3.569220 0.000000 -0.030290 
#    y 0.000000 3.717250 0.000000 
#    z -0.030290 0.000000 3.717310 
# 
# 
# High freq. dielectric constant tensor:
#      x y z
#    x 1.791160 0.000000 0.000260 
#    y 0.000000 1.806630 0.000000 
#    z 0.000260 0.000000 1.811650 
# 
# From -- ./inp_files/71591.got.cif
#   From: 2010.06.25/outbox.cif.g09.slc.cpg/sg10_36_cif.got.tgz:71591.got - 2010.06.27 22:07:45.
