data_PCOD8060679
_publ_section_title
;
Structure prediction by ZEFSAII (Michael W. Deem and Ramdas Pophale) SiO2 
 PCOD8060679
Probable space group: P 2/M
;
_chemical_formula_sum "Si O2"
_cell_formula_units_Z 24
_cell_length_a 23.223671
_cell_length_b 9.491106
_cell_length_c 29.198917
_cell_angle_alpha 90.000000
_cell_angle_beta 168.560750
_cell_angle_gamma 90.000000
_cell_volume 1276.439594
_symmetry_space_group_name_H-M "P 2/M"
_symmetry_group_IT_number 10
_symmetry_cell_setting 'monoclinic'
loop_
_space_group_symop_operation_xyz
x,y,z
-x,y,-z
-x,-y,-z
x,-y,z
loop_
_atom_site_type_symbol
_atom_site_label
_atom_site_fract_x
_atom_site_fract_y
_atom_site_fract_z
Si Si1 0.304976 0.662140 0.472163
Si Si2 0.236254 0.167352 0.824181
Si Si3 0.387902 0.837433 0.695643
Si Si4 0.689852 0.332924 0.689865
Si Si5 0.691927 0.337855 0.859089
Si Si6 0.765445 0.837418 0.073216
O O1 0.230560 0.500000 0.402699
O O2 0.546309 0.721849 0.625010
O O3 0.423922 0.678902 0.615941
O O4 0.014353 0.752014 0.240988
O O5 0.275521 0.220826 0.907088
O O6 0.935068 0.220881 0.566687
O O7 0.249647 0.000000 0.833100
O O8 0.500000 0.231520 0.000000
O O9 0.625887 0.751998 0.852495
O O10 0.408671 0.000000 0.696910
O O11 0.467910 0.819333 0.811916
O O12 0.500000 0.275051 0.500000
O O13 0.696011 0.500000 0.696032
O O14 0.018488 0.278169 0.939817
O O15 0.736586 0.500000 0.908712
O O16 0.861659 0.000000 0.149935
#
# Coordination Sequence:
#
# PCOD8060679 Si02
#       6
#     4   4   4   4   4   4
#     4  10  19  32  52  76 103 138 177 214 254 301
#     4   9  18  34  55  78 105 134 166 209 257 307
#     4  10  20  34  54  79 106 136 170 210 257 307
#     4   9  17  29  46  71 102 135 174 217 253 292
#     4  10  19  32  52  76 103 138 177 214 254 301
#     4  10  20  34  54  79 106 136 170 210 257 307
#
# _framework density 18.802299999999999
#
# number of rings (size 3 to 8) (size 9 to 14) (size 15 to 20)
#    0.000    2.333    1.667    1.500    0.000    4.667 
#    0.000    4.167    0.000    7.000    0.000    2.333 
#    0.000    0.000    0.000    0.000    0.000    0.000 
#
# Total GULP energy -297559.295213 kJ/mol
# GULP energy per Si atom -12398.303967 kJ/mol
# Density = 1.875951 g / cm^3
# Si number density = 18.802300 Si / 1000 Ang^3
#
#
#
# Elastic Constant Matrix: (Units=GPa)
#
#
# Indices 1 2 3 4 5 6 
#
# 1 121.3016 30.4939 71.9969 0.0000 4.8578 0.0000
# 2 30.4939 34.3414 29.9052 0.0000 3.7815 0.0000
# 3 71.9969 29.9052 119.9271 0.0000 3.0540 0.0000
# 4 0.0000 0.0000 0.0000 12.6862 0.0000 -7.3395
# 5 4.8578 3.7815 3.0540 0.0000 35.9836 0.0000
# 6 0.0000 0.0000 0.0000 -7.3395 0.0000 11.5229
#
#
#
# Elastic Compliance Matrix: (Units=1/GPa)
#
#
# Indices 1 2 3 4 5 6 
#
# 1 0.013859 -0.006394 -0.006710 0.000000 -0.000630 0.000000
# 2 -0.006394 0.040501 -0.006188 0.000000 -0.002868 0.000000
# 3 -0.006710 -0.006188 0.013900 0.000000 0.000376 0.000000
# 4 0.000000 0.000000 0.000000 0.124823 0.000000 0.079505
# 5 -0.000630 -0.002868 0.000376 0.000000 0.028145 0.000000
# 6 0.000000 0.000000 0.000000 0.079505 0.000000 0.137424
#
#
# Mechanical properties :
#
#
# Convention : Reuss Voigt Hill
#
# Bulk Modulus (GPa) = 33.69597 60.04024 46.86810
# Shear Modulus (GPa) = 12.28120 21.58349 16.93234
#
# Velocity S-wave (km/s) = 2.55850 3.39177 3.00417
# Velocity P-wave (km/s) = 5.16604 6.88044 6.08393
#
# Compressibility (1/GPa) = 0.02967714
#
# Stress axis : x y z
#
# Youngs Moduli (GPa) = 72.15590 24.69054 71.94322
#
# Poissons Ratio (x) = 0.15787 0.48271
# Poissons Ratio (y) = 0.46137 0.44518
# Poissons Ratio (z) = 0.48413 0.15278
#
# Static dielectric constant tensor:
#      x y z
#    x 3.578820 0.000000 -0.020260 
#    y 0.000000 3.022600 0.000000 
#    z -0.020260 0.000000 3.581490 
# 
# 
# High freq. dielectric constant tensor:
#      x y z
#    x 1.736260 0.000000 -0.009650 
#    y 0.000000 1.680670 0.000000 
#    z -0.009650 0.000000 1.737690 
# 
# From -- ./inp_files/31207.got.cif
#   From: 2010.06.25/outbox.cif.g09.slc.cpg/sg10_16_cif.got.tgz:31207.got - 2010.06.27 22:07:45.
