data_PCOD8060102
_publ_section_title
;
Structure prediction by ZEFSAII (Michael W. Deem and Ramdas Pophale) SiO2 
 PCOD8060102
Probable space group: P 2/M
;
_chemical_formula_sum "Si O2"
_cell_formula_units_Z 28
_cell_length_a 12.611160
_cell_length_b 11.670616
_cell_length_c 24.110098
_cell_angle_alpha 90.000000
_cell_angle_beta 153.592520
_cell_angle_gamma 90.000000
_cell_volume 1578.213701
_symmetry_space_group_name_H-M "P 2/M"
_symmetry_group_IT_number 10
_symmetry_cell_setting 'monoclinic'
loop_
_space_group_symop_operation_xyz
x,y,z
-x,y,-z
-x,-y,-z
x,-y,z
loop_
_atom_site_type_symbol
_atom_site_label
_atom_site_fract_x
_atom_site_fract_y
_atom_site_fract_z
Si Si1 0.757144 0.000000 0.653259
Si Si2 0.490248 0.206704 0.105106
Si Si3 0.956430 0.133244 0.042203
Si Si4 0.612002 0.366207 0.493147
Si Si5 0.806923 0.630232 0.111669
Si Si6 0.295258 0.000000 0.857007
Si Si7 0.148626 0.626939 0.740721
Si Si8 0.774821 0.769614 0.731555
O O1 0.500000 0.000000 0.500000
O O2 0.767581 0.111572 0.695784
O O3 0.013241 0.000000 0.740774
O O4 0.657618 0.111131 0.157228
O O5 0.681225 0.297562 0.219361
O O6 0.320534 0.155674 0.072923
O O7 0.335562 0.270976 0.986410
O O8 0.128053 0.208752 0.161191
O O9 0.016205 0.000000 0.078493
O O10 0.000000 0.173140 0.000000
O O11 0.500000 0.335403 0.500000
O O12 0.587171 0.500000 0.467795
O O13 0.486368 0.287573 0.387501
O O14 0.883498 0.324347 0.619385
O O15 0.774679 0.500000 0.072686
O O16 0.736476 0.628739 0.143447
O O17 0.079515 0.670341 0.232718
O O18 0.500000 0.000000 0.000000
O O19 0.148467 0.500000 0.715940
#
# Coordination Sequence:
#
# PCOD8060102 Si02
#       8
#     2   4   4   4   4   2   4   4
#     4  12  26  34  50  87 128 159 178 212 278 341
#     4  11  21  33  52  77 105 139 182 229 281 325
#     4  10  21  41  60  76  99 135 191 244 287 329
#     4  10  19  32  52  78 113 154 186 208 248 325
#     4  10  19  31  51  77 110 149 183 219 262 326
#     4  12  22  34  50  79 118 155 182 218 274 341
#     4  10  19  31  49  77 111 149 179 208 255 325
#     4  11  20  35  54  79 110 146 186 226 271 325
#
# _framework density 17.741576999999999
#
# number of rings (size 3 to 8) (size 9 to 14) (size 15 to 20)
#    0.000    1.429    2.857    5.143    2.000    1.143 
#    0.000    0.000    0.000   16.286    0.000    5.000 
#    0.000    0.000    0.000    0.000    0.000    0.000 
#
# Total GULP energy -346979.339991 kJ/mol
# GULP energy per Si atom -12392.119285 kJ/mol
# Density = 1.770120 g / cm^3
# Si number density = 17.741577 Si / 1000 Ang^3
#
#
#
# Elastic Constant Matrix: (Units=GPa)
#
#
# Indices 1 2 3 4 5 6 
#
# 1 71.5431 23.4358 44.7549 0.0000 5.2952 0.0000
# 2 23.4358 70.9064 26.7775 0.0000 2.7104 0.0000
# 3 44.7549 26.7775 79.6310 0.0000 15.9475 0.0000
# 4 0.0000 0.0000 0.0000 31.1490 0.0000 8.8357
# 5 5.2952 2.7104 15.9475 0.0000 24.3058 0.0000
# 6 0.0000 0.0000 0.0000 8.8357 0.0000 22.8341
#
#
#
# Elastic Compliance Matrix: (Units=1/GPa)
#
#
# Indices 1 2 3 4 5 6 
#
# 1 0.022355 -0.002878 -0.012302 0.000000 0.003522 0.000000
# 2 -0.002878 0.016612 -0.004287 0.000000 0.001587 0.000000
# 3 -0.012302 -0.004287 0.023349 0.000000 -0.012162 0.000000
# 4 0.000000 0.000000 0.000000 0.036062 0.000000 -0.013954
# 5 0.003522 0.001587 -0.012162 0.000000 0.048177 0.000000
# 6 0.000000 0.000000 0.000000 -0.013954 0.000000 0.049194
#
#
# Mechanical properties :
#
#
# Convention : Reuss Voigt Hill
#
# Bulk Modulus (GPa) = 42.76443 45.77965 44.27204
# Shear Modulus (GPa) = 20.62048 24.13195 22.37622
#
# Velocity S-wave (km/s) = 3.41290 3.69208 3.55523
# Velocity P-wave (km/s) = 6.29976 6.63588 6.47000
#
# Compressibility (1/GPa) = 0.02338392
#
# Stress axis : x y z
#
# Youngs Moduli (GPa) = 44.73222 60.19597 42.82829
#
# Poissons Ratio (x) = 0.17322 0.52687
# Poissons Ratio (y) = 0.12872 0.18359
# Poissons Ratio (z) = 0.55030 0.25804
#
# Static dielectric constant tensor:
#      x y z
#    x 3.071020 0.000000 0.404970 
#    y 0.000000 3.574960 0.000000 
#    z 0.404970 0.000000 3.481230 
# 
# 
# High freq. dielectric constant tensor:
#      x y z
#    x 1.638310 0.000000 0.040990 
#    y 0.000000 1.708880 0.000000 
#    z 0.040990 0.000000 1.684400 
# 
# From -- ./inp_files/55841.got.cif
#   From: 2010.06.25/outbox.cif.g09.slc.cpg/sg10_28_cif.got.tgz:55841.got - 2010.06.27 22:07:45.
