data_PCOD8060752
_publ_section_title
;
Structure prediction by ZEFSAII (Michael W. Deem and Ramdas Pophale) SiO2 
 PCOD8060752
Probable space group: P 2/M
;
_chemical_formula_sum "Si O2"
_cell_formula_units_Z 32
_cell_length_a 25.751624
_cell_length_b 9.020287
_cell_length_c 20.019965
_cell_angle_alpha 90.000000
_cell_angle_beta 158.336432
_cell_angle_gamma 90.000000
_cell_volume 1716.714556
_symmetry_space_group_name_H-M "P 2/M"
_symmetry_group_IT_number 10
_symmetry_cell_setting 'monoclinic'
loop_
_space_group_symop_operation_xyz
x,y,z
-x,y,-z
-x,-y,-z
x,-y,z
loop_
_atom_site_type_symbol
_atom_site_label
_atom_site_fract_x
_atom_site_fract_y
_atom_site_fract_z
Si Si1 0.596603 0.324725 0.412575
Si Si2 0.867371 0.675273 0.533832
Si Si3 0.058971 0.676509 0.641221
Si Si4 0.863283 0.170053 0.664100
Si Si5 0.447898 0.323882 0.868017
Si Si6 0.090865 0.830453 0.047605
Si Si7 0.619467 0.675379 0.592245
Si Si8 0.371484 0.675943 0.038066
O O1 0.619472 0.500000 0.433925
O O2 0.729947 0.251089 0.536791
O O3 0.584152 0.272602 0.474490
O O4 0.451965 0.276408 0.202357
O O5 0.880975 0.500000 0.560207
O O6 0.915855 0.755444 0.658839
O O7 0.710084 0.727622 0.331635
O O8 0.959147 0.731293 0.581333
O O9 0.062479 0.500000 0.641645
O O10 0.000000 0.738739 0.500000
O O11 0.213775 0.740383 0.843929
O O12 0.820842 0.000000 0.601974
O O13 0.999777 0.184935 0.872753
O O14 0.459352 0.500000 0.883142
O O15 0.542076 0.258713 0.921060
O O16 0.500000 0.255698 0.000000
O O17 0.232487 0.739051 0.206896
O O18 0.131563 0.000000 0.112405
O O19 0.000000 0.763675 0.000000
O O20 0.500000 0.735214 0.500000
O O21 0.629145 0.500000 0.607610
O O22 0.365161 0.500000 0.026323
#
# Coordination Sequence:
#
# PCOD8060752 Si02
#       8
#     4   4   4   4   4   4   4   4
#     4  10  19  34  55  78 108 143 177 216 272 331
#     4  10  19  32  52  80 109 139 176 219 269 322
#     4   9  17  29  48  79 113 141 174 219 266 313
#     4  11  22  36  56  80 108 140 182 234 275 316
#     4   9  15  24  43  73 104 132 168 213 256 305
#     4  10  21  38  58  80 107 147 195 232 272 328
#     4  10  22  37  56  86 119 145 176 224 280 337
#     4   9  16  27  45  71 104 139 171 208 259 312
#
# _framework density 18.640256000000001
#
# number of rings (size 3 to 8) (size 9 to 14) (size 15 to 20)
#    0.000    2.250    2.500    1.125    0.000    5.500 
#    0.000    2.500    0.000    1.500    0.000    0.000 
#    0.000    0.000    0.000    0.000    0.000    0.000 
#
# Total GULP energy -396768.901588 kJ/mol
# GULP energy per Si atom -12399.028175 kJ/mol
# Density = 1.859783 g / cm^3
# Si number density = 18.640256 Si / 1000 Ang^3
#
#
#
# Elastic Constant Matrix: (Units=GPa)
#
#
# Indices 1 2 3 4 5 6 
#
# 1 168.8514 28.3633 73.2174 0.0000 2.6817 0.0000
# 2 28.3633 21.9540 22.5150 0.0000 -2.7247 0.0000
# 3 73.2174 22.5150 132.4504 0.0000 5.0656 0.0000
# 4 0.0000 0.0000 0.0000 7.8448 0.0000 4.0384
# 5 2.6817 -2.7247 5.0656 0.0000 39.2229 0.0000
# 6 0.0000 0.0000 0.0000 4.0384 0.0000 3.6796
#
#
#
# Elastic Compliance Matrix: (Units=1/GPa)
#
#
# Indices 1 2 3 4 5 6 
#
# 1 0.008760 -0.007829 -0.003485 0.000000 -0.000693 0.000000
# 2 -0.007829 0.063186 -0.006634 0.000000 0.005781 0.000000
# 3 -0.003485 -0.006634 0.010665 0.000000 -0.001600 0.000000
# 4 0.000000 0.000000 0.000000 0.293017 0.000000 -0.321582
# 5 -0.000693 0.005781 -0.001600 0.000000 0.026151 0.000000
# 6 0.000000 0.000000 0.000000 -0.321582 0.000000 0.624697
#
#
# Mechanical properties :
#
#
# Convention : Reuss Voigt Hill
#
# Bulk Modulus (GPa) = 21.40661 63.49412 42.45036
# Shear Modulus (GPa) = 4.63846 23.42681 14.03264
#
# Velocity S-wave (km/s) = 1.57918 3.54896 2.74672
# Velocity P-wave (km/s) = 3.85150 7.13655 5.73430
#
# Compressibility (1/GPa) = 0.04671455
#
# Stress axis : x y z
#
# Youngs Moduli (GPa) = 114.16087 15.82641 93.76167
#
# Poissons Ratio (x) = 0.12390 0.32675
# Poissons Ratio (y) = 0.89375 0.62203
# Poissons Ratio (z) = 0.39784 0.10500
#
# Static dielectric constant tensor:
#      x y z
#    x 3.685680 0.000000 -0.095510 
#    y 0.000000 2.975780 0.000000 
#    z -0.095510 0.000000 3.595680 
# 
# 
# High freq. dielectric constant tensor:
#      x y z
#    x 1.735710 0.000000 -0.007040 
#    y 0.000000 1.672310 0.000000 
#    z -0.007040 0.000000 1.735860 
# 
# From -- ./inp_files/87039.got.cif
#   From: 2010.06.25/outbox.cif.g09.slc.cpg/sg10_44_cif.got.tgz:87039.got - 2010.06.27 22:07:45.
