data_PCOD8060562
_publ_section_title
;
Structure prediction by ZEFSAII (Michael W. Deem and Ramdas Pophale) SiO2 
 PCOD8060562
Probable space group: P 2/M
;
_chemical_formula_sum "Si O2"
_cell_formula_units_Z 32
_cell_length_a 23.506394
_cell_length_b 8.883380
_cell_length_c 17.408508
_cell_angle_alpha 90.000000
_cell_angle_beta 31.135577
_cell_angle_gamma 90.000000
_cell_volume 1879.623533
_symmetry_space_group_name_H-M "P 2/M"
_symmetry_group_IT_number 10
_symmetry_cell_setting 'monoclinic'
loop_
_space_group_symop_operation_xyz
x,y,z
-x,y,-z
-x,-y,-z
x,-y,z
loop_
_atom_site_type_symbol
_atom_site_label
_atom_site_fract_x
_atom_site_fract_y
_atom_site_fract_z
Si Si1 0.555328 0.676879 0.609040
Si Si2 0.363236 0.675888 0.044385
Si Si3 0.815072 0.323774 0.876617
Si Si4 0.015500 0.174864 0.569519
Si Si5 0.582070 0.825939 0.732701
Si Si6 0.675453 0.178240 0.162041
Si Si7 0.733112 0.172259 0.699489
Si Si8 0.375922 0.833959 0.614606
O O1 0.541900 0.500000 0.626849
O O2 0.612010 0.734457 0.621285
O O3 0.434351 0.747320 0.744717
O O4 0.632960 0.721759 0.447255
O O5 0.390868 0.500000 0.007903
O O6 0.266567 0.721348 0.097818
O O7 0.326005 0.717369 0.172820
O O8 0.470808 0.768956 0.900001
O O9 0.814088 0.500000 0.894055
O O10 0.937102 0.271542 0.714650
O O11 0.779719 0.238547 0.995005
O O12 0.138493 0.210124 0.454445
O O13 0.000000 0.228677 0.500000
O O14 0.984399 0.000000 0.613704
O O15 0.682824 0.799789 0.673972
O O16 0.567210 0.000000 0.728736
O O17 0.694315 0.221670 0.230301
O O18 0.662697 0.000000 0.167989
O O19 0.714979 0.000000 0.747772
O O20 0.500000 0.842112 0.500000
O O21 0.337289 0.000000 0.632430
#
# Coordination Sequence:
#
# PCOD8060562 Si02
#       8
#     4   4   4   4   4   4   4   4
#     4  11  20  30  47  73 104 136 168 203 251 303
#     4  11  22  34  50  74 104 135 168 210 258 305
#     4  11  22  33  50  77 106 134 168 209 254 303
#     4  10  20  36  57  74  95 128 171 218 259 302
#     4  11  22  35  52  72 101 137 175 213 250 301
#     4  10  19  32  51  73 101 136 171 206 247 297
#     4  10  22  38  54  74  96 131 178 218 256 300
#     4   8  16  30  47  70  99 133 169 201 242 298
#
# _framework density 17.024685999999999
#
# number of rings (size 3 to 8) (size 9 to 14) (size 15 to 20)
#    0.000    1.750    2.500    3.750    0.000    7.000 
#    0.000    0.000    0.000    0.000    0.000    0.875 
#    0.000    7.000    0.000    0.000    0.000    0.000 
#
# Total GULP energy -396878.262903 kJ/mol
# GULP energy per Si atom -12402.445716 kJ/mol
# Density = 1.698594 g / cm^3
# Si number density = 17.024686 Si / 1000 Ang^3
#
#
#
# Elastic Constant Matrix: (Units=GPa)
#
#
# Indices 1 2 3 4 5 6 
#
# 1 88.1058 45.4857 64.6889 0.0000 10.5047 0.0000
# 2 45.4857 89.9138 49.1129 0.0000 11.9720 0.0000
# 3 64.6889 49.1129 93.5271 0.0000 21.3425 0.0000
# 4 0.0000 0.0000 0.0000 20.2699 0.0000 4.0742
# 5 10.5047 11.9720 21.3425 0.0000 29.5910 0.0000
# 6 0.0000 0.0000 0.0000 4.0742 0.0000 20.1444
#
#
#
# Elastic Compliance Matrix: (Units=1/GPa)
#
#
# Indices 1 2 3 4 5 6 
#
# 1 0.024683 -0.004485 -0.015719 0.000000 0.004389 0.000000
# 2 -0.004485 0.016416 -0.005226 0.000000 -0.001280 0.000000
# 3 -0.015719 -0.005226 0.026995 0.000000 -0.011776 0.000000
# 4 0.000000 0.000000 0.000000 0.051425 0.000000 -0.010401
# 5 0.004389 -0.001280 -0.011776 0.000000 0.041247 0.000000
# 6 0.000000 0.000000 0.000000 -0.010401 0.000000 0.051745
#
#
# Mechanical properties :
#
#
# Convention : Reuss Voigt Hill
#
# Bulk Modulus (GPa) = 58.02189 65.56906 61.79547
# Shear Modulus (GPa) = 18.57935 21.48499 20.03217
#
# Velocity S-wave (km/s) = 3.30709 3.55630 3.43396
# Velocity P-wave (km/s) = 6.98123 7.44720 7.21797
#
# Compressibility (1/GPa) = 0.01723488
#
# Stress axis : x y z
#
# Youngs Moduli (GPa) = 40.51341 60.91736 37.04332
#
# Poissons Ratio (x) = 0.27323 0.58227
# Poissons Ratio (y) = 0.18172 0.19358
# Poissons Ratio (z) = 0.63682 0.31834
#
# Static dielectric constant tensor:
#      x y z
#    x 3.218990 0.000000 0.280590 
#    y 0.000000 3.225030 0.000000 
#    z 0.280590 0.000000 3.189180 
# 
# 
# High freq. dielectric constant tensor:
#      x y z
#    x 1.639000 0.000000 0.024690 
#    y 0.000000 1.665740 0.000000 
#    z 0.024690 0.000000 1.642440 
# 
# From -- ./inp_files/79935.got.cif
#   From: 2010.06.25/outbox.cif.g09.slc.cpg/sg10_40_cif.got.tgz:79935.got - 2010.06.27 22:07:45.
