data_PCOD8060683
_publ_section_title
;
Structure prediction by ZEFSAII (Michael W. Deem and Ramdas Pophale) SiO2 
 PCOD8060683
Probable space group: P 2/M
;
_chemical_formula_sum "Si O2"
_cell_formula_units_Z 28
_cell_length_a 15.657478
_cell_length_b 9.054613
_cell_length_c 11.728643
_cell_angle_alpha 90.000000
_cell_angle_beta 116.366955
_cell_angle_gamma 90.000000
_cell_volume 1489.813806
_symmetry_space_group_name_H-M "P 2/M"
_symmetry_group_IT_number 10
_symmetry_cell_setting 'monoclinic'
loop_
_space_group_symop_operation_xyz
x,y,z
-x,y,-z
-x,-y,-z
x,-y,z
loop_
_atom_site_type_symbol
_atom_site_label
_atom_site_fract_x
_atom_site_fract_y
_atom_site_fract_z
Si Si1 0.422535 0.673932 0.306867
Si Si2 0.369891 0.324923 0.524894
Si Si3 0.751569 0.674218 0.935365
Si Si4 0.831832 0.325031 0.222457
Si Si5 0.905141 0.170267 0.881894
Si Si6 0.787745 0.828524 0.420649
Si Si7 0.970679 0.167914 0.670590
O O1 0.424040 0.500000 0.321198
O O2 0.531737 0.724812 0.353258
O O3 0.377997 0.732097 0.399402
O O4 0.356772 0.722990 0.160721
O O5 0.352414 0.500000 0.523890
O O6 0.282500 0.241319 0.529503
O O7 0.762865 0.500000 0.940069
O O8 0.817581 0.736273 0.875175
O O9 0.781246 0.734196 0.077091
O O10 0.824743 0.500000 0.229908
O O11 0.774519 0.251350 0.291892
O O12 0.942108 0.279416 0.288547
O O13 0.913467 0.197737 0.752650
O O14 0.887073 0.000000 0.901620
O O15 0.000000 0.228052 0.000000
O O16 0.897226 0.805329 0.524239
O O17 0.763393 0.000000 0.393235
O O18 0.010413 0.000000 0.691754
#
# Coordination Sequence:
#
# PCOD8060683 Si02
#       7
#     4   4   4   4   4   4   4
#     4   8  16  33  58  85 109 134 164 208 266 316
#     4   9  17  34  60  84 106 133 169 212 259 312
#     4  10  20  34  53  79 109 138 173 215 259 306
#     4  11  23  36  52  75 104 140 181 220 255 301
#     4  10  19  32  52  76 106 139 169 206 256 313
#     4  11  23  37  54  75 104 140 177 218 262 306
#     4  10  21  37  54  75 104 140 176 213 262 312
#
# _framework density 18.794295000000002
#
# number of rings (size 3 to 8) (size 9 to 14) (size 15 to 20)
#    0.000    2.143    1.429    3.000    0.000    4.286 
#    0.000    2.857    0.000    4.286    0.000    0.000 
#    0.000    0.000    0.000    0.000    0.000    0.000 
#
# Total GULP energy -347184.890368 kJ/mol
# GULP energy per Si atom -12399.460370 kJ/mol
# Density = 1.875152 g / cm^3
# Si number density = 18.794295 Si / 1000 Ang^3
#
#
#
# Elastic Constant Matrix: (Units=GPa)
#
#
# Indices 1 2 3 4 5 6 
#
# 1 64.9053 29.0008 30.7063 0.0000 5.4680 0.0000
# 2 29.0008 52.5911 30.5078 0.0000 0.3935 0.0000
# 3 30.7063 30.5078 92.6252 0.0000 2.2231 0.0000
# 4 0.0000 0.0000 0.0000 19.5928 0.0000 -16.1574
# 5 5.4680 0.3935 2.2231 0.0000 26.3789 0.0000
# 6 0.0000 0.0000 0.0000 -16.1574 0.0000 -75.5629
#
#
#
# Elastic Compliance Matrix: (Units=1/GPa)
#
#
# Indices 1 2 3 4 5 6 
#
# 1 0.022009 -0.009804 -0.003969 0.000000 -0.004081 0.000000
# 2 -0.009804 0.027875 -0.005982 0.000000 0.002121 0.000000
# 3 -0.003969 -0.005982 0.014089 0.000000 -0.000275 0.000000
# 4 0.000000 0.000000 0.000000 0.043388 0.000000 -0.009278
# 5 -0.004081 0.002121 -0.000275 0.000000 0.038747 0.000000
# 6 0.000000 0.000000 0.000000 -0.009278 0.000000 -0.011250
#
#
# Mechanical properties :
#
#
# Convention : Reuss Voigt Hill
#
# Bulk Modulus (GPa) = 40.87769 43.39460 42.13615
# Shear Modulus (GPa) = 27.39390 2.07555 14.73472
#
# Velocity S-wave (km/s) = 3.82195 1.05202 2.80304
# Velocity P-wave (km/s) = 6.42446 4.96135 5.73972
#
# Compressibility (1/GPa) = 0.02446322
#
# Stress axis : x y z
#
# Youngs Moduli (GPa) = 45.43556 35.87440 70.97749
#
# Poissons Ratio (x) = 0.35170 0.28173
# Poissons Ratio (y) = 0.44543 0.42459
# Poissons Ratio (z) = 0.18035 0.21460
#
# Static dielectric constant tensor:
#      x y z
#    x 3.349710 0.000000 0.124240 
#    y 0.000000 3.232550 0.000000 
#    z 0.124240 0.000000 3.844350 
# 
# 
# High freq. dielectric constant tensor:
#      x y z
#    x 1.721210 0.000000 0.001520 
#    y 0.000000 1.711790 0.000000 
#    z 0.001520 0.000000 1.740310 
# 
# From -- ./inp_files/49145.got.cif
#   From: 2010.06.25/outbox.cif.g09.slc.cpg/sg10_25_cif.got.tgz:49145.got - 2010.06.27 22:07:45.
