data_PCOD8060412
_publ_section_title
;
Structure prediction by ZEFSAII (Michael W. Deem and Ramdas Pophale) SiO2 
 PCOD8060412
Probable space group: P 2/M
;
_chemical_formula_sum "Si O2"
_cell_formula_units_Z 32
_cell_length_a 19.983376
_cell_length_b 13.826165
_cell_length_c 18.457461
_cell_angle_alpha 90.000000
_cell_angle_beta 157.465569
_cell_angle_gamma 90.000000
_cell_volume 1954.392322
_symmetry_space_group_name_H-M "P 2/M"
_symmetry_group_IT_number 10
_symmetry_cell_setting 'monoclinic'
loop_
_space_group_symop_operation_xyz
x,y,z
-x,y,-z
-x,-y,-z
x,-y,z
loop_
_atom_site_type_symbol
_atom_site_label
_atom_site_fract_x
_atom_site_fract_y
_atom_site_fract_z
Si Si1 0.000005 0.611506 0.921872
Si Si2 0.000022 0.385933 0.580193
Si Si3 0.302186 0.611545 0.988248
Si Si4 0.298477 0.293324 0.135521
Si Si5 0.293679 0.893699 0.374742
Si Si6 0.701524 0.293336 0.538584
Si Si7 0.293690 0.893704 0.212608
Si Si8 0.697878 0.611548 0.383952
O O1 0.000091 0.500000 0.935649
O O2 0.822860 0.633784 0.702652
O O3 0.177111 0.633817 0.056888
O O4 0.000000 0.664926 0.000000
O O5 0.999985 0.500000 0.572060
O O6 0.000000 0.338258 0.500000
O O7 0.826350 0.353080 0.449054
O O8 0.173728 0.353089 0.796411
O O9 0.262213 0.500000 0.971773
O O10 0.272361 0.685245 0.024657
O O11 0.500037 0.619634 0.157131
O O12 0.499996 0.310739 0.359709
O O13 0.234994 0.184821 0.093690
O O14 0.234972 0.815164 0.376248
O O15 0.227383 0.865044 0.227372
O O16 0.499993 0.899183 0.579785
O O17 0.218557 0.000000 0.320816
O O18 0.727671 0.314753 0.479983
O O19 0.218566 0.000000 0.116287
O O20 0.737853 0.500000 0.447420
#
# Coordination Sequence:
#
# PCOD8060412 Si02
#       8
#     4   4   4   4   4   4   4   4
#     4  11  23  33  42  61  86 114 155 199 228 260
#     4   9  17  29  45  64  88 117 142 169 211 258
#     4   9  17  28  43  64  88 115 147 179 212 257
#     4  10  19  32  49  65  87 120 152 185 230 275
#     4   8  14  26  45  67  89 115 149 189 232 274
#     4  10  19  32  49  65  87 120 152 185 230 275
#     4   8  14  26  45  67  89 115 149 189 232 274
#     4   9  17  28  43  64  88 115 147 179 212 257
#
# _framework density 16.373376
#
# number of rings (size 3 to 8) (size 9 to 14) (size 15 to 20)
#    0.000    2.750    0.000    3.000    0.000    4.500 
#    0.000    4.375    0.000    2.250    0.000    0.000 
#    0.000    2.000    0.000    9.750    0.000    0.250 
#
# Total GULP energy -396528.076976 kJ/mol
# GULP energy per Si atom -12391.502406 kJ/mol
# Density = 1.633611 g / cm^3
# Si number density = 16.373376 Si / 1000 Ang^3
#
#
#
# Elastic Constant Matrix: (Units=GPa)
#
#
# Indices 1 2 3 4 5 6 
#
# 1 118.4241 47.5815 62.0813 0.0000 -5.6126 0.0000
# 2 47.5815 77.9270 27.5470 0.0000 -5.9848 0.0000
# 3 62.0813 27.5470 91.5667 0.0000 -2.4210 0.0000
# 4 0.0000 0.0000 0.0000 10.4236 0.0000 -1.3838
# 5 -5.6126 -5.9848 -2.4210 0.0000 19.7474 0.0000
# 6 0.0000 0.0000 0.0000 -1.3838 0.0000 15.0338
#
#
#
# Elastic Compliance Matrix: (Units=1/GPa)
#
#
# Indices 1 2 3 4 5 6 
#
# 1 0.015584 -0.006359 -0.008614 0.000000 0.001446 0.000000
# 2 -0.006359 0.017250 -0.000790 0.000000 0.003324 0.000000
# 3 -0.008614 -0.000790 0.016983 0.000000 -0.000606 0.000000
# 4 0.000000 0.000000 0.000000 0.097123 0.000000 0.008939
# 5 0.001446 0.003324 -0.000606 0.000000 0.051983 0.000000
# 6 0.000000 0.000000 0.000000 0.008939 0.000000 0.067340
#
#
# Mechanical properties :
#
#
# Convention : Reuss Voigt Hill
#
# Bulk Modulus (GPa) = 54.67603 62.48192 58.57898
# Shear Modulus (GPa) = 16.45353 19.08815 17.77084
#
# Velocity S-wave (km/s) = 3.17345 3.41809 3.29804
# Velocity P-wave (km/s) = 6.84788 7.33630 7.09629
#
# Compressibility (1/GPa) = 0.01828955
#
# Stress axis : x y z
#
# Youngs Moduli (GPa) = 64.17023 57.97145 58.88215
#
# Poissons Ratio (x) = 0.36864 0.50722
# Poissons Ratio (y) = 0.40806 0.04653
# Poissons Ratio (z) = 0.55278 0.04581
#
# Static dielectric constant tensor:
#      x y z
#    x 3.092140 0.000000 0.008140 
#    y 0.000000 3.183770 0.000000 
#    z 0.008140 0.000000 3.118440 
# 
# 
# High freq. dielectric constant tensor:
#      x y z
#    x 1.610280 0.000000 0.007630 
#    y 0.000000 1.602670 0.000000 
#    z 0.007630 0.000000 1.635740 
# 
# From -- ./inp_files/86282.got.cif
#   From: 2010.06.25/outbox.cif.g09.slc.cpg/sg10_44_cif.got.tgz:86282.got - 2010.06.27 22:07:45.
