data_PCOD8060133
_publ_section_title
;
Structure prediction by ZEFSAII (Michael W. Deem and Ramdas Pophale) SiO2 
 PCOD8060133
Probable space group: P 2/M
;
_chemical_formula_sum "Si O2"
_cell_formula_units_Z 16
_cell_length_a 20.244313
_cell_length_b 8.294989
_cell_length_c 16.002646
_cell_angle_alpha 90.000000
_cell_angle_beta 18.385655
_cell_angle_gamma 90.000000
_cell_volume 847.594488
_symmetry_space_group_name_H-M "P 2/M"
_symmetry_group_IT_number 10
_symmetry_cell_setting 'monoclinic'
loop_
_space_group_symop_operation_xyz
x,y,z
-x,y,-z
-x,-y,-z
x,-y,z
loop_
_atom_site_type_symbol
_atom_site_label
_atom_site_fract_x
_atom_site_fract_y
_atom_site_fract_z
Si Si1 0.655012 0.188595 0.703180
Si Si2 0.292876 0.192047 0.706696
Si Si3 0.149702 0.191459 0.701647
Si Si4 0.219234 0.687949 0.274260
O O1 0.745975 0.260831 0.507613
O O2 0.773471 0.280428 0.635488
O O3 0.701427 0.000000 0.656666
O O4 0.405969 0.216951 0.004389
O O5 0.500000 0.267427 0.500000
O O6 0.275930 0.254455 0.631489
O O7 0.302802 0.000000 0.694979
O O8 0.091224 0.249457 0.002024
O O9 0.159958 0.000000 0.687533
O O10 0.249511 0.500000 0.220002
O O11 0.000000 0.750952 0.500000
#
# Coordination Sequence:
#
# PCOD8060133 Si02
#       4
#     4   4   4   4
#     4  10  19  31  50  75 100 123 153 200 246 280
#     4   8  13  23  38  57  89 128 154 176 216 274
#     4   8  15  25  38  63  94 121 151 184 225 276
#     4  10  21  36  51  67  92 128 165 197 234 287
#
# _framework density 18.876954000000001
#
# number of rings (size 3 to 8) (size 9 to 14) (size 15 to 20)
#    0.000    3.000    0.000    4.500    0.000    4.000 
#    0.000    5.000    0.000    0.000    0.000   14.000 
#    0.000   24.000    0.000    0.000    0.000    0.000 
#
# Total GULP energy -198339.387926 kJ/mol
# GULP energy per Si atom -12396.211745 kJ/mol
# Density = 1.883399 g / cm^3
# Si number density = 18.876954 Si / 1000 Ang^3
#
#
#
# Elastic Constant Matrix: (Units=GPa)
#
#
# Indices 1 2 3 4 5 6 
#
# 1 148.1524 -0.4123 117.8508 0.0000 5.5362 0.0000
# 2 -0.4123 18.8676 0.9430 0.0000 -1.0072 0.0000
# 3 117.8508 0.9430 144.1638 0.0000 -5.0936 0.0000
# 4 0.0000 0.0000 0.0000 5.9835 0.0000 -10.7420
# 5 5.5362 -1.0072 -5.0936 0.0000 50.1677 0.0000
# 6 0.0000 0.0000 0.0000 -10.7420 0.0000 10.8285
#
#
#
# Elastic Compliance Matrix: (Units=1/GPa)
#
#
# Indices 1 2 3 4 5 6 
#
# 1 0.020049 0.001058 -0.016533 0.000000 -0.003870 0.000000
# 2 0.001058 0.053128 -0.001183 0.000000 0.000830 0.000000
# 3 -0.016533 -0.001183 0.020598 0.000000 0.003892 0.000000
# 4 0.000000 0.000000 0.000000 -0.214008 0.000000 -0.212299
# 5 -0.003870 0.000830 0.003892 0.000000 0.020772 0.000000
# 6 0.000000 0.000000 0.000000 -0.212299 0.000000 -0.118255
#
#
# Mechanical properties :
#
#
# Convention : Reuss Voigt Hill
#
# Bulk Modulus (GPa) = 16.54065 60.88300 38.71183
# Shear Modulus (GPa) = -30.44192 26.24943 -2.09625
#
# Velocity S-wave (km/s) = -4.02014 3.73306 -1.05494
# Velocity P-wave (km/s) = 3.57314 7.13467 4.36671
#
# Compressibility (1/GPa) = 0.06045712
#
# Stress axis : x y z
#
# Youngs Moduli (GPa) = 49.87714 18.82264 48.54938
#
# Poissons Ratio (x) = -0.01991 0.80269
# Poissons Ratio (y) = -0.05277 0.05744
# Poissons Ratio (z) = 0.82464 0.02227
#
# Static dielectric constant tensor:
#      x y z
#    x 3.789320 0.000000 0.009350 
#    y 0.000000 2.969870 0.000000 
#    z 0.009350 0.000000 3.694910 
# 
# 
# High freq. dielectric constant tensor:
#      x y z
#    x 1.737710 0.000000 0.000130 
#    y 0.000000 1.691540 0.000000 
#    z 0.000130 0.000000 1.735790 
# 
# From -- ./inp_files/68331.got.cif
#   From: 2010.06.25/outbox.cif.g09.slc.cpg/sg10_35_cif.got.tgz:68331.got - 2010.06.27 22:07:45.
