data_PCOD8060569
_publ_section_title
;
Structure prediction by ZEFSAII (Michael W. Deem and Ramdas Pophale) SiO2 
 PCOD8060569
Probable space group: P 2/M
;
_chemical_formula_sum "Si O2"
_cell_formula_units_Z 28
_cell_length_a 11.915107
_cell_length_b 11.092590
_cell_length_c 11.915135
_cell_angle_alpha 90.000000
_cell_angle_beta 78.038783
_cell_angle_gamma 90.000000
_cell_volume 1540.623969
_symmetry_space_group_name_H-M "P 2/M"
_symmetry_group_IT_number 10
_symmetry_cell_setting 'monoclinic'
loop_
_space_group_symop_operation_xyz
x,y,z
-x,y,-z
-x,-y,-z
x,-y,z
loop_
_atom_site_type_symbol
_atom_site_label
_atom_site_fract_x
_atom_site_fract_y
_atom_site_fract_z
Si Si1 0.976369 0.000000 0.686163
Si Si2 0.198134 0.639318 0.900972
Si Si3 0.186163 0.000000 0.476370
Si Si4 0.956888 0.251801 0.251442
Si Si5 0.400974 0.639318 0.698132
Si Si6 0.346169 0.359964 0.311577
Si Si7 0.248558 0.748199 0.543112
Si Si8 0.811577 0.640036 0.846171
O O1 0.073248 0.000000 0.573248
O O2 0.992017 0.116627 0.761692
O O3 0.853178 0.000000 0.646821
O O4 0.155134 0.500000 0.905308
O O5 0.113042 0.722918 0.847398
O O6 0.326826 0.648734 0.826824
O O7 0.196818 0.694120 0.026684
O O8 0.261693 0.116627 0.492019
O O9 0.876470 0.275037 0.376470
O O10 0.064210 0.341245 0.235356
O O11 0.405312 0.500000 0.655133
O O12 0.526686 0.694122 0.696817
O O13 0.347399 0.722915 0.613040
O O14 0.361113 0.500000 0.286840
O O15 0.264640 0.341244 0.435790
O O16 0.285254 0.301112 0.214745
O O17 0.786840 0.500000 0.861113
#
# Coordination Sequence:
#
# PCOD8060569 Si02
#       8
#     2   4   2   4   4   4   4   4
#     4   9  18  32  49  70  98 130 161 195 236 286
#     4   9  18  33  52  72  96 128 164 201 238 279
#     4   9  18  32  49  70  98 130 161 195 236 286
#     4  10  19  32  51  73  97 126 159 197 243 290
#     4   9  18  33  52  72  96 128 164 201 238 279
#     4  10  20  32  48  72 101 131 161 196 239 286
#     4  10  19  32  51  73  97 126 159 197 243 290
#     4  10  20  32  48  72 101 131 161 196 239 286
#
# _framework density 18.174454999999998
#
# number of rings (size 3 to 8) (size 9 to 14) (size 15 to 20)
#    0.000    2.429    0.000    2.571    0.000    6.286 
#    0.000    7.143    0.000    0.000    0.000    0.000 
#    0.000    9.143    0.000    0.000    0.000    0.000 
#
# Total GULP energy -347108.510135 kJ/mol
# GULP energy per Si atom -12396.732505 kJ/mol
# Density = 1.813309 g / cm^3
# Si number density = 18.174455 Si / 1000 Ang^3
#
#
#
# Elastic Constant Matrix: (Units=GPa)
#
#
# Indices 1 2 3 4 5 6 
#
# 1 123.4415 39.3608 68.3719 0.0000 17.6938 0.0000
# 2 39.3608 44.0372 36.5162 0.0000 8.0725 0.0000
# 3 68.3719 36.5162 110.9348 0.0000 17.7817 0.0000
# 4 0.0000 0.0000 0.0000 14.1768 0.0000 0.1718
# 5 17.6938 8.0725 17.7817 0.0000 24.1692 0.0000
# 6 0.0000 0.0000 0.0000 0.1718 0.0000 14.2371
#
#
#
# Elastic Compliance Matrix: (Units=1/GPa)
#
#
# Indices 1 2 3 4 5 6 
#
# 1 0.014091 -0.007161 -0.005734 0.000000 -0.003706 0.000000
# 2 -0.007161 0.035100 -0.006917 0.000000 -0.001392 0.000000
# 3 -0.005734 -0.006917 0.015624 0.000000 -0.004987 0.000000
# 4 0.000000 0.000000 0.000000 0.070548 0.000000 -0.000851
# 5 -0.003706 -0.001392 -0.004987 0.000000 0.048222 0.000000
# 6 0.000000 0.000000 0.000000 -0.000851 0.000000 0.070249
#
#
# Mechanical properties :
#
#
# Convention : Reuss Voigt Hill
#
# Bulk Modulus (GPa) = 39.69561 62.99013 51.34287
# Shear Modulus (GPa) = 16.56420 19.46092 18.01256
#
# Velocity S-wave (km/s) = 3.02222 3.27583 3.15158
# Velocity P-wave (km/s) = 5.83671 7.00300 6.44629
#
# Compressibility (1/GPa) = 0.02519170
#
# Stress axis : x y z
#
# Youngs Moduli (GPa) = 70.96532 28.49032 64.00286
#
# Poissons Ratio (x) = 0.20403 0.36697
# Poissons Ratio (y) = 0.50821 0.44270
# Poissons Ratio (z) = 0.40689 0.19706
#
# Static dielectric constant tensor:
#      x y z
#    x 3.546580 0.000000 0.170920 
#    y 0.000000 3.255060 0.000000 
#    z 0.170920 0.000000 3.486330 
# 
# 
# High freq. dielectric constant tensor:
#      x y z
#    x 1.706160 0.000000 0.007830 
#    y 0.000000 1.672620 0.000000 
#    z 0.007830 0.000000 1.703400 
# 
# From -- ./inp_files/46050.got.cif
#   From: 2010.06.25/outbox.cif.g09.slc.cpg/sg10_24_cif.got.tgz:46050.got - 2010.06.27 22:07:45.
