data_PCOD8060125
_publ_section_title
;
Structure prediction by ZEFSAII (Michael W. Deem and Ramdas Pophale) SiO2 
 PCOD8060125
Probable space group: P 2/M
;
_chemical_formula_sum "Si O2"
_cell_formula_units_Z 22
_cell_length_a 9.076450
_cell_length_b 25.398506
_cell_length_c 5.113658
_cell_angle_alpha 90.000000
_cell_angle_beta 81.422070
_cell_angle_gamma 90.000000
_cell_volume 1165.656088
_symmetry_space_group_name_H-M "P 2/M"
_symmetry_group_IT_number 10
_symmetry_cell_setting 'monoclinic'
loop_
_space_group_symop_operation_xyz
x,y,z
-x,y,-z
-x,-y,-z
x,-y,z
loop_
_atom_site_type_symbol
_atom_site_label
_atom_site_fract_x
_atom_site_fract_y
_atom_site_fract_z
Si Si1 0.822840 0.441002 0.527374
Si Si2 0.899022 0.000000 0.275155
Si Si3 0.672122 0.205726 0.465768
Si Si4 0.823639 0.618909 0.023227
Si Si5 0.672176 0.727201 0.972367
Si Si6 0.895730 0.113834 0.279214
O O1 0.765597 0.500000 0.483213
O O2 0.761269 0.401433 0.318640
O O3 0.000000 0.440064 0.500000
O O4 0.763566 0.422226 0.823698
O O5 0.812056 0.056142 0.285630
O O6 0.000000 0.000000 0.500000
O O7 0.000000 0.000000 0.000000
O O8 0.500000 0.188506 0.500000
O O9 0.715581 0.230468 0.735750
O O10 0.765945 0.155190 0.359756
O O11 0.708426 0.249669 0.244644
O O12 0.769707 0.675143 0.934534
O O13 0.000000 0.621187 0.000000
O O14 0.500000 0.711357 0.000000
O O15 0.000000 0.115562 0.500000
O O16 0.000000 0.126004 0.000000
#
# Coordination Sequence:
#
# PCOD8060125 Si02
#       6
#     4   2   4   4   4   4
#     4   9  17  30  49  73  99 125 155 197 250 298
#     4   8  16  30  49  74 105 134 164 204 256 308
#     4  10  21  36  52  73 102 137 174 210 254 306
#     4  10  19  31  50  74  96 123 163 206 242 290
#     4  10  21  36  52  70 100 138 168 203 255 305
#     4  10  19  33  54  79 104 135 172 212 255 300
#
# _framework density 18.873491000000001
#
# number of rings (size 3 to 8) (size 9 to 14) (size 15 to 20)
#    0.000    2.364    0.000    2.727    0.000    4.364 
#    0.000    0.455    0.000    3.273    0.000   11.455 
#    0.000    0.000    0.000    0.000    0.000    0.000 
#
# Total GULP energy -272574.678255 kJ/mol
# GULP energy per Si atom -12389.758102 kJ/mol
# Density = 1.883053 g / cm^3
# Si number density = 18.873491 Si / 1000 Ang^3
#
#
#
# Elastic Constant Matrix: (Units=GPa)
#
#
# Indices 1 2 3 4 5 6 
#
# 1 35.5470 46.0027 31.5916 0.0000 4.2239 0.0000
# 2 46.0027 133.7227 40.3477 0.0000 -8.1978 0.0000
# 3 31.5916 40.3477 127.3931 0.0000 10.4461 0.0000
# 4 0.0000 0.0000 0.0000 15.9502 0.0000 7.9156
# 5 4.2239 -8.1978 10.4461 0.0000 17.0900 0.0000
# 6 0.0000 0.0000 0.0000 7.9156 0.0000 -4.1540
#
#
#
# Elastic Compliance Matrix: (Units=1/GPa)
#
#
# Indices 1 2 3 4 5 6 
#
# 1 0.065322 -0.021519 -0.007594 0.000000 -0.021825 0.000000
# 2 -0.021519 0.015955 -0.000822 0.000000 0.013474 0.000000
# 3 -0.007594 -0.000822 0.010392 0.000000 -0.004870 0.000000
# 4 0.000000 0.000000 0.000000 0.032223 0.000000 0.061402
# 5 -0.021825 0.013474 -0.004870 0.000000 0.073348 0.000000
# 6 0.000000 0.000000 0.000000 0.061402 0.000000 -0.123727
#
#
# Mechanical properties :
#
#
# Convention : Reuss Voigt Hill
#
# Bulk Modulus (GPa) = 31.44561 59.17189 45.30875
# Shear Modulus (GPa) = 34.72652 17.69196 26.20924
#
# Velocity S-wave (km/s) = 4.29413 3.06502 3.73054
# Velocity P-wave (km/s) = 6.42523 6.62915 6.52799
#
# Compressibility (1/GPa) = 0.03180094
#
# Stress axis : x y z
#
# Youngs Moduli (GPa) = 15.30874 62.67684 96.22337
#
# Poissons Ratio (x) = 1.34871 0.73072
# Poissons Ratio (y) = 0.32942 0.07907
# Poissons Ratio (z) = 0.11625 0.05151
#
# Static dielectric constant tensor:
#      x y z
#    x 3.125220 0.000000 0.230130 
#    y 0.000000 4.252150 0.000000 
#    z 0.230130 0.000000 3.799940 
# 
# 
# High freq. dielectric constant tensor:
#      x y z
#    x 1.686890 0.000000 0.021620 
#    y 0.000000 1.747810 0.000000 
#    z 0.021620 0.000000 1.755540 
# 
# From -- ./inp_files/5136.got.cif
#   From: 2010.06.25/outbox.cif.g09.slc.cpg/sg10_3_cif.got.tgz:5136.got - 2010.06.27 22:07:45.
