data_PCOD8060180
_publ_section_title
;
Structure prediction by ZEFSAII (Michael W. Deem and Ramdas Pophale) SiO2 
 PCOD8060180
Probable space group: P 2/M
;
_chemical_formula_sum "Si O2"
_cell_formula_units_Z 32
_cell_length_a 29.282663
_cell_length_b 9.211913
_cell_length_c 12.437425
_cell_angle_alpha 90.000000
_cell_angle_beta 30.157922
_cell_angle_gamma 90.000000
_cell_volume 1685.495557
_symmetry_space_group_name_H-M "P 2/M"
_symmetry_group_IT_number 10
_symmetry_cell_setting 'monoclinic'
loop_
_space_group_symop_operation_xyz
x,y,z
-x,y,-z
-x,-y,-z
x,-y,z
loop_
_atom_site_type_symbol
_atom_site_label
_atom_site_fract_x
_atom_site_fract_y
_atom_site_fract_z
Si Si1 0.209638 0.828923 0.956768
Si Si2 0.011037 0.163431 0.309098
Si Si3 0.651340 0.666340 0.480941
Si Si4 0.778753 0.335678 0.413538
Si Si5 0.487804 0.170189 0.900968
Si Si6 0.716238 0.829278 0.743483
Si Si7 0.816243 0.169926 0.751612
Si Si8 0.058312 0.836250 0.978794
O O1 0.283401 0.744887 0.736807
O O2 0.213782 0.000000 0.918234
O O3 0.107800 0.764222 0.143599
O O4 0.232909 0.800462 0.034844
O O5 0.919271 0.238639 0.543100
O O6 0.017351 0.000000 0.341044
O O7 0.997270 0.168407 0.209121
O O8 0.639196 0.500000 0.468432
O O9 0.687846 0.673959 0.528511
O O10 0.554825 0.746351 0.683331
O O11 0.804154 0.500000 0.390328
O O12 0.773735 0.247301 0.533744
O O13 0.855011 0.265703 0.181978
O O14 0.508324 0.000000 0.849649
O O15 0.500000 0.220449 0.000000
O O16 0.388794 0.211755 0.058124
O O17 0.752507 0.770157 0.785001
O O18 0.730948 0.000000 0.700983
O O19 0.829923 0.000000 0.703430
O O20 0.091398 0.000000 0.886868
O O21 0.000000 0.772826 0.000000
#
# Coordination Sequence:
#
# PCOD8060180 Si02
#       8
#     4   4   4   4   4   4   4   4
#     4  10  19  34  58  82 108 143 184 226 263 312
#     4   9  16  28  50  81 110 137 175 220 265 312
#     4  11  23  37  55  80 111 145 181 224 271 322
#     4  11  22  34  51  77 111 147 180 218 269 327
#     4  10  20  35  58  85 108 137 178 225 276 328
#     4  10  20  36  58  82 111 140 175 227 278 327
#     4   9  18  33  55  84 110 137 178 227 274 316
#     4  10  19  31  50  77 109 145 182 222 269 320
#
# _framework density 18.985514999999999
#
# number of rings (size 3 to 8) (size 9 to 14) (size 15 to 20)
#    0.000    2.000    2.500    1.875    0.000    5.500 
#    0.000    1.250    0.000    6.000    0.000    0.000 
#    0.000    0.000    0.000    0.000    0.000    0.000 
#
# Total GULP energy -396690.029598 kJ/mol
# GULP energy per Si atom -12396.563425 kJ/mol
# Density = 1.894230 g / cm^3
# Si number density = 18.985515 Si / 1000 Ang^3
#
#
#
# Elastic Constant Matrix: (Units=GPa)
#
#
# Indices 1 2 3 4 5 6 
#
# 1 80.9001 20.2861 44.5163 0.0000 9.3112 0.0000
# 2 20.2861 53.5263 43.0666 0.0000 -1.6353 0.0000
# 3 44.5163 43.0666 122.5078 0.0000 0.6174 0.0000
# 4 0.0000 0.0000 0.0000 1.3038 0.0000 -3.5358
# 5 9.3112 -1.6353 0.6174 0.0000 28.6462 0.0000
# 6 0.0000 0.0000 0.0000 -3.5358 0.0000 12.2548
#
#
#
# Elastic Compliance Matrix: (Units=1/GPa)
#
#
# Indices 1 2 3 4 5 6 
#
# 1 0.016359 -0.002233 -0.005132 0.000000 -0.005334 0.000000
# 2 -0.002233 0.026437 -0.008494 0.000000 0.002418 0.000000
# 3 -0.005132 -0.008494 0.013009 0.000000 0.000903 0.000000
# 4 0.000000 0.000000 0.000000 3.525826 0.000000 1.017272
# 5 -0.005334 0.002418 0.000903 0.000000 0.036761 0.000000
# 6 0.000000 0.000000 0.000000 1.017272 0.000000 0.375104
#
#
# Mechanical properties :
#
#
# Convention : Reuss Voigt Hill
#
# Bulk Modulus (GPa) = 41.51950 52.51915 47.01933
# Shear Modulus (GPa) = 1.23970 18.37864 9.80917
#
# Velocity S-wave (km/s) = 0.80894 3.11470 2.27549
# Velocity P-wave (km/s) = 4.77379 6.37636 5.63236
#
# Compressibility (1/GPa) = 0.02408507
#
# Stress axis : x y z
#
# Youngs Moduli (GPa) = 61.12799 37.82542 76.86778
#
# Poissons Ratio (x) = 0.08448 0.39452
# Poissons Ratio (y) = 0.13653 0.65295
# Poissons Ratio (z) = 0.31374 0.32130
#
# Static dielectric constant tensor:
#      x y z
#    x 3.557970 0.000000 -0.050100 
#    y 0.000000 3.149490 0.000000 
#    z -0.050100 0.000000 3.411860 
# 
# 
# High freq. dielectric constant tensor:
#      x y z
#    x 1.736940 0.000000 0.001960 
#    y 0.000000 1.696410 0.000000 
#    z 0.001960 0.000000 1.741340 
# 
# From -- ./inp_files/55329.got.cif
#   From: 2010.06.25/outbox.cif.g09.slc.cpg/sg10_28_cif.got.tgz:55329.got - 2010.06.27 22:07:45.
