data_PCOD8060774
_publ_section_title
;
Structure prediction by ZEFSAII (Michael W. Deem and Ramdas Pophale) SiO2 
 PCOD8060774
Probable space group: P 2/M
;
_chemical_formula_sum "Si O2"
_cell_formula_units_Z 28
_cell_length_a 14.975949
_cell_length_b 9.095320
_cell_length_c 20.299722
_cell_angle_alpha 90.000000
_cell_angle_beta 148.425237
_cell_angle_gamma 90.000000
_cell_volume 1447.807879
_symmetry_space_group_name_H-M "P 2/M"
_symmetry_group_IT_number 10
_symmetry_cell_setting 'monoclinic'
loop_
_space_group_symop_operation_xyz
x,y,z
-x,y,-z
-x,-y,-z
x,-y,z
loop_
_atom_site_type_symbol
_atom_site_label
_atom_site_fract_x
_atom_site_fract_y
_atom_site_fract_z
Si Si1 0.630788 0.326654 0.728801
Si Si2 0.182041 0.667861 0.923552
Si Si3 0.130999 0.172722 0.224057
Si Si4 0.688589 0.673411 0.133680
Si Si5 0.482530 0.669023 0.205431
Si Si6 0.349927 0.659344 0.456991
Si Si7 0.822675 0.324139 0.357930
O O1 0.672896 0.500000 0.750239
O O2 0.780220 0.243437 0.783896
O O3 0.618131 0.262807 0.795127
O O4 0.441483 0.290470 0.581615
O O5 0.120542 0.500000 0.894730
O O6 0.187046 0.710936 0.849624
O O7 0.062523 0.773311 0.891696
O O8 0.373259 0.688510 0.070722
O O9 0.218511 0.219961 0.348107
O O10 0.139602 0.000000 0.221446
O O11 0.665600 0.500000 0.127448
O O12 0.781474 0.735764 0.257998
O O13 0.500000 0.741231 0.000000
O O14 0.507892 0.500000 0.240344
O O15 0.670115 0.735056 0.309207
O O16 0.500000 0.638180 0.500000
O O17 0.256990 0.500000 0.407343
O O18 0.827092 0.500000 0.359059
O O19 0.000000 0.262578 0.500000
#
# Coordination Sequence:
#
# PCOD8060774 Si02
#       7
#     4   4   4   4   4   4   4
#     4   9  18  33  53  75 104 138 173 213 261 315
#     4  10  19  32  53  76 103 139 178 214 257 314
#     4  11  22  34  49  73 105 137 178 223 261 306
#     4   9  15  27  48  74 103 134 168 210 262 314
#     4   9  17  30  49  75 105 138 172 210 259 318
#     4   8  15  30  51  72  96 128 167 211 260 312
#     4   9  16  26  44  76 112 136 163 213 269 315
#
# _framework density 19.339583000000001
#
# number of rings (size 3 to 8) (size 9 to 14) (size 15 to 20)
#    0.000    2.714    1.429    2.143    0.000    4.286 
#    0.000    7.857    0.000    0.429    0.000    0.000 
#    0.000    2.857    0.000    0.000    0.000    0.000 
#
# Total GULP energy -346939.368815 kJ/mol
# GULP energy per Si atom -12390.691743 kJ/mol
# Density = 1.929556 g / cm^3
# Si number density = 19.339583 Si / 1000 Ang^3
#
#
#
# Elastic Constant Matrix: (Units=GPa)
#
#
# Indices 1 2 3 4 5 6 
#
# 1 134.0699 36.5820 63.0825 0.0000 -2.5867 0.0000
# 2 36.5820 56.3847 23.2450 0.0000 6.9401 0.0000
# 3 63.0825 23.2450 105.8884 0.0000 1.5576 0.0000
# 4 0.0000 0.0000 0.0000 3.3649 0.0000 -3.4762
# 5 -2.5867 6.9401 1.5576 0.0000 34.9020 0.0000
# 6 0.0000 0.0000 0.0000 -3.4762 0.0000 7.0913
#
#
#
# Elastic Compliance Matrix: (Units=1/GPa)
#
#
# Indices 1 2 3 4 5 6 
#
# 1 0.011738 -0.005489 -0.005821 0.000000 0.002221 0.000000
# 2 -0.005489 0.022554 -0.001610 0.000000 -0.004820 0.000000
# 3 -0.005821 -0.001610 0.013275 0.000000 -0.000704 0.000000
# 4 0.000000 0.000000 0.000000 0.602127 0.000000 0.295170
# 5 0.002221 -0.004820 -0.000704 0.000000 0.029806 0.000000
# 6 0.000000 0.000000 0.000000 0.295170 0.000000 0.285714
#
#
# Mechanical properties :
#
#
# Convention : Reuss Voigt Hill
#
# Bulk Modulus (GPa) = 46.02495 60.24023 53.13259
# Shear Modulus (GPa) = 5.00853 20.63386 12.82120
#
# Velocity S-wave (km/s) = 1.61103 3.26992 2.57758
# Velocity P-wave (km/s) = 5.22595 6.74335 6.03255
#
# Compressibility (1/GPa) = 0.02172735
#
# Stress axis : x y z
#
# Youngs Moduli (GPa) = 85.19207 44.33854 75.32826
#
# Poissons Ratio (x) = 0.24340 0.43845
# Poissons Ratio (y) = 0.46766 0.12127
# Poissons Ratio (z) = 0.49587 0.07138
#
# Static dielectric constant tensor:
#      x y z
#    x 3.705940 0.000000 -0.351260 
#    y 0.000000 2.872200 0.000000 
#    z -0.351260 0.000000 4.025990 
# 
# 
# High freq. dielectric constant tensor:
#      x y z
#    x 1.757880 0.000000 -0.005420 
#    y 0.000000 1.677510 0.000000 
#    z -0.005420 0.000000 1.755870 
# 
# From -- ./inp_files/84980.got.cif
#   From: 2010.06.25/outbox.cif.g09.slc.cpg/sg10_43_cif.got.tgz:84980.got - 2010.06.27 22:07:45.
