data_PCOD8060215
_publ_section_title
;
Structure prediction by ZEFSAII (Michael W. Deem and Ramdas Pophale) SiO2 
 PCOD8060215
Probable space group: P 2/M
;
_chemical_formula_sum "Si O2"
_cell_formula_units_Z 28
_cell_length_a 31.364349
_cell_length_b 8.734811
_cell_length_c 31.364132
_cell_angle_alpha 90.000000
_cell_angle_beta 9.512043
_cell_angle_gamma 90.000000
_cell_volume 1419.964327
_symmetry_space_group_name_H-M "P 2/M"
_symmetry_group_IT_number 10
_symmetry_cell_setting 'monoclinic'
loop_
_space_group_symop_operation_xyz
x,y,z
-x,y,-z
-x,-y,-z
x,-y,z
loop_
_atom_site_type_symbol
_atom_site_label
_atom_site_fract_x
_atom_site_fract_y
_atom_site_fract_z
Si Si1 0.333891 0.817236 0.833584
Si Si2 0.763269 0.321356 0.263269
Si Si3 0.954141 0.318954 0.453711
Si Si4 0.618668 0.818802 0.117737
Si Si5 0.190329 0.818782 0.690650
Si Si6 0.474912 0.823937 0.974470
Si Si7 0.906704 0.818114 0.407785
O O1 0.357827 0.750924 0.857828
O O2 0.571139 0.752730 0.571816
O O3 0.334128 0.000000 0.833873
O O4 0.072231 0.752731 0.070684
O O5 0.500000 0.272158 0.500000
O O6 0.768669 0.500000 0.268583
O O7 0.785058 0.229168 0.285085
O O8 0.000000 0.272136 0.000000
O O9 0.955438 0.500000 0.454766
O O10 0.716702 0.256532 0.714738
O O11 0.929701 0.265893 0.429591
O O12 0.215239 0.256427 0.216137
O O13 0.354926 0.761291 0.356561
O O14 0.619727 0.000000 0.119375
O O15 0.858205 0.761444 0.853440
O O16 0.189154 0.000000 0.689505
O O17 0.467572 0.000000 0.966877
O O18 0.500000 0.809608 0.000000
O O19 0.910285 0.000000 0.411496
#
# Coordination Sequence:
#
# PCOD8060215 Si02
#       7
#     4   4   4   4   4   4   4
#     4   9  17  30  49  77 107 132 167 217 269 312
#     4  10  21  36  52  70  96 131 168 207 251 304
#     4  12  25  40  61  90 125 160 193 240 300 353
#     4   9  17  30  52  79 105 138 181 226 268 317
#     4  10  19  31  51  76 102 131 164 211 265 315
#     4  11  24  43  66  90 118 155 200 247 291 344
#     4  10  19  33  55  80 107 145 191 231 268 321
#
# _framework density 19.718803000000001
#
# number of rings (size 3 to 8) (size 9 to 14) (size 15 to 20)
#    0.000    1.857    0.000    4.714    0.000    8.000 
#    0.000    0.000    0.000    5.143    0.000    0.000 
#    0.000    0.000    0.000    0.000    0.000    0.000 
#
# Total GULP energy -347305.984009 kJ/mol
# GULP energy per Si atom -12403.785143 kJ/mol
# Density = 1.967392 g / cm^3
# Si number density = 19.718803 Si / 1000 Ang^3
#
#
#
# Elastic Constant Matrix: (Units=GPa)
#
#
# Indices 1 2 3 4 5 6 
#
# 1 146.4561 43.2538 89.5164 0.0000 -3.0823 0.0000
# 2 43.2538 64.1669 47.2889 0.0000 -0.3204 0.0000
# 3 89.5164 47.2889 215.8968 0.0000 -3.3541 0.0000
# 4 0.0000 0.0000 0.0000 53.5528 0.0000 -6.1594
# 5 -3.0823 -0.3204 -3.3541 0.0000 45.2253 0.0000
# 6 0.0000 0.0000 0.0000 -6.1594 0.0000 -18.3430
#
#
#
# Elastic Compliance Matrix: (Units=1/GPa)
#
#
# Indices 1 2 3 4 5 6 
#
# 1 0.010114 -0.004448 -0.003213 0.000000 0.000420 0.000000
# 2 -0.004448 0.020542 -0.002661 0.000000 -0.000355 0.000000
# 3 -0.003213 -0.002661 0.006551 0.000000 0.000248 0.000000
# 4 0.000000 0.000000 0.000000 0.017979 0.000000 -0.006037
# 5 0.000420 -0.000355 0.000248 0.000000 0.022156 0.000000
# 6 0.000000 0.000000 0.000000 -0.006037 0.000000 -0.052490
#
#
# Mechanical properties :
#
#
# Convention : Reuss Voigt Hill
#
# Bulk Modulus (GPa) = 60.37324 87.40421 73.88872
# Shear Modulus (GPa) = 98.00917 32.51774 65.26345
#
# Velocity S-wave (km/s) = 7.05771 4.06528 5.75925
# Velocity P-wave (km/s) = 9.85386 8.15211 9.04311
#
# Compressibility (1/GPa) = 0.01656363
#
# Stress axis : x y z
#
# Youngs Moduli (GPa) = 98.87107 48.68162 152.65816
#
# Poissons Ratio (x) = 0.21653 0.49046
# Poissons Ratio (y) = 0.43977 0.40616
# Poissons Ratio (z) = 0.31766 0.12952
#
# Static dielectric constant tensor:
#      x y z
#    x 3.755720 0.000000 -0.012510 
#    y 0.000000 3.261260 0.000000 
#    z -0.012510 0.000000 3.906900 
# 
# 
# High freq. dielectric constant tensor:
#      x y z
#    x 1.788920 0.000000 -0.000430 
#    y 0.000000 1.732550 0.000000 
#    z -0.000430 0.000000 1.793680 
# 
# From -- ./inp_files/95987.got.cif
#   From: 2010.06.25/outbox.cif.g09.slc.cpg/sg10_48_cif.got.tgz:95987.got - 2010.06.27 22:07:45.
