data_PCOD8060199
_publ_section_title
;
Structure prediction by ZEFSAII (Michael W. Deem and Ramdas Pophale) SiO2 
 PCOD8060199
Probable space group: P 2/M
;
_chemical_formula_sum "Si O2"
_cell_formula_units_Z 32
_cell_length_a 12.469741
_cell_length_b 8.795966
_cell_length_c 31.691027
_cell_angle_alpha 90.000000
_cell_angle_beta 152.533964
_cell_angle_gamma 90.000000
_cell_volume 1603.201046
_symmetry_space_group_name_H-M "P 2/M"
_symmetry_group_IT_number 10
_symmetry_cell_setting 'monoclinic'
loop_
_space_group_symop_operation_xyz
x,y,z
-x,y,-z
-x,-y,-z
x,-y,z
loop_
_atom_site_type_symbol
_atom_site_label
_atom_site_fract_x
_atom_site_fract_y
_atom_site_fract_z
Si Si1 0.628407 0.823094 0.668958
Si Si2 0.997427 0.678547 0.251398
Si Si3 0.090926 0.177668 0.485806
Si Si4 0.700374 0.321700 0.298883
Si Si5 0.806072 0.824711 0.016457
Si Si6 0.760968 0.663319 0.084268
Si Si7 0.638285 0.819331 0.187463
Si Si8 0.699336 0.179746 0.788886
O O1 0.742233 0.736526 0.668493
O O2 0.359229 0.777731 0.575898
O O3 0.742305 0.777449 0.754330
O O4 0.661858 0.000000 0.672345
O O5 0.999087 0.500000 0.260659
O O6 0.857189 0.730061 0.161249
O O7 0.873249 0.757286 0.247751
O O8 0.000000 0.224843 0.500000
O O9 0.956037 0.274006 0.403427
O O10 0.046850 0.000000 0.462119
O O11 0.692158 0.500000 0.287009
O O12 0.634036 0.230836 0.233979
O O13 0.518001 0.275792 0.271236
O O14 0.771256 0.793956 0.053344
O O15 0.076353 0.774905 0.103503
O O16 0.785705 0.000000 0.999832
O O17 0.600606 0.748308 0.916800
O O18 0.883931 0.500000 0.114757
O O19 0.500000 0.619419 0.000000
O O20 0.641802 0.000000 0.185311
O O21 0.642362 0.000000 0.772129
#
# Coordination Sequence:
#
# PCOD8060199 Si02
#       8
#     4   4   4   4   4   4   4   4
#     4  10  20  36  63  95 125 156 194 245 302 356
#     4  11  22  36  57  88 127 164 200 247 301 354
#     4  10  20  40  68  95 121 154 194 244 303 360
#     4  12  26  42  62  89 121 158 200 249 305 364
#     4  10  21  35  58  88 117 156 207 255 291 339
#     4  10  19  31  50  80 120 160 195 240 297 351
#     4  11  24  42  62  84 117 166 214 251 293 352
#     4  10  20  38  61  89 124 158 198 248 299 355
#
# _framework density 19.960066000000001
#
# number of rings (size 3 to 8) (size 9 to 14) (size 15 to 20)
#    0.000    1.500    3.750    1.875    0.000    3.500 
#    0.000    3.125    0.000    3.750    0.000    0.000 
#    0.000    0.000    0.000    0.000    0.000    0.000 
#
# Total GULP energy -396606.005464 kJ/mol
# GULP energy per Si atom -12393.937671 kJ/mol
# Density = 1.991464 g / cm^3
# Si number density = 19.960066 Si / 1000 Ang^3
#
#
#
# Elastic Constant Matrix: (Units=GPa)
#
#
# Indices 1 2 3 4 5 6 
#
# 1 62.2708 23.4223 24.2934 0.0000 7.8641 0.0000
# 2 23.4223 53.6664 33.3261 0.0000 8.4856 0.0000
# 3 24.2934 33.3261 92.5165 0.0000 11.0213 0.0000
# 4 0.0000 0.0000 0.0000 23.1122 0.0000 -0.6251
# 5 7.8641 8.4856 11.0213 0.0000 29.5602 0.0000
# 6 0.0000 0.0000 0.0000 -0.6251 0.0000 26.1769
#
#
#
# Elastic Compliance Matrix: (Units=1/GPa)
#
#
# Indices 1 2 3 4 5 6 
#
# 1 0.019875 -0.006737 -0.002504 0.000000 -0.002420 0.000000
# 2 -0.006737 0.026710 -0.007485 0.000000 -0.003084 0.000000
# 3 -0.002504 -0.007485 0.014470 0.000000 -0.002580 0.000000
# 4 0.000000 0.000000 0.000000 0.043295 0.000000 0.001034
# 5 -0.002420 -0.003084 -0.002580 0.000000 0.036321 0.000000
# 6 0.000000 0.000000 0.000000 0.001034 0.000000 0.038226
#
#
# Mechanical properties :
#
#
# Convention : Reuss Voigt Hill
#
# Bulk Modulus (GPa) = 36.22717 41.17081 38.69899
# Shear Modulus (GPa) = 22.56834 24.26398 23.41616
#
# Velocity S-wave (km/s) = 3.36620 3.49037 3.42884
# Velocity P-wave (km/s) = 5.77041 6.07576 5.92505
#
# Compressibility (1/GPa) = 0.02760359
#
# Stress axis : x y z
#
# Youngs Moduli (GPa) = 50.31350 37.43978 69.10890
#
# Poissons Ratio (x) = 0.25223 0.17304
# Poissons Ratio (y) = 0.33896 0.51727
# Poissons Ratio (z) = 0.12598 0.28023
#
# Static dielectric constant tensor:
#      x y z
#    x 3.485040 0.000000 0.176980 
#    y 0.000000 3.522570 0.000000 
#    z 0.176980 0.000000 3.868710 
# 
# 
# High freq. dielectric constant tensor:
#      x y z
#    x 1.766310 0.000000 0.015290 
#    y 0.000000 1.769930 0.000000 
#    z 0.015290 0.000000 1.783250 
# 
# From -- ./inp_files/95025.got.cif
#   From: 2010.06.25/outbox.cif.g09.slc.cpg/sg10_48_cif.got.tgz:95025.got - 2010.06.27 22:07:45.
