data_PCOD8060941
_publ_section_title
;
Structure prediction by ZEFSAII (Michael W. Deem and Ramdas Pophale) SiO2 
 PCOD8060941
Probable space group: P 2/M
;
_chemical_formula_sum "Si O2"
_cell_formula_units_Z 28
_cell_length_a 14.321901
_cell_length_b 9.007152
_cell_length_c 13.182595
_cell_angle_alpha 90.000000
_cell_angle_beta 121.876180
_cell_angle_gamma 90.000000
_cell_volume 1444.091155
_symmetry_space_group_name_H-M "P 2/M"
_symmetry_group_IT_number 10
_symmetry_cell_setting 'monoclinic'
loop_
_space_group_symop_operation_xyz
x,y,z
-x,y,-z
-x,-y,-z
x,-y,z
loop_
_atom_site_type_symbol
_atom_site_label
_atom_site_fract_x
_atom_site_fract_y
_atom_site_fract_z
Si Si1 0.050352 0.174232 0.812703
Si Si2 0.187719 0.671560 0.060170
Si Si3 0.604318 0.323766 0.498722
Si Si4 0.616343 0.172221 0.923445
Si Si5 0.599811 0.675042 0.264066
Si Si6 0.166118 0.328853 0.283157
Si Si7 0.252989 0.830779 0.797332
O O1 0.129807 0.209206 0.763075
O O2 0.929798 0.235603 0.716915
O O3 0.047417 0.000000 0.833288
O O4 0.094503 0.252836 0.939085
O O5 0.197506 0.500000 0.034909
O O6 0.306119 0.747225 0.113706
O O7 0.153034 0.690871 0.155955
O O8 0.500000 0.257081 0.500000
O O9 0.601914 0.500000 0.505322
O O10 0.599013 0.270950 0.379644
O O11 0.716876 0.264091 0.613127
O O12 0.496705 0.243850 0.851915
O O13 0.609471 0.000000 0.890898
O O14 0.663897 0.196033 0.062402
O O15 0.584752 0.500000 0.247074
O O16 0.714094 0.724009 0.276827
O O17 0.153922 0.500000 0.308627
O O18 0.259500 0.000000 0.763363
#
# Coordination Sequence:
#
# PCOD8060941 Si02
#       7
#     4   4   4   4   4   4   4
#     4  10  21  36  54  78 110 144 175 214 267 321
#     4  10  19  32  54  83 110 139 178 220 263 313
#     4   9  19  37  57  78 107 139 172 215 265 313
#     4  10  20  34  53  78 111 147 176 211 266 323
#     4  11  21  33  55  82 104 136 181 224 266 311
#     4  10  20  35  56  79 106 142 180 220 265 312
#     4   9  20  37  53  73 106 144 175 211 266 322
#
# _framework density 19.389357
#
# number of rings (size 3 to 8) (size 9 to 14) (size 15 to 20)
#    0.000    2.143    0.000    4.286    0.000   10.286 
#    0.000    2.143    0.000    7.286    0.000    0.000 
#    0.000    0.000    0.000    0.000    0.000    0.000 
#
# Total GULP energy -347279.090093 kJ/mol
# GULP energy per Si atom -12402.824646 kJ/mol
# Density = 1.934523 g / cm^3
# Si number density = 19.389357 Si / 1000 Ang^3
#
#
#
# Elastic Constant Matrix: (Units=GPa)
#
#
# Indices 1 2 3 4 5 6 
#
# 1 154.7628 63.6713 63.8521 0.0000 11.6344 0.0000
# 2 63.6713 93.0381 35.3669 0.0000 0.1904 0.0000
# 3 63.8521 35.3669 69.3744 0.0000 12.3515 0.0000
# 4 0.0000 0.0000 0.0000 6.4321 0.0000 7.8187
# 5 11.6344 0.1904 12.3515 0.0000 31.0459 0.0000
# 6 0.0000 0.0000 0.0000 7.8187 0.0000 34.9503
#
#
#
# Elastic Compliance Matrix: (Units=1/GPa)
#
#
# Indices 1 2 3 4 5 6 
#
# 1 0.012076 -0.005107 -0.008299 0.000000 -0.001193 0.000000
# 2 -0.005107 0.015726 -0.003917 0.000000 0.003376 0.000000
# 3 -0.008299 -0.003917 0.025283 0.000000 -0.006925 0.000000
# 4 0.000000 0.000000 0.000000 0.213538 0.000000 -0.047770
# 5 -0.001193 0.003376 -0.006925 0.000000 0.035391 0.000000
# 6 0.000000 0.000000 0.000000 -0.047770 0.000000 0.039299
#
#
# Mechanical properties :
#
#
# Convention : Reuss Voigt Hill
#
# Bulk Modulus (GPa) = 54.23663 71.43954 62.83809
# Shear Modulus (GPa) = 13.08537 24.77134 18.92836
#
# Velocity S-wave (km/s) = 2.60065 3.57819 3.12785
# Velocity P-wave (km/s) = 6.08695 7.34820 6.74711
#
# Compressibility (1/GPa) = 0.01843772
#
# Stress axis : x y z
#
# Youngs Moduli (GPa) = 82.80590 63.59019 39.55261
#
# Poissons Ratio (x) = 0.32478 0.32825
# Poissons Ratio (y) = 0.42292 0.15493
# Poissons Ratio (z) = 0.68721 0.24909
#
# Static dielectric constant tensor:
#      x y z
#    x 3.741180 0.000000 0.111600 
#    y 0.000000 3.437420 0.000000 
#    z 0.111600 0.000000 3.354080 
# 
# 
# High freq. dielectric constant tensor:
#      x y z
#    x 1.769690 0.000000 0.007760 
#    y 0.000000 1.745410 0.000000 
#    z 0.007760 0.000000 1.732970 
# 
# From -- ./inp_files/49462.got.cif
#   From: 2010.06.25/outbox.cif.g09.slc.cpg/sg10_25_cif.got.tgz:49462.got - 2010.06.27 22:07:45.
