data_PCOD8060061
_publ_section_title
;
Structure prediction by ZEFSAII (Michael W. Deem and Ramdas Pophale) SiO2 
 PCOD8060061
Probable space group: P 2/M
;
_chemical_formula_sum "Si O2"
_cell_formula_units_Z 24
_cell_length_a 11.368986
_cell_length_b 8.553072
_cell_length_c 26.483426
_cell_angle_alpha 90.000000
_cell_angle_beta 30.477180
_cell_angle_gamma 90.000000
_cell_volume 1306.150189
_symmetry_space_group_name_H-M "P 2/M"
_symmetry_group_IT_number 10
_symmetry_cell_setting 'monoclinic'
loop_
_space_group_symop_operation_xyz
x,y,z
-x,y,-z
-x,-y,-z
x,-y,z
loop_
_atom_site_type_symbol
_atom_site_label
_atom_site_fract_x
_atom_site_fract_y
_atom_site_fract_z
Si Si1 0.959692 0.182595 0.591499
Si Si2 0.660007 0.318025 0.614905
Si Si3 0.212912 0.178226 0.744172
Si Si4 0.165013 0.671511 0.257654
Si Si5 0.668129 0.327603 0.396222
Si Si6 0.723247 0.185294 0.886883
O O1 0.769129 0.218582 0.619617
O O2 0.844170 0.230741 0.687371
O O3 0.201530 0.272333 0.488212
O O4 0.015231 0.000000 0.572008
O O5 0.694323 0.500000 0.613244
O O6 0.383435 0.278929 0.716848
O O7 0.329795 0.193165 0.646181
O O8 0.950824 0.246748 0.833984
O O9 0.210216 0.000000 0.763957
O O10 0.276463 0.500000 0.226893
O O11 0.304030 0.755310 0.160585
O O12 0.909938 0.647643 0.332796
O O13 0.500000 0.258957 0.500000
O O14 0.587346 0.500000 0.404913
O O15 0.741197 0.000000 0.877857
O O16 0.500000 0.244450 0.000000
#
# Coordination Sequence:
#
# PCOD8060061 Si02
#       6
#     4   4   4   4   4   4
#     4  11  21  34  52  75 104 138 176 210 244 292
#     4  11  21  34  51  73 105 141 174 207 248 295
#     4  10  19  31  49  73  99 129 168 209 250 299
#     4  10  19  31  49  75 104 133 167 207 254 304
#     4   9  17  28  43  65  96 131 162 196 242 296
#     4   9  19  36  56  77 102 133 169 212 262 310
#
# _framework density 18.374610000000001
#
# number of rings (size 3 to 8) (size 9 to 14) (size 15 to 20)
#    0.000    2.000    0.000    6.000    0.000    3.333 
#    0.000    0.000    0.000    1.000    0.000    7.000 
#    0.000    0.000    0.000    0.000    0.000    0.000 
#
# Total GULP energy -297362.853570 kJ/mol
# GULP energy per Si atom -12390.118899 kJ/mol
# Density = 1.833279 g / cm^3
# Si number density = 18.374610 Si / 1000 Ang^3
#
#
#
# Elastic Constant Matrix: (Units=GPa)
#
#
# Indices 1 2 3 4 5 6 
#
# 1 57.1814 14.5646 26.2455 0.0000 -0.5101 0.0000
# 2 14.5646 71.3182 20.5473 0.0000 1.1231 0.0000
# 3 26.2455 20.5473 90.2802 0.0000 4.7204 0.0000
# 4 0.0000 0.0000 0.0000 21.8495 0.0000 4.2949
# 5 -0.5101 1.1231 4.7204 0.0000 28.2652 0.0000
# 6 0.0000 0.0000 0.0000 4.2949 0.0000 29.5424
#
#
#
# Elastic Compliance Matrix: (Units=1/GPa)
#
#
# Indices 1 2 3 4 5 6 
#
# 1 0.020697 -0.002669 -0.005482 0.000000 0.001395 0.000000
# 2 -0.002669 0.015350 -0.002707 0.000000 -0.000206 0.000000
# 3 -0.005482 -0.002707 0.013403 0.000000 -0.002230 0.000000
# 4 0.000000 0.000000 0.000000 0.047114 0.000000 -0.006850
# 5 0.001395 -0.000206 -0.002230 0.000000 0.035785 0.000000
# 6 0.000000 0.000000 0.000000 -0.006850 0.000000 0.034845
#
#
# Mechanical properties :
#
#
# Convention : Reuss Voigt Hill
#
# Bulk Modulus (GPa) = 36.05791 37.94385 37.00088
# Shear Modulus (GPa) = 25.23278 26.42625 25.82952
#
# Velocity S-wave (km/s) = 3.70975 3.79647 3.75336
# Velocity P-wave (km/s) = 6.16571 6.31764 6.24214
#
# Compressibility (1/GPa) = 0.02773317
#
# Stress axis : x y z
#
# Youngs Moduli (GPa) = 48.31669 65.14718 74.61006
#
# Poissons Ratio (x) = 0.17389 0.40903
# Poissons Ratio (y) = 0.12897 0.20196
# Poissons Ratio (z) = 0.26488 0.17634
#
# Static dielectric constant tensor:
#      x y z
#    x 3.288160 0.000000 -0.170960 
#    y 0.000000 3.454790 0.000000 
#    z -0.170960 0.000000 3.291360 
# 
# 
# High freq. dielectric constant tensor:
#      x y z
#    x 1.703950 0.000000 -0.005270 
#    y 0.000000 1.718370 0.000000 
#    z -0.005270 0.000000 1.684720 
# 
# From -- ./inp_files/52867.got.cif
#   From: 2010.06.25/outbox.cif.g09.slc.cpg/sg10_27_cif.got.tgz:52867.got - 2010.06.27 22:07:45.
