data_PCOD8060153
_publ_section_title
;
Structure prediction by ZEFSAII (Michael W. Deem and Ramdas Pophale) SiO2 
 PCOD8060153
Probable space group: P 2/M
;
_chemical_formula_sum "Si O2"
_cell_formula_units_Z 32
_cell_length_a 23.270936
_cell_length_b 9.133204
_cell_length_c 28.789364
_cell_angle_alpha 90.000000
_cell_angle_beta 16.861915
_cell_angle_gamma 90.000000
_cell_volume 1774.868155
_symmetry_space_group_name_H-M "P 2/M"
_symmetry_group_IT_number 10
_symmetry_cell_setting 'monoclinic'
loop_
_space_group_symop_operation_xyz
x,y,z
-x,y,-z
-x,-y,-z
x,-y,z
loop_
_atom_site_type_symbol
_atom_site_label
_atom_site_fract_x
_atom_site_fract_y
_atom_site_fract_z
Si Si1 0.162493 0.829402 0.336399
Si Si2 0.696752 0.670135 0.171377
Si Si3 0.973965 0.829647 0.131144
Si Si4 0.546216 0.665710 0.018327
Si Si5 0.928521 0.828532 0.699551
Si Si6 0.234837 0.831436 0.613160
Si Si7 0.312539 0.830396 0.728886
Si Si8 0.760939 0.329178 0.482082
O O1 0.367024 0.740625 0.185643
O O2 0.080668 0.797213 0.348271
O O3 0.000000 0.777348 0.500000
O O4 0.211633 0.000000 0.305006
O O5 0.737402 0.500000 0.144135
O O6 0.765878 0.742363 0.166100
O O7 0.470697 0.705236 0.333774
O O8 0.826553 0.738206 0.029959
O O9 0.906198 0.793170 0.235246
O O10 0.804876 0.778710 0.225827
O O11 0.019976 0.000000 0.089124
O O12 0.574624 0.500000 0.014740
O O13 0.500000 0.666477 0.000000
O O14 0.748346 0.756812 0.868147
O O15 0.131664 0.756501 0.559614
O O16 0.926190 0.000000 0.712012
O O17 0.457203 0.796243 0.457723
O O18 0.165207 0.729896 0.624725
O O19 0.216351 0.000000 0.611888
O O20 0.275262 0.000000 0.768269
O O21 0.809709 0.500000 0.448082
#
# Coordination Sequence:
#
# PCOD8060153 Si02
#       8
#     4   4   4   4   4   4   4   4
#     4   9  18  33  53  80 112 139 165 204 250 291
#     4  10  21  34  48  69  99 134 168 205 250 301
#     4  10  19  31  50  75  99 125 160 205 256 306
#     4   9  17  30  50  77 107 137 168 201 239 286
#     4  10  19  33  56  79  99 131 172 208 245 292
#     4   9  18  33  52  73  97 126 163 207 252 299
#     4   9  17  31  51  73  97 126 162 205 253 304
#     4  10  21  37  53  70  96 131 171 209 247 294
#
# _framework density 18.029508
#
# number of rings (size 3 to 8) (size 9 to 14) (size 15 to 20)
#    0.000    2.500    0.000    2.250    0.000    7.750 
#    0.000    1.250    0.000    8.250    0.000    0.000 
#    0.000    0.000    0.000    0.000    0.000    0.000 
#
# Total GULP energy -396864.781231 kJ/mol
# GULP energy per Si atom -12402.024413 kJ/mol
# Density = 1.798847 g / cm^3
# Si number density = 18.029508 Si / 1000 Ang^3
#
#
#
# Elastic Constant Matrix: (Units=GPa)
#
#
# Indices 1 2 3 4 5 6 
#
# 1 69.7157 45.0093 46.7028 0.0000 -0.9875 0.0000
# 2 45.0093 90.8367 57.0370 0.0000 1.1031 0.0000
# 3 46.7028 57.0370 98.5126 0.0000 16.1215 0.0000
# 4 0.0000 0.0000 0.0000 32.3305 0.0000 -3.8889
# 5 -0.9875 1.1031 16.1215 0.0000 26.5269 0.0000
# 6 0.0000 0.0000 0.0000 -3.8889 0.0000 16.5542
#
#
#
# Elastic Compliance Matrix: (Units=1/GPa)
#
#
# Indices 1 2 3 4 5 6 
#
# 1 0.024773 -0.006757 -0.008916 0.000000 0.006622 0.000000
# 2 -0.006757 0.020032 -0.009125 0.000000 0.004461 0.000000
# 3 -0.008916 -0.009125 0.021824 0.000000 -0.013216 0.000000
# 4 0.000000 0.000000 0.000000 0.031830 0.000000 0.007477
# 5 0.006622 0.004461 -0.013216 0.000000 0.045790 0.000000
# 6 0.000000 0.000000 0.000000 0.007477 0.000000 0.062164
#
#
# Mechanical properties :
#
#
# Convention : Reuss Voigt Hill
#
# Bulk Modulus (GPa) = 58.70852 61.84035 60.27443
# Shear Modulus (GPa) = 19.10681 22.43673 20.77177
#
# Velocity S-wave (km/s) = 3.25892 3.53150 3.39794
# Velocity P-wave (km/s) = 6.84060 7.14161 6.99273
#
# Compressibility (1/GPa) = 0.01703330
#
# Stress axis : x y z
#
# Youngs Moduli (GPa) = 40.36672 49.91917 45.82169
#
# Poissons Ratio (x) = 0.33731 0.40853
# Poissons Ratio (y) = 0.27276 0.41813
# Poissons Ratio (z) = 0.35990 0.45552
#
# Static dielectric constant tensor:
#      x y z
#    x 3.158100 0.000000 0.041830 
#    y 0.000000 3.375410 0.000000 
#    z 0.041830 0.000000 3.420290 
# 
# 
# High freq. dielectric constant tensor:
#      x y z
#    x 1.675540 0.000000 0.000950 
#    y 0.000000 1.701250 0.000000 
#    z 0.000950 0.000000 1.701620 
# 
# From -- ./inp_files/91744.got.cif
#   From: 2010.06.25/outbox.cif.g09.slc.cpg/sg10_46_cif.got.tgz:91744.got - 2010.06.27 22:07:45.
