data_PCOD8060167
_publ_section_title
;
Structure prediction by ZEFSAII (Michael W. Deem and Ramdas Pophale) SiO2 
 PCOD8060167
Probable space group: P 2/M
;
_chemical_formula_sum "Si O2"
_cell_formula_units_Z 28
_cell_length_a 19.435554
_cell_length_b 9.316980
_cell_length_c 14.241929
_cell_angle_alpha 90.000000
_cell_angle_beta 147.523825
_cell_angle_gamma 90.000000
_cell_volume 1384.757825
_symmetry_space_group_name_H-M "P 2/M"
_symmetry_group_IT_number 10
_symmetry_cell_setting 'monoclinic'
loop_
_space_group_symop_operation_xyz
x,y,z
-x,y,-z
-x,-y,-z
x,-y,z
loop_
_atom_site_type_symbol
_atom_site_label
_atom_site_fract_x
_atom_site_fract_y
_atom_site_fract_z
Si Si1 0.993776 0.163981 0.387807
Si Si2 0.384093 0.158947 0.937920
Si Si3 0.459481 0.829644 0.232867
Si Si4 0.035195 0.165571 0.148432
Si Si5 0.708017 0.334892 0.508633
Si Si6 0.777734 0.662473 0.384024
Si Si7 0.190408 0.164600 0.981872
O O1 0.000000 0.226604 0.500000
O O2 0.092434 0.254766 0.438678
O O3 0.039797 0.000000 0.439844
O O4 0.855270 0.181546 0.179583
O O5 0.280742 0.267184 0.776570
O O6 0.321328 0.000000 0.874995
O O7 0.500000 0.152407 0.000000
O O8 0.432278 0.212630 0.093945
O O9 0.585656 0.745785 0.413547
O O10 0.336490 0.775782 0.153479
O O11 0.482615 0.000000 0.269923
O O12 0.161884 0.258434 0.310232
O O13 0.061040 0.000000 0.209333
O O14 0.913922 0.233322 0.067066
O O15 0.000000 0.174517 0.000000
O O16 0.711407 0.500000 0.546685
O O17 0.689098 0.327257 0.374085
O O18 0.809693 0.500000 0.394698
O O19 0.198431 0.000000 0.020351
#
# Coordination Sequence:
#
# PCOD8060167 Si02
#       7
#     4   4   4   4   4   4   4
#     4  10  19  33  55  79 109 149 192 235 281 333
#     4  10  19  31  50  76 108 151 200 239 273 323
#     4  10  20  36  58  83 114 153 193 236 285 332
#     4  10  21  40  67  92 111 141 188 241 296 346
#     4  11  23  38  57  84 117 152 189 230 284 347
#     4  11  22  33  49  76 113 153 193 234 279 333
#     4   9  18  34  57  86 115 142 184 241 288 334
#
# _framework density 20.220144000000001
#
# number of rings (size 3 to 8) (size 9 to 14) (size 15 to 20)
#    0.000    1.857    2.857    1.714    0.000    4.857 
#    0.000    2.143    0.000    4.286    0.000    0.000 
#    0.000    0.000    0.000    0.000    0.000    0.000 
#
# Total GULP energy -347048.390956 kJ/mol
# GULP energy per Si atom -12394.585391 kJ/mol
# Density = 2.017412 g / cm^3
# Si number density = 20.220144 Si / 1000 Ang^3
#
#
#
# Elastic Constant Matrix: (Units=GPa)
#
#
# Indices 1 2 3 4 5 6 
#
# 1 93.5103 29.1763 53.8389 0.0000 25.3642 0.0000
# 2 29.1763 92.8101 52.5144 0.0000 21.7007 0.0000
# 3 53.8389 52.5144 96.4398 0.0000 32.8932 0.0000
# 4 0.0000 0.0000 0.0000 -0.2322 0.0000 -1.0371
# 5 25.3642 21.7007 32.8932 0.0000 41.1853 0.0000
# 6 0.0000 0.0000 0.0000 -1.0371 0.0000 11.5475
#
#
#
# Elastic Compliance Matrix: (Units=1/GPa)
#
#
# Indices 1 2 3 4 5 6 
#
# 1 0.016181 0.000260 -0.007874 0.000000 -0.003813 0.000000
# 2 0.000260 0.015694 -0.007994 0.000000 -0.002045 0.000000
# 3 -0.007874 -0.007994 0.022028 0.000000 -0.008531 0.000000
# 4 0.000000 0.000000 0.000000 -3.074067 0.000000 -0.276092
# 5 -0.003813 -0.002045 -0.008531 0.000000 0.034520 0.000000
# 6 0.000000 0.000000 0.000000 -0.276092 0.000000 0.061802
#
#
# Mechanical properties :
#
#
# Convention : Reuss Voigt Hill
#
# Bulk Modulus (GPa) = 44.07707 61.53549 52.80628
# Shear Modulus (GPa) = -1.73306 20.31549 9.29121
#
# Velocity S-wave (km/s) = -0.92680 3.17316 2.14593
# Velocity P-wave (km/s) = 4.54980 6.62753 5.68440
#
# Compressibility (1/GPa) = 0.02268753
#
# Stress axis : x y z
#
# Youngs Moduli (GPa) = 61.80173 63.71821 45.39714
#
# Poissons Ratio (x) = -0.01660 0.35747
# Poissons Ratio (y) = -0.01610 0.36289
# Poissons Ratio (z) = 0.48665 0.50934
#
# Static dielectric constant tensor:
#      x y z
#    x 3.812640 0.000000 0.227260 
#    y 0.000000 3.474380 0.000000 
#    z 0.227260 0.000000 3.556000 
# 
# 
# High freq. dielectric constant tensor:
#      x y z
#    x 1.786340 0.000000 0.019530 
#    y 0.000000 1.759610 0.000000 
#    z 0.019530 0.000000 1.781670 
# 
# From -- ./inp_files/70300.got.cif
#   From: 2010.06.25/outbox.cif.g09.slc.cpg/sg10_36_cif.got.tgz:70300.got - 2010.06.27 22:07:45.
