data_PCOD8060849
_publ_section_title
;
Structure prediction by ZEFSAII (Michael W. Deem and Ramdas Pophale) SiO2 
 PCOD8060849
Probable space group: P 2/M
;
_chemical_formula_sum "Si O2"
_cell_formula_units_Z 32
_cell_length_a 14.599159
_cell_length_b 14.135744
_cell_length_c 20.752209
_cell_angle_alpha 90.000000
_cell_angle_beta 22.469761
_cell_angle_gamma 90.000000
_cell_volume 1636.804211
_symmetry_space_group_name_H-M "P 2/M"
_symmetry_group_IT_number 10
_symmetry_cell_setting 'monoclinic'
loop_
_space_group_symop_operation_xyz
x,y,z
-x,y,-z
-x,-y,-z
x,-y,z
loop_
_atom_site_type_symbol
_atom_site_label
_atom_site_fract_x
_atom_site_fract_y
_atom_site_fract_z
Si Si1 0.506288 0.892075 0.817395
Si Si2 0.226418 0.287396 0.394816
Si Si3 0.615551 0.392278 0.065436
Si Si4 0.159774 0.605495 0.711962
Si Si5 0.623206 0.772616 0.359569
Si Si6 0.671908 0.215767 0.945589
Si Si7 0.037099 0.894350 0.048235
Si Si8 0.819196 0.727971 0.425416
O O1 0.721804 0.822527 0.656941
O O2 0.314551 0.885186 0.884816
O O3 0.601496 0.000000 0.763159
O O4 0.371095 0.859615 0.969913
O O5 0.448388 0.354776 0.232072
O O6 0.168259 0.301954 0.508067
O O7 0.000000 0.320649 0.500000
O O8 0.544103 0.500000 0.091992
O O9 0.594460 0.321805 0.017925
O O10 0.886706 0.388949 0.914722
O O11 0.258443 0.500000 0.649703
O O12 0.323453 0.663775 0.655412
O O13 0.173856 0.640260 0.628493
O O14 0.500000 0.824367 0.500000
O O15 0.438510 0.780241 0.419246
O O16 0.877827 0.821685 0.190608
O O17 0.948462 0.207818 0.742517
O O18 0.500000 0.184725 0.000000
O O19 0.941907 0.000000 0.122845
O O20 0.000000 0.863280 0.000000
#
# Coordination Sequence:
#
# PCOD8060849 Si02
#       8
#     4   4   4   4   4   4   4   4
#     4  10  21  38  58  78 105 143 182 218 261 318
#     4  11  22  37  55  78 111 142 176 225 273 312
#     4   9  19  36  56  77 105 142 181 218 261 318
#     4   9  19  36  57  80 108 143 179 214 259 321
#     4  10  19  32  53  80 111 138 168 215 269 318
#     4  10  20  38  58  77 105 141 185 225 260 310
#     4  10  20  35  56  79 104 139 178 214 260 321
#     4  10  20  33  54  82 109 140 175 220 272 311
#
# _framework density 19.550293
#
# number of rings (size 3 to 8) (size 9 to 14) (size 15 to 20)
#    0.000    2.125    0.000    5.250    0.000    4.000 
#    0.000    3.750    0.000    2.625    0.000    0.000 
#    0.000    0.000    0.000    0.000    0.000    0.000 
#
# Total GULP energy -396611.566342 kJ/mol
# GULP energy per Si atom -12394.111448 kJ/mol
# Density = 1.950580 g / cm^3
# Si number density = 19.550293 Si / 1000 Ang^3
#
#
#
# Elastic Constant Matrix: (Units=GPa)
#
#
# Indices 1 2 3 4 5 6 
#
# 1 109.3241 -2.0361 28.5700 0.0000 6.2179 0.0000
# 2 -2.0361 63.0333 29.0008 0.0000 18.9381 0.0000
# 3 28.5700 29.0008 84.8303 0.0000 -0.5556 0.0000
# 4 0.0000 0.0000 0.0000 25.3692 0.0000 -6.6808
# 5 6.2179 18.9381 -0.5556 0.0000 18.6271 0.0000
# 6 0.0000 0.0000 0.0000 -6.6808 0.0000 21.6813
#
#
#
# Elastic Compliance Matrix: (Units=1/GPa)
#
#
# Indices 1 2 3 4 5 6 
#
# 1 0.011441 0.006283 -0.006069 0.000000 -0.010388 0.000000
# 2 0.006283 0.033326 -0.013747 0.000000 -0.036390 0.000000
# 3 -0.006069 -0.013747 0.018641 0.000000 0.016559 0.000000
# 4 0.000000 0.000000 0.000000 0.042899 0.000000 0.013219
# 5 -0.010388 -0.036390 0.016559 0.000000 0.094644 0.000000
# 6 0.000000 0.000000 0.000000 0.013219 0.000000 0.050196
#
#
# Mechanical properties :
#
#
# Convention : Reuss Voigt Hill
#
# Bulk Modulus (GPa) = 27.51779 40.91746 34.21763
# Shear Modulus (GPa) = 17.22193 26.57905 21.90049
#
# Velocity S-wave (km/s) = 2.97122 3.69117 3.35059
# Velocity P-wave (km/s) = 5.08693 6.25628 5.70166
#
# Compressibility (1/GPa) = 0.03634013
#
# Stress axis : x y z
#
# Youngs Moduli (GPa) = 87.40443 30.00677 53.64635
#
# Poissons Ratio (x) = -0.18853 0.32559
# Poissons Ratio (y) = -0.54917 0.73750
# Poissons Ratio (z) = 0.53048 0.41252
#
# Static dielectric constant tensor:
#      x y z
#    x 3.499850 0.000000 0.113480 
#    y 0.000000 3.496260 0.000000 
#    z 0.113480 0.000000 4.443970 
# 
# 
# High freq. dielectric constant tensor:
#      x y z
#    x 1.755470 0.000000 -0.009670 
#    y 0.000000 1.744240 0.000000 
#    z -0.009670 0.000000 1.774090 
# 
# From -- ./inp_files/85390.got.cif
#   From: 2010.06.25/outbox.cif.g09.slc.cpg/sg10_43_cif.got.tgz:85390.got - 2010.06.27 22:07:45.
