data_PCOD8060492
_publ_section_title
;
Structure prediction by ZEFSAII (Michael W. Deem and Ramdas Pophale) SiO2 
 PCOD8060492
Probable space group: P 2/M
;
_chemical_formula_sum "Si O2"
_cell_formula_units_Z 32
_cell_length_a 20.569308
_cell_length_b 8.569100
_cell_length_c 14.886563
_cell_angle_alpha 90.000000
_cell_angle_beta 137.375634
_cell_angle_gamma 90.000000
_cell_volume 1776.884473
_symmetry_space_group_name_H-M "P 2/M"
_symmetry_group_IT_number 10
_symmetry_cell_setting 'monoclinic'
loop_
_space_group_symop_operation_xyz
x,y,z
-x,y,-z
-x,-y,-z
x,-y,z
loop_
_atom_site_type_symbol
_atom_site_label
_atom_site_fract_x
_atom_site_fract_y
_atom_site_fract_z
Si Si1 0.171375 0.825926 0.464199
Si Si2 0.333080 0.816486 0.503751
Si Si3 0.809392 0.318184 0.783759
Si Si4 0.879252 0.316869 0.123066
Si Si5 0.970762 0.823801 0.846892
Si Si6 0.016972 0.682837 0.418806
Si Si7 0.720791 0.818681 0.864353
Si Si8 0.479367 0.317714 0.376598
O O1 0.278241 0.771844 0.541580
O O2 0.108640 0.820043 0.311101
O O3 0.125040 0.718627 0.494323
O O4 0.175060 0.000000 0.507423
O O5 0.267900 0.773771 0.353292
O O6 0.431256 0.719869 0.597040
O O7 0.355304 0.000000 0.522862
O O8 0.808888 0.500000 0.757581
O O9 0.917229 0.248193 0.880292
O O10 0.775076 0.292953 0.849607
O O11 0.861643 0.500000 0.113654
O O12 0.939719 0.280579 0.093659
O O13 0.937685 0.250016 0.268679
O O14 0.776854 0.226039 0.013957
O O15 0.005518 0.000000 0.902205
O O16 0.004133 0.500000 0.411086
O O17 0.000000 0.757680 0.500000
O O18 0.609115 0.777040 0.755193
O O19 0.733208 0.000000 0.854057
O O20 0.500000 0.263117 0.500000
O O21 0.455524 0.500000 0.350232
#
# Coordination Sequence:
#
# PCOD8060492 Si02
#       8
#     4   4   4   4   4   4   4   4
#     4   8  16  29  47  74 104 132 164 202 245 295
#     4  10  19  32  50  72 100 134 172 215 258 298
#     4  11  20  31  47  69  95 129 173 214 254 295
#     4  10  20  35  52  72 101 132 164 206 250 298
#     4   9  17  31  48  68  96 130 169 207 247 296
#     4   9  18  33  55  82 108 134 163 197 244 303
#     4  12  24  36  50  68  96 133 173 214 256 300
#     4  11  22  35  52  74  98 130 176 223 260 300
#
# _framework density 18.009048
#
# number of rings (size 3 to 8) (size 9 to 14) (size 15 to 20)
#    0.000    2.000    1.250    4.500    0.000    5.250 
#    0.000    2.500    0.000    0.000    0.000    0.875 
#    0.000    7.000    0.000    0.000    0.000    0.000 
#
# Total GULP energy -396716.689131 kJ/mol
# GULP energy per Si atom -12397.396535 kJ/mol
# Density = 1.796806 g / cm^3
# Si number density = 18.009048 Si / 1000 Ang^3
#
#
#
# Elastic Constant Matrix: (Units=GPa)
#
#
# Indices 1 2 3 4 5 6 
#
# 1 94.3892 15.7455 44.6177 0.0000 12.2322 0.0000
# 2 15.7455 53.6024 14.2123 0.0000 5.4671 0.0000
# 3 44.6177 14.2123 70.0595 0.0000 19.2811 0.0000
# 4 0.0000 0.0000 0.0000 21.2431 0.0000 7.8348
# 5 12.2322 5.4671 19.2811 0.0000 24.5626 0.0000
# 6 0.0000 0.0000 0.0000 7.8348 0.0000 27.1022
#
#
#
# Elastic Compliance Matrix: (Units=1/GPa)
#
#
# Indices 1 2 3 4 5 6 
#
# 1 0.015364 -0.002034 -0.009428 0.000000 0.000202 0.000000
# 2 -0.002034 0.020035 -0.002322 0.000000 -0.001624 0.000000
# 3 -0.009428 -0.002322 0.024637 0.000000 -0.014127 0.000000
# 4 0.000000 0.000000 0.000000 0.052692 0.000000 -0.015232
# 5 0.000202 -0.001624 -0.014127 0.000000 0.052063 0.000000
# 6 0.000000 0.000000 0.000000 -0.015232 0.000000 0.041301
#
#
# Mechanical properties :
#
#
# Convention : Reuss Voigt Hill
#
# Bulk Modulus (GPa) = 30.79951 40.80024 35.79987
# Shear Modulus (GPa) = 20.45151 24.14662 22.29907
#
# Velocity S-wave (km/s) = 3.37356 3.66567 3.52265
# Velocity P-wave (km/s) = 5.68453 6.37345 6.03882
#
# Compressibility (1/GPa) = 0.03246805
#
# Stress axis : x y z
#
# Youngs Moduli (GPa) = 65.08734 49.91352 40.59001
#
# Poissons Ratio (x) = 0.10153 0.38266
# Poissons Ratio (y) = 0.13239 0.09425
# Poissons Ratio (z) = 0.61361 0.11590
#
# Static dielectric constant tensor:
#      x y z
#    x 3.470490 0.000000 0.156960 
#    y 0.000000 3.261070 0.000000 
#    z 0.156960 0.000000 3.358660 
# 
# 
# High freq. dielectric constant tensor:
#      x y z
#    x 1.679590 0.000000 0.024120 
#    y 0.000000 1.702260 0.000000 
#    z 0.024120 0.000000 1.670080 
# 
# From -- ./inp_files/70021.got.cif
#   From: 2010.06.25/outbox.cif.g09.slc.cpg/sg10_36_cif.got.tgz:70021.got - 2010.06.27 22:07:45.
