data_PCOD8060444
_publ_section_title
;
Structure prediction by ZEFSAII (Michael W. Deem and Ramdas Pophale) SiO2 
 PCOD8060444
Probable space group: P 2/M
;
_chemical_formula_sum "Si O2"
_cell_formula_units_Z 32
_cell_length_a 25.689306
_cell_length_b 8.947918
_cell_length_c 15.655812
_cell_angle_alpha 90.000000
_cell_angle_beta 29.854258
_cell_angle_gamma 90.000000
_cell_volume 1791.434473
_symmetry_space_group_name_H-M "P 2/M"
_symmetry_group_IT_number 10
_symmetry_cell_setting 'monoclinic'
loop_
_space_group_symop_operation_xyz
x,y,z
-x,y,-z
-x,-y,-z
x,-y,z
loop_
_atom_site_type_symbol
_atom_site_label
_atom_site_fract_x
_atom_site_fract_y
_atom_site_fract_z
Si Si1 0.587198 0.333694 0.947446
Si Si2 0.264867 0.824533 0.385279
Si Si3 0.646107 0.675786 0.255441
Si Si4 0.148476 0.326279 0.137148
Si Si5 0.915011 0.675467 0.434846
Si Si6 0.121842 0.833694 0.343513
Si Si7 0.452343 0.824213 0.449206
Si Si8 0.434099 0.173722 0.280278
O O1 0.629125 0.500000 0.909268
O O2 0.680018 0.231015 0.780233
O O3 0.500000 0.342111 0.000000
O O4 0.537375 0.261813 0.103294
O O5 0.149214 0.749999 0.552357
O O6 0.330899 0.774905 0.374763
O O7 0.251091 0.000000 0.400902
O O8 0.622922 0.500000 0.293829
O O9 0.565124 0.750004 0.304629
O O10 0.633154 0.749997 0.366846
O O11 0.763765 0.708691 0.057868
O O12 0.143711 0.500000 0.168372
O O13 0.178045 0.238187 0.181284
O O14 0.036560 0.274904 0.257781
O O15 0.903082 0.500000 0.444927
O O16 0.859728 0.731017 0.600525
O O17 0.000000 0.842105 0.500000
O O18 0.167517 0.000000 0.294090
O O19 0.414603 0.791306 0.407030
O O20 0.460320 0.000000 0.456433
O O21 0.455794 0.000000 0.232126
#
# Coordination Sequence:
#
# PCOD8060444 Si02
#       8
#     4   4   4   4   4   4   4   4
#     4   9  17  29  46  69  96 127 164 201 236 279
#     4  10  19  32  49  70  99 134 169 204 242 284
#     4  10  20  35  54  76  99 124 156 196 245 296
#     4   9  19  34  51  71  99 133 165 200 244 292
#     4  10  19  32  49  70  99 134 169 204 242 284
#     4   9  17  29  46  69  96 127 164 201 236 279
#     4  10  20  35  54  76  99 124 156 196 245 296
#     4   9  19  34  51  71  99 133 165 200 244 292
#
# _framework density 17.862780999999998
#
# number of rings (size 3 to 8) (size 9 to 14) (size 15 to 20)
#    0.000    2.500    0.000    3.000    0.000    7.000 
#    0.000    2.500    0.000    0.750    0.000    5.250 
#    0.000    0.000    0.000    0.000    0.000    0.000 
#
# Total GULP energy -396735.248699 kJ/mol
# GULP energy per Si atom -12397.976522 kJ/mol
# Density = 1.782212 g / cm^3
# Si number density = 17.862781 Si / 1000 Ang^3
#
#
#
# Elastic Constant Matrix: (Units=GPa)
#
#
# Indices 1 2 3 4 5 6 
#
# 1 98.9682 43.4723 56.9358 0.0000 3.6777 0.0000
# 2 43.4723 93.0330 46.6797 0.0000 2.3939 0.0000
# 3 56.9358 46.6797 107.3027 0.0000 2.5496 0.0000
# 4 0.0000 0.0000 0.0000 24.7237 0.0000 -1.1860
# 5 3.6777 2.3939 2.5496 0.0000 22.6342 0.0000
# 6 0.0000 0.0000 0.0000 -1.1860 0.0000 26.3133
#
#
#
# Elastic Compliance Matrix: (Units=1/GPa)
#
#
# Indices 1 2 3 4 5 6 
#
# 1 0.015681 -0.004008 -0.006544 0.000000 -0.001387 0.000000
# 2 -0.004008 0.014789 -0.004296 0.000000 -0.000429 0.000000
# 3 -0.006544 -0.004296 0.014664 0.000000 -0.000134 0.000000
# 4 0.000000 0.000000 0.000000 0.040535 0.000000 0.001827
# 5 -0.001387 -0.000429 -0.000134 0.000000 0.044467 0.000000
# 6 0.000000 0.000000 0.000000 0.001827 0.000000 0.038086
#
#
# Mechanical properties :
#
#
# Convention : Reuss Voigt Hill
#
# Bulk Modulus (GPa) = 64.78178 65.94218 65.36198
# Shear Modulus (GPa) = 24.62280 24.88198 24.75239
#
# Velocity S-wave (km/s) = 3.71676 3.73628 3.72653
# Velocity P-wave (km/s) = 7.40028 7.45715 7.42877
#
# Compressibility (1/GPa) = 0.01543644
#
# Stress axis : x y z
#
# Youngs Moduli (GPa) = 63.77096 67.61934 68.19456
#
# Poissons Ratio (x) = 0.27104 0.44626
# Poissons Ratio (y) = 0.25562 0.29299
# Poissons Ratio (z) = 0.41731 0.29052
#
# Static dielectric constant tensor:
#      x y z
#    x 3.351670 0.000000 -0.104250 
#    y 0.000000 3.496800 0.000000 
#    z -0.104250 0.000000 3.211980 
# 
# 
# High freq. dielectric constant tensor:
#      x y z
#    x 1.682190 0.000000 -0.009610 
#    y 0.000000 1.704830 0.000000 
#    z -0.009610 0.000000 1.669310 
# 
# From -- ./inp_files/72180.got.cif
#   From: 2010.06.25/outbox.cif.g09.slc.cpg/sg10_37_cif.got.tgz:72180.got - 2010.06.27 22:07:45.
