data_PCOD8060713
_publ_section_title
;
Structure prediction by ZEFSAII (Michael W. Deem and Ramdas Pophale) SiO2 
 PCOD8060713
Probable space group: P 2/M
;
_chemical_formula_sum "Si O2"
_cell_formula_units_Z 28
_cell_length_a 19.157345
_cell_length_b 8.606281
_cell_length_c 14.290269
_cell_angle_alpha 90.000000
_cell_angle_beta 42.135655
_cell_angle_gamma 90.000000
_cell_volume 1580.670731
_symmetry_space_group_name_H-M "P 2/M"
_symmetry_group_IT_number 10
_symmetry_cell_setting 'monoclinic'
loop_
_space_group_symop_operation_xyz
x,y,z
-x,y,-z
-x,-y,-z
x,-y,z
loop_
_atom_site_type_symbol
_atom_site_label
_atom_site_fract_x
_atom_site_fract_y
_atom_site_fract_z
Si Si1 0.608181 0.183621 0.290276
Si Si2 0.196088 0.817068 0.020153
Si Si3 0.207090 0.817987 0.579861
Si Si4 0.611625 0.318168 0.486289
Si Si5 0.118852 0.317920 0.488570
Si Si6 0.003052 0.815044 0.891412
Si Si7 0.119269 0.681255 0.277503
O O1 0.641022 0.224272 0.363453
O O2 0.503160 0.271100 0.364945
O O3 0.590848 0.000000 0.299496
O O4 0.698410 0.245369 0.131831
O O5 0.193880 0.769907 0.131081
O O6 0.096009 0.746047 0.065805
O O7 0.193246 0.000000 0.013302
O O8 0.307992 0.725152 0.512682
O O9 0.190068 0.780720 0.487667
O O10 0.108086 0.756897 0.737156
O O11 0.225584 0.000000 0.575613
O O12 0.614685 0.500000 0.461535
O O13 0.130401 0.500000 0.498207
O O14 0.156007 0.279403 0.346208
O O15 0.999497 0.264428 0.619236
O O16 0.999450 0.000000 0.894833
O O17 0.000000 0.749949 0.000000
O O18 0.128482 0.500000 0.249063
#
# Coordination Sequence:
#
# PCOD8060713 Si02
#       7
#     4   4   4   4   4   4   4
#     4  10  20  36  57  78 103 136 177 219 259 304
#     4  10  19  32  52  78 105 135 171 215 259 305
#     4  11  20  32  53  77 104 138 174 215 260 305
#     4  11  22  36  54  76 105 138 177 219 257 306
#     4   9  18  33  50  73 105 141 175 210 255 306
#     4   9  17  29  45  70 104 136 164 200 251 305
#     4   9  18  32  51  73 105 142 173 209 255 311
#
# _framework density 17.713999999999999
#
# number of rings (size 3 to 8) (size 9 to 14) (size 15 to 20)
#    0.000    2.143    1.429    4.714    0.000    4.000 
#    0.000    1.429    0.000    3.000    0.000    6.000 
#    0.000    0.000    0.000    0.000    0.000    0.000 
#
# Total GULP energy -347249.686605 kJ/mol
# GULP energy per Si atom -12401.774522 kJ/mol
# Density = 1.767368 g / cm^3
# Si number density = 17.714000 Si / 1000 Ang^3
#
#
#
# Elastic Constant Matrix: (Units=GPa)
#
#
# Indices 1 2 3 4 5 6 
#
# 1 110.4886 17.3270 57.5638 0.0000 0.9214 0.0000
# 2 17.3270 34.6040 20.2294 0.0000 -5.1993 0.0000
# 3 57.5638 20.2294 118.7424 0.0000 4.6012 0.0000
# 4 0.0000 0.0000 0.0000 20.0580 0.0000 2.5795
# 5 0.9214 -5.1993 4.6012 0.0000 25.1585 0.0000
# 6 0.0000 0.0000 0.0000 2.5795 0.0000 28.3364
#
#
#
# Elastic Compliance Matrix: (Units=1/GPa)
#
#
# Indices 1 2 3 4 5 6 
#
# 1 0.012381 -0.003002 -0.005488 0.000000 -0.000070 0.000000
# 2 -0.003002 0.034370 -0.004713 0.000000 0.008075 0.000000
# 3 -0.005488 -0.004713 0.012000 0.000000 -0.002968 0.000000
# 4 0.000000 0.000000 0.000000 0.050446 0.000000 -0.004592
# 5 -0.000070 0.008075 -0.002968 0.000000 0.041962 0.000000
# 6 0.000000 0.000000 0.000000 -0.004592 0.000000 0.035708
#
#
# Mechanical properties :
#
#
# Convention : Reuss Voigt Hill
#
# Bulk Modulus (GPa) = 30.91631 50.45283 40.68457
# Shear Modulus (GPa) = 22.31592 25.95824 24.13708
#
# Velocity S-wave (km/s) = 3.55320 3.83222 3.69534
# Velocity P-wave (km/s) = 5.85872 6.93721 6.42065
#
# Compressibility (1/GPa) = 0.03234539
#
# Stress axis : x y z
#
# Youngs Moduli (GPa) = 80.76713 29.09515 83.33319
#
# Poissons Ratio (x) = 0.08734 0.45734
# Poissons Ratio (y) = 0.24245 0.39276
# Poissons Ratio (z) = 0.44326 0.13713
#
# Static dielectric constant tensor:
#      x y z
#    x 3.254290 0.000000 0.032370 
#    y 0.000000 3.054960 0.000000 
#    z 0.032370 0.000000 3.350080 
# 
# 
# High freq. dielectric constant tensor:
#      x y z
#    x 1.679670 0.000000 0.007230 
#    y 0.000000 1.673700 0.000000 
#    z 0.007230 0.000000 1.675560 
# 
# From -- ./inp_files/68566.got.cif
#   From: 2010.06.25/outbox.cif.g09.slc.cpg/sg10_35_cif.got.tgz:68566.got - 2010.06.27 22:07:45.
