data_PCOD8060951
_publ_section_title
;
Structure prediction by ZEFSAII (Michael W. Deem and Ramdas Pophale) SiO2 
 PCOD8060951
Probable space group: P 2/M
;
_chemical_formula_sum "Si O2"
_cell_formula_units_Z 32
_cell_length_a 22.812459
_cell_length_b 9.321894
_cell_length_c 23.365641
_cell_angle_alpha 90.000000
_cell_angle_beta 19.207142
_cell_angle_gamma 90.000000
_cell_volume 1634.666701
_symmetry_space_group_name_H-M "P 2/M"
_symmetry_group_IT_number 10
_symmetry_cell_setting 'monoclinic'
loop_
_space_group_symop_operation_xyz
x,y,z
-x,y,-z
-x,-y,-z
x,-y,z
loop_
_atom_site_type_symbol
_atom_site_label
_atom_site_fract_x
_atom_site_fract_y
_atom_site_fract_z
Si Si1 0.365400 0.333393 0.458814
Si Si2 0.661173 0.648741 0.386579
Si Si3 0.962546 0.664536 0.806729
Si Si4 0.498470 0.833526 0.068522
Si Si5 0.194777 0.836955 0.839486
Si Si6 0.706741 0.828073 0.126905
Si Si7 0.902727 0.166898 0.530474
Si Si8 0.843797 0.666451 0.787238
O O1 0.408315 0.500000 0.407568
O O2 0.379648 0.293719 0.512581
O O3 0.512613 0.237021 0.290178
O O4 0.170398 0.291522 0.615699
O O5 0.500000 0.584346 0.500000
O O6 0.783165 0.500000 0.279122
O O7 0.711028 0.784613 0.303833
O O8 0.939751 0.500000 0.848217
O O9 0.889496 0.686204 0.810965
O O10 0.855651 0.769627 0.946802
O O11 0.305990 0.791242 0.272228
O O12 0.541071 0.000000 0.041059
O O13 0.500000 0.801855 0.000000
O O14 0.651578 0.738457 0.955714
O O15 0.240665 0.766723 0.858464
O O16 0.242959 0.000000 0.803186
O O17 0.000000 0.801055 0.000000
O O18 0.702509 0.000000 0.126312
O O19 0.000000 0.201488 0.500000
O O20 0.997587 0.260265 0.394573
O O21 0.924909 0.000000 0.494345
O O22 0.832651 0.500000 0.779759
#
# Coordination Sequence:
#
# PCOD8060951 Si02
#       8
#     4   4   4   4   4   4   4   4
#     4  10  21  40  63  84 116 158 199 246 301 359
#     4  10  19  32  54  84 109 137 186 239 288 350
#     4  10  24  44  62  82 115 163 206 243 294 353
#     4  10  20  38  64  92 125 163 199 235 285 348
#     4  10  21  35  52  79 115 149 182 231 300 365
#     4  11  23  38  60  88 116 151 198 251 302 356
#     4  10  20  38  64  91 122 161 200 237 286 350
#     4  11  24  40  60  90 125 158 200 250 296 346
#
# _framework density 19.575856000000002
#
# number of rings (size 3 to 8) (size 9 to 14) (size 15 to 20)
#    0.000    1.750    2.500    1.500    0.000    5.000 
#    0.000    3.750    0.000    0.000    0.000    0.000 
#    0.000    0.000    0.000    0.000    0.000    0.000 
#
# Total GULP energy -396444.820767 kJ/mol
# GULP energy per Si atom -12388.900649 kJ/mol
# Density = 1.953130 g / cm^3
# Si number density = 19.575856 Si / 1000 Ang^3
#
#
#
# Elastic Constant Matrix: (Units=GPa)
#
#
# Indices 1 2 3 4 5 6 
#
# 1 70.7305 32.3313 41.3946 0.0000 -19.8754 0.0000
# 2 32.3313 93.7623 64.6448 0.0000 -3.6494 0.0000
# 3 41.3946 64.6448 138.4820 0.0000 -17.0659 0.0000
# 4 0.0000 0.0000 0.0000 37.6913 0.0000 2.3478
# 5 -19.8754 -3.6494 -17.0659 0.0000 27.7124 0.0000
# 6 0.0000 0.0000 0.0000 2.3478 0.0000 27.6197
#
#
#
# Elastic Compliance Matrix: (Units=1/GPa)
#
#
# Indices 1 2 3 4 5 6 
#
# 1 0.021733 -0.005359 -0.002339 0.000000 0.013441 0.000000
# 2 -0.005359 0.017230 -0.007180 0.000000 -0.005996 0.000000
# 3 -0.002339 -0.007180 0.011848 0.000000 0.004674 0.000000
# 4 0.000000 0.000000 0.000000 0.026673 0.000000 -0.002267
# 5 0.013441 -0.005996 0.004674 0.000000 0.047814 0.000000
# 6 0.000000 0.000000 0.000000 -0.002267 0.000000 0.036399
#
#
# Mechanical properties :
#
#
# Convention : Reuss Voigt Hill
#
# Bulk Modulus (GPa) = 47.49150 64.41289 55.95220
# Shear Modulus (GPa) = 25.19268 29.57828 27.38548
#
# Velocity S-wave (km/s) = 3.59127 3.89132 3.74430
# Velocity P-wave (km/s) = 6.44276 7.29147 6.88021
#
# Compressibility (1/GPa) = 0.02105640
#
# Stress axis : x y z
#
# Youngs Moduli (GPa) = 46.01236 58.03758 84.40254
#
# Poissons Ratio (x) = 0.31100 0.19738
# Poissons Ratio (y) = 0.24657 0.60604
# Poissons Ratio (z) = 0.10760 0.41673
#
# Static dielectric constant tensor:
#      x y z
#    x 3.565150 0.000000 -0.113560 
#    y 0.000000 3.510610 0.000000 
#    z -0.113560 0.000000 3.645660 
# 
# 
# High freq. dielectric constant tensor:
#      x y z
#    x 1.760370 0.000000 -0.006200 
#    y 0.000000 1.766860 0.000000 
#    z -0.006200 0.000000 1.766220 
# 
# From -- ./inp_files/90628.got.cif
#   From: 2010.06.25/outbox.cif.g09.slc.cpg/sg10_46_cif.got.tgz:90628.got - 2010.06.27 22:07:45.
