data_PCOD8060150
_publ_section_title
;
Structure prediction by ZEFSAII (Michael W. Deem and Ramdas Pophale) SiO2 
 PCOD8060150
Probable space group: P 2/M
;
_chemical_formula_sum "Si O2"
_cell_formula_units_Z 32
_cell_length_a 12.272488
_cell_length_b 8.618572
_cell_length_c 33.287514
_cell_angle_alpha 90.000000
_cell_angle_beta 149.243458
_cell_angle_gamma 90.000000
_cell_volume 1800.539074
_symmetry_space_group_name_H-M "P 2/M"
_symmetry_group_IT_number 10
_symmetry_cell_setting 'monoclinic'
loop_
_space_group_symop_operation_xyz
x,y,z
-x,y,-z
-x,-y,-z
x,-y,z
loop_
_atom_site_type_symbol
_atom_site_label
_atom_site_fract_x
_atom_site_fract_y
_atom_site_fract_z
Si Si1 0.629576 0.674805 0.500041
Si Si2 0.943470 0.678242 0.181056
Si Si3 0.152386 0.819708 0.084711
Si Si4 0.101178 0.677836 0.924965
Si Si5 0.748721 0.180190 0.661472
Si Si6 0.471638 0.819995 0.914825
Si Si7 0.004559 0.819954 0.661439
Si Si8 0.439681 0.319914 0.818018
O O1 0.500000 0.675604 0.500000
O O2 0.677422 0.500000 0.500989
O O3 0.491628 0.762182 0.422553
O O4 0.850620 0.765490 0.576637
O O5 0.885576 0.500000 0.171983
O O6 0.981454 0.705713 0.146118
O O7 0.754823 0.786273 0.137113
O O8 0.160741 0.724895 0.272177
O O9 0.367809 0.719639 0.151056
O O10 0.035840 0.786562 0.089559
O O11 0.210480 0.000000 0.100373
O O12 0.000000 0.768585 0.000000
O O13 0.073290 0.500000 0.929429
O O14 0.349837 0.721086 0.005800
O O15 0.897858 0.214297 0.670539
O O16 0.743119 0.000000 0.670343
O O17 0.467299 0.781826 0.866533
O O18 0.526284 0.000000 0.937140
O O19 0.220366 0.722196 0.726414
O O20 0.056220 0.000000 0.672357
O O21 0.441442 0.500000 0.830072
#
# Coordination Sequence:
#
# PCOD8060150 Si02
#       8
#     4   4   4   4   4   4   4   4
#     4   9  17  29  47  72 105 142 178 214 259 316
#     4  11  23  37  54  78 109 143 182 223 265 318
#     4  11  23  39  59  80 104 136 178 226 274 321
#     4  11  24  40  57  78 104 140 183 226 270 318
#     4  10  19  31  50  75 107 144 179 216 263 316
#     4  12  23  36  54  78 107 142 181 221 268 320
#     4  10  19  32  50  76 109 140 177 220 263 317
#     4  12  23  35  56  80 107 142 180 222 270 319
#
# _framework density 17.772455999999998
#
# number of rings (size 3 to 8) (size 9 to 14) (size 15 to 20)
#    0.000    1.250    2.500    4.875    0.000    6.500 
#    0.000    0.000    0.000    0.000    0.000    0.875 
#    0.000    7.000    0.000    0.000    0.000    0.000 
#
# Total GULP energy -397006.030669 kJ/mol
# GULP energy per Si atom -12406.438458 kJ/mol
# Density = 1.773201 g / cm^3
# Si number density = 17.772456 Si / 1000 Ang^3
#
#
#
# Elastic Constant Matrix: (Units=GPa)
#
#
# Indices 1 2 3 4 5 6 
#
# 1 52.7872 28.8091 36.6927 0.0000 -6.5478 0.0000
# 2 28.8091 76.4998 34.8626 0.0000 2.6193 0.0000
# 3 36.6927 34.8626 129.7229 0.0000 1.7713 0.0000
# 4 0.0000 0.0000 0.0000 33.5881 0.0000 4.2021
# 5 -6.5478 2.6193 1.7713 0.0000 15.8727 0.0000
# 6 0.0000 0.0000 0.0000 4.2021 0.0000 21.3264
#
#
#
# Elastic Compliance Matrix: (Units=1/GPa)
#
#
# Indices 1 2 3 4 5 6 
#
# 1 0.029987 -0.008928 -0.006281 0.000000 0.014544 0.000000
# 2 -0.008928 0.017619 -0.002123 0.000000 -0.006354 0.000000
# 3 -0.006281 -0.002123 0.010102 0.000000 -0.003368 0.000000
# 4 0.000000 0.000000 0.000000 0.030525 0.000000 -0.006015
# 5 0.014544 -0.006354 -0.003368 0.000000 0.070425 0.000000
# 6 0.000000 0.000000 0.000000 -0.006015 0.000000 0.048075
#
#
# Mechanical properties :
#
#
# Convention : Reuss Voigt Hill
#
# Bulk Modulus (GPa) = 43.39651 51.08207 47.23929
# Shear Modulus (GPa) = 20.07393 24.73381 22.40387
#
# Velocity S-wave (km/s) = 3.36444 3.73459 3.55434
# Velocity P-wave (km/s) = 6.28995 6.88483 6.59410
#
# Compressibility (1/GPa) = 0.02304333
#
# Stress axis : x y z
#
# Youngs Moduli (GPa) = 33.34799 56.75606 98.99142
#
# Poissons Ratio (x) = 0.50674 0.62177
# Poissons Ratio (y) = 0.29774 0.21015
# Poissons Ratio (z) = 0.20946 0.12049
#
# Static dielectric constant tensor:
#      x y z
#    x 2.964910 0.000000 0.052280 
#    y 0.000000 3.409580 0.000000 
#    z 0.052280 0.000000 3.470100 
# 
# 
# High freq. dielectric constant tensor:
#      x y z
#    x 1.642510 0.000000 0.005560 
#    y 0.000000 1.706880 0.000000 
#    z 0.005560 0.000000 1.694180 
# 
# From -- ./inp_files/49905.got.cif
#   From: 2010.06.25/outbox.cif.g09.slc.cpg/sg10_25_cif.got.tgz:49905.got - 2010.06.27 22:07:45.
