data_PCOD8060968
_publ_section_title
;
Structure prediction by ZEFSAII (Michael W. Deem and Ramdas Pophale) SiO2 
 PCOD8060968
Probable space group: P 2/M
;
_chemical_formula_sum "Si O2"
_cell_formula_units_Z 32
_cell_length_a 12.094302
_cell_length_b 9.071495
_cell_length_c 22.565467
_cell_angle_alpha 90.000000
_cell_angle_beta 133.434364
_cell_angle_gamma 90.000000
_cell_volume 1797.785145
_symmetry_space_group_name_H-M "P 2/M"
_symmetry_group_IT_number 10
_symmetry_cell_setting 'monoclinic'
loop_
_space_group_symop_operation_xyz
x,y,z
-x,y,-z
-x,-y,-z
x,-y,z
loop_
_atom_site_type_symbol
_atom_site_label
_atom_site_fract_x
_atom_site_fract_y
_atom_site_fract_z
Si Si1 0.938140 0.826811 0.218044
Si Si2 0.691164 0.672062 0.326327
Si Si3 0.671110 0.668347 0.062752
Si Si4 0.979535 0.673935 0.354954
Si Si5 0.850661 0.165451 0.484393
Si Si6 0.165837 0.667747 0.999758
Si Si7 0.101368 0.172975 0.157082
Si Si8 0.346658 0.672882 0.181346
O O1 0.768173 0.770588 0.142115
O O2 0.000528 0.744972 0.298504
O O3 0.047482 0.784874 0.203354
O O4 0.933599 0.000000 0.228143
O O5 0.705668 0.500000 0.346288
O O6 0.814559 0.716148 0.321650
O O7 0.717394 0.758958 0.397255
O O8 0.524080 0.715742 0.241519
O O9 0.681103 0.500000 0.089715
O O10 0.500000 0.727579 0.000000
O O11 0.725678 0.682306 0.016143
O O12 0.000441 0.500000 0.357893
O O13 0.116040 0.738932 0.444949
O O14 0.000000 0.161905 0.500000
O O15 0.801016 0.000000 0.484111
O O16 0.112450 0.500000 0.989946
O O17 0.263738 0.726295 0.090994
O O18 0.014201 0.763367 0.934945
O O19 0.267477 0.243565 0.207361
O O20 0.109603 0.000000 0.151479
O O21 0.328448 0.500000 0.185128
#
# Coordination Sequence:
#
# PCOD8060968 Si02
#       8
#     4   4   4   4   4   4   4   4
#     4  10  21  35  50  71 101 134 170 210 253 299
#     4   9  19  33  51  78 108 133 163 205 253 300
#     4   9  18  31  50  71  98 134 170 208 250 299
#     4  10  19  32  55  80 104 133 169 206 245 300
#     4   9  17  31  51  75 107 139 166 197 243 301
#     4   9  18  32  50  72  97 130 172 213 254 295
#     4  10  21  36  51  69  98 134 174 215 254 298
#     4  10  20  33  52  75 101 131 167 214 256 296
#
# _framework density 17.799681
#
# number of rings (size 3 to 8) (size 9 to 14) (size 15 to 20)
#    0.000    2.500    0.000    1.875    1.750    6.250 
#    0.000    0.000    0.000    0.750    0.000    5.250 
#    0.000    0.000    0.000    0.000    0.000    0.000 
#
# Total GULP energy -396840.316447 kJ/mol
# GULP energy per Si atom -12401.259889 kJ/mol
# Density = 1.775917 g / cm^3
# Si number density = 17.799681 Si / 1000 Ang^3
#
#
#
# Elastic Constant Matrix: (Units=GPa)
#
#
# Indices 1 2 3 4 5 6 
#
# 1 50.8609 28.8665 38.6716 0.0000 0.8309 0.0000
# 2 28.8665 76.8930 51.1559 0.0000 -8.2279 0.0000
# 3 38.6716 51.1559 112.0615 0.0000 -15.9747 0.0000
# 4 0.0000 0.0000 0.0000 21.9855 0.0000 -6.3477
# 5 0.8309 -8.2279 -15.9747 0.0000 21.2587 0.0000
# 6 0.0000 0.0000 0.0000 -6.3477 0.0000 22.6466
#
#
#
# Elastic Compliance Matrix: (Units=1/GPa)
#
#
# Indices 1 2 3 4 5 6 
#
# 1 0.030384 -0.006546 -0.008990 0.000000 -0.010477 0.000000
# 2 -0.006546 0.020104 -0.006465 0.000000 0.003179 0.000000
# 3 -0.008990 -0.006465 0.016431 0.000000 0.010196 0.000000
# 4 0.000000 0.000000 0.000000 0.049489 0.000000 0.013872
# 5 -0.010477 0.003179 0.010196 0.000000 0.056341 0.000000
# 6 0.000000 0.000000 0.000000 0.013872 0.000000 0.048045
#
#
# Mechanical properties :
#
#
# Convention : Reuss Voigt Hill
#
# Bulk Modulus (GPa) = 43.63961 53.02261 48.33111
# Shear Modulus (GPa) = 18.35290 21.25291 19.80291
#
# Velocity S-wave (km/s) = 3.21453 3.45919 3.33910
# Velocity P-wave (km/s) = 6.19257 6.76815 6.48674
#
# Compressibility (1/GPa) = 0.02291496
#
# Stress axis : x y z
#
# Youngs Moduli (GPa) = 32.91232 49.74127 60.86045
#
# Poissons Ratio (x) = 0.32562 0.54716
# Poissons Ratio (y) = 0.21546 0.39348
# Poissons Ratio (z) = 0.29589 0.32159
#
# Static dielectric constant tensor:
#      x y z
#    x 3.231770 0.000000 -0.030700 
#    y 0.000000 3.341170 0.000000 
#    z -0.030700 0.000000 3.338370 
# 
# 
# High freq. dielectric constant tensor:
#      x y z
#    x 1.673420 0.000000 -0.005890 
#    y 0.000000 1.690380 0.000000 
#    z -0.005890 0.000000 1.683360 
# 
# From -- ./inp_files/83529.got.cif
#   From: 2010.06.25/outbox.cif.g09.slc.cpg/sg10_42_cif.got.tgz:83529.got - 2010.06.27 22:07:45.
