data_PCOD8060208
_publ_section_title
;
Structure prediction by ZEFSAII (Michael W. Deem and Ramdas Pophale) SiO2 
 PCOD8060208
Probable space group: P 2/M
;
_chemical_formula_sum "Si O2"
_cell_formula_units_Z 32
_cell_length_a 18.356885
_cell_length_b 9.057107
_cell_length_c 12.347517
_cell_angle_alpha 90.000000
_cell_angle_beta 62.330965
_cell_angle_gamma 90.000000
_cell_volume 1818.141393
_symmetry_space_group_name_H-M "P 2/M"
_symmetry_group_IT_number 10
_symmetry_cell_setting 'monoclinic'
loop_
_space_group_symop_operation_xyz
x,y,z
-x,y,-z
-x,-y,-z
x,-y,z
loop_
_atom_site_type_symbol
_atom_site_label
_atom_site_fract_x
_atom_site_fract_y
_atom_site_fract_z
Si Si1 0.683305 0.173172 0.495265
Si Si2 0.143211 0.327678 0.242996
Si Si3 0.494392 0.165991 0.333496
Si Si4 0.444625 0.167874 0.942313
Si Si5 0.328247 0.827262 0.738700
Si Si6 0.017420 0.165869 0.614413
Si Si7 0.284617 0.673798 0.979507
Si Si8 0.178604 0.673845 0.464079
O O1 0.590966 0.240785 0.570226
O O2 0.712116 0.198261 0.350988
O O3 0.739911 0.261289 0.538639
O O4 0.686161 0.000000 0.523870
O O5 0.122681 0.500000 0.254965
O O6 0.059335 0.241876 0.272814
O O7 0.178743 0.284191 0.336710
O O8 0.207254 0.281501 0.106386
O O9 0.497949 0.173853 0.202011
O O10 0.577836 0.237522 0.325426
O O11 0.490377 0.000000 0.380724
O O12 0.364940 0.268497 0.985171
O O13 0.416384 0.000000 0.986446
O O14 0.500000 0.233200 0.000000
O O15 0.274450 0.745690 0.867426
O O16 0.331742 0.000000 0.768154
O O17 0.000000 0.166106 0.500000
O O18 0.100396 0.256600 0.579836
O O19 0.028463 0.000000 0.651472
O O20 0.291690 0.500000 0.960519
O O21 0.176130 0.500000 0.483585
#
# Coordination Sequence:
#
# PCOD8060208 Si02
#       8
#     4   4   4   4   4   4   4   4
#     4  10  19  31  51  75  98 128 168 214 252 291
#     4   9  19  34  51  73 103 136 164 194 241 301
#     4   8  15  29  48  70  94 126 167 208 252 293
#     4   9  18  31  47  69  98 132 167 206 250 293
#     4   9  18  34  52  70  96 130 171 214 255 291
#     4   9  17  31  52  77 101 127 162 201 240 289
#     4  10  20  33  50  72  98 132 170 204 242 294
#     4  10  20  33  49  73 106 136 159 193 247 302
#
# _framework density 17.600390000000001
#
# number of rings (size 3 to 8) (size 9 to 14) (size 15 to 20)
#    0.000    2.750    0.000    2.250    1.750    5.250 
#    0.000    2.500    0.000    4.500    0.000    5.250 
#    0.000    0.000    0.000    0.000    0.000    0.000 
#
# Total GULP energy -396702.991617 kJ/mol
# GULP energy per Si atom -12396.968488 kJ/mol
# Density = 1.756033 g / cm^3
# Si number density = 17.600390 Si / 1000 Ang^3
#
#
#
# Elastic Constant Matrix: (Units=GPa)
#
#
# Indices 1 2 3 4 5 6 
#
# 1 61.8237 32.5375 47.9401 0.0000 -11.4030 0.0000
# 2 32.5375 68.0621 45.9763 0.0000 -11.5651 0.0000
# 3 47.9401 45.9763 98.8792 0.0000 -20.1162 0.0000
# 4 0.0000 0.0000 0.0000 24.0454 0.0000 -2.6356
# 5 -11.4030 -11.5651 -20.1162 0.0000 26.5259 0.0000
# 6 0.0000 0.0000 0.0000 -2.6356 0.0000 27.0330
#
#
#
# Elastic Compliance Matrix: (Units=1/GPa)
#
#
# Indices 1 2 3 4 5 6 
#
# 1 0.027570 -0.005983 -0.010293 0.000000 0.001438 0.000000
# 2 -0.005983 0.022819 -0.007341 0.000000 0.001810 0.000000
# 3 -0.010293 -0.007341 0.020061 0.000000 0.007588 0.000000
# 4 0.000000 0.000000 0.000000 0.042037 0.000000 0.004098
# 5 0.001438 0.001810 0.007588 0.000000 0.044860 0.000000
# 6 0.000000 0.000000 0.000000 0.004098 0.000000 0.037391
#
#
# Mechanical properties :
#
#
# Convention : Reuss Voigt Hill
#
# Bulk Modulus (GPa) = 43.07319 53.51919 48.29619
# Shear Modulus (GPa) = 20.02302 22.34161 21.18231
#
# Velocity S-wave (km/s) = 3.37656 3.56670 3.47293
# Velocity P-wave (km/s) = 6.30298 6.88736 6.60164
#
# Compressibility (1/GPa) = 0.02321630
#
# Stress axis : x y z
#
# Youngs Moduli (GPa) = 36.27087 43.82234 49.84844
#
# Poissons Ratio (x) = 0.26220 0.51307
# Poissons Ratio (y) = 0.21701 0.36596
# Poissons Ratio (z) = 0.37332 0.32172
#
# Static dielectric constant tensor:
#      x y z
#    x 3.186240 0.000000 -0.087960 
#    y 0.000000 3.146890 0.000000 
#    z -0.087960 0.000000 3.291010 
# 
# 
# High freq. dielectric constant tensor:
#      x y z
#    x 1.667180 0.000000 -0.005690 
#    y 0.000000 1.665470 0.000000 
#    z -0.005690 0.000000 1.675030 
# 
# From -- ./inp_files/54766.got.cif
#   From: 2010.06.25/outbox.cif.g09.slc.cpg/sg10_28_cif.got.tgz:54766.got - 2010.06.27 22:07:45.
