data_PCOD8060109
_publ_section_title
;
Structure prediction by ZEFSAII (Michael W. Deem and Ramdas Pophale) SiO2 
 PCOD8060109
Probable space group: P 2/M
;
_chemical_formula_sum "Si O2"
_cell_formula_units_Z 28
_cell_length_a 18.975764
_cell_length_b 9.280080
_cell_length_c 11.441507
_cell_angle_alpha 90.000000
_cell_angle_beta 125.360588
_cell_angle_gamma 90.000000
_cell_volume 1643.130553
_symmetry_space_group_name_H-M "P 2/M"
_symmetry_group_IT_number 10
_symmetry_cell_setting 'monoclinic'
loop_
_space_group_symop_operation_xyz
x,y,z
-x,y,-z
-x,-y,-z
x,-y,z
loop_
_atom_site_type_symbol
_atom_site_label
_atom_site_fract_x
_atom_site_fract_y
_atom_site_fract_z
Si Si1 0.825056 0.669839 0.166214
Si Si2 0.638217 0.665860 0.387387
Si Si3 0.988984 0.670642 0.618086
Si Si4 0.490616 0.833462 0.122308
Si Si5 0.598721 0.664972 0.609919
Si Si6 0.195461 0.670520 0.583618
Si Si7 0.677767 0.167338 0.897872
O O1 0.809337 0.500000 0.134430
O O2 0.804653 0.715985 0.280318
O O3 0.924696 0.713666 0.226795
O O4 0.765536 0.756122 0.020456
O O5 0.626125 0.500000 0.339674
O O6 0.552373 0.747547 0.267498
O O7 0.649755 0.681364 0.537198
O O8 0.721716 0.736433 0.403590
O O9 0.986835 0.500000 0.607075
O O10 0.893434 0.724026 0.568112
O O11 0.000000 0.735947 0.500000
O O12 0.392719 0.807743 0.068705
O O13 0.517243 0.000000 0.154225
O O14 0.500000 0.773697 0.000000
O O15 0.500000 0.715961 0.500000
O O16 0.600854 0.500000 0.656995
O O17 0.646097 0.766917 0.746305
O O18 0.200730 0.500000 0.578680
O O19 0.696436 0.000000 0.895421
#
# Coordination Sequence:
#
# PCOD8060109 Si02
#       7
#     4   4   4   4   4   4   4
#     4   9  16  28  49  74  99 125 151 186 233 280
#     4  10  19  31  50  72  92 119 155 197 234 268
#     4   7  11  22  43  71  99 123 147 181 228 280
#     4  10  21  34  46  65  96 128 152 182 230 282
#     4  10  20  35  51  67  90 120 160 204 238 269
#     4   8  14  26  47  76 101 120 150 189 232 282
#     4  11  22  33  48  68  93 126 161 195 229 274
#
# _framework density 17.040641999999998
#
# number of rings (size 3 to 8) (size 9 to 14) (size 15 to 20)
#    0.000    2.714    1.429    3.000    0.000    1.714 
#    0.000    0.000    0.000    5.571    0.000    6.000 
#    0.000    0.000    0.000    0.000    0.000    0.000 
#
# Total GULP energy -346967.570298 kJ/mol
# GULP energy per Si atom -12391.698939 kJ/mol
# Density = 1.700186 g / cm^3
# Si number density = 17.040642 Si / 1000 Ang^3
#
#
#
# Elastic Constant Matrix: (Units=GPa)
#
#
# Indices 1 2 3 4 5 6 
#
# 1 46.4962 19.7870 35.2651 0.0000 15.7846 0.0000
# 2 19.7870 51.8259 49.6094 0.0000 9.4704 0.0000
# 3 35.2651 49.6094 113.3168 0.0000 20.4829 0.0000
# 4 0.0000 0.0000 0.0000 0.5784 0.0000 -11.4416
# 5 15.7846 9.4704 20.4829 0.0000 31.5222 0.0000
# 6 0.0000 0.0000 0.0000 -11.4416 0.0000 6.6861
#
#
#
# Elastic Compliance Matrix: (Units=1/GPa)
#
#
# Indices 1 2 3 4 5 6 
#
# 1 0.031488 -0.004371 -0.005975 0.000000 -0.010572 0.000000
# 2 -0.004371 0.033831 -0.013608 0.000000 0.000867 0.000000
# 3 -0.005975 -0.013608 0.017406 0.000000 -0.004230 0.000000
# 4 0.000000 0.000000 0.000000 -0.052629 0.000000 -0.090061
# 5 -0.010572 0.000867 -0.004230 0.000000 0.039506 0.000000
# 6 0.000000 0.000000 0.000000 -0.090061 0.000000 -0.004553
#
#
# Mechanical properties :
#
#
# Convention : Reuss Voigt Hill
#
# Bulk Modulus (GPa) = 28.72001 46.77355 37.74678
# Shear Modulus (GPa) = 40.14073 14.88918 27.51496
#
# Velocity S-wave (km/s) = 4.85871 2.95913 4.02265
# Velocity P-wave (km/s) = 6.95460 6.25964 6.61625
#
# Compressibility (1/GPa) = 0.03481893
#
# Stress axis : x y z
#
# Youngs Moduli (GPa) = 31.75835 29.55837 57.45086
#
# Poissons Ratio (x) = 0.12920 0.34326
# Poissons Ratio (y) = 0.13881 0.78177
# Poissons Ratio (z) = 0.18975 0.40222
#
# Static dielectric constant tensor:
#      x y z
#    x 3.544810 0.000000 0.255210 
#    y 0.000000 2.885160 0.000000 
#    z 0.255210 0.000000 3.116040 
# 
# 
# High freq. dielectric constant tensor:
#      x y z
#    x 1.654860 0.000000 0.018870 
#    y 0.000000 1.625380 0.000000 
#    z 0.018870 0.000000 1.648460 
# 
# From -- ./inp_files/54641.got.cif
#   From: 2010.06.25/outbox.cif.g09.slc.cpg/sg10_28_cif.got.tgz:54641.got - 2010.06.27 22:07:45.
