data_PCOD8060128
_publ_section_title
;
Structure prediction by ZEFSAII (Michael W. Deem and Ramdas Pophale) SiO2 
 PCOD8060128
Probable space group: P 2/M
;
_chemical_formula_sum "Si O2"
_cell_formula_units_Z 32
_cell_length_a 20.600998
_cell_length_b 9.385558
_cell_length_c 11.279532
_cell_angle_alpha 90.000000
_cell_angle_beta 122.266480
_cell_angle_gamma 90.000000
_cell_volume 1844.128649
_symmetry_space_group_name_H-M "P 2/M"
_symmetry_group_IT_number 10
_symmetry_cell_setting 'monoclinic'
loop_
_space_group_symop_operation_xyz
x,y,z
-x,y,-z
-x,-y,-z
x,-y,z
loop_
_atom_site_type_symbol
_atom_site_label
_atom_site_fract_x
_atom_site_fract_y
_atom_site_fract_z
Si Si1 0.790363 0.835102 0.938850
Si Si2 0.700671 0.844414 0.381690
Si Si3 0.411373 0.169927 0.916846
Si Si4 0.931223 0.158115 0.237682
Si Si5 0.174967 0.750624 0.663876
Si Si6 0.079608 0.660585 0.356303
Si Si7 0.194182 0.830292 0.317378
Si Si8 0.701525 0.661103 0.037854
O O1 0.790863 0.788276 0.802795
O O2 0.766585 0.000000 0.931513
O O3 0.875182 0.808937 0.073098
O O4 0.728075 0.737824 0.943382
O O5 0.627836 0.771961 0.244572
O O6 0.770311 0.858042 0.354899
O O7 0.733264 0.770484 0.533294
O O8 0.673194 0.000000 0.393083
O O9 0.371831 0.250995 0.987126
O O10 0.398480 0.000000 0.918477
O O11 0.500000 0.211541 0.000000
O O12 0.884058 0.160215 0.314348
O O13 0.996698 0.275582 0.304333
O O14 0.967029 0.000000 0.259792
O O15 0.129112 0.654762 0.525051
O O16 0.228689 0.653922 0.800067
O O17 0.069284 0.500000 0.299958
O O18 0.117529 0.753711 0.288918
O O19 0.183781 0.000000 0.324244
O O20 0.676095 0.500000 0.984281
#
# Coordination Sequence:
#
# PCOD8060128 Si02
#       8
#     4   4   4   4   4   4   4   4
#     4   9  19  35  52  68  88 119 159 201 238 271
#     4   8  14  27  49  74  94 116 152 192 227 269
#     4   9  17  30  50  77 107 131 149 178 223 272
#     4  10  20  32  47  66  89 120 158 198 240 284
#     4   9  18  31  47  66  92 122 154 191 236 283
#     4  11  22  32  44  65  94 123 152 193 244 290
#     4   9  18  34  53  68  86 118 161 201 233 271
#     4  10  19  31  50  74  98 124 155 190 227 274
#
# _framework density 17.352368999999999
#
# number of rings (size 3 to 8) (size 9 to 14) (size 15 to 20)
#    0.000    2.625    0.000    1.875    0.000    9.250 
#    0.000    2.500    0.000    0.750    0.000    5.250 
#    0.000    0.000    0.000    0.000    0.000    0.000 
#
# Total GULP energy -396588.013131 kJ/mol
# GULP energy per Si atom -12393.375410 kJ/mol
# Density = 1.731287 g / cm^3
# Si number density = 17.352369 Si / 1000 Ang^3
#
#
#
# Elastic Constant Matrix: (Units=GPa)
#
#
# Indices 1 2 3 4 5 6 
#
# 1 106.8545 45.2504 67.3322 0.0000 1.3865 0.0000
# 2 45.2504 79.9262 31.3139 0.0000 0.6051 0.0000
# 3 67.3322 31.3139 103.3139 0.0000 -12.5062 0.0000
# 4 0.0000 0.0000 0.0000 13.3331 0.0000 -0.1307
# 5 1.3865 0.6051 -12.5062 0.0000 29.1120 0.0000
# 6 0.0000 0.0000 0.0000 -0.1307 0.0000 12.6652
#
#
#
# Elastic Compliance Matrix: (Units=1/GPa)
#
#
# Indices 1 2 3 4 5 6 
#
# 1 0.019277 -0.006447 -0.011291 0.000000 -0.005635 0.000000
# 2 -0.006447 0.016496 -0.000847 0.000000 -0.000399 0.000000
# 3 -0.011291 -0.000847 0.018314 0.000000 0.008423 0.000000
# 4 0.000000 0.000000 0.000000 0.075009 0.000000 0.000774
# 5 -0.005635 -0.000399 0.008423 0.000000 0.038245 0.000000
# 6 0.000000 0.000000 0.000000 0.000774 0.000000 0.078964
#
#
# Mechanical properties :
#
#
# Convention : Reuss Voigt Hill
#
# Bulk Modulus (GPa) = 59.11023 64.20973 61.65998
# Shear Modulus (GPa) = 17.29421 20.76860 19.03141
#
# Velocity S-wave (km/s) = 3.16040 3.46334 3.31533
# Velocity P-wave (km/s) = 6.88884 7.28538 7.08988
#
# Compressibility (1/GPa) = 0.01691754
#
# Stress axis : x y z
#
# Youngs Moduli (GPa) = 51.87614 60.61953 54.60300
#
# Poissons Ratio (x) = 0.39083 0.61652
# Poissons Ratio (y) = 0.33446 0.04622
# Poissons Ratio (z) = 0.58573 0.05131
#
# Static dielectric constant tensor:
#      x y z
#    x 3.028790 0.000000 -0.002800 
#    y 0.000000 2.988640 0.000000 
#    z -0.002800 0.000000 3.367330 
# 
# 
# High freq. dielectric constant tensor:
#      x y z
#    x 1.649700 0.000000 -0.002980 
#    y 0.000000 1.654640 0.000000 
#    z -0.002980 0.000000 1.666180 
# 
# From -- ./inp_files/54947.got.cif
#   From: 2010.06.25/outbox.cif.g09.slc.cpg/sg10_28_cif.got.tgz:54947.got - 2010.06.27 22:07:45.
