data_PCOD8060854
_publ_section_title
;
Structure prediction by ZEFSAII (Michael W. Deem and Ramdas Pophale) SiO2 
 PCOD8060854
Probable space group: P 2/M
;
_chemical_formula_sum "Si O2"
_cell_formula_units_Z 32
_cell_length_a 25.956264
_cell_length_b 8.885371
_cell_length_c 20.094712
_cell_angle_alpha 90.000000
_cell_angle_beta 21.314337
_cell_angle_gamma 90.000000
_cell_volume 1684.555239
_symmetry_space_group_name_H-M "P 2/M"
_symmetry_group_IT_number 10
_symmetry_cell_setting 'monoclinic'
loop_
_space_group_symop_operation_xyz
x,y,z
-x,y,-z
-x,-y,-z
x,-y,z
loop_
_atom_site_type_symbol
_atom_site_label
_atom_site_fract_x
_atom_site_fract_y
_atom_site_fract_z
Si Si1 0.186935 0.320973 0.384282
Si Si2 0.367886 0.678434 0.289691
Si Si3 0.840253 0.826459 0.203216
Si Si4 0.858573 0.821775 0.960051
Si Si5 0.876719 0.678713 0.797544
Si Si6 0.335025 0.323653 0.698045
Si Si7 0.168228 0.172712 0.632640
Si Si8 0.313906 0.679072 0.094715
O O1 0.187617 0.500000 0.381331
O O2 0.293326 0.260113 0.312696
O O3 0.030678 0.262297 0.589844
O O4 0.235670 0.255928 0.254370
O O5 0.369351 0.500000 0.287938
O O6 0.284759 0.731006 0.454541
O O7 0.526893 0.743172 0.099935
O O8 0.731781 0.727933 0.291322
O O9 0.799363 0.805854 0.328947
O O10 0.829631 0.000000 0.192782
O O11 0.000000 0.768147 0.000000
O O12 0.737183 0.761678 0.154160
O O13 0.848906 0.000000 0.969289
O O14 0.830267 0.755472 0.921550
O O15 0.011197 0.767787 0.803844
O O16 0.875254 0.500000 0.808837
O O17 0.767402 0.733610 0.872995
O O18 0.500000 0.281371 0.500000
O O19 0.310452 0.500000 0.736648
O O20 0.182215 0.000000 0.594021
O O21 0.314634 0.500000 0.097717
#
# Coordination Sequence:
#
# PCOD8060854 Si02
#       8
#     4   4   4   4   4   4   4   4
#     4   9  16  29  52  80 108 144 187 227 276 335
#     4  10  19  32  53  81 109 142 186 231 276 330
#     4  10  20  39  63  87 114 149 193 233 277 336
#     4  11  22  39  61  82 111 151 189 229 278 336
#     4  10  19  33  55  83 111 143 186 233 279 330
#     4  11  25  42  61  90 123 150 183 232 286 338
#     4  10  21  37  58  82 111 145 184 232 278 329
#     4   9  18  31  50  79 115 145 177 232 287 328
#
# _framework density 18.996110999999999
#
# number of rings (size 3 to 8) (size 9 to 14) (size 15 to 20)
#    0.000    2.000    2.500    1.500    0.000    6.250 
#    0.000    4.375    0.000    4.500    0.000    0.000 
#    0.000    0.000    0.000    0.000    0.000    0.000 
#
# Total GULP energy -396896.846930 kJ/mol
# GULP energy per Si atom -12403.026467 kJ/mol
# Density = 1.895288 g / cm^3
# Si number density = 18.996111 Si / 1000 Ang^3
#
#
#
# Elastic Constant Matrix: (Units=GPa)
#
#
# Indices 1 2 3 4 5 6 
#
# 1 157.0382 34.0073 82.5647 0.0000 -3.7425 0.0000
# 2 34.0073 33.4593 30.7965 0.0000 -0.1951 0.0000
# 3 82.5647 30.7965 134.3019 0.0000 -2.9136 0.0000
# 4 0.0000 0.0000 0.0000 2.6177 0.0000 -12.2667
# 5 -3.7425 -0.1951 -2.9136 0.0000 39.3514 0.0000
# 6 0.0000 0.0000 0.0000 -12.2667 0.0000 12.8993
#
#
#
# Elastic Compliance Matrix: (Units=1/GPa)
#
#
# Indices 1 2 3 4 5 6 
#
# 1 0.010252 -0.005865 -0.004945 0.000000 0.000580 0.000000
# 2 -0.005865 0.041246 -0.005870 0.000000 -0.000788 0.000000
# 3 -0.004945 -0.005870 0.011840 0.000000 0.000377 0.000000
# 4 0.000000 0.000000 0.000000 -0.110528 0.000000 -0.105108
# 5 0.000580 -0.000788 0.000377 0.000000 0.025491 0.000000
# 6 0.000000 0.000000 0.000000 -0.105108 0.000000 -0.022430
#
#
# Mechanical properties :
#
#
# Convention : Reuss Voigt Hill
#
# Bulk Modulus (GPa) = 33.35692 68.83739 51.09715
# Shear Modulus (GPa) = -6428.64447 22.80240 -3202.92104
#
# Velocity S-wave (km/s) = -58.23690 3.46840 -41.10661
# Velocity P-wave (km/s) = 67.11520 7.23574 47.18101
#
# Compressibility (1/GPa) = 0.02997879
#
# Stress axis : x y z
#
# Youngs Moduli (GPa) = 97.54578 24.24494 84.45901
#
# Poissons Ratio (x) = 0.14219 0.41765
# Poissons Ratio (y) = 0.57208 0.49574
# Poissons Ratio (z) = 0.48236 0.14231
#
# Static dielectric constant tensor:
#      x y z
#    x 3.627870 0.000000 -0.055290 
#    y 0.000000 3.137240 0.000000 
#    z -0.055290 0.000000 3.594310 
# 
# 
# High freq. dielectric constant tensor:
#      x y z
#    x 1.753210 0.000000 0.003520 
#    y 0.000000 1.704030 0.000000 
#    z 0.003520 0.000000 1.747110 
# 
# From -- ./inp_files/86791.got.cif
#   From: 2010.06.25/outbox.cif.g09.slc.cpg/sg10_44_cif.got.tgz:86791.got - 2010.06.27 22:07:45.
