data_PCOD8060032
_publ_section_title
;
Structure prediction by ZEFSAII (Michael W. Deem and Ramdas Pophale) SiO2 
 PCOD8060032
Probable space group: P 2/M
;
_chemical_formula_sum "Si O2"
_cell_formula_units_Z 32
_cell_length_a 12.652163
_cell_length_b 18.588668
_cell_length_c 14.894989
_cell_angle_alpha 90.000000
_cell_angle_beta 31.850929
_cell_angle_gamma 90.000000
_cell_volume 1848.627524
_symmetry_space_group_name_H-M "P 2/M"
_symmetry_group_IT_number 10
_symmetry_cell_setting 'monoclinic'
loop_
_space_group_symop_operation_xyz
x,y,z
-x,y,-z
-x,-y,-z
x,-y,z
loop_
_atom_site_type_symbol
_atom_site_label
_atom_site_fract_x
_atom_site_fract_y
_atom_site_fract_z
Si Si1 0.997716 0.674900 0.694159
Si Si2 0.812944 0.177578 0.809624
Si Si3 0.679806 0.418728 0.199895
Si Si4 0.125415 0.080265 0.500000
Si Si5 0.386034 0.325100 0.305841
Si Si6 0.202513 0.580029 0.297487
Si Si7 0.079596 0.581272 0.800105
Si Si8 0.432191 0.822422 0.190376
O O1 0.892054 0.749175 0.797698
O O2 0.834146 0.620854 0.769891
O O3 0.101335 0.637998 0.704681
O O4 0.164999 0.693899 0.500000
O O5 0.726974 0.196014 0.773026
O O6 0.994009 0.120528 0.670907
O O7 0.637294 0.145508 1.000000
O O8 0.593527 0.500000 0.258127
O O9 0.510697 0.362002 0.295319
O O10 0.749686 0.400823 0.250314
O O11 0.862897 0.410979 1.000000
O O12 0.335823 0.120528 0.329093
O O13 0.000000 0.075702 0.500000
O O14 0.174101 0.000000 0.500000
O O15 0.373928 0.379146 0.230109
O O16 0.487451 0.250825 0.202302
O O17 0.281041 0.500000 0.218959
O O18 0.000000 0.575771 0.500000
O O19 0.109782 0.500000 0.741872
#
# Coordination Sequence:
#
# PCOD8060032 Si02
#       8
#     4   4   4   4   4   4   4   4
#     4  11  19  30  49  69  98 132 168 212 255 300
#     4  10  19  31  49  72 101 136 170 203 248 299
#     4   9  19  35  50  65  92 130 172 221 269 306
#     4   9  18  32  50  72 101 134 167 203 242 292
#     4  11  19  30  49  69  98 132 168 212 255 300
#     4   9  18  28  41  65  95 129 165 206 255 298
#     4   9  19  35  50  65  92 130 172 221 269 306
#     4  10  19  31  49  72 101 136 170 203 248 299
#
# _framework density 17.310137999999998
#
# number of rings (size 3 to 8) (size 9 to 14) (size 15 to 20)
#    0.000    2.250    2.500    2.250    0.000    2.500 
#    0.000    3.750    0.000    3.000    0.000    0.000 
#    0.000    2.000    0.000    5.250    0.000    0.250 
#
# Total GULP energy -396815.179178 kJ/mol
# GULP energy per Si atom -12400.474349 kJ/mol
# Density = 1.727074 g / cm^3
# Si number density = 17.310138 Si / 1000 Ang^3
#
#
#
# Elastic Constant Matrix: (Units=GPa)
#
#
# Indices 1 2 3 4 5 6 
#
# 1 65.6912 37.6635 17.7305 0.0000 -0.8235 0.0000
# 2 37.6635 130.0499 47.7297 0.0000 0.6696 0.0000
# 3 17.7305 47.7297 86.9849 0.0000 2.2398 0.0000
# 4 0.0000 0.0000 0.0000 19.1472 0.0000 0.2503
# 5 -0.8235 0.6696 2.2398 0.0000 17.9939 0.0000
# 6 0.0000 0.0000 0.0000 0.2503 0.0000 15.3835
#
#
#
# Elastic Compliance Matrix: (Units=1/GPa)
#
#
# Indices 1 2 3 4 5 6 
#
# 1 0.018351 -0.004930 -0.001065 0.000000 0.001156 0.000000
# 2 -0.004930 0.010954 -0.005006 0.000000 -0.000010 0.000000
# 3 -0.001065 -0.005006 0.014503 0.000000 -0.001668 0.000000
# 4 0.000000 0.000000 0.000000 0.052238 0.000000 -0.000850
# 5 0.001156 -0.000010 -0.001668 0.000000 0.055835 0.000000
# 6 0.000000 0.000000 0.000000 -0.000850 0.000000 0.065019
#
#
# Mechanical properties :
#
#
# Convention : Reuss Voigt Hill
#
# Bulk Modulus (GPa) = 45.85668 54.33037 50.09353
# Shear Modulus (GPa) = 20.31110 22.47838 21.39474
#
# Velocity S-wave (km/s) = 3.42916 3.60747 3.51944
# Velocity P-wave (km/s) = 6.49827 6.98616 6.74663
#
# Compressibility (1/GPa) = 0.02180707
#
# Stress axis : x y z
#
# Youngs Moduli (GPa) = 54.49263 91.28947 68.95117
#
# Poissons Ratio (x) = 0.45002 0.07346
# Poissons Ratio (y) = 0.26862 0.34514
# Poissons Ratio (z) = 0.05806 0.45696
#
# Static dielectric constant tensor:
#      x y z
#    x 2.931400 0.000000 0.015810 
#    y 0.000000 3.196130 0.000000 
#    z 0.015810 0.000000 3.169070 
# 
# 
# High freq. dielectric constant tensor:
#      x y z
#    x 1.627010 0.000000 0.003030 
#    y 0.000000 1.653890 0.000000 
#    z 0.003030 0.000000 1.672540 
# 
# From -- ./inp_files/43276.got.cif
#   From: 2010.06.25/outbox.cif.g09.slc.cpg/sg10_22_cif.got.tgz:43276.got - 2010.06.27 22:07:45.
