data_PCOD8060067
_publ_section_title
;
Structure prediction by ZEFSAII (Michael W. Deem and Ramdas Pophale) SiO2 
 PCOD8060067
Probable space group: P 2/M
;
_chemical_formula_sum "Si O2"
_cell_formula_units_Z 32
_cell_length_a 20.006615
_cell_length_b 9.270174
_cell_length_c 12.236153
_cell_angle_alpha 90.000000
_cell_angle_beta 54.954716
_cell_angle_gamma 90.000000
_cell_volume 1857.934386
_symmetry_space_group_name_H-M "P 2/M"
_symmetry_group_IT_number 10
_symmetry_cell_setting 'monoclinic'
loop_
_space_group_symop_operation_xyz
x,y,z
-x,y,-z
-x,-y,-z
x,-y,z
loop_
_atom_site_type_symbol
_atom_site_label
_atom_site_fract_x
_atom_site_fract_y
_atom_site_fract_z
Si Si1 0.631650 0.167813 0.590200
Si Si2 0.035129 0.333509 0.350702
Si Si3 0.250691 0.833321 0.335913
Si Si4 0.713630 0.828244 0.150358
Si Si5 0.532231 0.831271 0.355677
Si Si6 0.245900 0.669940 0.677070
Si Si7 0.130646 0.664349 0.594739
Si Si8 0.199492 0.168858 0.151301
O O1 0.664929 0.206228 0.680294
O O2 0.534825 0.201700 0.675800
O O3 0.676261 0.264839 0.458386
O O4 0.647837 0.000000 0.545438
O O5 0.061019 0.500000 0.335846
O O6 0.112526 0.244040 0.240490
O O7 0.000000 0.279380 0.500000
O O8 0.966281 0.309304 0.321900
O O9 0.174035 0.754285 0.459974
O O10 0.256156 0.792129 0.203016
O O11 0.231221 0.000000 0.368820
O O12 0.620352 0.768664 0.239581
O O13 0.764596 0.749939 0.197774
O O14 0.719065 0.000000 0.160544
O O15 0.752132 0.777169 0.000125
O O16 0.500000 0.763408 0.500000
O O17 0.544382 0.000000 0.361107
O O18 0.259063 0.500000 0.682397
O O19 0.164007 0.703841 0.683963
O O20 0.152545 0.500000 0.546954
O O21 0.182345 0.000000 0.160800
#
# Coordination Sequence:
#
# PCOD8060067 Si02
#       8
#     4   4   4   4   4   4   4   4
#     4   9  16  29  50  73  97 128 164 200 242 291
#     4  10  19  33  54  76  97 127 167 203 239 292
#     4   9  17  29  47  73 101 127 159 199 245 290
#     4  10  20  35  51  69 100 137 168 198 242 297
#     4   9  15  27  50  74  94 126 171 206 235 282
#     4  10  19  31  49  74 101 126 159 204 250 289
#     4   9  18  32  50  74  99 124 159 203 246 287
#     4  10  21  34  49  73 104 133 161 202 249 290
#
# _framework density 17.22343
#
# number of rings (size 3 to 8) (size 9 to 14) (size 15 to 20)
#    0.000    2.500    2.500    0.375    0.000    1.750 
#    0.000    2.500    0.000    7.500    0.000    0.000 
#    0.000    6.000    0.000    0.000    0.000    0.000 
#
# Total GULP energy -396668.176360 kJ/mol
# GULP energy per Si atom -12395.880511 kJ/mol
# Density = 1.718423 g / cm^3
# Si number density = 17.223430 Si / 1000 Ang^3
#
#
#
# Elastic Constant Matrix: (Units=GPa)
#
#
# Indices 1 2 3 4 5 6 
#
# 1 133.6005 34.7194 77.0246 0.0000 9.4404 0.0000
# 2 34.7194 37.3196 38.0792 0.0000 7.9571 0.0000
# 3 77.0246 38.0792 130.5829 0.0000 9.1881 0.0000
# 4 0.0000 0.0000 0.0000 -1.7607 0.0000 7.1844
# 5 9.4404 7.9571 9.1881 0.0000 27.2688 0.0000
# 6 0.0000 0.0000 0.0000 7.1844 0.0000 21.0591
#
#
#
# Elastic Compliance Matrix: (Units=1/GPa)
#
#
# Indices 1 2 3 4 5 6 
#
# 1 0.012145 -0.005530 -0.005499 0.000000 -0.000738 0.000000
# 2 -0.005530 0.042250 -0.008528 0.000000 -0.007541 0.000000
# 3 -0.005499 -0.008528 0.013397 0.000000 -0.000122 0.000000
# 4 0.000000 0.000000 0.000000 -0.237433 0.000000 0.081002
# 5 -0.000738 -0.007541 -0.000122 0.000000 0.039169 0.000000
# 6 0.000000 0.000000 0.000000 0.081002 0.000000 0.019851
#
#
# Mechanical properties :
#
#
# Convention : Reuss Voigt Hill
#
# Bulk Modulus (GPa) = 34.87091 66.79439 50.83265
# Shear Modulus (GPa) = -80.71154 19.42542 -30.64306
#
# Velocity S-wave (km/s) = -6.85297 3.36199 -4.22257
# Velocity P-wave (km/s) = 6.50596 7.34411 2.40920
#
# Compressibility (1/GPa) = 0.02867719
#
# Stress axis : x y z
#
# Youngs Moduli (GPa) = 82.34102 23.66880 74.64413
#
# Poissons Ratio (x) = 0.13089 0.41046
# Poissons Ratio (y) = 0.45537 0.63655
# Poissons Ratio (z) = 0.45279 0.20184
#
# Static dielectric constant tensor:
#      x y z
#    x 3.615440 0.000000 0.151220 
#    y 0.000000 3.085660 0.000000 
#    z 0.151220 0.000000 3.063950 
# 
# 
# High freq. dielectric constant tensor:
#      x y z
#    x 1.684390 0.000000 0.009450 
#    y 0.000000 1.649140 0.000000 
#    z 0.009450 0.000000 1.632410 
# 
# From -- ./inp_files/55235.got.cif
#   From: 2010.06.25/outbox.cif.g09.slc.cpg/sg10_28_cif.got.tgz:55235.got - 2010.06.27 22:07:45.
