data_PCOD8060229
_publ_section_title
;
Structure prediction by ZEFSAII (Michael W. Deem and Ramdas Pophale) SiO2 
 PCOD8060229
Probable space group: P 2/M
;
_chemical_formula_sum "Si O2"
_cell_formula_units_Z 32
_cell_length_a 14.042148
_cell_length_b 8.988764
_cell_length_c 19.847484
_cell_angle_alpha 90.000000
_cell_angle_beta 139.253830
_cell_angle_gamma 90.000000
_cell_volume 1635.153994
_symmetry_space_group_name_H-M "P 2/M"
_symmetry_group_IT_number 10
_symmetry_cell_setting 'monoclinic'
loop_
_space_group_symop_operation_xyz
x,y,z
-x,y,-z
-x,-y,-z
x,-y,z
loop_
_atom_site_type_symbol
_atom_site_label
_atom_site_fract_x
_atom_site_fract_y
_atom_site_fract_z
Si Si1 0.817407 0.828437 0.232354
Si Si2 0.098200 0.666045 0.356195
Si Si3 0.867350 0.825416 0.886648
Si Si4 0.592686 0.176957 0.484168
Si Si5 0.306877 0.325623 0.964527
Si Si6 0.996392 0.661812 0.150984
Si Si7 0.452853 0.823702 0.270612
Si Si8 0.447419 0.171057 0.819806
O O1 0.723667 0.758006 0.121687
O O2 0.720528 0.812673 0.248022
O O3 0.973087 0.750493 0.332153
O O4 0.847590 0.000000 0.230511
O O5 0.125878 0.500000 0.400484
O O6 0.246553 0.756658 0.430263
O O7 0.029848 0.654078 0.246726
O O8 0.711609 0.760116 0.825270
O O9 0.899844 0.784808 0.826694
O O10 0.866936 0.000000 0.895654
O O11 0.000000 0.751905 0.000000
O O12 0.500000 0.231443 0.500000
O O13 0.519000 0.238174 0.375911
O O14 0.605203 0.000000 0.491906
O O15 0.323281 0.500000 0.957263
O O16 0.174661 0.295414 0.946356
O O17 0.453257 0.267023 0.077233
O O18 0.025568 0.500000 0.133388
O O19 0.542054 0.772243 0.252238
O O20 0.449789 0.000000 0.275180
O O21 0.500383 0.000000 0.852679
#
# Coordination Sequence:
#
# PCOD8060229 Si02
#       8
#     4   4   4   4   4   4   4   4
#     4  10  20  34  55  81 106 139 184 225 264 315
#     4  10  21  37  56  79 107 136 171 220 274 322
#     4  10  19  31  51  77 104 138 175 211 256 308
#     4  10  20  36  60  85 108 138 177 221 268 320
#     4  10  20  33  51  78 112 147 180 219 268 317
#     4   9  19  33  48  71 103 137 171 210 260 315
#     4   9  19  35  53  78 110 139 175 223 270 317
#     4  10  20  35  54  76 106 144 183 223 265 314
#
# _framework density 19.570021000000001
#
# number of rings (size 3 to 8) (size 9 to 14) (size 15 to 20)
#    0.000    2.250    0.000    3.750    0.000    8.000 
#    0.000    2.500    0.000    3.750    0.000    0.000 
#    0.000    0.000    0.000    0.000    0.000    0.000 
#
# Total GULP energy -396654.937026 kJ/mol
# GULP energy per Si atom -12395.466782 kJ/mol
# Density = 1.952548 g / cm^3
# Si number density = 19.570021 Si / 1000 Ang^3
#
#
#
# Elastic Constant Matrix: (Units=GPa)
#
#
# Indices 1 2 3 4 5 6 
#
# 1 148.1015 40.0020 57.4868 0.0000 14.3501 0.0000
# 2 40.0020 57.6198 29.9447 0.0000 6.8927 0.0000
# 3 57.4868 29.9447 84.7542 0.0000 17.4050 0.0000
# 4 0.0000 0.0000 0.0000 17.2659 0.0000 5.0047
# 5 14.3501 6.8927 17.4050 0.0000 30.6961 0.0000
# 6 0.0000 0.0000 0.0000 5.0047 0.0000 16.4549
#
#
#
# Elastic Compliance Matrix: (Units=1/GPa)
#
#
# Indices 1 2 3 4 5 6 
#
# 1 0.009932 -0.004145 -0.005104 0.000000 -0.000818 0.000000
# 2 -0.004145 0.022997 -0.005264 0.000000 -0.000241 0.000000
# 3 -0.005104 -0.005264 0.018548 0.000000 -0.006949 0.000000
# 4 0.000000 0.000000 0.000000 0.063517 0.000000 -0.019319
# 5 -0.000818 -0.000241 -0.006949 0.000000 0.036954 0.000000
# 6 0.000000 0.000000 0.000000 -0.019319 0.000000 0.066648
#
#
# Mechanical properties :
#
#
# Convention : Reuss Voigt Hill
#
# Bulk Modulus (GPa) = 44.54252 60.59364 52.56808
# Shear Modulus (GPa) = 19.59961 23.75286 21.67623
#
# Velocity S-wave (km/s) = 3.16810 3.48765 3.33171
# Velocity P-wave (km/s) = 6.01602 6.87372 6.45912
#
# Compressibility (1/GPa) = 0.02245046
#
# Stress axis : x y z
#
# Youngs Moduli (GPa) = 100.68261 43.48331 53.91447
#
# Poissons Ratio (x) = 0.18023 0.27520
# Poissons Ratio (y) = 0.41730 0.28383
# Poissons Ratio (z) = 0.51392 0.22891
#
# Static dielectric constant tensor:
#      x y z
#    x 3.756500 0.000000 0.146080 
#    y 0.000000 3.516320 0.000000 
#    z 0.146080 0.000000 3.591380 
# 
# 
# High freq. dielectric constant tensor:
#      x y z
#    x 1.771380 0.000000 0.013960 
#    y 0.000000 1.748260 0.000000 
#    z 0.013960 0.000000 1.745560 
# 
# From -- ./inp_files/84771.got.cif
#   From: 2010.06.25/outbox.cif.g09.slc.cpg/sg10_43_cif.got.tgz:84771.got - 2010.06.27 22:07:45.
