data_PCOD8060932
_publ_section_title
;
Structure prediction by ZEFSAII (Michael W. Deem and Ramdas Pophale) SiO2 
 PCOD8060932
Probable space group: P 2/M
;
_chemical_formula_sum "Si O2"
_cell_formula_units_Z 20
_cell_length_a 16.051845
_cell_length_b 14.258349
_cell_length_c 8.765378
_cell_angle_alpha 90.000000
_cell_angle_beta 31.918629
_cell_angle_gamma 90.000000
_cell_volume 1060.683802
_symmetry_space_group_name_H-M "P 2/M"
_symmetry_group_IT_number 10
_symmetry_cell_setting 'monoclinic'
loop_
_space_group_symop_operation_xyz
x,y,z
-x,y,-z
-x,-y,-z
x,-y,z
loop_
_atom_site_type_symbol
_atom_site_label
_atom_site_fract_x
_atom_site_fract_y
_atom_site_fract_z
Si Si1 0.323337 0.287378 0.302545
Si Si2 0.149630 0.264403 0.866136
Si Si3 0.965224 0.390006 0.380616
Si Si4 0.207749 0.106201 0.331213
Si Si5 0.161364 0.894650 0.062050
O O1 0.283417 0.301666 0.543396
O O2 0.208942 0.352073 0.380949
O O3 0.306743 0.178304 0.279349
O O4 0.500000 0.322197 0.000000
O O5 0.228602 0.177845 0.833993
O O6 0.000000 0.229093 0.000000
O O7 0.096299 0.345217 0.065990
O O8 0.970822 0.500000 0.343269
O O9 0.000000 0.362254 0.500000
O O10 0.246801 0.120241 0.091501
O O11 0.023756 0.126543 0.638066
O O12 0.249722 0.000000 0.316639
O O13 0.191597 0.000000 0.956463
#
# Coordination Sequence:
#
# PCOD8060932 Si02
#       5
#     4   4   4   4   4
#     4  11  23  36  53  82 117 145 172 218 275 318
#     4  10  19  32  54  82 108 140 180 221 266 316
#     4  10  21  40  64  82 101 136 180 222 265 323
#     4   9  17  31  52  76 109 147 181 220 264 310
#     4   9  16  29  53  80 103 139 190 232 256 297
#
# _framework density 18.85576
#
# number of rings (size 3 to 8) (size 9 to 14) (size 15 to 20)
#    0.000    2.200    4.000    2.400    0.000    5.600 
#    0.000    4.000    0.000    4.800    0.000    0.000 
#    0.000    0.000    0.000    0.000    0.000    0.000 
#
# Total GULP energy -247989.800235 kJ/mol
# GULP energy per Si atom -12399.490012 kJ/mol
# Density = 1.881284 g / cm^3
# Si number density = 18.855760 Si / 1000 Ang^3
#
#
#
# Elastic Constant Matrix: (Units=GPa)
#
#
# Indices 1 2 3 4 5 6 
#
# 1 82.1574 56.7985 60.3011 0.0000 21.4920 0.0000
# 2 56.7985 98.2437 46.4185 0.0000 17.0867 0.0000
# 3 60.3011 46.4185 124.7580 0.0000 11.3654 0.0000
# 4 0.0000 0.0000 0.0000 8.2723 0.0000 1.9239
# 5 21.4920 17.0867 11.3654 0.0000 25.2582 0.0000
# 6 0.0000 0.0000 0.0000 1.9239 0.0000 22.2207
#
#
#
# Elastic Compliance Matrix: (Units=1/GPa)
#
#
# Indices 1 2 3 4 5 6 
#
# 1 0.029924 -0.010440 -0.009283 0.000000 -0.014222 0.000000
# 2 -0.010440 0.017129 -0.001127 0.000000 -0.002197 0.000000
# 3 -0.009283 -0.001127 0.012651 0.000000 0.002969 0.000000
# 4 0.000000 0.000000 0.000000 0.123370 0.000000 -0.010682
# 5 -0.014222 -0.002197 0.002969 0.000000 0.051843 0.000000
# 6 0.000000 0.000000 0.000000 -0.010682 0.000000 0.045928
#
#
# Mechanical properties :
#
#
# Convention : Reuss Voigt Hill
#
# Bulk Modulus (GPa) = 55.54532 70.24390 62.89461
# Shear Modulus (GPa) = 15.21854 20.59299 17.90577
#
# Velocity S-wave (km/s) = 2.84404 3.30833 3.08493
# Velocity P-wave (km/s) = 6.34876 7.20608 6.79096
#
# Compressibility (1/GPa) = 0.01800332
#
# Stress axis : x y z
#
# Youngs Moduli (GPa) = 33.41854 58.37986 79.04286
#
# Poissons Ratio (x) = 0.60950 0.73378
# Poissons Ratio (y) = 0.34890 0.08907
# Poissons Ratio (z) = 0.31023 0.06578
#
# Static dielectric constant tensor:
#      x y z
#    x 3.463400 0.000000 0.382320 
#    y 0.000000 3.471850 0.000000 
#    z 0.382320 0.000000 3.312530 
# 
# 
# High freq. dielectric constant tensor:
#      x y z
#    x 1.722520 0.000000 0.030170 
#    y 0.000000 1.733420 0.000000 
#    z 0.030170 0.000000 1.704180 
# 
# From -- ./inp_files/18507.got.cif
#   From: 2010.06.25/outbox.cif.g09.slc.cpg/sg10_10_cif.got.tgz:18507.got - 2010.06.27 22:07:45.
