data_PCOD8060524
_publ_section_title
;
Structure prediction by ZEFSAII (Michael W. Deem and Ramdas Pophale) SiO2 
 PCOD8060524
Probable space group: P 2/M
;
_chemical_formula_sum "Si O2"
_cell_formula_units_Z 32
_cell_length_a 15.581098
_cell_length_b 8.618773
_cell_length_c 15.684662
_cell_angle_alpha 90.000000
_cell_angle_beta 124.775661
_cell_angle_gamma 90.000000
_cell_volume 1730.090845
_symmetry_space_group_name_H-M "P 2/M"
_symmetry_group_IT_number 10
_symmetry_cell_setting 'monoclinic'
loop_
_space_group_symop_operation_xyz
x,y,z
-x,y,-z
-x,-y,-z
x,-y,z
loop_
_atom_site_type_symbol
_atom_site_label
_atom_site_fract_x
_atom_site_fract_y
_atom_site_fract_z
Si Si1 0.648531 0.678763 0.917162
Si Si2 0.870232 0.319414 0.310289
Si Si3 0.147043 0.181199 0.040015
Si Si4 0.094232 0.318820 0.365473
Si Si5 0.053462 0.682928 0.150671
Si Si6 0.321346 0.821049 0.887281
Si Si7 0.220743 0.180882 0.578181
Si Si8 0.435782 0.178680 0.778353
O O1 0.674975 0.500000 0.917367
O O2 0.735525 0.780668 0.919771
O O3 0.536029 0.717734 0.812388
O O4 0.643841 0.716026 0.014493
O O5 0.847522 0.500000 0.281436
O O6 0.795827 0.219656 0.207167
O O7 0.851830 0.278092 0.398502
O O8 0.987716 0.275437 0.353071
O O9 0.129294 0.231251 0.127554
O O10 0.125727 0.000000 0.018464
O O11 0.066996 0.270815 0.932723
O O12 0.118530 0.500000 0.385685
O O13 0.087887 0.264758 0.264170
O O14 0.188180 0.225185 0.463809
O O15 0.064009 0.500000 0.144082
O O16 0.400127 0.787344 0.854755
O O17 0.325049 0.000000 0.917487
O O18 0.342338 0.224198 0.660974
O O19 0.203970 0.000000 0.587974
O O20 0.467367 0.000000 0.785844
#
# Coordination Sequence:
#
# PCOD8060524 Si02
#       8
#     4   4   4   4   4   4   4   4
#     4  12  23  34  53  79 104 137 178 217 261 311
#     4  10  19  32  50  75 109 144 178 214 255 307
#     4  11  22  37  57  81 109 140 172 210 260 315
#     4  10  21  34  52  77 105 139 175 214 260 308
#     4  10  20  37  58  82 112 139 169 213 261 312
#     4  10  20  34  52  76 108 142 175 215 261 311
#     4  10  21  35  52  74 104 141 179 220 261 302
#     4   9  20  37  52  72 104 140 176 217 263 306
#
# _framework density 18.496138999999999
#
# number of rings (size 3 to 8) (size 9 to 14) (size 15 to 20)
#    0.000    1.750    0.000    6.750    0.000    9.000 
#    0.000    0.000    0.000    0.750    0.000    5.250 
#    0.000    0.000    0.000    0.000    0.000    0.000 
#
# Total GULP energy -396944.601184 kJ/mol
# GULP energy per Si atom -12404.518787 kJ/mol
# Density = 1.845404 g / cm^3
# Si number density = 18.496139 Si / 1000 Ang^3
#
#
#
# Elastic Constant Matrix: (Units=GPa)
#
#
# Indices 1 2 3 4 5 6 
#
# 1 86.0602 22.1758 48.8478 0.0000 10.3315 0.0000
# 2 22.1758 51.7634 18.2260 0.0000 2.0273 0.0000
# 3 48.8478 18.2260 117.0464 0.0000 1.3548 0.0000
# 4 0.0000 0.0000 0.0000 29.1104 0.0000 2.4471
# 5 10.3315 2.0273 1.3548 0.0000 17.7140 0.0000
# 6 0.0000 0.0000 0.0000 2.4471 0.0000 28.7327
#
#
#
# Elastic Compliance Matrix: (Units=1/GPa)
#
#
# Indices 1 2 3 4 5 6 
#
# 1 0.017696 -0.004926 -0.006511 0.000000 -0.009259 0.000000
# 2 -0.004926 0.021889 -0.001358 0.000000 0.000472 0.000000
# 3 -0.006511 -0.001358 0.011437 0.000000 0.003078 0.000000
# 4 0.000000 0.000000 0.000000 0.034600 0.000000 -0.002947
# 5 -0.009259 0.000472 0.003078 0.000000 0.061563 0.000000
# 6 0.000000 0.000000 0.000000 -0.002947 0.000000 0.035055
#
#
# Mechanical properties :
#
#
# Convention : Reuss Voigt Hill
#
# Bulk Modulus (GPa) = 39.32140 48.15215 43.73677
# Shear Modulus (GPa) = 23.11528 26.15280 24.63404
#
# Velocity S-wave (km/s) = 3.53900 3.76435 3.65341
# Velocity P-wave (km/s) = 6.16480 6.70700 6.44161
#
# Compressibility (1/GPa) = 0.02543145
#
# Stress axis : x y z
#
# Youngs Moduli (GPa) = 56.50863 45.68569 87.43706
#
# Poissons Ratio (x) = 0.22505 0.56931
# Poissons Ratio (y) = 0.27836 0.11874
# Poissons Ratio (z) = 0.36794 0.06204
#
# Static dielectric constant tensor:
#      x y z
#    x 3.266440 0.000000 0.049390 
#    y 0.000000 3.413110 0.000000 
#    z 0.049390 0.000000 3.445040 
# 
# 
# High freq. dielectric constant tensor:
#      x y z
#    x 1.700430 0.000000 0.009660 
#    y 0.000000 1.725930 0.000000 
#    z 0.009660 0.000000 1.713440 
# 
# From -- ./inp_files/66604.got.cif
#   From: 2010.06.25/outbox.cif.g09.slc.cpg/sg10_34_cif.got.tgz:66604.got - 2010.06.27 22:07:45.
