data_PCOD8060505
_publ_section_title
;
Structure prediction by ZEFSAII (Michael W. Deem and Ramdas Pophale) SiO2 
 PCOD8060505
Probable space group: P 2/M
;
_chemical_formula_sum "Si O2"
_cell_formula_units_Z 32
_cell_length_a 19.394114
_cell_length_b 21.134394
_cell_length_c 12.336848
_cell_angle_alpha 90.000000
_cell_angle_beta 160.638349
_cell_angle_gamma 90.000000
_cell_volume 1676.433979
_symmetry_space_group_name_H-M "P 2/M"
_symmetry_group_IT_number 10
_symmetry_cell_setting 'monoclinic'
loop_
_space_group_symop_operation_xyz
x,y,z
-x,y,-z
-x,-y,-z
x,-y,z
loop_
_atom_site_type_symbol
_atom_site_label
_atom_site_fract_x
_atom_site_fract_y
_atom_site_fract_z
Si Si1 0.731692 0.862670 0.313537
Si Si2 0.582179 0.429858 0.741623
Si Si3 0.788628 0.797794 0.620278
Si Si4 0.095314 0.931365 0.758424
Si Si5 0.425116 0.677672 0.774341
Si Si6 0.216093 0.571038 0.368885
Si Si7 0.361892 0.823395 0.064429
Si Si8 0.232284 0.314624 0.880919
O O1 0.814412 0.819906 0.534522
O O2 0.906129 0.917078 0.561058
O O3 0.500000 0.889132 0.000000
O O4 0.729084 0.825022 0.194457
O O5 0.500000 0.424828 0.500000
O O6 0.684269 0.500000 0.912448
O O7 0.384367 0.421526 0.524761
O O8 0.744513 0.371727 0.997543
O O9 0.712886 0.725876 0.500079
O O10 0.609936 0.835765 0.421884
O O11 0.000000 0.804629 0.000000
O O12 0.000000 0.938254 0.500000
O O13 0.192124 0.000000 0.935768
O O14 0.270486 0.876438 0.010642
O O15 0.287175 0.613789 0.576975
O O16 0.500000 0.705327 0.000000
O O17 0.638306 0.662691 0.030213
O O18 0.192618 0.500000 0.378069
O O19 0.000000 0.595855 0.000000
O O20 0.310459 0.754439 0.039071
O O21 0.000000 0.306659 0.500000
#
# Coordination Sequence:
#
# PCOD8060505 Si02
#       8
#     4   4   4   4   4   4   4   4
#     4   9  17  31  53  77 103 133 167 210 253 294
#     4   9  19  35  51  70  99 132 167 207 249 294
#     4  10  19  33  52  73  98 131 171 210 251 303
#     4   9  17  31  54  81 107 136 170 210 255 302
#     4  10  20  33  50  73 100 129 163 208 260 303
#     4   9  18  33  51  71  98 131 167 207 249 299
#     4   9  18  34  52  76 106 133 166 211 259 301
#     4  10  19  32  50  73 100 131 166 206 250 298
#
# _framework density 19.088137
#
# number of rings (size 3 to 8) (size 9 to 14) (size 15 to 20)
#    0.000    2.625    0.000    3.375    0.000    1.750 
#    0.000   10.000    0.000    2.250    0.000    0.000 
#    0.000    0.000    0.000    0.000    0.000    0.000 
#
# Total GULP energy -396448.942066 kJ/mol
# GULP energy per Si atom -12389.029440 kJ/mol
# Density = 1.904469 g / cm^3
# Si number density = 19.088137 Si / 1000 Ang^3
#
#
#
# Elastic Constant Matrix: (Units=GPa)
#
#
# Indices 1 2 3 4 5 6 
#
# 1 55.8121 34.3652 30.3460 0.0000 5.4255 0.0000
# 2 34.3652 124.8870 46.8932 0.0000 10.3278 0.0000
# 3 30.3460 46.8932 112.2312 0.0000 4.3973 0.0000
# 4 0.0000 0.0000 0.0000 16.5565 0.0000 23.2112
# 5 5.4255 10.3278 4.3973 0.0000 21.2984 0.0000
# 6 0.0000 0.0000 0.0000 23.2112 0.0000 -28.0692
#
#
#
# Elastic Compliance Matrix: (Units=1/GPa)
#
#
# Indices 1 2 3 4 5 6 
#
# 1 0.023344 -0.004579 -0.004287 0.000000 -0.002841 0.000000
# 2 -0.004579 0.010713 -0.003106 0.000000 -0.003387 0.000000
# 3 -0.004287 -0.003106 0.011357 0.000000 0.000253 0.000000
# 4 0.000000 0.000000 0.000000 0.027972 0.000000 0.023131
# 5 -0.002841 -0.003387 0.000253 0.000000 0.049266 0.000000
# 6 0.000000 0.000000 0.000000 0.023131 0.000000 -0.016499
#
#
# Mechanical properties :
#
#
# Convention : Reuss Voigt Hill
#
# Bulk Modulus (GPa) = 46.57484 57.34881 51.96182
# Shear Modulus (GPa) = 36.42894 14.04554 25.23724
#
# Velocity S-wave (km/s) = 4.37333 2.71555 3.64007
# Velocity P-wave (km/s) = 7.06783 6.31995 6.70433
#
# Compressibility (1/GPa) = 0.02147082
#
# Stress axis : x y z
#
# Youngs Moduli (GPa) = 42.83781 93.34105 88.05032
#
# Poissons Ratio (x) = 0.42738 0.37751
# Poissons Ratio (y) = 0.19614 0.27345
# Poissons Ratio (z) = 0.18367 0.28988
#
# Static dielectric constant tensor:
#      x y z
#    x 3.391410 0.000000 0.237290 
#    y 0.000000 3.904420 0.000000 
#    z 0.237290 0.000000 3.486360 
# 
# 
# High freq. dielectric constant tensor:
#      x y z
#    x 1.723190 0.000000 0.020800 
#    y 0.000000 1.742470 0.000000 
#    z 0.020800 0.000000 1.727680 
# 
# From -- ./inp_files/54272.got.cif
#   From: 2010.06.25/outbox.cif.g09.slc.cpg/sg10_28_cif.got.tgz:54272.got - 2010.06.27 22:07:45.
