data_PCOD8060686
_publ_section_title
;
Structure prediction by ZEFSAII (Michael W. Deem and Ramdas Pophale) SiO2 
 PCOD8060686
Probable space group: P 2/M
;
_chemical_formula_sum "Si O2"
_cell_formula_units_Z 30
_cell_length_a 10.972274
_cell_length_b 9.280578
_cell_length_c 18.088272
_cell_angle_alpha 90.000000
_cell_angle_beta 119.158124
_cell_angle_gamma 90.000000
_cell_volume 1608.501506
_symmetry_space_group_name_H-M "P 2/M"
_symmetry_group_IT_number 10
_symmetry_cell_setting 'monoclinic'
loop_
_space_group_symop_operation_xyz
x,y,z
-x,y,-z
-x,-y,-z
x,-y,z
loop_
_atom_site_type_symbol
_atom_site_label
_atom_site_fract_x
_atom_site_fract_y
_atom_site_fract_z
Si Si1 0.045525 0.838544 0.175564
Si Si2 0.408598 0.663107 0.631397
Si Si3 0.216867 0.328883 0.862320
Si Si4 0.729257 0.663740 0.682317
Si Si5 0.000000 0.240063 0.000000
Si Si6 0.660734 0.163028 0.524867
Si Si7 0.292952 0.337222 0.043798
Si Si8 0.565973 0.329040 0.198117
O O1 0.187289 0.749346 0.229619
O O2 0.928545 0.754869 0.188295
O O3 0.061111 0.000000 0.211271
O O4 0.010145 0.852459 0.077824
O O5 0.350078 0.500000 0.608782
O O6 0.570159 0.663392 0.658953
O O7 0.320997 0.762996 0.549796
O O8 0.392659 0.730247 0.708857
O O9 0.187651 0.500000 0.855946
O O10 0.314787 0.282784 0.823875
O O11 0.288125 0.273534 0.959466
O O12 0.784873 0.500000 0.691445
O O13 0.749490 0.745158 0.610151
O O14 0.141468 0.333784 0.037970
O O15 0.500000 0.163624 0.500000
O O16 0.718486 0.000000 0.538599
O O17 0.341865 0.500000 0.050163
O O18 0.416567 0.261199 0.127629
O O19 0.553124 0.500000 0.201513
#
# Coordination Sequence:
#
# PCOD8060686 Si02
#       8
#     4   4   4   4   2   4   4   4
#     4  11  22  35  50  69  98 133 167 204 247 292
#     4   9  17  29  48  75 104 131 159 198 246 293
#     4   9  18  32  50  70  94 129 171 210 246 286
#     4  10  19  32  52  77 102 128 162 200 243 296
#     4  10  20  32  48  70 103 138 165 196 243 296
#     4   9  17  30  48  72 103 134 162 194 238 293
#     4   9  16  27  47  75 102 129 165 208 247 285
#     4   9  16  28  48  73 100 129 165 207 247 287
#
# _framework density 18.650898999999999
#
# number of rings (size 3 to 8) (size 9 to 14) (size 15 to 20)
#    0.000    2.533    0.000    2.800    0.000    6.400 
#    0.000    0.667    0.000    8.800    0.000    5.600 
#    0.000    0.000    0.000    0.000    0.000    0.000 
#
# Total GULP energy -371841.688545 kJ/mol
# GULP energy per Si atom -12394.722951 kJ/mol
# Density = 1.860845 g / cm^3
# Si number density = 18.650899 Si / 1000 Ang^3
#
#
#
# Elastic Constant Matrix: (Units=GPa)
#
#
# Indices 1 2 3 4 5 6 
#
# 1 64.2659 20.7383 35.0217 0.0000 -18.4924 0.0000
# 2 20.7383 97.0323 42.9424 0.0000 -2.1432 0.0000
# 3 35.0217 42.9424 101.5972 0.0000 -20.7707 0.0000
# 4 0.0000 0.0000 0.0000 20.5774 0.0000 1.4143
# 5 -18.4924 -2.1432 -20.7707 0.0000 27.9986 0.0000
# 6 0.0000 0.0000 0.0000 1.4143 0.0000 12.3448
#
#
#
# Elastic Compliance Matrix: (Units=1/GPa)
#
#
# Indices 1 2 3 4 5 6 
#
# 1 0.021876 -0.002585 -0.004167 0.000000 0.011160 0.000000
# 2 -0.002585 0.013288 -0.005736 0.000000 -0.004946 0.000000
# 3 -0.004167 -0.005736 0.015385 0.000000 0.008222 0.000000
# 4 0.000000 0.000000 0.000000 0.048983 0.000000 -0.005612
# 5 0.011160 -0.004946 0.008222 0.000000 0.048808 0.000000
# 6 0.000000 0.000000 0.000000 -0.005612 0.000000 0.081649
#
#
# Mechanical properties :
#
#
# Convention : Reuss Voigt Hill
#
# Bulk Modulus (GPa) = 39.10484 51.14446 45.12465
# Shear Modulus (GPa) = 18.97614 23.13035 21.05324
#
# Velocity S-wave (km/s) = 3.19319 3.52543 3.36342
# Velocity P-wave (km/s) = 5.88282 6.63725 6.27139
#
# Compressibility (1/GPa) = 0.02557228
#
# Stress axis : x y z
#
# Youngs Moduli (GPa) = 45.71117 75.25711 64.99964
#
# Poissons Ratio (x) = 0.19454 0.27085
# Poissons Ratio (y) = 0.11816 0.37287
# Poissons Ratio (z) = 0.19048 0.43171
#
# Static dielectric constant tensor:
#      x y z
#    x 3.177340 0.000000 -0.087840 
#    y 0.000000 3.225240 0.000000 
#    z -0.087840 0.000000 3.647410 
# 
# 
# High freq. dielectric constant tensor:
#      x y z
#    x 1.693150 0.000000 -0.007090 
#    y 0.000000 1.696860 0.000000 
#    z -0.007090 0.000000 1.732240 
# 
# From -- ./inp_files/76222.got.cif
#   From: 2010.06.25/outbox.cif.g09.slc.cpg/sg10_39_cif.got.tgz:76222.got - 2010.06.27 22:07:45.
