data_PCOD8060848
_publ_section_title
;
Structure prediction by ZEFSAII (Michael W. Deem and Ramdas Pophale) SiO2 
 PCOD8060848
Probable space group: P 2/M
;
_chemical_formula_sum "Si O2"
_cell_formula_units_Z 32
_cell_length_a 28.530074
_cell_length_b 9.431469
_cell_length_c 11.819491
_cell_angle_alpha 90.000000
_cell_angle_beta 30.772528
_cell_angle_gamma 90.000000
_cell_volume 1627.188350
_symmetry_space_group_name_H-M "P 2/M"
_symmetry_group_IT_number 10
_symmetry_cell_setting 'monoclinic'
loop_
_space_group_symop_operation_xyz
x,y,z
-x,y,-z
-x,-y,-z
x,-y,z
loop_
_atom_site_type_symbol
_atom_site_label
_atom_site_fract_x
_atom_site_fract_y
_atom_site_fract_z
Si Si1 0.207037 0.663902 0.086396
Si Si2 0.839089 0.834417 0.606605
Si Si3 0.697534 0.160360 0.518770
Si Si4 0.336945 0.835471 0.166535
Si Si5 0.981555 0.335971 0.168325
Si Si6 0.412480 0.336067 0.610733
Si Si7 0.167926 0.336634 0.912706
Si Si8 0.465812 0.839664 0.295763
O O1 0.183315 0.500000 0.159639
O O2 0.151351 0.758684 0.291890
O O3 0.170442 0.709960 0.038786
O O4 0.316180 0.690271 0.873907
O O5 0.734553 0.811389 0.785141
O O6 0.902236 0.763519 0.380788
O O7 0.864216 0.000000 0.565423
O O8 0.701432 0.229100 0.636229
O O9 0.591370 0.163499 0.701484
O O10 0.736138 0.000000 0.437284
O O11 0.758457 0.250084 0.308797
O O12 0.355376 0.000000 0.154009
O O13 0.434416 0.767702 0.929403
O O14 0.950754 0.500000 0.238301
O O15 0.068990 0.307619 0.065293
O O16 0.000000 0.292284 0.000000
O O17 0.500000 0.281100 0.500000
O O18 0.424429 0.500000 0.555148
O O19 0.407952 0.249469 0.505113
O O20 0.196319 0.500000 0.844351
O O21 0.476072 0.000000 0.320524
#
# Coordination Sequence:
#
# PCOD8060848 Si02
#       8
#     4   4   4   4   4   4   4   4
#     4  10  21  38  57  78 112 151 186 227 277 335
#     4  11  23  38  59  85 114 147 186 234 280 326
#     4  10  19  33  56  83 112 147 187 231 278 332
#     4   9  19  35  53  79 115 151 185 226 282 339
#     4  10  22  41  64  88 113 144 184 227 279 344
#     4  10  20  34  53  77 109 150 192 234 276 320
#     4  10  21  38  60  83 111 149 186 229 284 336
#     4  10  19  32  53  80 110 147 188 229 275 331
#
# _framework density 19.665825000000002
#
# number of rings (size 3 to 8) (size 9 to 14) (size 15 to 20)
#    0.000    2.000    1.250    2.250    0.000    4.000 
#    0.000    4.375    0.000    1.500    0.000    0.000 
#    0.000    0.000    0.000    0.000    0.000    0.000 
#
# Total GULP energy -396829.922452 kJ/mol
# GULP energy per Si atom -12400.935077 kJ/mol
# Density = 1.962106 g / cm^3
# Si number density = 19.665825 Si / 1000 Ang^3
#
#
#
# Elastic Constant Matrix: (Units=GPa)
#
#
# Indices 1 2 3 4 5 6 
#
# 1 78.7662 27.2132 20.1792 0.0000 14.5849 0.0000
# 2 27.2132 66.8219 49.8193 0.0000 13.2260 0.0000
# 3 20.1792 49.8193 93.8652 0.0000 18.8640 0.0000
# 4 0.0000 0.0000 0.0000 98.5855 0.0000 -17.4825
# 5 14.5849 13.2260 18.8640 0.0000 35.1427 0.0000
# 6 0.0000 0.0000 0.0000 -17.4825 0.0000 30.0388
#
#
#
# Elastic Compliance Matrix: (Units=1/GPa)
#
#
# Indices 1 2 3 4 5 6 
#
# 1 0.015396 -0.005929 0.000754 0.000000 -0.004563 0.000000
# 2 -0.005929 0.027252 -0.013028 0.000000 -0.000802 0.000000
# 3 0.000754 -0.013028 0.018477 0.000000 -0.005328 0.000000
# 4 0.000000 0.000000 0.000000 0.011311 0.000000 0.006583
# 5 -0.004563 -0.000802 -0.005328 0.000000 0.033511 0.000000
# 6 0.000000 0.000000 0.000000 0.006583 0.000000 0.037121
#
#
# Mechanical properties :
#
#
# Convention : Reuss Voigt Hill
#
# Bulk Modulus (GPa) = 40.45561 48.20851 44.33206
# Shear Modulus (GPa) = 26.63638 42.23619 34.43629
#
# Velocity S-wave (km/s) = 3.68428 4.63935 4.18912
# Velocity P-wave (km/s) = 6.22212 7.29830 6.78159
#
# Compressibility (1/GPa) = 0.02471845
#
# Stress axis : x y z
#
# Youngs Moduli (GPa) = 64.95203 36.69512 54.12173
#
# Poissons Ratio (x) = 0.21757 -0.04081
# Poissons Ratio (y) = 0.38510 0.70510
# Poissons Ratio (z) = -0.04898 0.47806
#
# Static dielectric constant tensor:
#      x y z
#    x 3.771050 0.000000 -0.040870 
#    y 0.000000 3.421010 0.000000 
#    z -0.040870 0.000000 3.458320 
# 
# 
# High freq. dielectric constant tensor:
#      x y z
#    x 1.778060 0.000000 0.000860 
#    y 0.000000 1.747200 0.000000 
#    z 0.000860 0.000000 1.765440 
# 
# From -- ./inp_files/58146.got.cif
#   From: 2010.06.25/outbox.cif.g09.slc.cpg/sg10_30_cif.got.tgz:58146.got - 2010.06.27 22:07:45.
