data_PCOD8060566
_publ_section_title
;
Structure prediction by ZEFSAII (Michael W. Deem and Ramdas Pophale) SiO2 
 PCOD8060566
Probable space group: P 2/M
;
_chemical_formula_sum "Si O2"
_cell_formula_units_Z 32
_cell_length_a 14.320044
_cell_length_b 8.649974
_cell_length_c 25.904570
_cell_angle_alpha 90.000000
_cell_angle_beta 144.756876
_cell_angle_gamma 90.000000
_cell_volume 1851.598697
_symmetry_space_group_name_H-M "P 2/M"
_symmetry_group_IT_number 10
_symmetry_cell_setting 'monoclinic'
loop_
_space_group_symop_operation_xyz
x,y,z
-x,y,-z
-x,-y,-z
x,-y,z
loop_
_atom_site_type_symbol
_atom_site_label
_atom_site_fract_x
_atom_site_fract_y
_atom_site_fract_z
Si Si1 0.441472 0.678106 0.245676
Si Si2 0.525457 0.172376 0.843989
Si Si3 0.907082 0.181379 0.907152
Si Si4 0.057149 0.681352 0.600808
Si Si5 0.236123 0.181184 0.587257
Si Si6 0.315698 0.320040 0.914621
Si Si7 0.213363 0.178796 0.765991
Si Si8 0.174634 0.826778 0.949054
O O1 0.454527 0.500000 0.266289
O O2 0.480701 0.700488 0.203128
O O3 0.264151 0.738222 0.178789
O O4 0.578224 0.770931 0.339591
O O5 0.394249 0.211919 0.827947
O O6 0.495118 0.000000 0.806852
O O7 0.700255 0.179773 0.947835
O O8 0.004980 0.218601 0.898868
O O9 0.877996 0.000000 0.901620
O O10 0.000000 0.246257 0.000000
O O11 0.081927 0.500000 0.603386
O O12 0.184960 0.773182 0.622607
O O13 0.086785 0.726909 0.673678
O O14 0.875200 0.728097 0.503744
O O15 0.211654 0.000000 0.568154
O O16 0.320571 0.500000 0.904231
O O17 0.209646 0.236544 0.822974
O O18 0.222697 0.292165 0.926207
O O19 0.500000 0.254161 0.000000
O O20 0.165179 0.000000 0.742249
O O21 0.169210 0.000000 0.923105
#
# Coordination Sequence:
#
# PCOD8060566 Si02
#       8
#     4   4   4   4   4   4   4   4
#     4  12  23  33  50  77 108 141 177 220 267 313
#     4  10  19  32  51  73 102 140 180 220 257 308
#     4  10  20  36  55  75 102 139 182 222 261 315
#     4  11  21  34  52  78 109 136 170 218 270 313
#     4  11  21  35  53  74 104 142 180 213 256 316
#     4  11  23  35  50  75 108 140 175 222 269 311
#     4  11  21  34  54  76 103 143 184 214 256 317
#     4  10  20  36  55  73  99 139 183 224 261 306
#
# _framework density 17.282361999999999
#
# number of rings (size 3 to 8) (size 9 to 14) (size 15 to 20)
#    0.000    1.250    3.750    4.875    0.000    2.250 
#    0.000    0.000    0.000    0.000    0.000    0.875 
#    0.000    7.000    0.000    0.000    0.000    0.000 
#
# Total GULP energy -396887.419869 kJ/mol
# GULP energy per Si atom -12402.731871 kJ/mol
# Density = 1.724303 g / cm^3
# Si number density = 17.282362 Si / 1000 Ang^3
#
#
#
# Elastic Constant Matrix: (Units=GPa)
#
#
# Indices 1 2 3 4 5 6 
#
# 1 58.3363 22.9680 33.0016 0.0000 4.0011 0.0000
# 2 22.9680 83.8420 30.1902 0.0000 2.3597 0.0000
# 3 33.0016 30.1902 97.9048 0.0000 6.1389 0.0000
# 4 0.0000 0.0000 0.0000 28.4206 0.0000 -1.1917
# 5 4.0011 2.3597 6.1389 0.0000 27.8693 0.0000
# 6 0.0000 0.0000 0.0000 -1.1917 0.0000 23.7149
#
#
#
# Elastic Compliance Matrix: (Units=1/GPa)
#
#
# Indices 1 2 3 4 5 6 
#
# 1 0.022276 -0.003814 -0.006239 0.000000 -0.001501 0.000000
# 2 -0.003814 0.014071 -0.003055 0.000000 0.000029 0.000000
# 3 -0.006239 -0.003055 0.013371 0.000000 -0.001791 0.000000
# 4 0.000000 0.000000 0.000000 0.035260 0.000000 0.001772
# 5 -0.001501 0.000029 -0.001791 0.000000 0.036489 0.000000
# 6 0.000000 0.000000 0.000000 0.001772 0.000000 0.042257
#
#
# Mechanical properties :
#
#
# Convention : Reuss Voigt Hill
#
# Bulk Modulus (GPa) = 42.54751 45.82254 44.18502
# Shear Modulus (GPa) = 25.28141 26.26252 25.77196
#
# Velocity S-wave (km/s) = 3.82886 3.90245 3.86583
# Velocity P-wave (km/s) = 6.64977 6.84669 6.74895
#
# Compressibility (1/GPa) = 0.02350314
#
# Stress axis : x y z
#
# Youngs Moduli (GPa) = 44.89207 71.06666 74.78674
#
# Poissons Ratio (x) = 0.27102 0.46656
# Poissons Ratio (y) = 0.17120 0.22850
# Poissons Ratio (z) = 0.28006 0.21714
#
# Static dielectric constant tensor:
#      x y z
#    x 2.955390 0.000000 0.083910 
#    y 0.000000 3.211630 0.000000 
#    z 0.083910 0.000000 3.277550 
# 
# 
# High freq. dielectric constant tensor:
#      x y z
#    x 1.633620 0.000000 0.004660 
#    y 0.000000 1.673390 0.000000 
#    z 0.004660 0.000000 1.665530 
# 
# From -- ./inp_files/93129.got.cif
#   From: 2010.06.25/outbox.cif.g09.slc.cpg/sg10_47_cif.got.tgz:93129.got - 2010.06.27 22:07:45.
