data_PCOD8060655
_publ_section_title
;
Structure prediction by ZEFSAII (Michael W. Deem and Ramdas Pophale) SiO2 
 PCOD8060655
Probable space group: P 2/M
;
_chemical_formula_sum "Si O2"
_cell_formula_units_Z 28
_cell_length_a 10.854051
_cell_length_b 9.456280
_cell_length_c 15.132631
_cell_angle_alpha 90.000000
_cell_angle_beta 62.736400
_cell_angle_gamma 90.000000
_cell_volume 1380.650167
_symmetry_space_group_name_H-M "P 2/M"
_symmetry_group_IT_number 10
_symmetry_cell_setting 'monoclinic'
loop_
_space_group_symop_operation_xyz
x,y,z
-x,y,-z
-x,-y,-z
x,-y,z
loop_
_atom_site_type_symbol
_atom_site_label
_atom_site_fract_x
_atom_site_fract_y
_atom_site_fract_z
Si Si1 0.182274 0.842146 0.841202
Si Si2 0.924279 0.334333 0.438309
Si Si3 0.490514 0.158483 0.257969
Si Si4 0.605419 0.333839 0.544198
Si Si5 0.162216 0.344422 0.006214
Si Si6 0.016029 0.335160 0.772938
Si Si7 0.514462 0.341758 0.091921
O O1 0.345302 0.850130 0.797201
O O2 0.146415 0.755731 0.764284
O O3 0.119613 0.000000 0.857138
O O4 0.108510 0.761580 0.947716
O O5 0.924505 0.500000 0.453820
O O6 0.764643 0.286893 0.474441
O O7 0.010954 0.293723 0.320964
O O8 0.000000 0.264343 0.500000
O O9 0.440940 0.246627 0.356683
O O10 0.438571 0.240209 0.187026
O O11 0.427474 0.000000 0.279961
O O12 0.500000 0.292842 0.500000
O O13 0.594071 0.500000 0.568695
O O14 0.100092 0.500000 0.008011
O O15 0.116060 0.297559 0.120888
O O16 0.324797 0.351409 0.941587
O O17 0.057040 0.500000 0.764263
O O18 0.447547 0.500000 0.117696
O O19 0.500000 0.273926 0.000000
#
# Coordination Sequence:
#
# PCOD8060655 Si02
#       7
#     4   4   4   4   4   4   4
#     4  10  20  33  50  75 106 137 170 210 259 315
#     4   9  19  35  55  80 109 140 176 221 270 317
#     4  10  21  35  52  76 106 140 175 217 270 320
#     4  10  20  35  58  85 108 136 180 230 274 317
#     4   9  18  31  49  76 106 134 167 209 258 313
#     4  10  19  32  52  75 101 135 172 211 258 312
#     4   9  18  33  53  77 104 135 173 215 258 311
#
# _framework density 20.2803
#
# number of rings (size 3 to 8) (size 9 to 14) (size 15 to 20)
#    0.000    2.429    0.000    2.143    0.000    6.857 
#    0.000    5.000    0.000    3.429    0.000    0.000 
#    0.000    0.000    0.000    0.000    0.000    0.000 
#
# Total GULP energy -346971.552631 kJ/mol
# GULP energy per Si atom -12391.841165 kJ/mol
# Density = 2.023414 g / cm^3
# Si number density = 20.280300 Si / 1000 Ang^3
#
#
#
# Elastic Constant Matrix: (Units=GPa)
#
#
# Indices 1 2 3 4 5 6 
#
# 1 61.5068 15.1366 35.4636 0.0000 20.3659 0.0000
# 2 15.1366 82.3355 58.6933 0.0000 18.3244 0.0000
# 3 35.4636 58.6933 156.4323 0.0000 32.1180 0.0000
# 4 0.0000 0.0000 0.0000 74.9326 0.0000 7.8619
# 5 20.3659 18.3244 32.1180 0.0000 37.9607 0.0000
# 6 0.0000 0.0000 0.0000 7.8619 0.0000 14.8903
#
#
#
# Elastic Compliance Matrix: (Units=1/GPa)
#
#
# Indices 1 2 3 4 5 6 
#
# 1 0.020834 0.000277 -0.003031 0.000000 -0.008747 0.000000
# 2 0.000277 0.016936 -0.005698 0.000000 -0.003503 0.000000
# 3 -0.003031 -0.005698 0.010068 0.000000 -0.004141 0.000000
# 4 0.000000 0.000000 0.000000 0.014128 0.000000 -0.007459
# 5 -0.008747 -0.003503 -0.004141 0.000000 0.036231 0.000000
# 6 0.000000 0.000000 0.000000 -0.007459 0.000000 0.071096
#
#
# Mechanical properties :
#
#
# Convention : Reuss Voigt Hill
#
# Bulk Modulus (GPa) = 32.32684 57.65128 44.98906
# Shear Modulus (GPa) = 25.44421 38.28878 31.86650
#
# Velocity S-wave (km/s) = 3.54591 4.34980 3.96827
# Velocity P-wave (km/s) = 5.72183 7.32916 6.57480
#
# Compressibility (1/GPa) = 0.03093405
#
# Stress axis : x y z
#
# Youngs Moduli (GPa) = 47.99825 59.04605 99.32492
#
# Poissons Ratio (x) = -0.01638 0.30110
# Poissons Ratio (y) = -0.01332 0.56595
# Poissons Ratio (z) = 0.14550 0.33644
#
# Static dielectric constant tensor:
#      x y z
#    x 4.342440 0.000000 -0.486330 
#    y 0.000000 3.814140 0.000000 
#    z -0.486330 0.000000 4.396530 
# 
# 
# High freq. dielectric constant tensor:
#      x y z
#    x 1.779590 0.000000 0.006660 
#    y 0.000000 1.767090 0.000000 
#    z 0.006660 0.000000 1.800770 
# 
# From -- ./inp_files/49640.got.cif
#   From: 2010.06.25/outbox.cif.g09.slc.cpg/sg10_25_cif.got.tgz:49640.got - 2010.06.27 22:07:45.
