data_PCOD8060220
_publ_section_title
;
Structure prediction by ZEFSAII (Michael W. Deem and Ramdas Pophale) SiO2 
 PCOD8060220
Probable space group: P 2/M
;
_chemical_formula_sum "Si O2"
_cell_formula_units_Z 32
_cell_length_a 35.654657
_cell_length_b 8.689907
_cell_length_c 5.178417
_cell_angle_alpha 90.000000
_cell_angle_beta 89.940749
_cell_angle_gamma 90.000000
_cell_volume 1604.457357
_symmetry_space_group_name_H-M "P 2/M"
_symmetry_group_IT_number 10
_symmetry_cell_setting 'monoclinic'
loop_
_space_group_symop_operation_xyz
x,y,z
-x,y,-z
-x,-y,-z
x,-y,z
loop_
_atom_site_type_symbol
_atom_site_label
_atom_site_fract_x
_atom_site_fract_y
_atom_site_fract_z
Si Si1 0.664679 0.683029 0.003272
Si Si2 0.915131 0.681918 0.004334
Si Si3 0.787575 0.820642 0.527788
Si Si4 0.420807 0.681808 0.966703
Si Si5 0.042404 0.316295 0.496107
Si Si6 0.543570 0.820803 0.533524
Si Si7 0.293316 0.682052 0.497230
Si Si8 0.834231 0.820695 0.027556
O O1 0.666409 0.500000 0.006760
O O2 0.621848 0.738368 0.000234
O O3 0.685770 0.751120 0.253120
O O4 0.685925 0.750877 0.753706
O O5 0.918155 0.500000 0.004790
O O6 0.935481 0.749690 0.256899
O O7 0.936548 0.749332 0.755456
O O8 0.872022 0.726752 0.996871
O O9 0.749866 0.725970 0.498510
O O10 0.806613 0.773788 0.796420
O O11 0.777716 0.000000 0.516684
O O12 0.815198 0.773528 0.296368
O O13 0.424773 0.500000 0.005816
O O14 0.433776 0.725048 0.679447
O O15 0.445558 0.767604 0.179763
O O16 0.042353 0.500000 0.496888
O O17 0.000000 0.253285 0.500000
O O18 0.500000 0.785918 0.500000
O O19 0.552681 0.000000 0.498553
O O20 0.296665 0.500000 0.495895
O O21 0.844036 0.000000 0.017005
#
# Coordination Sequence:
#
# PCOD8060220 Si02
#       8
#     4   4   4   4   4   4   4   4
#     4   9  19  35  55  81 111 140 173 221 277 321
#     4  10  19  31  51  76  98 125 166 208 241 290
#     4  10  21  36  52  73 101 134 171 209 253 305
#     4  11  22  39  64  89 115 152 199 242 279 340
#     4   9  17  30  49  74 102 129 158 199 251 297
#     4  11  24  41  59  84 122 159 190 237 299 347
#     4  10  19  34  56  79 105 138 173 213 267 321
#     4  10  21  36  52  70 100 137 166 203 257 305
#
# _framework density 19.944438999999999
#
# number of rings (size 3 to 8) (size 9 to 14) (size 15 to 20)
#    0.000    2.000    0.000    3.750    0.000    7.000 
#    0.000    3.750    0.000    2.250    0.000    0.000 
#    0.000    0.000    0.000    0.000    0.000    0.000 
#
# Total GULP energy -396920.120033 kJ/mol
# GULP energy per Si atom -12403.753751 kJ/mol
# Density = 1.989905 g / cm^3
# Si number density = 19.944439 Si / 1000 Ang^3
#
#
#
# Elastic Constant Matrix: (Units=GPa)
#
#
# Indices 1 2 3 4 5 6 
#
# 1 101.3460 21.7571 32.7884 0.0000 -0.3890 0.0000
# 2 21.7571 18.0112 17.3823 0.0000 0.3485 0.0000
# 3 32.7884 17.3823 134.4845 0.0000 -0.0951 0.0000
# 4 0.0000 0.0000 0.0000 16.5628 0.0000 -4.0410
# 5 -0.3890 0.3485 -0.0951 0.0000 41.5887 0.0000
# 6 0.0000 0.0000 0.0000 -4.0410 0.0000 -12.5714
#
#
#
# Elastic Compliance Matrix: (Units=1/GPa)
#
#
# Indices 1 2 3 4 5 6 
#
# 1 0.013538 -0.015050 -0.001355 0.000000 0.000250 0.000000
# 2 -0.015050 0.080177 -0.006694 0.000000 -0.000828 0.000000
# 3 -0.001355 -0.006694 0.008632 0.000000 0.000063 0.000000
# 4 0.000000 0.000000 0.000000 0.055985 0.000000 -0.017996
# 5 0.000250 -0.000828 0.000063 0.000000 0.024054 0.000000
# 6 0.000000 0.000000 0.000000 -0.017996 0.000000 -0.073761
#
#
# Mechanical properties :
#
#
# Convention : Reuss Voigt Hill
#
# Bulk Modulus (GPa) = 17.81022 44.18860 30.99941
# Shear Modulus (GPa) = 28.81175 21.24361 25.02768
#
# Velocity S-wave (km/s) = 3.80491 3.26719 3.54626
# Velocity P-wave (km/s) = 5.31530 6.03628 5.68723
#
# Compressibility (1/GPa) = 0.05614755
#
# Stress axis : x y z
#
# Youngs Moduli (GPa) = 73.86880 12.47234 115.85470
#
# Poissons Ratio (x) = 0.18771 0.15700
# Poissons Ratio (y) = 1.11172 0.77557
# Poissons Ratio (z) = 0.10010 0.08349
#
# Static dielectric constant tensor:
#      x y z
#    x 3.658430 0.000000 0.000390 
#    y 0.000000 3.246370 0.000000 
#    z 0.000390 0.000000 4.065040 
# 
# 
# High freq. dielectric constant tensor:
#      x y z
#    x 1.793080 0.000000 0.000350 
#    y 0.000000 1.742140 0.000000 
#    z 0.000350 0.000000 1.801390 
# 
# From -- ./inp_files/13648.got.cif
#   From: 2010.06.25/outbox.cif.g09.slc.cpg/sg10_7_cif.got.tgz:13648.got - 2010.06.27 22:07:45.
