data_PCOD8060589
_publ_section_title
;
Structure prediction by ZEFSAII (Michael W. Deem and Ramdas Pophale) SiO2 
 PCOD8060589
Probable space group: P 2/M
;
_chemical_formula_sum "Si O2"
_cell_formula_units_Z 32
_cell_length_a 15.479697
_cell_length_b 14.483910
_cell_length_c 12.123872
_cell_angle_alpha 90.000000
_cell_angle_beta 141.524680
_cell_angle_gamma 90.000000
_cell_volume 1691.234767
_symmetry_space_group_name_H-M "P 2/M"
_symmetry_group_IT_number 10
_symmetry_cell_setting 'monoclinic'
loop_
_space_group_symop_operation_xyz
x,y,z
-x,y,-z
-x,-y,-z
x,-y,z
loop_
_atom_site_type_symbol
_atom_site_label
_atom_site_fract_x
_atom_site_fract_y
_atom_site_fract_z
Si Si1 0.839860 0.400471 0.579219
Si Si2 0.838626 0.107000 0.522498
Si Si3 0.162947 0.232546 0.040849
Si Si4 0.654616 0.198532 0.154734
Si Si5 0.839913 0.400473 0.100731
Si Si6 0.736370 0.396524 0.236494
Si Si7 0.836984 0.767445 0.715088
Si Si8 0.838895 0.893000 0.155233
O O1 0.771744 0.500000 0.542244
O O2 0.829643 0.383734 0.438249
O O3 0.769196 0.319405 0.581093
O O4 0.999980 0.402626 0.769923
O O5 0.739303 0.165775 0.345543
O O6 0.808782 0.139141 0.618012
O O7 0.999855 0.125511 0.652039
O O8 0.801452 0.000000 0.474046
O O9 0.230507 0.223906 0.230365
O O10 0.230750 0.319383 0.042373
O O11 0.191059 0.139126 0.000045
O O12 0.999971 0.248354 0.889796
O O13 0.631494 0.309829 0.131634
O O14 0.739697 0.165811 0.133807
O O15 0.500000 0.154877 0.000000
O O16 0.771791 0.500000 0.001509
O O17 0.829706 0.383770 0.221293
O O18 0.665724 0.500000 0.165886
O O19 0.801717 0.000000 0.129409
#
# Coordination Sequence:
#
# PCOD8060589 Si02
#       8
#     4   4   4   4   4   4   4   4
#     4   9  16  26  45  75 108 140 174 217 268 318
#     4  10  21  37  57  80 108 143 180 220 268 320
#     4   9  17  29  48  76 108 141 178 220 263 311
#     4  12  24  37  57  83 110 139 173 220 271 322
#     4   9  16  26  45  75 108 140 174 217 268 318
#     4  10  19  32  51  75 103 139 179 215 260 322
#     4   9  17  29  48  76 108 141 178 220 263 311
#     4  10  21  37  57  80 108 143 180 220 268 320
#
# _framework density 18.921088000000001
#
# number of rings (size 3 to 8) (size 9 to 14) (size 15 to 20)
#    0.000    2.250    2.500    1.125    0.000    5.750 
#    0.000    5.000    0.000    0.750    0.000    1.750 
#    0.000    4.000    0.000    0.000    0.000    0.000 
#
# Total GULP energy -396430.464552 kJ/mol
# GULP energy per Si atom -12388.452017 kJ/mol
# Density = 1.887802 g / cm^3
# Si number density = 18.921088 Si / 1000 Ang^3
#
#
#
# Elastic Constant Matrix: (Units=GPa)
#
#
# Indices 1 2 3 4 5 6 
#
# 1 71.2932 47.7886 60.7259 0.0000 -30.1136 0.0000
# 2 47.7886 136.5506 42.9126 0.0000 -10.9605 0.0000
# 3 60.7259 42.9126 50.9830 0.0000 -14.9291 0.0000
# 4 0.0000 0.0000 0.0000 14.3417 0.0000 -7.2166
# 5 -30.1136 -10.9605 -14.9291 0.0000 31.3385 0.0000
# 6 0.0000 0.0000 0.0000 -7.2166 0.0000 17.6757
#
#
#
# Elastic Compliance Matrix: (Units=1/GPa)
#
#
# Indices 1 2 3 4 5 6 
#
# 1 -0.148293 -0.003829 0.160064 0.000000 -0.067584 0.000000
# 2 -0.003829 0.009868 -0.004430 0.000000 -0.002338 0.000000
# 3 0.160064 -0.004430 -0.142619 0.000000 0.084317 0.000000
# 4 0.000000 0.000000 0.000000 0.087755 0.000000 0.035829
# 5 -0.067584 -0.002338 0.084317 0.000000 0.006316 0.000000
# 6 0.000000 0.000000 0.000000 0.035829 0.000000 0.071203
#
#
# Mechanical properties :
#
#
# Convention : Reuss Voigt Hill
#
# Bulk Modulus (GPa) = 44.31360 62.40899 53.36129
# Shear Modulus (GPa) = -12.14013 19.83116 3.84551
#
# Velocity S-wave (km/s) = -2.53577 3.24095 1.42717
# Velocity P-wave (km/s) = 3.85974 6.86006 5.56588
#
# Compressibility (1/GPa) = 0.02256644
#
# Stress axis : x y z
#
# Youngs Moduli (GPa) = -6.74342 101.34049 -7.01169
#
# Poissons Ratio (x) = 0.38800 1.12232
# Poissons Ratio (y) = -0.02582 -0.03106
# Poissons Ratio (z) = 1.07938 0.44894
#
# Static dielectric constant tensor:
#      x y z
#    x 3.374120 0.000000 -0.442590 
#    y 0.000000 3.873570 0.000000 
#    z -0.442590 0.000000 3.170570 
# 
# 
# High freq. dielectric constant tensor:
#      x y z
#    x 1.707170 0.000000 -0.036850 
#    y 0.000000 1.755880 0.000000 
#    z -0.036850 0.000000 1.690230 
# 
# From -- ./inp_files/51598.got.cif
#   From: 2010.06.25/outbox.cif.g09.slc.cpg/sg10_26_cif.got.tgz:51598.got - 2010.06.27 22:07:45.
