data_PCOD8060410
_publ_section_title
;
Structure prediction by ZEFSAII (Michael W. Deem and Ramdas Pophale) SiO2 
 PCOD8060410
Probable space group: P 2/M
;
_chemical_formula_sum "Si O2"
_cell_formula_units_Z 32
_cell_length_a 22.228733
_cell_length_b 13.582398
_cell_length_c 15.867526
_cell_angle_alpha 90.000000
_cell_angle_beta 23.136691
_cell_angle_gamma 90.000000
_cell_volume 1882.397013
_symmetry_space_group_name_H-M "P 2/M"
_symmetry_group_IT_number 10
_symmetry_cell_setting 'monoclinic'
loop_
_space_group_symop_operation_xyz
x,y,z
-x,y,-z
-x,-y,-z
x,-y,z
loop_
_atom_site_type_symbol
_atom_site_label
_atom_site_fract_x
_atom_site_fract_y
_atom_site_fract_z
Si Si1 0.194717 0.614073 0.185628
Si Si2 0.524754 0.614302 0.711878
Si Si3 0.375564 0.382893 0.595592
Si Si4 0.282067 0.108729 0.212390
Si Si5 0.884588 0.300477 0.543350
Si Si6 0.035131 0.386660 0.052468
Si Si7 0.223573 0.701861 0.505871
Si Si8 0.390045 0.891946 0.263649
O O1 0.172946 0.500000 0.188056
O O2 0.183043 0.622040 0.302182
O O3 0.066864 0.680827 0.303287
O O4 0.357755 0.658411 0.946983
O O5 0.501481 0.500000 0.728229
O O6 0.591787 0.661588 0.539353
O O7 0.642572 0.629022 0.636684
O O8 0.500000 0.340030 0.500000
O O9 0.383243 0.500000 0.580817
O O10 0.208903 0.351817 0.843892
O O11 0.149211 0.190773 0.376539
O O12 0.340966 0.105000 0.230883
O O13 0.217935 0.000000 0.269848
O O14 0.428977 0.135897 0.964413
O O15 0.805513 0.317740 0.555237
O O16 0.007818 0.500000 0.115278
O O17 0.930492 0.315748 0.243223
O O18 0.000000 0.373992 0.000000
O O19 0.284882 0.812007 0.446663
O O20 0.363139 0.000000 0.339401
#
# Coordination Sequence:
#
# PCOD8060410 Si02
#       8
#     4   4   4   4   4   4   4   4
#     4  10  22  36  45  60 101 146 171 194 232 289
#     4  10  20  33  48  70  97 129 166 203 242 285
#     4   9  18  32  49  68  93 125 161 200 242 287
#     4   8  14  28  50  72  95 123 156 203 254 289
#     4  10  20  33  48  70  97 128 168 201 236 291
#     4  10  19  32  48  72 103 125 153 206 252 278
#     4  11  20  30  52  77  96 123 163 206 247 286
#     4   8  15  28  47  73 101 125 153 195 249 300
#
# _framework density 16.999601999999999
#
# number of rings (size 3 to 8) (size 9 to 14) (size 15 to 20)
#    0.000    2.500    1.250    2.625    1.750    3.500 
#    0.000    2.500    0.000    1.125    0.000    0.000 
#    0.000    1.000    0.000    0.000    0.000    0.000 
#
# Total GULP energy -396591.345908 kJ/mol
# GULP energy per Si atom -12393.479560 kJ/mol
# Density = 1.696091 g / cm^3
# Si number density = 16.999602 Si / 1000 Ang^3
#
#
#
# Elastic Constant Matrix: (Units=GPa)
#
#
# Indices 1 2 3 4 5 6 
#
# 1 75.4218 22.2029 43.7917 0.0000 -10.4545 0.0000
# 2 22.2029 64.0287 52.5373 0.0000 -1.2746 0.0000
# 3 43.7917 52.5373 145.7187 0.0000 -9.6583 0.0000
# 4 0.0000 0.0000 0.0000 26.4566 0.0000 -2.3735
# 5 -10.4545 -1.2746 -9.6583 0.0000 26.1569 0.0000
# 6 0.0000 0.0000 0.0000 -2.3735 0.0000 12.6925
#
#
#
# Elastic Compliance Matrix: (Units=1/GPa)
#
#
# Indices 1 2 3 4 5 6 
#
# 1 0.016974 -0.002672 -0.003789 0.000000 0.005255 0.000000
# 2 -0.002672 0.022694 -0.007562 0.000000 -0.002754 0.000000
# 3 -0.003789 -0.007562 0.010869 0.000000 0.002130 0.000000
# 4 0.000000 0.000000 0.000000 0.038443 0.000000 0.007189
# 5 0.005255 -0.002754 0.002130 0.000000 0.040983 0.000000
# 6 0.000000 0.000000 0.000000 0.007189 0.000000 0.080131
#
#
# Mechanical properties :
#
#
# Convention : Reuss Voigt Hill
#
# Bulk Modulus (GPa) = 44.46271 58.02589 51.24430
# Shear Modulus (GPa) = 20.35521 24.17036 22.26279
#
# Velocity S-wave (km/s) = 3.46409 3.77479 3.62277
# Velocity P-wave (km/s) = 6.49706 7.29428 6.90718
#
# Compressibility (1/GPa) = 0.02249076
#
# Stress axis : x y z
#
# Youngs Moduli (GPa) = 58.91378 44.06379 92.00629
#
# Poissons Ratio (x) = 0.11774 0.34865
# Poissons Ratio (y) = 0.15742 0.69573
# Poissons Ratio (z) = 0.22325 0.33320
#
# Static dielectric constant tensor:
#      x y z
#    x 3.057750 0.000000 -0.045080 
#    y 0.000000 3.234610 0.000000 
#    z -0.045080 0.000000 3.436620 
# 
# 
# High freq. dielectric constant tensor:
#      x y z
#    x 1.638380 0.000000 -0.009670 
#    y 0.000000 1.623190 0.000000 
#    z -0.009670 0.000000 1.663790 
# 
# From -- ./inp_files/80335.got.cif
#   From: 2010.06.25/outbox.cif.g09.slc.cpg/sg10_41_cif.got.tgz:80335.got - 2010.06.27 22:07:45.
