data_PCOD8060724
_publ_section_title
;
Structure prediction by ZEFSAII (Michael W. Deem and Ramdas Pophale) SiO2 
 PCOD8060724
Probable space group: P 2/M
;
_chemical_formula_sum "Si O2"
_cell_formula_units_Z 32
_cell_length_a 27.057949
_cell_length_b 8.942042
_cell_length_c 21.148568
_cell_angle_alpha 90.000000
_cell_angle_beta 161.481803
_cell_angle_gamma 90.000000
_cell_volume 1625.178264
_symmetry_space_group_name_H-M "P 2/M"
_symmetry_group_IT_number 10
_symmetry_cell_setting 'monoclinic'
loop_
_space_group_symop_operation_xyz
x,y,z
-x,y,-z
-x,-y,-z
x,-y,z
loop_
_atom_site_type_symbol
_atom_site_label
_atom_site_fract_x
_atom_site_fract_y
_atom_site_fract_z
Si Si1 0.179953 0.173828 0.625714
Si Si2 0.465287 0.323867 0.529078
Si Si3 0.925816 0.176275 0.742907
Si Si4 0.847700 0.826696 0.174536
Si Si5 0.645508 0.821937 0.041587
Si Si6 0.698753 0.178612 0.358356
Si Si7 0.203420 0.324207 0.018488
Si Si8 0.164389 0.824236 0.227365
O O1 0.252659 0.247302 0.777164
O O2 0.254773 0.244687 0.653396
O O3 0.996177 0.199955 0.399626
O O4 0.222220 0.000000 0.677729
O O5 0.500000 0.267957 0.500000
O O6 0.437067 0.500000 0.495541
O O7 0.616659 0.277296 0.753690
O O8 0.310975 0.250642 0.370884
O O9 0.817029 0.238253 0.554769
O O10 0.840072 0.219129 0.704074
O O11 0.952953 0.000000 0.771756
O O12 0.095337 0.252183 0.941952
O O13 0.706262 0.771739 0.046622
O O14 0.836467 0.000000 0.140320
O O15 0.854697 0.729932 0.120160
O O16 0.653073 0.000000 0.054773
O O17 0.471956 0.759220 0.834468
O O18 0.702909 0.000000 0.363705
O O19 0.183979 0.500000 0.000314
O O20 0.182972 0.000000 0.239354
O O21 0.000000 0.767515 0.000000
#
# Coordination Sequence:
#
# PCOD8060724 Si02
#       8
#     4   4   4   4   4   4   4   4
#     4   9  15  27  46  73 106 139 178 225 274 328
#     4  10  23  42  62  85 114 151 193 230 266 320
#     4  10  20  36  57  82 113 146 184 225 276 337
#     4  10  19  32  52  78 108 142 180 225 282 334
#     4   9  17  26  45  76 108 138 176 227 279 329
#     4   9  16  27  45  74 106 137 173 221 274 324
#     4  11  23  38  57  81 110 146 191 234 274 324
#     4  10  22  38  60  92 123 147 177 223 277 334
#
# _framework density 19.690148000000001
#
# number of rings (size 3 to 8) (size 9 to 14) (size 15 to 20)
#    0.000    2.250    1.250    1.875    1.750    5.000 
#    0.000    0.000    0.000    1.500    0.000    0.875 
#    0.000    0.000    0.000    0.000    0.000    0.000 
#
# Total GULP energy -396720.010923 kJ/mol
# GULP energy per Si atom -12397.500341 kJ/mol
# Density = 1.964533 g / cm^3
# Si number density = 19.690148 Si / 1000 Ang^3
#
#
#
# Elastic Constant Matrix: (Units=GPa)
#
#
# Indices 1 2 3 4 5 6 
#
# 1 133.4472 33.3198 60.5092 0.0000 18.3884 0.0000
# 2 33.3198 34.3546 33.7966 0.0000 4.8198 0.0000
# 3 60.5092 33.7966 113.3036 0.0000 12.3796 0.0000
# 4 0.0000 0.0000 0.0000 18.5391 0.0000 4.9937
# 5 18.3884 4.8198 12.3796 0.0000 39.3207 0.0000
# 6 0.0000 0.0000 0.0000 4.9937 0.0000 18.0946
#
#
#
# Elastic Compliance Matrix: (Units=1/GPa)
#
#
# Indices 1 2 3 4 5 6 
#
# 1 0.011326 -0.006972 -0.003608 0.000000 -0.003306 0.000000
# 2 -0.006972 0.045545 -0.009951 0.000000 0.000810 0.000000
# 3 -0.003608 -0.009951 0.013881 0.000000 -0.001463 0.000000
# 4 0.000000 0.000000 0.000000 0.058272 0.000000 -0.016082
# 5 -0.003306 0.000810 -0.001463 0.000000 0.027339 0.000000
# 6 0.000000 0.000000 0.000000 -0.016082 0.000000 0.059703
#
#
# Mechanical properties :
#
#
# Convention : Reuss Voigt Hill
#
# Bulk Modulus (GPa) = 33.67985 59.59516 46.63750
# Shear Modulus (GPa) = 18.72496 25.42288 22.07392
#
# Velocity S-wave (km/s) = 3.08714 3.59715 3.35186
# Velocity P-wave (km/s) = 5.46345 6.89818 6.22231
#
# Compressibility (1/GPa) = 0.02969135
#
# Stress axis : x y z
#
# Youngs Moduli (GPa) = 88.29455 21.95615 72.04327
#
# Poissons Ratio (x) = 0.15307 0.25991
# Poissons Ratio (y) = 0.61556 0.71689
# Poissons Ratio (z) = 0.31854 0.21848
#
# Static dielectric constant tensor:
#      x y z
#    x 3.793570 0.000000 0.012720 
#    y 0.000000 3.048790 0.000000 
#    z 0.012720 0.000000 3.799190 
# 
# 
# High freq. dielectric constant tensor:
#      x y z
#    x 1.785540 0.000000 0.002590 
#    y 0.000000 1.706930 0.000000 
#    z 0.002590 0.000000 1.781020 
# 
# From -- ./inp_files/87056.got.cif
#   From: 2010.06.25/outbox.cif.g09.slc.cpg/sg10_44_cif.got.tgz:87056.got - 2010.06.27 22:07:45.
