data_PCOD8060554
_publ_section_title
;
Structure prediction by ZEFSAII (Michael W. Deem and Ramdas Pophale) SiO2 
 PCOD8060554
Probable space group: P 2/M
;
_chemical_formula_sum "Si O2"
_cell_formula_units_Z 32
_cell_length_a 20.914577
_cell_length_b 9.494558
_cell_length_c 14.903431
_cell_angle_alpha 90.000000
_cell_angle_beta 37.186810
_cell_angle_gamma 90.000000
_cell_volume 1788.734392
_symmetry_space_group_name_H-M "P 2/M"
_symmetry_group_IT_number 10
_symmetry_cell_setting 'monoclinic'
loop_
_space_group_symop_operation_xyz
x,y,z
-x,y,-z
-x,-y,-z
x,-y,z
loop_
_atom_site_type_symbol
_atom_site_label
_atom_site_fract_x
_atom_site_fract_y
_atom_site_fract_z
Si Si1 0.854061 0.160654 0.828166
Si Si2 0.500666 0.833022 0.216559
Si Si3 0.763138 0.659650 0.083802
Si Si4 0.569909 0.163106 0.334810
Si Si5 0.683716 0.162982 0.883001
Si Si6 0.925024 0.164664 0.343301
Si Si7 0.298834 0.168025 0.334853
Si Si8 0.011683 0.659621 0.086740
O O1 0.804395 0.182031 0.784711
O O2 0.979310 0.195845 0.692865
O O3 0.834993 0.000000 0.882121
O O4 0.785948 0.263563 0.965288
O O5 0.512277 0.785327 0.307331
O O6 0.388961 0.776692 0.302308
O O7 0.502208 0.000000 0.210029
O O8 0.596639 0.770534 0.048293
O O9 0.727857 0.500000 0.103100
O O10 0.672294 0.742524 0.237647
O O11 0.864682 0.664982 0.032597
O O12 0.500000 0.189318 0.500000
O O13 0.602709 0.000000 0.289424
O O14 0.677475 0.231044 0.790885
O O15 0.655303 0.000000 0.905336
O O16 0.816007 0.223749 0.505795
O O17 0.945383 0.243171 0.227482
O O18 0.917022 0.000000 0.330623
O O19 0.296164 0.000000 0.334016
O O20 0.968273 0.500000 0.143142
O O21 0.000000 0.719926 0.000000
#
# Coordination Sequence:
#
# PCOD8060554 Si02
#       8
#     4   4   4   4   4   4   4   4
#     4   9  16  29  49  71  97 127 159 195 242 293
#     4   9  16  28  45  67  98 131 164 199 239 288
#     4  10  19  32  51  72  95 124 160 203 243 283
#     4  10  20  33  50  73  99 129 162 200 247 293
#     4   9  15  25  46  70  94 130 167 199 238 291
#     4   9  18  30  46  73 105 127 152 201 252 288
#     4   9  17  27  42  71 104 129 160 202 246 288
#     4   9  19  35  53  71  93 128 169 200 235 292
#
# _framework density 17.889742999999999
#
# number of rings (size 3 to 8) (size 9 to 14) (size 15 to 20)
#    0.000    2.750    1.250    0.750    0.000    4.000 
#    0.000    3.750    0.000    1.500    0.000    4.375 
#    0.000    0.000    0.000    0.000    0.000    0.000 
#
# Total GULP energy -396636.037825 kJ/mol
# GULP energy per Si atom -12394.876182 kJ/mol
# Density = 1.784903 g / cm^3
# Si number density = 17.889743 Si / 1000 Ang^3
#
#
#
# Elastic Constant Matrix: (Units=GPa)
#
#
# Indices 1 2 3 4 5 6 
#
# 1 111.8141 19.9822 72.7253 0.0000 11.1215 0.0000
# 2 19.9822 41.8144 34.4293 0.0000 0.9858 0.0000
# 3 72.7253 34.4293 134.0300 0.0000 -0.0308 0.0000
# 4 0.0000 0.0000 0.0000 7.1331 0.0000 -3.3176
# 5 11.1215 0.9858 -0.0308 0.0000 29.6960 0.0000
# 6 0.0000 0.0000 0.0000 -3.3176 0.0000 14.8483
#
#
#
# Elastic Compliance Matrix: (Units=1/GPa)
#
#
# Indices 1 2 3 4 5 6 
#
# 1 0.014674 -0.000413 -0.007857 0.000000 -0.005490 0.000000
# 2 -0.000413 0.030373 -0.007578 0.000000 -0.000861 0.000000
# 3 -0.007857 -0.007578 0.013672 0.000000 0.003208 0.000000
# 4 0.000000 0.000000 0.000000 0.156450 0.000000 0.034956
# 5 -0.005490 -0.000861 0.003208 0.000000 0.035763 0.000000
# 6 0.000000 0.000000 0.000000 0.034956 0.000000 0.075158
#
#
# Mechanical properties :
#
#
# Convention : Reuss Voigt Hill
#
# Bulk Modulus (GPa) = 37.00812 60.21467 48.61140
# Shear Modulus (GPa) = 13.63169 21.03693 17.33431
#
# Velocity S-wave (km/s) = 2.76340 3.43289 3.11618
# Velocity P-wave (km/s) = 5.55999 7.03170 6.33870
#
# Compressibility (1/GPa) = 0.02702109
#
# Stress axis : x y z
#
# Youngs Moduli (GPa) = 68.14924 32.92444 73.14422
#
# Poissons Ratio (x) = 0.01361 0.57470
# Poissons Ratio (y) = 0.02817 0.55428
# Poissons Ratio (z) = 0.53545 0.24950
#
# Static dielectric constant tensor:
#      x y z
#    x 3.515630 0.000000 -0.098340 
#    y 0.000000 3.013340 0.000000 
#    z -0.098340 0.000000 3.357050 
# 
# 
# High freq. dielectric constant tensor:
#      x y z
#    x 1.703710 0.000000 -0.005530 
#    y 0.000000 1.644140 0.000000 
#    z -0.005530 0.000000 1.686870 
# 
# From -- ./inp_files/55193.got.cif
#   From: 2010.06.25/outbox.cif.g09.slc.cpg/sg10_28_cif.got.tgz:55193.got - 2010.06.27 22:07:45.
