data_PCOD8060747
_publ_section_title
;
Structure prediction by ZEFSAII (Michael W. Deem and Ramdas Pophale) SiO2 
 PCOD8060747
Probable space group: P 2/M
;
_chemical_formula_sum "Si O2"
_cell_formula_units_Z 28
_cell_length_a 14.149085
_cell_length_b 9.192497
_cell_length_c 14.139697
_cell_angle_alpha 90.000000
_cell_angle_beta 59.307371
_cell_angle_gamma 90.000000
_cell_volume 1581.462752
_symmetry_space_group_name_H-M "P 2/M"
_symmetry_group_IT_number 10
_symmetry_cell_setting 'monoclinic'
loop_
_space_group_symop_operation_xyz
x,y,z
-x,y,-z
-x,-y,-z
x,-y,z
loop_
_atom_site_type_symbol
_atom_site_label
_atom_site_fract_x
_atom_site_fract_y
_atom_site_fract_z
Si Si1 0.282165 0.665021 0.943921
Si Si2 0.478638 0.666827 0.118321
Si Si3 0.067602 0.836625 0.717929
Si Si4 0.104268 0.328024 0.509957
Si Si5 0.115763 0.829720 0.900598
Si Si6 0.817052 0.840381 0.848387
Si Si7 0.273618 0.832690 0.303726
O O1 0.244078 0.500000 0.950325
O O2 0.413486 0.680451 0.870989
O O3 0.221012 0.759599 0.896868
O O4 0.251094 0.715903 0.065210
O O5 0.437320 0.500000 0.135325
O O6 0.390069 0.766271 0.215481
O O7 0.500000 0.722383 0.000000
O O8 0.089998 0.719952 0.625498
O O9 0.132950 0.796932 0.780297
O O10 0.942254 0.830437 0.816043
O O11 0.096689 0.000000 0.667064
O O12 0.118271 0.500000 0.498739
O O13 0.217166 0.254685 0.417606
O O14 0.000000 0.277558 0.500000
O O15 0.119658 0.000000 0.920310
O O16 0.000000 0.766274 0.000000
O O17 0.810668 0.816678 0.739844
O O18 0.769190 0.000000 0.899662
O O19 0.290862 0.000000 0.325085
#
# Coordination Sequence:
#
# PCOD8060747 Si02
#       7
#     4   4   4   4   4   4   4
#     4  11  22  34  53  80 112 149 183 222 271 326
#     4  10  21  37  54  77 113 149 180 222 277 329
#     4  10  20  36  56  78 110 149 185 224 268 319
#     4  11  23  36  54  81 114 148 180 221 275 329
#     4  10  20  36  56  79 110 147 183 224 275 321
#     4  10  19  32  52  79 112 145 181 224 265 318
#     4  11  22  35  56  82 109 145 187 228 268 319
#
# _framework density 17.705128999999999
#
# number of rings (size 3 to 8) (size 9 to 14) (size 15 to 20)
#    0.000    1.571    4.286    1.286    0.000    4.000 
#    0.000    0.000    0.000    0.857    0.000    6.000 
#    0.000    0.000    0.000    0.000    0.000    0.000 
#
# Total GULP energy -347212.095217 kJ/mol
# GULP energy per Si atom -12400.431972 kJ/mol
# Density = 1.766483 g / cm^3
# Si number density = 17.705129 Si / 1000 Ang^3
#
#
#
# Elastic Constant Matrix: (Units=GPa)
#
#
# Indices 1 2 3 4 5 6 
#
# 1 80.1667 41.0855 28.9097 0.0000 2.3964 0.0000
# 2 41.0855 89.7705 52.4694 0.0000 -1.7682 0.0000
# 3 28.9097 52.4694 87.6525 0.0000 -2.4648 0.0000
# 4 0.0000 0.0000 0.0000 31.3131 0.0000 -0.8908
# 5 2.3964 -1.7682 -2.4648 0.0000 22.6703 0.0000
# 6 0.0000 0.0000 0.0000 -0.8908 0.0000 29.3328
#
#
#
# Elastic Compliance Matrix: (Units=1/GPa)
#
#
# Indices 1 2 3 4 5 6 
#
# 1 0.016542 -0.006752 -0.001482 0.000000 -0.002436 0.000000
# 2 -0.006752 0.019892 -0.009646 0.000000 0.001217 0.000000
# 3 -0.001482 -0.009646 0.017709 0.000000 0.001330 0.000000
# 4 0.000000 0.000000 0.000000 0.031963 0.000000 0.000971
# 5 -0.002436 0.001217 0.001330 0.000000 0.044608 0.000000
# 6 0.000000 0.000000 0.000000 0.000971 0.000000 0.034121
#
#
# Mechanical properties :
#
#
# Convention : Reuss Voigt Hill
#
# Bulk Modulus (GPa) = 54.40306 55.83542 55.11924
# Shear Modulus (GPa) = 24.18686 25.67157 24.92922
#
# Velocity S-wave (km/s) = 3.70008 3.81195 3.75643
# Velocity P-wave (km/s) = 7.00344 7.13999 7.07204
#
# Compressibility (1/GPa) = 0.01838132
#
# Stress axis : x y z
#
# Youngs Moduli (GPa) = 60.45205 50.27180 56.46765
#
# Poissons Ratio (x) = 0.33945 0.08371
# Poissons Ratio (y) = 0.40819 0.54469
# Poissons Ratio (z) = 0.08962 0.48493
#
# Static dielectric constant tensor:
#      x y z
#    x 3.226800 0.000000 0.051140 
#    y 0.000000 3.298300 0.000000 
#    z 0.051140 0.000000 3.063970 
# 
# 
# High freq. dielectric constant tensor:
#      x y z
#    x 1.676500 0.000000 0.003890 
#    y 0.000000 1.689150 0.000000 
#    z 0.003890 0.000000 1.666740 
# 
# From -- ./inp_files/49536.got.cif
#   From: 2010.06.25/outbox.cif.g09.slc.cpg/sg10_25_cif.got.tgz:49536.got - 2010.06.27 22:07:45.
