data_PCOD8060207
_publ_section_title
;
Structure prediction by ZEFSAII (Michael W. Deem and Ramdas Pophale) SiO2 
 PCOD8060207
Probable space group: P 2/M
;
_chemical_formula_sum "Si O2"
_cell_formula_units_Z 32
_cell_length_a 14.055638
_cell_length_b 9.126888
_cell_length_c 20.656703
_cell_angle_alpha 90.000000
_cell_angle_beta 41.104662
_cell_angle_gamma 90.000000
_cell_volume 1742.160412
_symmetry_space_group_name_H-M "P 2/M"
_symmetry_group_IT_number 10
_symmetry_cell_setting 'monoclinic'
loop_
_space_group_symop_operation_xyz
x,y,z
-x,y,-z
-x,-y,-z
x,-y,z
loop_
_atom_site_type_symbol
_atom_site_label
_atom_site_fract_x
_atom_site_fract_y
_atom_site_fract_z
Si Si1 0.666610 0.169258 0.915519
Si Si2 0.339287 0.674304 0.574486
Si Si3 0.140796 0.673755 0.791299
Si Si4 0.840215 0.830702 0.954592
Si Si5 0.161930 0.671972 0.284150
Si Si6 0.173652 0.671388 0.533222
Si Si7 0.828315 0.165502 0.592766
Si Si8 0.172302 0.337929 0.915271
O O1 0.723090 0.196440 0.958983
O O2 0.757209 0.267703 0.819938
O O3 0.684432 0.000000 0.885820
O O4 0.500000 0.218105 0.000000
O O5 0.500000 0.738903 0.500000
O O6 0.341179 0.500000 0.575818
O O7 0.243165 0.734855 0.682542
O O8 0.271520 0.728494 0.541971
O O9 0.115268 0.500000 0.800317
O O10 0.219730 0.714525 0.819026
O O11 0.985940 0.747522 0.861233
O O12 0.877137 0.000000 0.944988
O O13 0.773221 0.770808 0.056535
O O14 0.190218 0.500000 0.275644
O O15 0.225112 0.749079 0.316069
O O16 0.992154 0.707954 0.364255
O O17 0.192849 0.500000 0.510055
O O18 0.232390 0.755152 0.439936
O O19 0.000000 0.169322 0.500000
O O20 0.769018 0.000000 0.626300
O O21 0.233595 0.500000 0.899303
O O22 0.000000 0.342304 0.000000
#
# Coordination Sequence:
#
# PCOD8060207 Si02
#       8
#     4   4   4   4   4   4   4   4
#     4  10  22  38  51  67  98 136 167 199 245 299
#     4   9  17  30  49  72  99 132 167 201 239 285
#     4   9  17  31  51  74  99 128 161 198 243 289
#     4  10  19  31  51  75  96 124 162 201 241 288
#     4  10  19  32  53  78 100 125 162 208 251 290
#     4   9  17  30  50  76 103 129 162 207 250 287
#     4   9  17  30  50  75 102 131 162 199 245 297
#     4   8  15  28  47  71  99 127 155 195 244 289
#
# _framework density 18.367998
#
# number of rings (size 3 to 8) (size 9 to 14) (size 15 to 20)
#    0.000    2.750    0.000    2.625    0.000    6.500 
#    0.000    1.875    0.000    3.000    0.000    0.000 
#    0.000    0.000    0.000    0.000    0.000    0.000 
#
# Total GULP energy -396751.454415 kJ/mol
# GULP energy per Si atom -12398.482950 kJ/mol
# Density = 1.832619 g / cm^3
# Si number density = 18.367998 Si / 1000 Ang^3
#
#
#
# Elastic Constant Matrix: (Units=GPa)
#
#
# Indices 1 2 3 4 5 6 
#
# 1 136.0451 54.7024 71.7224 0.0000 23.4214 0.0000
# 2 54.7024 78.5875 37.0873 0.0000 10.7971 0.0000
# 3 71.7224 37.0873 49.2418 0.0000 13.8022 0.0000
# 4 0.0000 0.0000 0.0000 21.0516 0.0000 7.5978
# 5 23.4214 10.7971 13.8022 0.0000 29.6657 0.0000
# 6 0.0000 0.0000 0.0000 7.5978 0.0000 23.7939
#
#
#
# Elastic Compliance Matrix: (Units=1/GPa)
#
#
# Indices 1 2 3 4 5 6 
#
# 1 0.032109 -0.000401 -0.045310 0.000000 -0.004124 0.000000
# 2 -0.000401 0.019749 -0.014219 0.000000 -0.000256 0.000000
# 3 -0.045310 -0.014219 0.098363 0.000000 -0.004816 0.000000
# 4 0.000000 0.000000 0.000000 0.053690 0.000000 -0.017144
# 5 -0.004124 -0.000256 -0.004816 0.000000 0.039299 0.000000
# 6 0.000000 0.000000 0.000000 -0.017144 0.000000 0.047502
#
#
# Mechanical properties :
#
#
# Convention : Reuss Voigt Hill
#
# Bulk Modulus (GPa) = 32.93676 65.65540 49.29608
# Shear Modulus (GPa) = 11.88523 21.59305 16.73914
#
# Velocity S-wave (km/s) = 2.54650 3.43239 3.02208
# Velocity P-wave (km/s) = 5.15914 7.17847 6.25089
#
# Compressibility (1/GPa) = 0.03036122
#
# Stress axis : x y z
#
# Youngs Moduli (GPa) = 31.14427 50.63549 10.16647
#
# Poissons Ratio (x) = 0.02028 0.46064
# Poissons Ratio (y) = 0.01247 0.14456
# Poissons Ratio (z) = 1.41114 0.71999
#
# Static dielectric constant tensor:
#      x y z
#    x 3.483350 0.000000 0.351080 
#    y 0.000000 3.301160 0.000000 
#    z 0.351080 0.000000 3.431870 
# 
# 
# High freq. dielectric constant tensor:
#      x y z
#    x 1.708240 0.000000 0.028940 
#    y 0.000000 1.699070 0.000000 
#    z 0.028940 0.000000 1.699030 
# 
# From -- ./inp_files/84715.got.cif
#   From: 2010.06.25/outbox.cif.g09.slc.cpg/sg10_43_cif.got.tgz:84715.got - 2010.06.27 22:07:45.
