data_PCOD8060930
_publ_section_title
;
Structure prediction by ZEFSAII (Michael W. Deem and Ramdas Pophale) SiO2 
 PCOD8060930
Probable space group: P 2/M
;
_chemical_formula_sum "Si O2"
_cell_formula_units_Z 24
_cell_length_a 15.290270
_cell_length_b 9.211401
_cell_length_c 8.919140
_cell_angle_alpha 90.000000
_cell_angle_beta 91.495596
_cell_angle_gamma 90.000000
_cell_volume 1255.786615
_symmetry_space_group_name_H-M "P 2/M"
_symmetry_group_IT_number 10
_symmetry_cell_setting 'monoclinic'
loop_
_space_group_symop_operation_xyz
x,y,z
-x,y,-z
-x,-y,-z
x,-y,z
loop_
_atom_site_type_symbol
_atom_site_label
_atom_site_fract_x
_atom_site_fract_y
_atom_site_fract_z
Si Si1 0.192305 0.171180 0.131634
Si Si2 0.161983 0.668126 0.825157
Si Si3 0.004231 0.839937 0.178432
Si Si4 0.356390 0.171619 0.335285
Si Si5 0.673956 0.664268 0.365766
Si Si6 0.505711 0.332846 0.170186
O O1 0.103477 0.210957 0.220495
O O2 0.273675 0.223234 0.234081
O O3 0.194266 0.000000 0.097876
O O4 0.196949 0.252109 0.973963
O O5 0.150804 0.500000 0.864112
O O6 0.230143 0.694370 0.695057
O O7 0.068567 0.729448 0.762898
O O8 0.985355 0.000000 0.245197
O O9 0.000000 0.846298 0.000000
O O10 0.344439 0.223672 0.503729
O O11 0.443935 0.238749 0.272702
O O12 0.365956 0.000000 0.336111
O O13 0.666577 0.500000 0.427766
O O14 0.604730 0.688082 0.229396
O O15 0.475445 0.500000 0.177901
O O16 0.500000 0.275193 0.000000
#
# Coordination Sequence:
#
# PCOD8060930 Si02
#       6
#     4   4   4   4   4   4
#     4   9  19  35  53  76 107 141 176 215 263 316
#     4  10  19  32  54  82 106 134 178 224 261 304
#     4   8  15  30  51  74 104 140 174 213 263 313
#     4  11  23  37  55  80 108 139 177 219 260 305
#     4  10  22  38  54  76 109 144 174 209 261 321
#     4  10  21  39  61  81 104 138 175 211 260 319
#
# _framework density 19.111526000000001
#
# number of rings (size 3 to 8) (size 9 to 14) (size 15 to 20)
#    0.000    2.333    0.000    3.500    0.000   10.000 
#    0.000    0.833    0.000    5.000    0.000    0.000 
#    0.000    0.000    0.000    0.000    0.000    0.000 
#
# Total GULP energy -297617.643700 kJ/mol
# GULP energy per Si atom -12400.735154 kJ/mol
# Density = 1.906803 g / cm^3
# Si number density = 19.111526 Si / 1000 Ang^3
#
#
#
# Elastic Constant Matrix: (Units=GPa)
#
#
# Indices 1 2 3 4 5 6 
#
# 1 93.6320 33.1898 9.6781 0.0000 -18.7624 0.0000
# 2 33.1898 69.2349 28.2043 0.0000 -13.0285 0.0000
# 3 9.6781 28.2043 58.9459 0.0000 -15.5735 0.0000
# 4 0.0000 0.0000 0.0000 -22.2724 0.0000 14.0288
# 5 -18.7624 -13.0285 -15.5735 0.0000 21.5972 0.0000
# 6 0.0000 0.0000 0.0000 14.0288 0.0000 28.1507
#
#
#
# Elastic Compliance Matrix: (Units=1/GPa)
#
#
# Indices 1 2 3 4 5 6 
#
# 1 0.014951 -0.006481 0.003761 0.000000 0.011792 0.000000
# 2 -0.006481 0.021341 -0.008936 0.000000 0.000800 0.000000
# 3 0.003761 -0.008936 0.024783 0.000000 0.015748 0.000000
# 4 0.000000 0.000000 0.000000 -0.034172 0.000000 0.017030
# 5 0.011792 0.000800 0.015748 0.000000 0.068385 0.000000
# 6 0.000000 0.000000 0.000000 0.017030 0.000000 0.027036
#
#
# Mechanical properties :
#
#
# Convention : Reuss Voigt Hill
#
# Bulk Modulus (GPa) = 26.47893 40.43969 33.45931
# Shear Modulus (GPa) = 31.60080 15.54448 23.57264
#
# Velocity S-wave (km/s) = 4.07073 2.85503 3.51583
# Velocity P-wave (km/s) = 5.99829 5.66340 5.83325
#
# Compressibility (1/GPa) = 0.03776588
#
# Stress axis : x y z
#
# Youngs Moduli (GPa) = 66.88324 46.85797 40.34964
#
# Poissons Ratio (x) = 0.30368 -0.15177
# Poissons Ratio (y) = 0.43345 0.36055
# Poissons Ratio (z) = -0.25158 0.41871
#
# Static dielectric constant tensor:
#      x y z
#    x 3.944480 0.000000 0.097930 
#    y 0.000000 3.501100 0.000000 
#    z 0.097930 0.000000 3.216850 
# 
# 
# High freq. dielectric constant tensor:
#      x y z
#    x 1.762720 0.000000 0.000120 
#    y 0.000000 1.741490 0.000000 
#    z 0.000120 0.000000 1.717900 
# 
# From -- ./inp_files/27194.got.cif
#   From: 2010.06.25/outbox.cif.g09.slc.cpg/sg10_14_cif.got.tgz:27194.got - 2010.06.27 22:07:45.
