data_PCOD8060228
_publ_section_title
;
Structure prediction by ZEFSAII (Michael W. Deem and Ramdas Pophale) SiO2 
 PCOD8060228
Probable space group: P 2/M
;
_chemical_formula_sum "Si O2"
_cell_formula_units_Z 28
_cell_length_a 18.095644
_cell_length_b 18.272219
_cell_length_c 10.070954
_cell_angle_alpha 90.000000
_cell_angle_beta 153.949526
_cell_angle_gamma 90.000000
_cell_volume 1462.384083
_symmetry_space_group_name_H-M "P 2/M"
_symmetry_group_IT_number 10
_symmetry_cell_setting 'monoclinic'
loop_
_space_group_symop_operation_xyz
x,y,z
-x,y,-z
-x,-y,-z
x,-y,z
loop_
_atom_site_type_symbol
_atom_site_label
_atom_site_fract_x
_atom_site_fract_y
_atom_site_fract_z
Si Si1 0.007363 0.420720 0.854342
Si Si2 0.652543 0.000000 0.145331
Si Si3 0.410619 0.868444 0.149477
Si Si4 0.507374 0.277999 0.854696
Si Si5 0.847322 0.722001 0.854696
Si Si6 0.761142 0.868444 0.850523
Si Si7 0.653021 0.420720 0.145658
Si Si8 0.992788 0.000000 0.145331
O O1 0.076558 0.500000 0.913605
O O2 0.823204 0.405831 0.500000
O O3 0.000000 0.423802 0.000000
O O4 0.125409 0.351211 0.010382
O O5 0.500000 0.000000 0.000000
O O6 0.649858 0.928273 0.051482
O O7 0.819213 0.000000 0.500000
O O8 0.399254 0.789331 0.063537
O O9 0.599866 0.886970 0.500000
O O10 0.284650 0.869167 0.069301
O O11 0.319911 0.287739 0.500000
O O12 0.500000 0.264414 0.000000
O O13 0.615028 0.351211 0.989619
O O14 0.835717 0.789331 0.936463
O O15 0.000000 0.735586 0.000000
O O16 0.901624 0.928273 0.051482
O O17 0.662953 0.500000 0.086395
O O18 0.500000 0.423802 0.000000
O O19 0.000000 0.000000 0.000000
#
# Coordination Sequence:
#
# PCOD8060228 Si02
#       8
#     4   2   4   4   4   4   4   2
#     4   9  16  26  43  69 101 135 171 215 266 314
#     4  12  25  40  61  87 111 139 177 218 263 314
#     4  10  22  40  59  80 110 145 178 217 267 318
#     4  10  19  31  51  77 104 137 176 218 264 314
#     4  10  19  31  51  77 104 137 176 218 264 314
#     4  10  22  40  59  80 110 145 178 217 267 318
#     4   9  16  26  43  69 101 135 171 215 266 314
#     4  12  25  40  61  87 111 139 177 218 263 314
#
# _framework density 19.146816999999999
#
# number of rings (size 3 to 8) (size 9 to 14) (size 15 to 20)
#    0.000    2.000    0.000    6.000    0.000    8.571 
#    0.000    0.000    0.000    0.857    0.000    6.000 
#    0.000    0.000    0.000    0.000    0.000    0.000 
#
# Total GULP energy -347063.436605 kJ/mol
# GULP energy per Si atom -12395.122736 kJ/mol
# Density = 1.910324 g / cm^3
# Si number density = 19.146817 Si / 1000 Ang^3
#
#
#
# Elastic Constant Matrix: (Units=GPa)
#
#
# Indices 1 2 3 4 5 6 
#
# 1 92.2649 69.7580 53.1824 0.0000 -0.1529 0.0000
# 2 69.7580 194.4365 94.5948 0.0000 -2.1023 0.0000
# 3 53.1824 94.5948 131.7049 0.0000 -3.1855 0.0000
# 4 0.0000 0.0000 0.0000 39.4689 0.0000 -6.2044
# 5 -0.1529 -2.1023 -3.1855 0.0000 20.7008 0.0000
# 6 0.0000 0.0000 0.0000 -6.2044 0.0000 -33.8289
#
#
#
# Elastic Compliance Matrix: (Units=1/GPa)
#
#
# Indices 1 2 3 4 5 6 
#
# 1 0.015909 -0.003968 -0.003594 0.000000 -0.000839 0.000000
# 2 -0.003968 0.008895 -0.004783 0.000000 0.000138 0.000000
# 3 -0.003594 -0.004783 0.012514 0.000000 0.001413 0.000000
# 4 0.000000 0.000000 0.000000 0.024626 0.000000 -0.004517
# 5 -0.000839 0.000138 0.001413 0.000000 0.048533 0.000000
# 6 0.000000 0.000000 0.000000 -0.004517 0.000000 -0.028732
#
#
# Mechanical properties :
#
#
# Convention : Reuss Voigt Hill
#
# Bulk Modulus (GPa) = 79.19705 94.83075 87.01390
# Shear Modulus (GPa) = 45.18968 18.65957 31.92462
#
# Velocity S-wave (km/s) = 4.86342 3.12517 4.08776
# Velocity P-wave (km/s) = 8.54342 7.91568 8.23553
#
# Compressibility (1/GPa) = 0.01262673
#
# Stress axis : x y z
#
# Youngs Moduli (GPa) = 62.85816 112.41953 79.91193
#
# Poissons Ratio (x) = 0.44608 0.28723
# Poissons Ratio (y) = 0.24942 0.38224
# Poissons Ratio (z) = 0.22593 0.53773
#
# Static dielectric constant tensor:
#      x y z
#    x 3.180880 0.000000 -0.033460 
#    y 0.000000 4.363690 0.000000 
#    z -0.033460 0.000000 3.576260 
# 
# 
# High freq. dielectric constant tensor:
#      x y z
#    x 1.700960 0.000000 -0.004530 
#    y 0.000000 1.777150 0.000000 
#    z -0.004530 0.000000 1.754460 
# 
# From -- ./inp_files/56126.got.cif
#   From: 2010.06.25/outbox.cif.g09.slc.cpg/sg10_29_cif.got.tgz:56126.got - 2010.06.27 22:07:45.
