data_PCOD8060198
_publ_section_title
;
Structure prediction by ZEFSAII (Michael W. Deem and Ramdas Pophale) SiO2 
 PCOD8060198
Probable space group: P 2/M
;
_chemical_formula_sum "Si O2"
_cell_formula_units_Z 20
_cell_length_a 8.859608
_cell_length_b 11.963806
_cell_length_c 9.626844
_cell_angle_alpha 90.000000
_cell_angle_beta 47.732872
_cell_angle_gamma 90.000000
_cell_volume 755.108844
_symmetry_space_group_name_H-M "P 2/M"
_symmetry_group_IT_number 10
_symmetry_cell_setting 'monoclinic'
loop_
_space_group_symop_operation_xyz
x,y,z
-x,y,-z
-x,-y,-z
x,-y,z
loop_
_atom_site_type_symbol
_atom_site_label
_atom_site_fract_x
_atom_site_fract_y
_atom_site_fract_z
Si Si1 0.763008 0.372494 0.555194
Si Si2 0.972080 0.228850 0.190295
Si Si3 0.717501 0.373996 0.893017
Si Si4 0.568530 0.785358 0.299905
Si Si5 0.943300 0.000000 0.742052
Si Si6 0.358351 0.000000 0.312796
O O1 0.776716 0.500000 0.487913
O O2 0.864013 0.279970 0.394302
O O3 0.843324 0.370325 0.666586
O O4 0.524843 0.331081 0.702059
O O5 0.819039 0.226857 0.152144
O O6 0.060850 0.107190 0.158773
O O7 0.171107 0.308302 0.052034
O O8 0.687955 0.500000 0.962426
O O9 0.500000 0.316971 0.000000
O O10 0.500000 0.810483 0.500000
O O11 0.497490 0.890799 0.251746
O O12 0.156391 0.000000 0.530208
O O13 0.732704 0.000000 0.785954
#
# Coordination Sequence:
#
# PCOD8060198 Si02
#       6
#     4   4   4   4   2   2
#     4  10  20  34  55  82 111 141 180 231 277 323
#     4  11  21  34  57  86 112 145 183 227 275 325
#     4  10  22  40  58  78 109 148 189 230 274 326
#     4  10  19  31  50  80 120 141 175 223 277 325
#     4  11  21  30  56  85 116 147 182 219 272 331
#     4  11  18  31  48  80 118 148 177 216 276 328
#
# _framework density 26.486249999999998
#
# number of rings (size 3 to 8) (size 9 to 14) (size 15 to 20)
#    0.000    1.600    4.000    3.300    2.800    6.000 
#    0.000    1.500    0.000    3.600    0.000    4.200 
#    0.000    0.000    0.000    0.000    0.000    0.000 
#
# Total GULP energy -247932.711638 kJ/mol
# GULP energy per Si atom -12396.635582 kJ/mol
# Density = 2.642597 g / cm^3
# Si number density = 26.486250 Si / 1000 Ang^3
#
#
#
# Elastic Constant Matrix: (Units=GPa)
#
#
# Indices 1 2 3 4 5 6 
#
# 1 216.6054 92.2273 33.1171 0.0000 -13.2095 0.0000
# 2 92.2273 175.4956 19.6402 0.0000 1.1910 0.0000
# 3 33.1171 19.6402 35.6263 0.0000 -6.3951 0.0000
# 4 0.0000 0.0000 0.0000 -13.8240 0.0000 -48.9036
# 5 -13.2095 1.1910 -6.3951 0.0000 52.5002 0.0000
# 6 0.0000 0.0000 0.0000 -48.9036 0.0000 11.7511
#
#
#
# Elastic Compliance Matrix: (Units=1/GPa)
#
#
# Indices 1 2 3 4 5 6 
#
# 1 0.006628 -0.003012 -0.004283 0.000000 0.001214 0.000000
# 2 -0.003012 0.007458 -0.001511 0.000000 -0.001111 0.000000
# 3 -0.004283 -0.001511 0.033427 0.000000 0.003028 0.000000
# 4 0.000000 0.000000 0.000000 -0.004601 0.000000 -0.019148
# 5 0.001214 -0.001111 0.003028 0.000000 0.019747 0.000000
# 6 0.000000 0.000000 0.000000 -0.019148 0.000000 0.005413
#
#
# Mechanical properties :
#
#
# Convention : Reuss Voigt Hill
#
# Bulk Modulus (GPa) = 33.44346 79.74407 56.59377
# Shear Modulus (GPa) = 52.27410 28.93496 40.60453
#
# Velocity S-wave (km/s) = 4.44738 3.30881 3.91966
# Velocity P-wave (km/s) = 6.24711 6.69109 6.47291
#
# Compressibility (1/GPa) = 0.02990121
#
# Stress axis : x y z
#
# Youngs Moduli (GPa) = 150.87353 134.08908 29.91622
#
# Poissons Ratio (x) = 0.40390 0.12812
# Poissons Ratio (y) = 0.45446 0.04520
# Poissons Ratio (z) = 0.64615 0.20258
#
# Static dielectric constant tensor:
#      x y z
#    x 5.651790 0.000000 -0.616700 
#    y 0.000000 4.621590 0.000000 
#    z -0.616700 0.000000 5.020970 
# 
# 
# High freq. dielectric constant tensor:
#      x y z
#    x 2.086720 0.000000 -0.015540 
#    y 0.000000 2.052510 0.000000 
#    z -0.015540 0.000000 2.091170 
# 
# From -- ./inp_files/41896.got.cif
#   From: 2010.06.25/outbox.cif.g09.slc.cpg/sg10_21_cif.got.tgz:41896.got - 2010.06.27 22:07:45.
