data_PCOD8060671
_publ_section_title
;
Structure prediction by ZEFSAII (Michael W. Deem and Ramdas Pophale) SiO2 
 PCOD8060671
Probable space group: P 2/M
;
_chemical_formula_sum "Si O2"
_cell_formula_units_Z 32
_cell_length_a 22.847453
_cell_length_b 9.068779
_cell_length_c 11.538536
_cell_angle_alpha 90.000000
_cell_angle_beta 46.449215
_cell_angle_gamma 90.000000
_cell_volume 1732.742011
_symmetry_space_group_name_H-M "P 2/M"
_symmetry_group_IT_number 10
_symmetry_cell_setting 'monoclinic'
loop_
_space_group_symop_operation_xyz
x,y,z
-x,y,-z
-x,-y,-z
x,-y,z
loop_
_atom_site_type_symbol
_atom_site_label
_atom_site_fract_x
_atom_site_fract_y
_atom_site_fract_z
Si Si1 0.646985 0.670947 0.291427
Si Si2 0.731456 0.825868 0.583571
Si Si3 0.436490 0.828160 0.795023
Si Si4 0.065219 0.825463 0.072222
Si Si5 0.400189 0.673606 0.386312
Si Si6 0.728702 0.169949 0.854628
Si Si7 0.810876 0.672039 0.942696
Si Si8 0.108983 0.174544 0.759448
O O1 0.627057 0.500000 0.295789
O O2 0.582897 0.765900 0.306178
O O3 0.638335 0.713886 0.437027
O O4 0.737606 0.710893 0.129526
O O5 0.654514 0.742564 0.638618
O O6 0.738632 0.785647 0.708153
O O7 0.811655 0.762803 0.411546
O O8 0.720455 0.000000 0.579173
O O9 0.511886 0.743792 0.746563
O O10 0.456476 0.000000 0.756896
O O11 0.362484 0.796167 0.982045
O O12 0.108164 0.747042 0.120823
O O13 0.971499 0.775179 0.199376
O O14 0.073869 0.000000 0.075020
O O15 0.106145 0.770917 0.896230
O O16 0.406734 0.500000 0.358678
O O17 0.791842 0.266268 0.841367
O O18 0.750140 0.000000 0.847226
O O19 0.826217 0.500000 0.911780
O O20 0.110668 0.000000 0.756805
#
# Coordination Sequence:
#
# PCOD8060671 Si02
#       8
#     4   4   4   4   4   4   4   4
#     4   9  19  34  50  72 104 134 160 198 248 299
#     4  10  20  36  55  73  96 129 171 210 244 287
#     4  10  20  34  52  74  98 127 167 210 248 287
#     4   9  16  30  53  80 107 130 158 198 245 296
#     4  11  22  34  50  74 103 132 161 199 252 305
#     4   9  20  37  54  71  95 130 170 212 249 282
#     4  10  19  32  52  76 101 132 168 202 242 294
#     4   8  16  31  53  79 104 131 161 199 246 293
#
# _framework density 18.467838
#
# number of rings (size 3 to 8) (size 9 to 14) (size 15 to 20)
#    0.000    2.500    0.000    3.000    0.000    4.500 
#    0.000    5.000    0.000    3.750    0.000    0.000 
#    0.000    0.000    0.000    0.000    0.000    0.000 
#
# Total GULP energy -396879.656958 kJ/mol
# GULP energy per Si atom -12402.489280 kJ/mol
# Density = 1.842580 g / cm^3
# Si number density = 18.467838 Si / 1000 Ang^3
#
#
#
# Elastic Constant Matrix: (Units=GPa)
#
#
# Indices 1 2 3 4 5 6 
#
# 1 150.6854 62.0538 42.6877 0.0000 -6.4187 0.0000
# 2 62.0538 67.6762 26.0063 0.0000 0.2545 0.0000
# 3 42.6877 26.0063 49.2637 0.0000 6.2603 0.0000
# 4 0.0000 0.0000 0.0000 17.4709 0.0000 5.8452
# 5 -6.4187 0.2545 6.2603 0.0000 23.4861 0.0000
# 6 0.0000 0.0000 0.0000 5.8452 0.0000 11.0779
#
#
#
# Elastic Compliance Matrix: (Units=1/GPa)
#
#
# Indices 1 2 3 4 5 6 
#
# 1 0.012400 -0.008784 -0.006780 0.000000 0.005291 0.000000
# 2 -0.008784 0.024901 -0.005376 0.000000 -0.001237 0.000000
# 3 -0.006780 -0.005376 0.030265 0.000000 -0.009862 0.000000
# 4 0.000000 0.000000 0.000000 0.069509 0.000000 -0.036676
# 5 0.005291 -0.001237 -0.009862 0.000000 0.046667 0.000000
# 6 0.000000 0.000000 0.000000 -0.036676 0.000000 0.109622
#
#
# Mechanical properties :
#
#
# Convention : Reuss Voigt Hill
#
# Bulk Modulus (GPa) = 38.93282 58.79121 48.86201
# Shear Modulus (GPa) = 14.54305 19.53216 17.03761
#
# Velocity S-wave (km/s) = 2.80925 3.25565 3.04065
# Velocity P-wave (km/s) = 5.62581 6.78497 6.23240
#
# Compressibility (1/GPa) = 0.02568527
#
# Stress axis : x y z
#
# Youngs Moduli (GPa) = 80.64614 40.15831 33.04130
#
# Poissons Ratio (x) = 0.35276 0.22401
# Poissons Ratio (y) = 0.70842 0.17765
# Poissons Ratio (z) = 0.54677 0.21591
#
# Static dielectric constant tensor:
#      x y z
#    x 3.389800 0.000000 -0.087050 
#    y 0.000000 3.234090 0.000000 
#    z -0.087050 0.000000 3.497740 
# 
# 
# High freq. dielectric constant tensor:
#      x y z
#    x 1.722320 0.000000 -0.004560 
#    y 0.000000 1.704230 0.000000 
#    z -0.004560 0.000000 1.705890 
# 
# From -- ./inp_files/55287.got.cif
#   From: 2010.06.25/outbox.cif.g09.slc.cpg/sg10_28_cif.got.tgz:55287.got - 2010.06.27 22:07:45.
