data_PCOD8060818
_publ_section_title
;
Structure prediction by ZEFSAII (Michael W. Deem and Ramdas Pophale) SiO2 
 PCOD8060818
Probable space group: P 2/M
;
_chemical_formula_sum "Si O2"
_cell_formula_units_Z 18
_cell_length_a 5.145726
_cell_length_b 21.281391
_cell_length_c 9.219982
_cell_angle_alpha 90.000000
_cell_angle_beta 61.473325
_cell_angle_gamma 90.000000
_cell_volume 887.085343
_symmetry_space_group_name_H-M "P 2/M"
_symmetry_group_IT_number 10
_symmetry_cell_setting 'monoclinic'
loop_
_space_group_symop_operation_xyz
x,y,z
-x,y,-z
-x,-y,-z
x,-y,z
loop_
_atom_site_type_symbol
_atom_site_label
_atom_site_fract_x
_atom_site_fract_y
_atom_site_fract_z
Si Si1 0.848709 0.898338 0.390514
Si Si2 0.158490 0.245516 0.607614
Si Si3 0.145197 0.000000 0.114704
Si Si4 0.640923 0.570873 0.803787
Si Si5 0.135155 0.639667 0.805989
O O1 0.500000 0.913896 0.500000
O O2 0.908434 0.826217 0.331076
O O3 0.000000 0.915958 0.500000
O O4 0.020796 0.938236 0.225700
O O5 0.500000 0.256928 0.500000
O O6 0.071746 0.290182 0.764315
O O7 0.000000 0.263906 0.500000
O O8 0.500000 0.000000 0.000000
O O9 0.000000 0.000000 0.000000
O O10 0.628774 0.500000 0.746643
O O11 0.475149 0.616933 0.732805
O O12 0.979181 0.592850 0.732542
O O13 0.500000 0.575046 0.000000
O O14 0.000000 0.635314 0.000000
#
# Coordination Sequence:
#
# PCOD8060818 Si02
#       5
#     4   4   2   4   4
#     4  10  21  40  62  82 112 159 199 222 267 346
#     4  10  21  37  57  79 107 146 186 223 268 327
#     4  12  24  38  60  94 124 146 182 242 294 316
#     4   9  17  30  50  76 104 136 177 221 268 328
#     4  10  19  32  53  79 104 135 177 228 277 318
#
# _framework density 20.291172
#
# number of rings (size 3 to 8) (size 9 to 14) (size 15 to 20)
#    0.000    2.000    0.000    4.000    0.000    3.556 
#    0.000    3.333    0.000   13.333    0.000    0.000 
#    0.000    0.000    0.000    0.000    0.000    0.000 
#
# Total GULP energy -223084.861841 kJ/mol
# GULP energy per Si atom -12393.603436 kJ/mol
# Density = 2.024499 g / cm^3
# Si number density = 20.291172 Si / 1000 Ang^3
#
#
#
# Elastic Constant Matrix: (Units=GPa)
#
#
# Indices 1 2 3 4 5 6 
#
# 1 191.5249 65.0681 57.8945 0.0000 18.9668 0.0000
# 2 65.0681 133.6142 52.1916 0.0000 13.2900 0.0000
# 3 57.8945 52.1916 56.0486 0.0000 5.4801 0.0000
# 4 0.0000 0.0000 0.0000 33.1330 0.0000 12.8425
# 5 18.9668 13.2900 5.4801 0.0000 20.9645 0.0000
# 6 0.0000 0.0000 0.0000 12.8425 0.0000 53.8919
#
#
#
# Elastic Compliance Matrix: (Units=1/GPa)
#
#
# Indices 1 2 3 4 5 6 
#
# 1 0.008154 -0.000581 -0.007385 0.000000 -0.005078 0.000000
# 2 -0.000581 0.012276 -0.010387 0.000000 -0.004541 0.000000
# 3 -0.007385 -0.010387 0.034733 0.000000 0.004187 0.000000
# 4 0.000000 0.000000 0.000000 0.033253 0.000000 -0.007924
# 5 -0.005078 -0.004541 0.004187 0.000000 0.054078 0.000000
# 6 0.000000 0.000000 0.000000 -0.007924 0.000000 0.020444
#
#
# Mechanical properties :
#
#
# Convention : Reuss Voigt Hill
#
# Bulk Modulus (GPa) = 54.18098 81.27734 67.72916
# Shear Modulus (GPa) = 24.29581 35.33345 29.81463
#
# Velocity S-wave (km/s) = 3.46404 4.17744 3.83736
# Velocity P-wave (km/s) = 6.53905 7.96307 7.28593
#
# Compressibility (1/GPa) = 0.01845666
#
# Stress axis : x y z
#
# Youngs Moduli (GPa) = 122.64157 81.45741 28.79127
#
# Poissons Ratio (x) = 0.04734 0.21262
# Poissons Ratio (y) = 0.07127 0.29906
# Poissons Ratio (z) = 0.90568 0.84612
#
# Static dielectric constant tensor:
#      x y z
#    x 4.184500 0.000000 0.083700 
#    y 0.000000 1.777630 0.000000 
#    z 0.083700 0.000000 3.214240 
# 
# 
# High freq. dielectric constant tensor:
#      x y z
#    x 1.820660 0.000000 0.011130 
#    y 0.000000 1.802300 0.000000 
#    z 0.011130 0.000000 1.759380 
# 
# From -- ./inp_files/15121.got.cif
#   From: 2010.06.25/outbox.cif.g09.slc.cpg/sg10_8_cif.got.tgz:15121.got - 2010.06.27 22:07:45.
