data_PCOD8060467
_publ_section_title
;
Structure prediction by ZEFSAII (Michael W. Deem and Ramdas Pophale) SiO2 
 PCOD8060467
Probable space group: P 2/M
;
_chemical_formula_sum "Si O2"
_cell_formula_units_Z 30
_cell_length_a 9.174510
_cell_length_b 15.081150
_cell_length_c 12.457844
_cell_angle_alpha 90.000000
_cell_angle_beta 100.754197
_cell_angle_gamma 90.000000
_cell_volume 1693.420520
_symmetry_space_group_name_H-M "P 2/M"
_symmetry_group_IT_number 10
_symmetry_cell_setting 'monoclinic'
loop_
_space_group_symop_operation_xyz
x,y,z
-x,y,-z
-x,-y,-z
x,-y,z
loop_
_atom_site_type_symbol
_atom_site_label
_atom_site_fract_x
_atom_site_fract_y
_atom_site_fract_z
Si Si1 0.348877 0.601177 0.207327
Si Si2 0.639574 0.100969 0.655946
Si Si3 0.304916 0.101463 0.583069
Si Si4 0.753909 0.400191 0.038069
Si Si5 0.146240 0.240400 0.227489
Si Si6 0.320932 0.398083 0.734102
Si Si7 0.000000 0.275774 0.000000
Si Si8 0.907574 0.255247 0.380588
O O1 0.303574 0.500000 0.227427
O O2 0.225526 0.663693 0.244145
O O3 0.510439 0.622083 0.280514
O O4 0.353207 0.616279 0.078789
O O5 0.466307 0.117164 0.657297
O O6 0.681269 0.123851 0.539976
O O7 0.733293 0.164157 0.743918
O O8 0.681712 0.000000 0.687634
O O9 0.184190 0.164547 0.620319
O O10 0.253468 0.000000 0.593678
O O11 0.814917 0.500000 0.045046
O O12 0.670920 0.380278 0.137528
O O13 0.894198 0.336911 0.056133
O O14 0.084137 0.217635 0.100324
O O15 0.018231 0.239097 0.297910
O O16 0.277458 0.500000 0.703079
O O17 0.204826 0.336080 0.656434
O O18 0.000000 0.277714 0.500000
#
# Coordination Sequence:
#
# PCOD8060467 Si02
#       8
#     4   4   4   4   4   4   2   4
#     4   9  19  34  55  78 102 139 188 230 262 302
#     4   9  18  36  60  83 105 136 175 220 267 312
#     4   9  19  36  60  84 105 132 176 226 268 308
#     4   9  16  29  52  77 102 135 181 232 271 301
#     4  11  21  35  54  81 110 145 174 218 265 320
#     4  10  20  35  52  75 108 145 183 223 264 311
#     4  10  19  32  49  78 114 140 178 208 270 318
#     4  12  23  35  53  80 113 143 175 214 268 322
#
# _framework density 17.715623999999998
#
# number of rings (size 3 to 8) (size 9 to 14) (size 15 to 20)
#    0.000    2.133    2.667    2.200    0.000    3.733 
#    0.000    0.333    0.000    1.600    0.000    1.867 
#    0.000    0.000    0.000    0.000    0.000    0.000 
#
# Total GULP energy -371919.288407 kJ/mol
# GULP energy per Si atom -12397.309614 kJ/mol
# Density = 1.767530 g / cm^3
# Si number density = 17.715624 Si / 1000 Ang^3
#
#
#
# Elastic Constant Matrix: (Units=GPa)
#
#
# Indices 1 2 3 4 5 6 
#
# 1 105.6497 65.2007 51.3330 0.0000 7.8921 0.0000
# 2 65.2007 102.1417 52.0887 0.0000 10.7576 0.0000
# 3 51.3330 52.0887 80.8121 0.0000 9.3072 0.0000
# 4 0.0000 0.0000 0.0000 31.8931 0.0000 9.1766
# 5 7.8921 10.7576 9.3072 0.0000 31.3922 0.0000
# 6 0.0000 0.0000 0.0000 9.1766 0.0000 48.7578
#
#
#
# Elastic Compliance Matrix: (Units=1/GPa)
#
#
# Indices 1 2 3 4 5 6 
#
# 1 0.017241 -0.008085 -0.005757 0.000000 0.000143 0.000000
# 2 -0.008085 0.018536 -0.006538 0.000000 -0.002381 0.000000
# 3 -0.005757 -0.006538 0.020522 0.000000 -0.002396 0.000000
# 4 0.000000 0.000000 0.000000 0.033150 0.000000 -0.006239
# 5 0.000143 -0.002381 -0.002396 0.000000 0.033346 0.000000
# 6 0.000000 0.000000 0.000000 -0.006239 0.000000 0.021684
#
#
# Mechanical properties :
#
#
# Convention : Reuss Voigt Hill
#
# Bulk Modulus (GPa) = 64.35374 69.53869 66.94621
# Shear Modulus (GPa) = 26.25807 30.40736 28.33271
#
# Velocity S-wave (km/s) = 3.85411 4.14746 4.00347
# Velocity P-wave (km/s) = 7.49736 7.89134 7.69687
#
# Compressibility (1/GPa) = 0.01553911
#
# Stress axis : x y z
#
# Youngs Moduli (GPa) = 58.00001 53.94898 48.72938
#
# Poissons Ratio (x) = 0.43617 0.28054
# Poissons Ratio (y) = 0.46892 0.31858
# Poissons Ratio (z) = 0.33392 0.35271
#
# Static dielectric constant tensor:
#      x y z
#    x 3.520320 0.000000 0.127300 
#    y 0.000000 3.227090 0.000000 
#    z 0.127300 0.000000 3.156640 
# 
# 
# High freq. dielectric constant tensor:
#      x y z
#    x 1.698070 0.000000 0.008060 
#    y 0.000000 1.675850 0.000000 
#    z 0.008060 0.000000 1.667210 
# 
# From -- ./inp_files/42727.got.cif
#   From: 2010.06.25/outbox.cif.g09.slc.cpg/sg10_22_cif.got.tgz:42727.got - 2010.06.27 22:07:45.
