data_PCOD8060551
_publ_section_title
;
Structure prediction by ZEFSAII (Michael W. Deem and Ramdas Pophale) SiO2 
 PCOD8060551
Probable space group: P 2/M
;
_chemical_formula_sum "Si O2"
_cell_formula_units_Z 32
_cell_length_a 11.653847
_cell_length_b 9.050411
_cell_length_c 21.666123
_cell_angle_alpha 90.000000
_cell_angle_beta 57.469597
_cell_angle_gamma 90.000000
_cell_volume 1926.642388
_symmetry_space_group_name_H-M "P 2/M"
_symmetry_group_IT_number 10
_symmetry_cell_setting 'monoclinic'
loop_
_space_group_symop_operation_xyz
x,y,z
-x,y,-z
-x,-y,-z
x,-y,z
loop_
_atom_site_type_symbol
_atom_site_label
_atom_site_fract_x
_atom_site_fract_y
_atom_site_fract_z
Si Si1 0.652598 0.329090 0.722580
Si Si2 0.117197 0.177811 0.266914
Si Si3 0.892723 0.825446 0.868846
Si Si4 0.622486 0.170294 0.011186
Si Si5 0.630515 0.329447 0.134538
Si Si6 0.093603 0.174069 0.915823
Si Si7 0.780168 0.166912 0.579922
Si Si8 0.055917 0.835506 0.576683
O O1 0.694874 0.500000 0.712811
O O2 0.742667 0.242112 0.746688
O O3 0.494480 0.305228 0.782940
O O4 0.672386 0.268977 0.646882
O O5 0.094705 0.237807 0.204101
O O6 0.985392 0.235957 0.345095
O O7 0.127440 0.000000 0.267403
O O8 0.022474 0.779411 0.872135
O O9 0.878465 0.000000 0.868871
O O10 0.757514 0.762896 0.940571
O O11 0.587976 0.261403 0.081718
O O12 0.644688 0.000000 0.023708
O O13 0.500000 0.189765 0.000000
O O14 0.664305 0.500000 0.115080
O O15 0.761676 0.251924 0.125299
O O16 0.117289 0.000000 0.913418
O O17 0.000000 0.226867 0.000000
O O18 0.823682 0.238223 0.500014
O O19 0.915957 0.160421 0.580278
O O20 0.721827 0.000000 0.589610
O O21 0.109392 0.000000 0.573017
#
# Coordination Sequence:
#
# PCOD8060551 Si02
#       8
#     4   4   4   4   4   4   4   4
#     4  10  20  31  42  64  98 126 153 191 229 265
#     4   9  16  29  49  70  95 124 153 182 225 282
#     4   9  17  30  49  73  92 114 150 192 232 268
#     4  10  19  32  51  72  94 121 154 188 226 277
#     4  11  23  35  47  66  94 125 157 193 235 279
#     4  10  19  35  55  70  89 114 152 205 240 268
#     4   8  13  24  42  63  89 122 156 182 218 270
#     4   7  11  21  40  66  92 118 148 184 219 264
#
# _framework density 16.609207000000001
#
# number of rings (size 3 to 8) (size 9 to 14) (size 15 to 20)
#    0.000    2.750    1.250    3.000    0.000    3.500 
#    0.000    6.250    0.000    0.000    0.000    0.875 
#    0.000    7.000    0.000    0.000    0.000    0.000 
#
# Total GULP energy -396490.651367 kJ/mol
# GULP energy per Si atom -12390.332855 kJ/mol
# Density = 1.657140 g / cm^3
# Si number density = 16.609207 Si / 1000 Ang^3
#
#
#
# Elastic Constant Matrix: (Units=GPa)
#
#
# Indices 1 2 3 4 5 6 
#
# 1 68.4529 29.5420 44.6771 0.0000 -6.7950 0.0000
# 2 29.5420 49.5066 43.2415 0.0000 -4.7562 0.0000
# 3 44.6771 43.2415 136.1674 0.0000 -3.1240 0.0000
# 4 0.0000 0.0000 0.0000 17.3380 0.0000 -4.4308
# 5 -6.7950 -4.7562 -3.1240 0.0000 11.1130 0.0000
# 6 0.0000 0.0000 0.0000 -4.4308 0.0000 10.9994
#
#
#
# Elastic Compliance Matrix: (Units=1/GPa)
#
#
# Indices 1 2 3 4 5 6 
#
# 1 0.021938 -0.008515 -0.004298 0.000000 0.008562 0.000000
# 2 -0.008515 0.032297 -0.007312 0.000000 0.006561 0.000000
# 3 -0.004298 -0.007312 0.011015 0.000000 -0.002661 0.000000
# 4 0.000000 0.000000 0.000000 0.064296 0.000000 0.025900
# 5 0.008562 0.006561 -0.002661 0.000000 0.097280 0.000000
# 6 0.000000 0.000000 0.000000 0.025900 0.000000 0.101347
#
#
# Mechanical properties :
#
#
# Convention : Reuss Voigt Hill
#
# Bulk Modulus (GPa) = 39.99770 54.33867 47.16819
# Shear Modulus (GPa) = 13.27118 17.00115 15.13617
#
# Velocity S-wave (km/s) = 2.82977 3.20284 3.02207
# Velocity P-wave (km/s) = 5.90006 6.81650 6.37477
#
# Compressibility (1/GPa) = 0.02500144
#
# Stress axis : x y z
#
# Youngs Moduli (GPa) = 45.58291 30.96217 90.78558
#
# Poissons Ratio (x) = 0.26364 0.39016
# Poissons Ratio (y) = 0.38813 0.66384
# Poissons Ratio (z) = 0.19590 0.22640
#
# Static dielectric constant tensor:
#      x y z
#    x 2.864200 0.000000 0.183710 
#    y 0.000000 2.917650 0.000000 
#    z 0.183710 0.000000 3.745220 
# 
# 
# High freq. dielectric constant tensor:
#      x y z
#    x 1.601200 0.000000 0.005190 
#    y 0.000000 1.611390 0.000000 
#    z 0.005190 0.000000 1.658520 
# 
# From -- ./inp_files/88517.got.cif
#   From: 2010.06.25/outbox.cif.g09.slc.cpg/sg10_45_cif.got.tgz:88517.got - 2010.06.27 22:07:45.
