data_PCOD8060194
_publ_section_title
;
Structure prediction by ZEFSAII (Michael W. Deem and Ramdas Pophale) SiO2 
 PCOD8060194
Probable space group: P 2/M
;
_chemical_formula_sum "Si O2"
_cell_formula_units_Z 32
_cell_length_a 13.833052
_cell_length_b 14.904005
_cell_length_c 11.103560
_cell_angle_alpha 90.000000
_cell_angle_beta 42.584246
_cell_angle_gamma 90.000000
_cell_volume 1549.039314
_symmetry_space_group_name_H-M "P 2/M"
_symmetry_group_IT_number 10
_symmetry_cell_setting 'monoclinic'
loop_
_space_group_symop_operation_xyz
x,y,z
-x,y,-z
-x,-y,-z
x,-y,z
loop_
_atom_site_type_symbol
_atom_site_label
_atom_site_fract_x
_atom_site_fract_y
_atom_site_fract_z
Si Si1 0.719187 0.221194 0.855424
Si Si2 0.890202 0.103422 0.237658
Si Si3 0.111762 0.247743 0.062330
Si Si4 0.977561 0.401075 0.318458
Si Si5 0.779542 0.098681 0.590296
Si Si6 0.226001 0.599175 0.286419
Si Si7 0.351162 0.809739 0.692571
Si Si8 0.540210 0.099691 0.172585
O O1 0.833227 0.221877 0.857114
O O2 0.802412 0.172063 0.671415
O O3 0.670092 0.320307 0.853048
O O4 0.581139 0.167166 0.026585
O O5 0.891677 0.113769 0.380798
O O6 0.738719 0.136817 0.324536
O O7 0.025722 0.165775 0.076941
O O8 0.917132 0.000000 0.174467
O O9 0.008234 0.333747 0.178116
O O10 0.247718 0.267070 0.847933
O O11 0.964688 0.500000 0.272199
O O12 0.831854 0.378520 0.525599
O O13 0.100159 0.400998 0.305265
O O14 0.628169 0.106217 0.662222
O O15 0.798469 0.000000 0.631073
O O16 0.300207 0.500000 0.217998
O O17 0.500000 0.770041 0.500000
O O18 0.389825 0.877912 0.763840
O O19 0.591416 0.000000 0.089149
#
# Coordination Sequence:
#
# PCOD8060194 Si02
#       8
#     4   4   4   4   4   4   4   4
#     4  10  19  31  50  79 115 143 168 213 273 328
#     4  11  23  37  54  79 110 144 184 233 278 312
#     4  10  22  35  54  86 114 138 174 227 279 326
#     4   8  14  29  53  80 110 142 176 215 264 325
#     4  10  20  33  51  74 105 145 185 220 261 322
#     4   8  14  26  48  77 109 143 176 211 256 318
#     4  11  22  39  59  75 101 145 194 236 273 315
#     4  10  20  34  53  75 100 141 194 233 262 310
#
# _framework density 20.657965000000001
#
# number of rings (size 3 to 8) (size 9 to 14) (size 15 to 20)
#    0.000    2.250    1.250    3.000    0.000    6.500 
#    0.000    1.250    0.000    3.375    0.000    0.000 
#    0.000    0.000    0.000    0.000    0.000    0.000 
#
# Total GULP energy -396462.418489 kJ/mol
# GULP energy per Si atom -12389.450578 kJ/mol
# Density = 2.061095 g / cm^3
# Si number density = 20.657965 Si / 1000 Ang^3
#
#
#
# Elastic Constant Matrix: (Units=GPa)
#
#
# Indices 1 2 3 4 5 6 
#
# 1 47.1868 21.0288 23.0571 0.0000 10.2708 0.0000
# 2 21.0288 128.5929 57.5178 0.0000 9.3759 0.0000
# 3 23.0571 57.5178 113.6820 0.0000 6.8240 0.0000
# 4 0.0000 0.0000 0.0000 22.4068 0.0000 -5.3124
# 5 10.2708 9.3759 6.8240 0.0000 24.1951 0.0000
# 6 0.0000 0.0000 0.0000 -5.3124 0.0000 3.8854
#
#
#
# Elastic Compliance Matrix: (Units=1/GPa)
#
#
# Indices 1 2 3 4 5 6 
#
# 1 0.025861 -0.001886 -0.003739 0.000000 -0.009192 0.000000
# 2 -0.001886 0.010340 -0.004737 0.000000 -0.001870 0.000000
# 3 -0.003739 -0.004737 0.011948 0.000000 0.000053 0.000000
# 4 0.000000 0.000000 0.000000 0.066036 0.000000 0.090290
# 5 -0.009192 -0.001870 0.000053 0.000000 0.045943 0.000000
# 6 0.000000 0.000000 0.000000 0.090290 0.000000 0.380823
#
#
# Mechanical properties :
#
#
# Convention : Reuss Voigt Hill
#
# Bulk Modulus (GPa) = 36.46315 54.74102 45.60209
# Shear Modulus (GPa) = 8.75938 22.62131 15.69035
#
# Velocity S-wave (km/s) = 2.06141 3.31273 2.75895
# Velocity P-wave (km/s) = 4.83271 6.41783 5.68083
#
# Compressibility (1/GPa) = 0.02742495
#
# Stress axis : x y z
#
# Youngs Moduli (GPa) = 38.66851 96.71205 83.69494
#
# Poissons Ratio (x) = 0.18244 0.31293
# Poissons Ratio (y) = 0.07295 0.39644
# Poissons Ratio (z) = 0.14458 0.45809
#
# Static dielectric constant tensor:
#      x y z
#    x 3.405370 0.000000 0.132240 
#    y 0.000000 4.053980 0.000000 
#    z 0.132240 0.000000 3.969460 
# 
# 
# High freq. dielectric constant tensor:
#      x y z
#    x 1.787200 0.000000 0.014720 
#    y 0.000000 1.788770 0.000000 
#    z 0.014720 0.000000 1.810700 
# 
# From -- ./inp_files/51621.got.cif
#   From: 2010.06.25/outbox.cif.g09.slc.cpg/sg10_26_cif.got.tgz:51621.got - 2010.06.27 22:07:45.
