data_PCOD8060567
_publ_section_title
;
Structure prediction by ZEFSAII (Michael W. Deem and Ramdas Pophale) SiO2 
 PCOD8060567
Probable space group: P 2/M
;
_chemical_formula_sum "Si O2"
_cell_formula_units_Z 32
_cell_length_a 23.392707
_cell_length_b 8.752151
_cell_length_c 12.379866
_cell_angle_alpha 90.000000
_cell_angle_beta 46.454999
_cell_angle_gamma 90.000000
_cell_volume 1837.170596
_symmetry_space_group_name_H-M "P 2/M"
_symmetry_group_IT_number 10
_symmetry_cell_setting 'monoclinic'
loop_
_space_group_symop_operation_xyz
x,y,z
-x,y,-z
-x,-y,-z
x,-y,z
loop_
_atom_site_type_symbol
_atom_site_label
_atom_site_fract_x
_atom_site_fract_y
_atom_site_fract_z
Si Si1 0.676831 0.678724 0.735261
Si Si2 0.309458 0.678668 0.893376
Si Si3 0.415650 0.175605 0.328719
Si Si4 0.412373 0.823618 0.583700
Si Si5 0.155456 0.821690 0.158615
Si Si6 0.406842 0.820647 0.957821
Si Si7 0.004103 0.327898 0.622907
Si Si8 0.163504 0.178612 0.399363
O O1 0.690536 0.500000 0.729970
O O2 0.643005 0.717334 0.661547
O O3 0.759925 0.762043 0.639344
O O4 0.613855 0.734682 0.905231
O O5 0.317300 0.500000 0.906590
O O6 0.349973 0.719743 0.727569
O O7 0.348700 0.772854 0.938633
O O8 0.218115 0.727630 0.006001
O O9 0.396261 0.200678 0.478898
O O10 0.505224 0.225284 0.189824
O O11 0.403052 0.000000 0.310798
O O12 0.500000 0.768510 0.500000
O O13 0.401847 0.000000 0.632284
O O14 0.170560 0.780459 0.264050
O O15 0.068333 0.769818 0.235047
O O16 0.165182 0.000000 0.122944
O O17 0.396936 0.000000 0.990659
O O18 0.998046 0.500000 0.674630
O O19 0.086914 0.256434 0.552877
O O20 0.000000 0.322051 0.500000
O O21 0.154800 0.000000 0.428403
#
# Coordination Sequence:
#
# PCOD8060567 Si02
#       8
#     4   4   4   4   4   4   4   4
#     4  12  24  35  51  78 111 141 176 222 270 315
#     4  12  23  33  52  81 110 139 174 222 275 315
#     4  10  22  39  58  75  99 139 184 223 263 317
#     4  10  20  39  60  77  99 136 182 223 266 319
#     4  10  19  32  51  74 104 142 180 215 254 315
#     4  11  21  37  56  75 102 141 183 219 261 320
#     4   9  17  29  47  73 107 138 169 214 263 311
#     4  10  19  32  51  73 103 143 182 212 252 316
#
# _framework density 17.418088999999998
#
# number of rings (size 3 to 8) (size 9 to 14) (size 15 to 20)
#    0.000    1.500    2.500    4.125    0.000    5.750 
#    0.000    0.000    0.000    0.000    0.000    0.875 
#    0.000    7.000    0.000    0.000    0.000    0.000 
#
# Total GULP energy -396963.221682 kJ/mol
# GULP energy per Si atom -12405.100678 kJ/mol
# Density = 1.737845 g / cm^3
# Si number density = 17.418089 Si / 1000 Ang^3
#
#
#
# Elastic Constant Matrix: (Units=GPa)
#
#
# Indices 1 2 3 4 5 6 
#
# 1 45.1561 18.5647 39.8986 0.0000 -9.7992 0.0000
# 2 18.5647 42.2896 21.0548 0.0000 -5.4768 0.0000
# 3 39.8986 21.0548 82.6089 0.0000 -15.2379 0.0000
# 4 0.0000 0.0000 0.0000 24.8364 0.0000 -1.4110
# 5 -9.7992 -5.4768 -15.2379 0.0000 28.7164 0.0000
# 6 0.0000 0.0000 0.0000 -1.4110 0.0000 21.3230
#
#
#
# Elastic Compliance Matrix: (Units=1/GPa)
#
#
# Indices 1 2 3 4 5 6 
#
# 1 0.042000 -0.009404 -0.017265 0.000000 0.003377 0.000000
# 2 -0.009404 0.029261 -0.002747 0.000000 0.000914 0.000000
# 3 -0.017265 -0.002747 0.022127 0.000000 0.005326 0.000000
# 4 0.000000 0.000000 0.000000 0.040415 0.000000 0.002674
# 5 0.003377 0.000914 0.005326 0.000000 0.038976 0.000000
# 6 0.000000 0.000000 0.000000 0.002674 0.000000 0.047075
#
#
# Mechanical properties :
#
#
# Convention : Reuss Voigt Hill
#
# Bulk Modulus (GPa) = 28.94041 36.56564 32.75302
# Shear Modulus (GPa) = 17.22923 21.01092 19.12008
#
# Velocity S-wave (km/s) = 3.14850 3.47691 3.31677
# Velocity P-wave (km/s) = 5.46522 6.09565 5.78902
#
# Compressibility (1/GPa) = 0.03455376
#
# Stress axis : x y z
#
# Youngs Moduli (GPa) = 23.80971 34.17523 45.19446
#
# Poissons Ratio (x) = 0.32139 0.78030
# Poissons Ratio (y) = 0.22391 0.12416
# Poissons Ratio (z) = 0.41108 0.09389
#
# Static dielectric constant tensor:
#      x y z
#    x 3.123480 0.000000 -0.222580 
#    y 0.000000 3.285080 0.000000 
#    z -0.222580 0.000000 3.269540 
# 
# 
# High freq. dielectric constant tensor:
#      x y z
#    x 1.652430 0.000000 -0.024810 
#    y 0.000000 1.683210 0.000000 
#    z -0.024810 0.000000 1.661210 
# 
# From -- ./inp_files/55200.got.cif
#   From: 2010.06.25/outbox.cif.g09.slc.cpg/sg10_28_cif.got.tgz:55200.got - 2010.06.27 22:07:45.
