data_PCOD8060324
_publ_section_title
;
Structure prediction by ZEFSAII (Michael W. Deem and Ramdas Pophale) SiO2 
 PCOD8060324
Probable space group: P 2/M
;
_chemical_formula_sum "Si O2"
_cell_formula_units_Z 26
_cell_length_a 31.365506
_cell_length_b 8.177989
_cell_length_c 5.144014
_cell_angle_alpha 90.000000
_cell_angle_beta 59.658056
_cell_angle_gamma 90.000000
_cell_volume 1138.740663
_symmetry_space_group_name_H-M "P 2/M"
_symmetry_group_IT_number 10
_symmetry_cell_setting 'monoclinic'
loop_
_space_group_symop_operation_xyz
x,y,z
-x,y,-z
-x,-y,-z
x,-y,z
loop_
_atom_site_type_symbol
_atom_site_label
_atom_site_fract_x
_atom_site_fract_y
_atom_site_fract_z
Si Si1 0.192877 0.311864 0.208402
Si Si2 0.867576 0.689630 0.085848
Si Si3 0.303049 0.304444 0.851272
Si Si4 0.471521 0.806253 0.837667
Si Si5 0.359892 0.693266 0.175170
Si Si6 0.965677 0.500000 0.358932
Si Si7 0.057795 0.178001 0.776276
O O1 0.197626 0.500000 0.112175
O O2 0.156550 0.232879 0.101317
O O3 0.247360 0.232801 0.028062
O O4 0.172135 0.289190 0.560290
O O5 0.883685 0.500000 0.999505
O O6 0.916064 0.789765 0.026102
O O7 0.301758 0.500000 0.863718
O O8 0.330851 0.236447 0.512664
O O9 0.333154 0.234513 0.003783
O O10 0.500000 0.735562 0.500000
O O11 0.472136 0.000000 0.835210
O O12 0.500000 0.735900 0.000000
O O13 0.416011 0.746444 0.009998
O O14 0.356960 0.500000 0.184598
O O15 0.931232 0.334038 0.453406
O O16 0.000000 0.500000 0.500000
O O17 0.000000 0.500000 0.000000
O O18 0.074885 0.000000 0.612014
O O19 0.000000 0.171675 0.000000
#
# Coordination Sequence:
#
# PCOD8060324 Si02
#       7
#     4   4   4   4   4   2   4
#     4   9  18  32  55  82 111 145 184 227 277 336
#     4  10  19  34  56  83 110 145 188 230 277 334
#     4   9  17  31  51  80 110 138 178 225 272 328
#     4  10  21  36  52  72 103 142 181 221 269 327
#     4  10  19  31  53  80 107 139 179 227 273 320
#     4  10  22  40  62  86 116 150 192 238 280 342
#     4  10  22  41  63  89 121 158 196 242 297 351
#
# _framework density 22.832239999999999
#
# number of rings (size 3 to 8) (size 9 to 14) (size 15 to 20)
#    0.000    2.308    0.769    1.846    0.000    7.077 
#    0.000    3.846    0.000    5.538    0.000    0.000 
#    0.000    0.000    0.000    0.000    0.000    0.000 
#
# Total GULP energy -322335.087359 kJ/mol
# GULP energy per Si atom -12397.503360 kJ/mol
# Density = 2.278027 g / cm^3
# Si number density = 22.832240 Si / 1000 Ang^3
#
#
#
# Elastic Constant Matrix: (Units=GPa)
#
#
# Indices 1 2 3 4 5 6 
#
# 1 187.9887 23.4328 32.4798 0.0000 5.1726 0.0000
# 2 23.4328 84.0761 7.7286 0.0000 9.3555 0.0000
# 3 32.4798 7.7286 49.7161 0.0000 9.1291 0.0000
# 4 0.0000 0.0000 0.0000 -3.1288 0.0000 22.6924
# 5 5.1726 9.3555 9.1291 0.0000 51.5579 0.0000
# 6 0.0000 0.0000 0.0000 22.6924 0.0000 -35.7419
#
#
#
# Elastic Compliance Matrix: (Units=1/GPa)
#
#
# Indices 1 2 3 4 5 6 
#
# 1 0.006152 -0.001395 -0.003861 0.000000 0.000320 0.000000
# 2 -0.001395 0.012570 -0.000671 0.000000 -0.002022 0.000000
# 3 -0.003861 -0.000671 0.023408 0.000000 -0.003636 0.000000
# 4 0.000000 0.000000 0.000000 0.088664 0.000000 0.056293
# 5 0.000320 -0.002022 -0.003636 0.000000 0.020374 0.000000
# 6 0.000000 0.000000 0.000000 0.056293 0.000000 0.007762
#
#
# Mechanical properties :
#
#
# Convention : Reuss Voigt Hill
#
# Bulk Modulus (GPa) = 33.03018 49.89593 41.46305
# Shear Modulus (GPa) = 27.64335 19.74675 23.69505
#
# Velocity S-wave (km/s) = 3.48331 2.94404 3.22497
# Velocity P-wave (km/s) = 5.53857 5.78422 5.66273
#
# Compressibility (1/GPa) = 0.03027534
#
# Stress axis : x y z
#
# Youngs Moduli (GPa) = 162.55884 79.55748 42.71976
#
# Poissons Ratio (x) = 0.11100 0.16493
# Poissons Ratio (y) = 0.22680 0.02867
# Poissons Ratio (z) = 0.62759 0.05340
#
# Static dielectric constant tensor:
#      x y z
#    x 4.669240 0.000000 0.376830 
#    y 0.000000 4.732730 0.000000 
#    z 0.376830 0.000000 4.688130 
# 
# 
# High freq. dielectric constant tensor:
#      x y z
#    x 1.921250 0.000000 0.000890 
#    y 0.000000 1.856860 0.000000 
#    z 0.000890 0.000000 1.907520 
# 
# From -- ./inp_files/13537.got.cif
#   From: 2010.06.25/outbox.cif.g09.slc.cpg/sg10_7_cif.got.tgz:13537.got - 2010.06.27 22:07:45.
