data_PCOD8060557
_publ_section_title
;
Structure prediction by ZEFSAII (Michael W. Deem and Ramdas Pophale) SiO2 
 PCOD8060557
Probable space group: P 2/M
;
_chemical_formula_sum "Si O2"
_cell_formula_units_Z 28
_cell_length_a 9.581501
_cell_length_b 12.966169
_cell_length_c 18.780564
_cell_angle_alpha 90.000000
_cell_angle_beta 40.068794
_cell_angle_gamma 90.000000
_cell_volume 1501.903525
_symmetry_space_group_name_H-M "P 2/M"
_symmetry_group_IT_number 10
_symmetry_cell_setting 'monoclinic'
loop_
_space_group_symop_operation_xyz
x,y,z
-x,y,-z
-x,-y,-z
x,-y,z
loop_
_atom_site_type_symbol
_atom_site_label
_atom_site_fract_x
_atom_site_fract_y
_atom_site_fract_z
Si Si1 0.458537 0.883031 0.092288
Si Si2 0.012120 0.199994 0.266781
Si Si3 0.663106 0.883131 0.500000
Si Si4 0.687537 0.199994 0.266781
Si Si5 0.749770 0.383127 0.893051
Si Si6 0.928924 0.383127 0.106949
Si Si7 0.764600 0.883031 0.092288
O O1 0.203104 0.881016 0.206715
O O2 0.600805 0.828885 0.099463
O O3 0.536536 0.000000 0.056609
O O4 0.500000 0.826539 0.000000
O O5 0.123778 0.312599 0.214572
O O6 0.862810 0.187669 0.394985
O O7 0.877799 0.170613 0.248134
O O8 0.500000 0.900904 0.500000
O O9 0.547766 0.812331 0.605015
O O10 0.730328 0.000000 0.500000
O O11 0.732505 0.312599 0.214572
O O12 0.676751 0.118984 0.206715
O O13 0.769069 0.500000 0.856928
O O14 0.859184 0.370684 0.927211
O O15 0.500000 0.350726 0.000000
O O16 0.839852 0.500000 0.143072
O O17 0.000000 0.350725 0.000000
O O18 0.793638 0.000000 0.056609
O O19 0.000000 0.826539 0.000000
#
# Coordination Sequence:
#
# PCOD8060557 Si02
#       7
#     4   4   4   4   4   4   4
#     4  10  20  32  47  70  99 128 159 200 251 303
#     4  10  19  32  51  72  96 130 170 207 245 293
#     4   9  18  32  50  72  98 131 171 211 250 293
#     4  10  19  32  51  72  96 130 170 207 245 293
#     4   9  18  32  50  74 102 129 160 202 252 302
#     4   9  18  32  50  74 102 129 160 202 252 302
#     4  10  20  32  47  70  99 128 159 200 251 303
#
# _framework density 18.643008999999999
#
# number of rings (size 3 to 8) (size 9 to 14) (size 15 to 20)
#    0.000    2.429    0.000    2.571    0.000    6.286 
#    0.000    1.429    0.000    6.857    0.000    0.000 
#    0.000    6.857    0.000    0.000    0.000    0.000 
#
# Total GULP energy -346908.525697 kJ/mol
# GULP energy per Si atom -12389.590203 kJ/mol
# Density = 1.860058 g / cm^3
# Si number density = 18.643009 Si / 1000 Ang^3
#
#
#
# Elastic Constant Matrix: (Units=GPa)
#
#
# Indices 1 2 3 4 5 6 
#
# 1 102.6836 27.3178 61.9324 0.0000 0.0979 0.0000
# 2 27.3178 99.9121 57.8570 0.0000 0.3847 0.0000
# 3 61.9324 57.8570 173.4224 0.0000 0.7933 0.0000
# 4 0.0000 0.0000 0.0000 27.5625 0.0000 0.1346
# 5 0.0979 0.3847 0.7933 0.0000 24.2702 0.0000
# 6 0.0000 0.0000 0.0000 0.1346 0.0000 16.8787
#
#
#
# Elastic Compliance Matrix: (Units=1/GPa)
#
#
# Indices 1 2 3 4 5 6 
#
# 1 0.012498 -0.001032 -0.004119 0.000000 0.000101 0.000000
# 2 -0.001032 0.012491 -0.003798 0.000000 -0.000070 0.000000
# 3 -0.004119 -0.003798 0.008505 0.000000 -0.000201 0.000000
# 4 0.000000 0.000000 0.000000 0.036283 0.000000 -0.000289
# 5 0.000101 -0.000070 -0.000201 0.000000 0.041210 0.000000
# 6 0.000000 0.000000 0.000000 -0.000289 0.000000 0.059249
#
#
# Mechanical properties :
#
#
# Convention : Reuss Voigt Hill
#
# Bulk Modulus (GPa) = 64.12485 74.47027 69.29756
# Shear Modulus (GPa) = 25.86221 29.00302 27.43261
#
# Velocity S-wave (km/s) = 3.72860 3.94852 3.84013
# Velocity P-wave (km/s) = 7.28062 7.79871 7.54412
#
# Compressibility (1/GPa) = 0.01559458
#
# Stress axis : x y z
#
# Youngs Moduli (GPa) = 80.01520 80.05926 117.57194
#
# Poissons Ratio (x) = 0.08263 0.48431
# Poissons Ratio (y) = 0.08258 0.44657
# Poissons Ratio (z) = 0.32960 0.30409
#
# Static dielectric constant tensor:
#      x y z
#    x 3.576910 0.000000 -0.000680 
#    y 0.000000 3.417550 0.000000 
#    z -0.000680 0.000000 3.523200 
# 
# 
# High freq. dielectric constant tensor:
#      x y z
#    x 1.715320 0.000000 -0.000110 
#    y 0.000000 1.720790 0.000000 
#    z -0.000110 0.000000 1.706540 
# 
# From -- ./inp_files/75275.got.cif
#   From: 2010.06.25/outbox.cif.g09.slc.cpg/sg10_38_cif.got.tgz:75275.got - 2010.06.27 22:07:45.
