data_PCOD8060160
_publ_section_title
;
Structure prediction by ZEFSAII (Michael W. Deem and Ramdas Pophale) SiO2 
 PCOD8060160
Probable space group: P 2/M
;
_chemical_formula_sum "Si O2"
_cell_formula_units_Z 28
_cell_length_a 8.974115
_cell_length_b 9.337650
_cell_length_c 28.555474
_cell_angle_alpha 90.000000
_cell_angle_beta 39.284964
_cell_angle_gamma 90.000000
_cell_volume 1515.110322
_symmetry_space_group_name_H-M "P 2/M"
_symmetry_group_IT_number 10
_symmetry_cell_setting 'monoclinic'
loop_
_space_group_symop_operation_xyz
x,y,z
-x,y,-z
-x,-y,-z
x,-y,z
loop_
_atom_site_type_symbol
_atom_site_label
_atom_site_fract_x
_atom_site_fract_y
_atom_site_fract_z
Si Si1 0.538899 0.331879 0.347870
Si Si2 0.778662 0.833127 0.646976
Si Si3 0.846665 0.657650 0.490709
Si Si4 0.078693 0.167357 0.928897
Si Si5 0.384778 0.165698 0.209179
Si Si6 0.074990 0.332196 0.211065
Si Si7 0.770211 0.332328 0.929619
O O1 0.512136 0.500000 0.342317
O O2 0.421797 0.244382 0.334244
O O3 0.414365 0.296469 0.428267
O O4 0.808542 0.285421 0.286933
O O5 0.729411 0.803845 0.712962
O O6 0.039626 0.770834 0.572711
O O7 0.775674 0.000000 0.635032
O O8 0.840580 0.500000 0.468354
O O9 0.000000 0.650844 0.500000
O O10 0.346005 0.217241 0.855897
O O11 0.915587 0.250775 0.933088
O O12 0.048215 0.000000 0.926354
O O13 0.000000 0.208737 0.000000
O O14 0.247465 0.253610 0.204025
O O15 0.369306 0.000000 0.199091
O O16 0.112497 0.500000 0.208955
O O17 0.136183 0.284750 0.143718
O O18 0.805126 0.500000 0.929547
O O19 0.500000 0.286788 0.000000
#
# Coordination Sequence:
#
# PCOD8060160 Si02
#       7
#     4   4   4   4   4   4   4
#     4   9  18  33  52  75 101 130 170 215 254 300
#     4  10  19  31  50  76 103 132 168 209 256 309
#     4   8  15  29  49  72  99 130 166 211 256 298
#     4  10  21  37  57  80 105 137 176 210 245 299
#     4  10  22  37  51  74 107 137 170 213 255 298
#     4  10  21  36  54  76 102 136 176 211 250 305
#     4  10  21  36  55  82 111 135 166 211 258 302
#
# _framework density 18.480501
#
# number of rings (size 3 to 8) (size 9 to 14) (size 15 to 20)
#    0.000    2.429    0.000    3.000    0.000    6.000 
#    0.000    0.714    0.000    4.286    0.000    0.000 
#    0.000    0.000    0.000    0.000    0.000    0.000 
#
# Total GULP energy -347220.679209 kJ/mol
# GULP energy per Si atom -12400.738543 kJ/mol
# Density = 1.843844 g / cm^3
# Si number density = 18.480501 Si / 1000 Ang^3
#
#
#
# Elastic Constant Matrix: (Units=GPa)
#
#
# Indices 1 2 3 4 5 6 
#
# 1 135.5125 68.4436 79.0171 0.0000 -7.5097 0.0000
# 2 68.4436 74.3358 59.1107 0.0000 1.3900 0.0000
# 3 79.0171 59.1107 167.0243 0.0000 -15.0944 0.0000
# 4 0.0000 0.0000 0.0000 27.4905 0.0000 1.2796
# 5 -7.5097 1.3900 -15.0944 0.0000 24.7228 0.0000
# 6 0.0000 0.0000 0.0000 1.2796 0.0000 35.4058
#
#
#
# Elastic Compliance Matrix: (Units=1/GPa)
#
#
# Indices 1 2 3 4 5 6 
#
# 1 0.015123 -0.011923 -0.002603 0.000000 0.003675 0.000000
# 2 -0.011923 0.028827 -0.005329 0.000000 -0.008496 0.000000
# 3 -0.002603 -0.005329 0.009589 0.000000 0.005364 0.000000
# 4 0.000000 0.000000 0.000000 0.036438 0.000000 -0.001317
# 5 0.003675 -0.008496 0.005364 0.000000 0.045317 0.000000
# 6 0.000000 0.000000 0.000000 -0.001317 0.000000 0.028292
#
#
# Mechanical properties :
#
#
# Convention : Reuss Voigt Hill
#
# Bulk Modulus (GPa) = 72.31125 87.77948 80.04536
# Shear Modulus (GPa) = 24.04947 28.87723 26.46335
#
# Velocity S-wave (km/s) = 3.61133 3.95723 3.78823
# Velocity P-wave (km/s) = 7.52345 8.27533 7.90833
#
# Compressibility (1/GPa) = 0.01382911
#
# Stress axis : x y z
#
# Youngs Moduli (GPa) = 66.12582 34.68952 104.28473
#
# Poissons Ratio (x) = 0.41361 0.27141
# Poissons Ratio (y) = 0.78843 0.55575
# Poissons Ratio (z) = 0.17210 0.18487
#
# Static dielectric constant tensor:
#      x y z
#    x 3.126140 0.000000 -0.148730 
#    y 0.000000 3.361540 0.000000 
#    z -0.148730 0.000000 3.961680 
# 
# 
# High freq. dielectric constant tensor:
#      x y z
#    x 1.698900 0.000000 -0.006270 
#    y 0.000000 1.711880 0.000000 
#    z -0.006270 0.000000 1.741250 
# 
# From -- ./inp_files/91971.got.cif
#   From: 2010.06.25/outbox.cif.g09.slc.cpg/sg10_46_cif.got.tgz:91971.got - 2010.06.27 22:07:45.
