data_PCOD8060338
_publ_section_title
;
Structure prediction by ZEFSAII (Michael W. Deem and Ramdas Pophale) SiO2 
 PCOD8060338
Probable space group: P 2/M
;
_chemical_formula_sum "Si O2"
_cell_formula_units_Z 28
_cell_length_a 14.621727
_cell_length_b 8.961182
_cell_length_c 21.726228
_cell_angle_alpha 90.000000
_cell_angle_beta 30.082496
_cell_angle_gamma 90.000000
_cell_volume 1426.919835
_symmetry_space_group_name_H-M "P 2/M"
_symmetry_group_IT_number 10
_symmetry_cell_setting 'monoclinic'
loop_
_space_group_symop_operation_xyz
x,y,z
-x,y,-z
-x,-y,-z
x,-y,z
loop_
_atom_site_type_symbol
_atom_site_label
_atom_site_fract_x
_atom_site_fract_y
_atom_site_fract_z
Si Si1 0.744710 0.324136 0.613316
Si Si2 0.920596 0.323560 0.112230
Si Si3 0.711649 0.324375 0.884218
Si Si4 0.881945 0.677312 0.659711
Si Si5 0.961012 0.823107 0.835354
Si Si6 0.334245 0.824464 0.554030
Si Si7 0.490281 0.675728 0.658375
O O1 0.771796 0.500000 0.599913
O O2 0.749387 0.265540 0.681039
O O3 0.555450 0.281066 0.689790
O O4 0.915689 0.262675 0.473661
O O5 0.930807 0.500000 0.116934
O O6 0.712515 0.262982 0.235345
O O7 0.037690 0.242676 0.096530
O O8 0.000000 0.278799 0.000000
O O9 0.744028 0.500000 0.874103
O O10 0.814188 0.257830 0.764302
O O11 0.787618 0.241344 0.900180
O O12 0.500000 0.286473 0.000000
O O13 0.872393 0.500000 0.670328
O O14 0.144957 0.770297 0.693700
O O15 0.947339 0.000000 0.847389
O O16 0.500000 0.769911 0.500000
O O17 0.360523 0.746688 0.473388
O O18 0.337842 0.000000 0.542190
O O19 0.494561 0.500000 0.646389
#
# Coordination Sequence:
#
# PCOD8060338 Si02
#       7
#     4   4   4   4   4   4   4
#     4   8  14  25  45  74 104 133 168 214 265 317
#     4  10  22  38  55  79 112 147 185 233 281 330
#     4  10  21  36  57  83 109 142 183 230 280 330
#     4   8  14  27  47  73 105 135 167 212 267 323
#     4  11  23  39  59  81 110 150 188 233 285 335
#     4  10  20  35  54  78 111 147 184 228 277 329
#     4  10  19  31  53  83 110 141 182 228 276 329
#
# _framework density 19.622686000000002
#
# number of rings (size 3 to 8) (size 9 to 14) (size 15 to 20)
#    0.000    2.429    1.429    2.143    0.000    4.286 
#    0.000    4.286    0.000    0.857    0.000    4.000 
#    0.000    0.000    0.000    0.000    0.000    0.000 
#
# Total GULP energy -347118.936873 kJ/mol
# GULP energy per Si atom -12397.104888 kJ/mol
# Density = 1.957802 g / cm^3
# Si number density = 19.622686 Si / 1000 Ang^3
#
#
#
# Elastic Constant Matrix: (Units=GPa)
#
#
# Indices 1 2 3 4 5 6 
#
# 1 169.5734 40.4961 56.0134 0.0000 5.5033 0.0000
# 2 40.4961 32.7493 28.5444 0.0000 1.0279 0.0000
# 3 56.0134 28.5444 85.9132 0.0000 10.3387 0.0000
# 4 0.0000 0.0000 0.0000 16.6800 0.0000 -4.4207
# 5 5.5033 1.0279 10.3387 0.0000 32.0339 0.0000
# 6 0.0000 0.0000 0.0000 -4.4207 0.0000 5.8279
#
#
#
# Elastic Compliance Matrix: (Units=1/GPa)
#
#
# Indices 1 2 3 4 5 6 
#
# 1 0.008894 -0.008398 -0.002973 0.000000 -0.000299 0.000000
# 2 -0.008398 0.051261 -0.011998 0.000000 0.003670 0.000000
# 3 -0.002973 -0.011998 0.018162 0.000000 -0.004966 0.000000
# 4 0.000000 0.000000 0.000000 0.075037 0.000000 0.056918
# 5 -0.000299 0.003670 -0.004966 0.000000 0.032753 0.000000
# 6 0.000000 0.000000 0.000000 0.056918 0.000000 0.214762
#
#
# Mechanical properties :
#
#
# Convention : Reuss Voigt Hill
#
# Bulk Modulus (GPa) = 31.66512 59.81596 45.74054
# Shear Modulus (GPa) = 10.91385 21.78717 16.35051
#
# Velocity S-wave (km/s) = 2.36092 3.33574 2.88973
# Velocity P-wave (km/s) = 4.85839 6.73687 5.87322
#
# Compressibility (1/GPa) = 0.03158049
#
# Stress axis : x y z
#
# Youngs Moduli (GPa) = 112.43154 19.50784 55.06102
#
# Poissons Ratio (x) = 0.16382 0.16368
# Poissons Ratio (y) = 0.94418 0.66062
# Poissons Ratio (z) = 0.33423 0.23405
#
# Static dielectric constant tensor:
#      x y z
#    x 3.870660 0.000000 0.033150 
#    y 0.000000 3.078890 0.000000 
#    z 0.033150 0.000000 3.584710 
# 
# 
# High freq. dielectric constant tensor:
#      x y z
#    x 1.785240 0.000000 0.002360 
#    y 0.000000 1.718330 0.000000 
#    z 0.002360 0.000000 1.755380 
# 
# From -- ./inp_files/84898.got.cif
#   From: 2010.06.25/outbox.cif.g09.slc.cpg/sg10_43_cif.got.tgz:84898.got - 2010.06.27 22:07:45.
