data_PCOD8060345
_publ_section_title
;
Structure prediction by ZEFSAII (Michael W. Deem and Ramdas Pophale) SiO2 
 PCOD8060345
Probable space group: P 2/M
;
_chemical_formula_sum "Si O2"
_cell_formula_units_Z 16
_cell_length_a 9.205904
_cell_length_b 12.042060
_cell_length_c 9.261980
_cell_angle_alpha 90.000000
_cell_angle_beta 56.929198
_cell_angle_gamma 90.000000
_cell_volume 860.425911
_symmetry_space_group_name_H-M "P 2/M"
_symmetry_group_IT_number 10
_symmetry_cell_setting 'monoclinic'
loop_
_space_group_symop_operation_xyz
x,y,z
-x,y,-z
-x,-y,-z
x,-y,z
loop_
_atom_site_type_symbol
_atom_site_label
_atom_site_fract_x
_atom_site_fract_y
_atom_site_fract_z
Si Si1 0.039383 0.258895 0.146901
Si Si2 0.314203 0.870144 0.162582
Si Si3 0.329816 0.500000 0.494920
Si Si4 0.972731 0.500000 0.848914
Si Si5 0.182405 0.285606 0.474551
O O1 0.177034 0.166448 0.116061
O O2 0.119446 0.382914 0.141976
O O3 0.863157 0.243615 0.337667
O O4 0.000000 0.244254 0.000000
O O5 0.277122 0.811602 0.335489
O O6 0.296843 0.000000 0.200009
O O7 0.500000 0.836725 0.000000
O O8 0.500000 0.500000 0.500000
O O9 0.316203 0.389378 0.403693
O O10 0.165163 0.500000 0.685430
O O11 0.000000 0.500000 0.000000
O O12 0.000000 0.320752 0.500000
#
# Coordination Sequence:
#
# PCOD8060345 Si02
#       5
#     4   4   2   2   4
#     4   9  18  34  57  80 105 137 174 214 255 310
#     4  10  22  38  53  73 104 139 178 223 265 305
#     4  10  19  31  53  84 111 133 167 215 259 305
#     4   8  16  31  49  76 109 135 160 201 256 307
#     4   9  19  35  55  77 108 143 173 206 257 318
#
# _framework density 18.595441999999998
#
# number of rings (size 3 to 8) (size 9 to 14) (size 15 to 20)
#    0.000    2.750    0.000    0.375    0.000   14.000 
#    0.000    1.250    0.000    3.750    0.000    0.000 
#    0.000    0.000    0.000    0.000    0.000    0.000 
#
# Total GULP energy -198227.024167 kJ/mol
# GULP energy per Si atom -12389.189010 kJ/mol
# Density = 1.855312 g / cm^3
# Si number density = 18.595442 Si / 1000 Ang^3
#
#
#
# Elastic Constant Matrix: (Units=GPa)
#
#
# Indices 1 2 3 4 5 6 
#
# 1 74.2768 49.7610 40.0132 0.0000 0.5038 0.0000
# 2 49.7610 108.3149 64.5632 0.0000 -3.0234 0.0000
# 3 40.0132 64.5632 128.3304 0.0000 22.6827 0.0000
# 4 0.0000 0.0000 0.0000 31.4726 0.0000 1.1582
# 5 0.5038 -3.0234 22.6827 0.0000 25.1428 0.0000
# 6 0.0000 0.0000 0.0000 1.1582 0.0000 18.5592
#
#
#
# Elastic Compliance Matrix: (Units=1/GPa)
#
#
# Indices 1 2 3 4 5 6 
#
# 1 0.019930 -0.007596 -0.002571 0.000000 0.001006 0.000000
# 2 -0.007596 0.018052 -0.008476 0.000000 0.009970 0.000000
# 3 -0.002571 -0.008476 0.015501 0.000000 -0.014952 0.000000
# 4 0.000000 0.000000 0.000000 0.031847 0.000000 -0.001987
# 5 0.001006 0.009970 -0.014952 0.000000 0.054440 0.000000
# 6 0.000000 0.000000 0.000000 -0.001987 0.000000 0.054006
#
#
# Mechanical properties :
#
#
# Convention : Reuss Voigt Hill
#
# Bulk Modulus (GPa) = 61.73344 68.84409 65.28876
# Shear Modulus (GPa) = 21.14520 25.47390 23.30955
#
# Velocity S-wave (km/s) = 3.37578 3.70523 3.54433
# Velocity P-wave (km/s) = 6.96166 7.44361 7.20667
#
# Compressibility (1/GPa) = 0.01619868
#
# Stress axis : x y z
#
# Youngs Moduli (GPa) = 50.17646 55.39413 64.51178
#
# Poissons Ratio (x) = 0.42075 0.16583
# Poissons Ratio (y) = 0.38112 0.54681
# Poissons Ratio (z) = 0.12898 0.46953
#
# Static dielectric constant tensor:
#      x y z
#    x 3.105990 0.000000 0.097450 
#    y 0.000000 3.947510 0.000000 
#    z 0.097450 0.000000 3.694010 
# 
# 
# High freq. dielectric constant tensor:
#      x y z
#    x 1.686620 0.000000 0.012090 
#    y 0.000000 1.725990 0.000000 
#    z 0.012090 0.000000 1.737220 
# 
# From -- ./inp_files/17077.got.cif
#   From: 2010.06.25/outbox.cif.g09.slc.cpg/sg10_9_cif.got.tgz:17077.got - 2010.06.27 22:07:45.
