data_PCOD8060855
_publ_section_title
;
Structure prediction by ZEFSAII (Michael W. Deem and Ramdas Pophale) SiO2 
 PCOD8060855
Probable space group: P 2/M
;
_chemical_formula_sum "Si O2"
_cell_formula_units_Z 32
_cell_length_a 13.165090
_cell_length_b 9.236511
_cell_length_c 31.571468
_cell_angle_alpha 90.000000
_cell_angle_beta 155.262685
_cell_angle_gamma 90.000000
_cell_volume 1606.494080
_symmetry_space_group_name_H-M "P 2/M"
_symmetry_group_IT_number 10
_symmetry_cell_setting 'monoclinic'
loop_
_space_group_symop_operation_xyz
x,y,z
-x,y,-z
-x,-y,-z
x,-y,z
loop_
_atom_site_type_symbol
_atom_site_label
_atom_site_fract_x
_atom_site_fract_y
_atom_site_fract_z
Si Si1 0.398508 0.841726 0.049109
Si Si2 0.101249 0.670794 0.636074
Si Si3 0.227582 0.657685 0.911628
Si Si4 0.590601 0.329728 0.404514
Si Si5 0.162334 0.328054 0.302765
Si Si6 0.904557 0.173874 0.276325
Si Si7 0.041485 0.161958 0.061273
Si Si8 0.468557 0.671497 0.264603
O O1 0.656966 0.772517 0.159465
O O2 0.448830 0.000000 0.048609
O O3 0.226592 0.756552 0.951961
O O4 0.234287 0.849439 0.027976
O O5 0.104562 0.500000 0.648087
O O6 0.861232 0.715354 0.519401
O O7 0.101132 0.762229 0.678891
O O8 0.326125 0.716315 0.691598
O O9 0.123381 0.500000 0.884887
O O10 0.060541 0.721601 0.811463
O O11 0.500000 0.645071 0.000000
O O12 0.562195 0.500000 0.390965
O O13 0.406142 0.274508 0.371282
O O14 0.532312 0.266834 0.335660
O O15 0.162977 0.500000 0.312431
O O16 0.128969 0.242211 0.334549
O O17 0.925262 0.000000 0.286350
O O18 0.212910 0.260800 0.154764
O O19 0.155288 0.000000 0.101399
O O20 0.000000 0.234657 0.000000
O O21 0.441586 0.500000 0.255566
#
# Coordination Sequence:
#
# PCOD8060855 Si02
#       8
#     4   4   4   4   4   4   4   4
#     4  10  21  35  53  77 108 150 189 223 267 325
#     4  10  21  38  61  85 109 143 187 232 281 337
#     4  10  19  32  53  81 110 140 175 223 274 318
#     4   9  19  37  61  86 112 144 183 231 284 335
#     4  10  20  36  57  82 114 150 186 224 275 335
#     4  11  23  38  56  80 113 151 190 232 276 325
#     4  10  21  37  55  78 114 154 186 218 267 329
#     4  10  20  37  62  89 113 140 183 236 283 329
#
# _framework density 19.919150999999999
#
# number of rings (size 3 to 8) (size 9 to 14) (size 15 to 20)
#    0.000    2.000    1.250    2.250    0.000    6.500 
#    0.000    4.375    0.000    1.500    0.000    0.000 
#    0.000    0.000    0.000    0.000    0.000    0.000 
#
# Total GULP energy -396665.765780 kJ/mol
# GULP energy per Si atom -12395.805181 kJ/mol
# Density = 1.987381 g / cm^3
# Si number density = 19.919151 Si / 1000 Ang^3
#
#
#
# Elastic Constant Matrix: (Units=GPa)
#
#
# Indices 1 2 3 4 5 6 
#
# 1 136.1400 40.9635 32.7476 0.0000 -4.2675 0.0000
# 2 40.9635 50.6758 20.9628 0.0000 -8.0826 0.0000
# 3 32.7476 20.9628 75.0365 0.0002 0.5507 -0.0001
# 4 0.0000 0.0000 0.0002 17.9624 0.0000 41.0219
# 5 -4.2675 -8.0826 0.5507 0.0000 33.0414 0.0000
# 6 0.0000 0.0000 -0.0001 41.0219 0.0000 -49.9508
#
#
#
# Elastic Compliance Matrix: (Units=1/GPa)
#
#
# Indices 1 2 3 4 5 6 
#
# 1 0.010080 -0.007234 -0.002375 0.000000 -0.000428 0.000000
# 2 -0.007234 0.028574 -0.004871 0.000000 0.006137 0.000000
# 3 -0.002375 -0.004871 0.015737 0.000000 -0.001761 0.000000
# 4 0.000000 0.000000 0.000000 0.019361 0.000000 0.015900
# 5 -0.000428 0.006137 -0.001761 0.000000 0.031740 0.000000
# 6 0.000000 0.000000 0.000000 0.015900 0.000000 -0.006962
#
#
# Mechanical properties :
#
#
# Convention : Reuss Voigt Hill
#
# Bulk Modulus (GPa) = 39.32062 50.13337 44.72700
# Shear Modulus (GPa) = 36.77372 11.35583 24.06477
#
# Velocity S-wave (km/s) = 4.30134 2.39026 3.47958
# Velocity P-wave (km/s) = 6.66721 5.73069 6.21661
#
# Compressibility (1/GPa) = 0.02543195
#
# Stress axis : x y z
#
# Youngs Moduli (GPa) = 99.20770 34.99639 63.54439
#
# Poissons Ratio (x) = 0.25316 0.15092
# Poissons Ratio (y) = 0.71765 0.30951
# Poissons Ratio (z) = 0.23562 0.17046
#
# Static dielectric constant tensor:
#      x y z
#    x 3.806270 0.000000 0.028420 
#    y 0.000000 3.523480 0.000000 
#    z 0.028420 0.000000 3.650400 
# 
# 
# High freq. dielectric constant tensor:
#      x y z
#    x 1.792560 0.000000 0.003140 
#    y 0.000000 1.749710 0.000000 
#    z 0.003140 0.000000 1.777750 
# 
# From -- ./inp_files/58330.got.cif
#   From: 2010.06.25/outbox.cif.g09.slc.cpg/sg10_30_cif.got.tgz:58330.got - 2010.06.27 22:07:45.
