data_PCOD8060596
_publ_section_title
;
Structure prediction by ZEFSAII (Michael W. Deem and Ramdas Pophale) SiO2 
 PCOD8060596
Probable space group: P 2/M
;
_chemical_formula_sum "Si O2"
_cell_formula_units_Z 28
_cell_length_a 14.117512
_cell_length_b 9.607434
_cell_length_c 19.019268
_cell_angle_alpha 90.000000
_cell_angle_beta 147.105549
_cell_angle_gamma 90.000000
_cell_volume 1400.985640
_symmetry_space_group_name_H-M "P 2/M"
_symmetry_group_IT_number 10
_symmetry_cell_setting 'monoclinic'
loop_
_space_group_symop_operation_xyz
x,y,z
-x,y,-z
-x,-y,-z
x,-y,z
loop_
_atom_site_type_symbol
_atom_site_label
_atom_site_fract_x
_atom_site_fract_y
_atom_site_fract_z
Si Si1 0.625842 0.658069 0.226524
Si Si2 0.135475 0.340494 0.021933
Si Si3 0.026323 0.158223 0.822532
Si Si4 0.771486 0.837520 0.544761
Si Si5 0.605894 0.842822 0.997573
Si Si6 0.512001 0.341962 0.306640
Si Si7 0.065508 0.154487 0.619482
O O1 0.621241 0.500000 0.196631
O O2 0.445302 0.736167 0.096128
O O3 0.643014 0.664081 0.321488
O O4 0.777998 0.736160 0.279240
O O5 0.158850 0.500000 0.011838
O O6 0.057919 0.255392 0.908545
O O7 0.321834 0.283543 0.165937
O O8 0.000000 0.326228 0.000000
O O9 0.849954 0.199349 0.670633
O O10 0.012781 0.000000 0.841769
O O11 0.184916 0.169338 0.864409
O O12 0.594393 0.750994 0.420418
O O13 0.911765 0.793540 0.573697
O O14 0.725471 0.000000 0.510274
O O15 0.552271 0.000000 0.943057
O O16 0.500000 0.795102 0.000000
O O17 0.494415 0.500000 0.323442
O O18 0.000000 0.146698 0.500000
O O19 0.130946 0.000000 0.683964
#
# Coordination Sequence:
#
# PCOD8060596 Si02
#       7
#     4   4   4   4   4   4   4
#     4  11  21  32  50  78 113 148 192 244 288 332
#     4  10  22  43  68  89 113 149 193 242 298 361
#     4  10  21  37  59  88 120 151 192 246 294 343
#     4  10  21  37  57  84 118 158 197 235 286 344
#     4  10  20  35  55  78 112 156 198 236 280 339
#     4  10  21  37  57  84 114 145 188 239 288 345
#     4  10  19  32  51  75 110 158 206 238 271 334
#
# _framework density 19.98593
#
# number of rings (size 3 to 8) (size 9 to 14) (size 15 to 20)
#    0.000    1.857    2.857    1.286    0.000    5.429 
#    0.000    2.143    0.000    4.286    0.000    0.000 
#    0.000    0.000    0.000    0.000    0.000    0.000 
#
# Total GULP energy -347145.558507 kJ/mol
# GULP energy per Si atom -12398.055661 kJ/mol
# Density = 1.994044 g / cm^3
# Si number density = 19.985930 Si / 1000 Ang^3
#
#
#
# Elastic Constant Matrix: (Units=GPa)
#
#
# Indices 1 2 3 4 5 6 
#
# 1 54.6470 27.6465 34.2391 0.0000 -4.0903 0.0000
# 2 27.6465 100.2976 72.2195 0.0000 -9.4285 0.0000
# 3 34.2391 72.2195 141.9132 0.0000 -16.0635 0.0000
# 4 0.0000 0.0000 0.0000 33.5889 0.0000 -0.3824
# 5 -4.0903 -9.4285 -16.0635 0.0000 22.1747 0.0000
# 6 0.0000 0.0000 0.0000 -0.3824 0.0000 16.5437
#
#
#
# Elastic Compliance Matrix: (Units=1/GPa)
#
#
# Indices 1 2 3 4 5 6 
#
# 1 0.022350 -0.003595 -0.003561 0.000000 0.000014 0.000000
# 2 -0.003595 0.016334 -0.007336 0.000000 0.000968 0.000000
# 3 -0.003561 -0.007336 0.012213 0.000000 0.005071 0.000000
# 4 0.000000 0.000000 0.000000 0.029780 0.000000 0.000688
# 5 0.000014 0.000968 0.005071 0.000000 0.049184 0.000000
# 6 0.000000 0.000000 0.000000 0.000688 0.000000 0.060462
#
#
# Mechanical properties :
#
#
# Convention : Reuss Voigt Hill
#
# Bulk Modulus (GPa) = 45.63351 62.78532 54.20941
# Shear Modulus (GPa) = 22.06418 25.31164 23.68791
#
# Velocity S-wave (km/s) = 3.32623 3.56261 3.44645
# Velocity P-wave (km/s) = 6.13467 6.95744 6.55897
#
# Compressibility (1/GPa) = 0.02191372
#
# Stress axis : x y z
#
# Youngs Moduli (GPa) = 44.74183 61.22095 81.88116
#
# Poissons Ratio (x) = 0.22010 0.29160
# Poissons Ratio (y) = 0.16085 0.60064
# Poissons Ratio (z) = 0.15934 0.44909
#
# Static dielectric constant tensor:
#      x y z
#    x 3.354250 0.000000 0.043080 
#    y 0.000000 3.609070 0.000000 
#    z 0.043080 0.000000 3.711120 
# 
# 
# High freq. dielectric constant tensor:
#      x y z
#    x 1.752720 0.000000 -0.002090 
#    y 0.000000 1.773720 0.000000 
#    z -0.002090 0.000000 1.784830 
# 
# From -- ./inp_files/84995.got.cif
#   From: 2010.06.25/outbox.cif.g09.slc.cpg/sg10_43_cif.got.tgz:84995.got - 2010.06.27 22:07:45.
