data_PCOD8060643
_publ_section_title
;
Structure prediction by ZEFSAII (Michael W. Deem and Ramdas Pophale) SiO2 
 PCOD8060643
Probable space group: P 2/M
;
_chemical_formula_sum "Si O2"
_cell_formula_units_Z 20
_cell_length_a 12.357974
_cell_length_b 13.897514
_cell_length_c 18.756008
_cell_angle_alpha 90.000000
_cell_angle_beta 20.122278
_cell_angle_gamma 90.000000
_cell_volume 1108.190881
_symmetry_space_group_name_H-M "P 2/M"
_symmetry_group_IT_number 10
_symmetry_cell_setting 'monoclinic'
loop_
_space_group_symop_operation_xyz
x,y,z
-x,y,-z
-x,-y,-z
x,-y,z
loop_
_atom_site_type_symbol
_atom_site_label
_atom_site_fract_x
_atom_site_fract_y
_atom_site_fract_z
Si Si1 0.677833 0.609662 0.066496
Si Si2 0.604409 0.609890 0.355511
Si Si3 0.632436 0.893985 0.715440
Si Si4 0.578830 0.757206 0.871653
Si Si5 0.690618 0.719162 0.588775
O O1 0.615159 0.500000 0.085462
O O2 0.642092 0.668435 0.015040
O O3 0.422352 0.643043 0.282377
O O4 0.024403 0.624164 0.884168
O O5 0.500000 0.633274 0.500000
O O6 0.508966 0.500000 0.394329
O O7 0.433385 0.687347 0.411394
O O8 0.493155 0.847038 0.873638
O O9 0.560647 0.825229 0.691691
O O10 0.000000 0.904429 0.500000
O O11 0.482691 0.000000 0.795247
O O12 0.934760 0.721693 0.643014
O O13 0.500000 0.789567 0.000000
#
# Coordination Sequence:
#
# PCOD8060643 Si02
#       5
#     4   4   4   4   4
#     4  10  20  33  49  70  99 135 168 197 236 288
#     4  10  20  33  50  73 101 133 165 198 240 287
#     4   8  16  32  52  73  96 124 160 200 244 294
#     4  10  20  32  49  75 101 127 161 203 248 285
#     4  10  19  32  52  73  96 128 167 205 239 284
#
# _framework density 18.047432000000001
#
# number of rings (size 3 to 8) (size 9 to 14) (size 15 to 20)
#    0.000    2.400    0.000    4.200    0.000    4.800 
#    0.000    0.000    0.000   10.200    0.000    0.000 
#    0.000    0.000    0.000    0.000    0.000    0.000 
#
# Total GULP energy -247948.414682 kJ/mol
# GULP energy per Si atom -12397.420734 kJ/mol
# Density = 1.800636 g / cm^3
# Si number density = 18.047432 Si / 1000 Ang^3
#
#
#
# Elastic Constant Matrix: (Units=GPa)
#
#
# Indices 1 2 3 4 5 6 
#
# 1 107.1314 69.3989 16.2546 0.0000 13.0002 0.0000
# 2 69.3989 150.7593 21.6914 0.0000 -0.0616 0.0000
# 3 16.2546 21.6914 53.5048 0.0000 8.8908 0.0000
# 4 0.0000 0.0000 0.0000 9.0415 0.0000 -0.9702
# 5 13.0002 -0.0616 8.8908 0.0000 24.8292 0.0000
# 6 0.0000 0.0000 0.0000 -0.9702 0.0000 26.7465
#
#
#
# Elastic Compliance Matrix: (Units=1/GPa)
#
#
# Indices 1 2 3 4 5 6 
#
# 1 0.014643 -0.006672 -0.000496 0.000000 -0.007505 0.000000
# 2 -0.006672 0.010113 -0.002826 0.000000 0.004530 0.000000
# 3 -0.000496 -0.002826 0.021206 0.000000 -0.007341 0.000000
# 4 0.000000 0.000000 0.000000 0.111034 0.000000 0.004027
# 5 -0.007505 0.004530 -0.007341 0.000000 0.046845 0.000000
# 6 0.000000 0.000000 0.000000 0.004027 0.000000 0.037534
#
#
# Mechanical properties :
#
#
# Convention : Reuss Voigt Hill
#
# Bulk Modulus (GPa) = 38.50101 58.45391 48.47746
# Shear Modulus (GPa) = 18.51717 25.72681 22.12199
#
# Velocity S-wave (km/s) = 3.20664 3.77969 3.50490
# Velocity P-wave (km/s) = 5.92365 7.17687 6.58016
#
# Compressibility (1/GPa) = 0.02597335
#
# Stress axis : x y z
#
# Youngs Moduli (GPa) = 68.29434 98.88421 47.15648
#
# Poissons Ratio (x) = 0.65976 0.02340
# Poissons Ratio (y) = 0.45566 0.13325
# Poissons Ratio (z) = 0.03389 0.27942
#
# Static dielectric constant tensor:
#      x y z
#    x 3.311820 0.000000 0.045440 
#    y 0.000000 3.617740 0.000000 
#    z 0.045440 0.000000 3.271080 
# 
# 
# High freq. dielectric constant tensor:
#      x y z
#    x 1.690810 0.000000 0.010740 
#    y 0.000000 1.693200 0.000000 
#    z 0.010740 0.000000 1.691980 
# 
# From -- ./inp_files/18380.got.cif
#   From: 2010.06.25/outbox.cif.g09.slc.cpg/sg10_10_cif.got.tgz:18380.got - 2010.06.27 22:07:45.
