data_PCOD8060399
_publ_section_title
;
Structure prediction by ZEFSAII (Michael W. Deem and Ramdas Pophale) SiO2 
 PCOD8060399
Probable space group: P 2/M
;
_chemical_formula_sum "Si O2"
_cell_formula_units_Z 28
_cell_length_a 14.314413
_cell_length_b 13.906563
_cell_length_c 12.599518
_cell_angle_alpha 90.000000
_cell_angle_beta 43.966281
_cell_angle_gamma 90.000000
_cell_volume 1741.220345
_symmetry_space_group_name_H-M "P 2/M"
_symmetry_group_IT_number 10
_symmetry_cell_setting 'monoclinic'
loop_
_space_group_symop_operation_xyz
x,y,z
-x,y,-z
-x,-y,-z
x,-y,z
loop_
_atom_site_type_symbol
_atom_site_label
_atom_site_fract_x
_atom_site_fract_y
_atom_site_fract_z
Si Si1 0.698387 0.614375 0.039399
Si Si2 0.569767 0.892981 0.607482
Si Si3 0.845536 0.298382 0.107764
Si Si4 0.712866 0.107592 0.274856
Si Si5 0.344331 0.606181 0.156429
Si Si6 0.360250 0.612672 0.564889
Si Si7 0.594117 0.298931 0.688717
O O1 0.701724 0.500000 0.057131
O O2 0.732835 0.638784 0.887782
O O3 0.809028 0.669636 0.018210
O O4 0.551382 0.651827 0.191014
O O5 0.420626 0.882651 0.684868
O O6 0.677008 0.871804 0.426745
O O7 0.586896 0.816779 0.688380
O O8 0.592639 0.000000 0.635067
O O9 0.820366 0.184875 0.145744
O O10 0.759580 0.362634 0.258150
O O11 0.000000 0.322071 0.000000
O O12 0.773378 0.000000 0.213065
O O13 0.296138 0.500000 0.230649
O O14 0.319962 0.677123 0.275584
O O15 0.500000 0.603108 0.000000
O O16 0.500000 0.652999 0.500000
O O17 0.369628 0.500000 0.539381
O O18 0.329879 0.662201 0.477267
#
# Coordination Sequence:
#
# PCOD8060399 Si02
#       7
#     4   4   4   4   4   4   4
#     4  10  19  32  48  68 101 138 165 195 238 292
#     4   9  16  27  50  76  98 123 155 203 256 292
#     4  12  23  33  48  74 105 134 161 197 256 299
#     4   9  17  32  48  69  98 129 164 198 241 297
#     4   8  16  28  45  71  96 127 167 200 236 280
#     4  11  20  30  48  73 100 130 162 201 245 290
#     4  11  16  28  52  74  97 121 166 211 236 283
#
# _framework density 16.080676
#
# number of rings (size 3 to 8) (size 9 to 14) (size 15 to 20)
#    0.000    2.000    4.286    3.429    0.000    1.429 
#    0.000    0.000    0.000    5.571    0.000    3.000 
#    0.000    2.286    0.000    0.000    0.000    0.000 
#
# Total GULP energy -347113.791335 kJ/mol
# GULP energy per Si atom -12396.921119 kJ/mol
# Density = 1.604408 g / cm^3
# Si number density = 16.080676 Si / 1000 Ang^3
#
#
#
# Elastic Constant Matrix: (Units=GPa)
#
#
# Indices 1 2 3 4 5 6 
#
# 1 84.9766 38.7940 43.5072 0.0000 14.9270 0.0000
# 2 38.7940 99.3730 30.2507 0.0000 14.4483 0.0000
# 3 43.5072 30.2507 55.2876 0.0000 7.9344 0.0000
# 4 0.0000 0.0000 0.0000 19.6580 0.0000 7.1201
# 5 14.9270 14.4483 7.9344 0.0000 28.9923 0.0000
# 6 0.0000 0.0000 0.0000 7.1201 0.0000 14.5049
#
#
#
# Elastic Compliance Matrix: (Units=1/GPa)
#
#
# Indices 1 2 3 4 5 6 
#
# 1 0.021616 -0.003233 -0.014443 0.000000 -0.005566 0.000000
# 2 -0.003233 0.013117 -0.004095 0.000000 -0.003752 0.000000
# 3 -0.014443 -0.004095 0.031573 0.000000 0.000836 0.000000
# 4 0.000000 0.000000 0.000000 0.061870 0.000000 -0.030371
# 5 -0.005566 -0.003752 0.000836 0.000000 0.038998 0.000000
# 6 0.000000 0.000000 0.000000 -0.030371 0.000000 0.083850
#
#
# Mechanical properties :
#
#
# Convention : Reuss Voigt Hill
#
# Bulk Modulus (GPa) = 43.92530 51.63790 47.78160
# Shear Modulus (GPa) = 16.54787 21.10338 18.82563
#
# Velocity S-wave (km/s) = 3.21137 3.62656 3.42526
# Velocity P-wave (km/s) = 6.41291 7.05106 6.73954
#
# Compressibility (1/GPa) = 0.02276592
#
# Stress axis : x y z
#
# Youngs Moduli (GPa) = 46.26212 76.23625 31.67272
#
# Poissons Ratio (x) = 0.24646 0.45744
# Poissons Ratio (y) = 0.14956 0.12969
# Poissons Ratio (z) = 0.66814 0.31216
#
# Static dielectric constant tensor:
#      x y z
#    x 3.006060 0.000000 0.346360 
#    y 0.000000 3.315040 0.000000 
#    z 0.346360 0.000000 2.865150 
# 
# 
# High freq. dielectric constant tensor:
#      x y z
#    x 1.586820 0.000000 0.024520 
#    y 0.000000 1.628300 0.000000 
#    z 0.024520 0.000000 1.590020 
# 
# From -- ./inp_files/28978.got.cif
#   From: 2010.06.25/outbox.cif.g09.slc.cpg/sg10_15_cif.got.tgz:28978.got - 2010.06.27 22:07:45.
