data_PCOD8060868
_publ_section_title
;
Structure prediction by ZEFSAII (Michael W. Deem and Ramdas Pophale) SiO2 
 PCOD8060868
Probable space group: P 2/M
;
_chemical_formula_sum "Si O2"
_cell_formula_units_Z 32
_cell_length_a 20.618079
_cell_length_b 8.600575
_cell_length_c 25.308163
_cell_angle_alpha 90.000000
_cell_angle_beta 157.552296
_cell_angle_gamma 90.000000
_cell_volume 1713.632722
_symmetry_space_group_name_H-M "P 2/M"
_symmetry_group_IT_number 10
_symmetry_cell_setting 'monoclinic'
loop_
_space_group_symop_operation_xyz
x,y,z
-x,y,-z
-x,-y,-z
x,-y,z
loop_
_atom_site_type_symbol
_atom_site_label
_atom_site_fract_x
_atom_site_fract_y
_atom_site_fract_z
Si Si1 0.808912 0.817950 0.617476
Si Si2 0.394107 0.319988 0.071828
Si Si3 0.508930 0.678778 0.339821
Si Si4 0.352536 0.181549 0.660834
Si Si5 0.355460 0.183733 0.928875
Si Si6 0.015865 0.183496 0.356388
Si Si7 0.122307 0.320245 0.045542
Si Si8 0.092010 0.180576 0.910265
O O1 0.628219 0.728571 0.479061
O O2 0.923105 0.755232 0.654745
O O3 0.909930 0.777900 0.747070
O O4 0.771112 0.000000 0.583738
O O5 0.387424 0.500000 0.052414
O O6 0.571065 0.281194 0.234012
O O7 0.388337 0.221957 0.014299
O O8 0.240423 0.279379 0.995160
O O9 0.541333 0.500000 0.348906
O O10 0.549722 0.785066 0.320074
O O11 0.314528 0.706721 0.209873
O O12 0.153710 0.229832 0.504870
O O13 0.373028 0.000000 0.689196
O O14 0.171284 0.252087 0.772138
O O15 0.357047 0.000000 0.923574
O O16 0.500000 0.258339 0.000000
O O17 0.002054 0.000000 0.342012
O O18 0.089076 0.500000 0.006473
O O19 0.079445 0.218543 0.962222
O O20 0.000000 0.262311 0.000000
O O21 0.135195 0.000000 0.933889
#
# Coordination Sequence:
#
# PCOD8060868 Si02
#       8
#     4   4   4   4   4   4   4   4
#     4   9  18  33  54  79 110 141 178 228 276 324
#     4  12  23  35  54  83 115 145 183 230 281 333
#     4  10  19  32  53  82 111 142 183 224 273 330
#     4  10  19  33  55  80 109 143 182 231 276 320
#     4  10  20  37  60  83 110 146 186 229 276 329
#     4   8  15  31  53  80 108 138 178 222 272 322
#     4  10  22  39  56  79 115 151 181 223 280 336
#     4  11  21  36  59  84 109 142 190 235 273 322
#
# _framework density 18.673781000000002
#
# number of rings (size 3 to 8) (size 9 to 14) (size 15 to 20)
#    0.000    2.000    2.500    3.000    0.000    2.000 
#    0.000    1.875    0.000    7.500    0.000    0.000 
#    0.000    0.000    0.000    0.000    0.000    0.000 
#
# Total GULP energy -396772.668648 kJ/mol
# GULP energy per Si atom -12399.145895 kJ/mol
# Density = 1.863128 g / cm^3
# Si number density = 18.673781 Si / 1000 Ang^3
#
#
#
# Elastic Constant Matrix: (Units=GPa)
#
#
# Indices 1 2 3 4 5 6 
#
# 1 72.2874 -0.2325 50.7259 0.0000 7.2494 0.0000
# 2 -0.2325 30.5977 21.3403 0.0000 2.0253 0.0000
# 3 50.7259 21.3403 156.8153 0.0000 0.3808 0.0000
# 4 0.0000 0.0000 0.0000 19.9809 0.0000 -1.1814
# 5 7.2494 2.0253 0.3808 0.0000 27.9524 0.0000
# 6 0.0000 0.0000 0.0000 -1.1814 0.0000 18.4634
#
#
#
# Elastic Compliance Matrix: (Units=1/GPa)
#
#
# Indices 1 2 3 4 5 6 
#
# 1 0.019251 0.005337 -0.006941 0.000000 -0.005285 0.000000
# 2 0.005337 0.037772 -0.006857 0.000000 -0.004027 0.000000
# 3 -0.006941 -0.006857 0.009550 0.000000 0.002167 0.000000
# 4 0.000000 0.000000 0.000000 0.050238 0.000000 0.003215
# 5 -0.005285 -0.004027 0.002167 0.000000 0.037408 0.000000
# 6 0.000000 0.000000 0.000000 0.003215 0.000000 0.054367
#
#
# Mechanical properties :
#
#
# Convention : Reuss Voigt Hill
#
# Bulk Modulus (GPa) = 20.14027 44.81864 32.47946
# Shear Modulus (GPa) = 20.65624 25.80378 23.23001
#
# Velocity S-wave (km/s) = 3.32951 3.72131 3.53085
# Velocity P-wave (km/s) = 5.05861 6.52052 5.83553
#
# Compressibility (1/GPa) = 0.04965177
#
# Stress axis : x y z
#
# Youngs Moduli (GPa) = 51.94432 26.47489 104.71246
#
# Poissons Ratio (x) = -0.14130 0.72679
# Poissons Ratio (y) = -0.27723 0.71799
# Poissons Ratio (z) = 0.36054 0.18153
#
# Static dielectric constant tensor:
#      x y z
#    x 3.206520 0.000000 0.007330 
#    y 0.000000 3.269870 0.000000 
#    z 0.007330 0.000000 3.936220 
# 
# 
# High freq. dielectric constant tensor:
#      x y z
#    x 1.689060 0.000000 -0.009760 
#    y 0.000000 1.712620 0.000000 
#    z -0.009760 0.000000 1.745310 
# 
# From -- ./inp_files/93759.got.cif
#   From: 2010.06.25/outbox.cif.g09.slc.cpg/sg10_47_cif.got.tgz:93759.got - 2010.06.27 22:07:45.
