data_PCOD8060790
_publ_section_title
;
Structure prediction by ZEFSAII (Michael W. Deem and Ramdas Pophale) SiO2 
 PCOD8060790
Probable space group: P 2/M
;
_chemical_formula_sum "Si O2"
_cell_formula_units_Z 32
_cell_length_a 11.907054
_cell_length_b 9.463275
_cell_length_c 14.941038
_cell_angle_alpha 90.000000
_cell_angle_beta 86.379901
_cell_angle_gamma 90.000000
_cell_volume 1680.192783
_symmetry_space_group_name_H-M "P 2/M"
_symmetry_group_IT_number 10
_symmetry_cell_setting 'monoclinic'
loop_
_space_group_symop_operation_xyz
x,y,z
-x,y,-z
-x,-y,-z
x,-y,z
loop_
_atom_site_type_symbol
_atom_site_label
_atom_site_fract_x
_atom_site_fract_y
_atom_site_fract_z
Si Si1 0.256062 0.833542 0.829013
Si Si2 0.662078 0.664425 0.676944
Si Si3 0.697141 0.336369 0.478917
Si Si4 0.980338 0.837569 0.234807
Si Si5 0.773284 0.836954 0.821606
Si Si6 0.938266 0.333746 0.411196
Si Si7 0.371069 0.168085 0.003743
Si Si8 0.591074 0.660782 0.306508
O O1 0.125225 0.791181 0.822120
O O2 0.305301 0.773903 0.919917
O O3 0.326816 0.767431 0.745826
O O4 0.273289 0.000000 0.823946
O O5 0.695766 0.500000 0.678312
O O6 0.671627 0.731502 0.576775
O O7 0.745562 0.750460 0.734536
O O8 0.535634 0.686415 0.719017
O O9 0.714990 0.500000 0.498147
O O10 0.810982 0.278013 0.428232
O O11 0.596464 0.310734 0.413444
O O12 0.992110 0.745975 0.324167
O O13 0.092801 0.818414 0.168885
O O14 0.966037 0.000000 0.265254
O O15 0.741866 0.000000 0.807146
O O16 0.700638 0.776136 0.908032
O O17 0.946824 0.500000 0.390717
O O18 0.000000 0.293816 0.500000
O O19 0.372326 0.000000 0.003031
O O20 0.500000 0.225869 0.000000
O O21 0.629788 0.500000 0.284611
#
# Coordination Sequence:
#
# PCOD8060790 Si02
#       8
#     4   4   4   4   4   4   4   4
#     4  10  20  35  56  80 107 141 181 221 264 319
#     4  10  20  34  54  79 106 138 179 223 266 316
#     4   9  17  31  50  75 105 138 176 214 260 314
#     4  10  21  35  52  78 109 140 176 221 268 312
#     4  10  21  37  55  77 107 140 175 217 269 319
#     4  10  19  32  53  77 103 142 187 222 255 309
#     4   9  18  34  57  81 104 136 177 219 266 322
#     4  10  19  33  54  79 107 140 176 219 269 317
#
# _framework density 19.045432999999999
#
# number of rings (size 3 to 8) (size 9 to 14) (size 15 to 20)
#    0.000    2.250    1.250    1.875    0.000    5.250 
#    0.000    4.375    0.000    3.750    0.000    2.625 
#    0.000    0.000    0.000    0.000    0.000    0.000 
#
# Total GULP energy -396722.948724 kJ/mol
# GULP energy per Si atom -12397.592148 kJ/mol
# Density = 1.900209 g / cm^3
# Si number density = 19.045433 Si / 1000 Ang^3
#
#
#
# Elastic Constant Matrix: (Units=GPa)
#
#
# Indices 1 2 3 4 5 6 
#
# 1 113.2128 28.6135 60.9669 0.0000 4.2843 0.0000
# 2 28.6135 31.3273 30.2857 0.0000 1.5178 0.0000
# 3 60.9669 30.2857 113.8447 0.0000 0.0806 0.0000
# 4 0.0000 0.0000 0.0000 13.4171 0.0000 0.7393
# 5 4.2843 1.5178 0.0806 0.0000 34.8472 0.0000
# 6 0.0000 0.0000 0.0000 0.7393 0.0000 22.1787
#
#
#
# Elastic Compliance Matrix: (Units=1/GPa)
#
#
# Indices 1 2 3 4 5 6 
#
# 1 0.013583 -0.007148 -0.005372 0.000000 -0.001346 0.000000
# 2 -0.007148 0.046854 -0.008635 0.000000 -0.001142 0.000000
# 3 -0.005372 -0.008635 0.013957 0.000000 0.001004 0.000000
# 4 0.000000 0.000000 0.000000 0.074669 0.000000 -0.002489
# 5 -0.001346 -0.001142 0.001004 0.000000 0.028910 0.000000
# 6 0.000000 0.000000 0.000000 -0.002489 0.000000 0.045171
#
#
# Mechanical properties :
#
#
# Convention : Reuss Voigt Hill
#
# Bulk Modulus (GPa) = 31.16875 55.34634 43.25754
# Shear Modulus (GPa) = 18.10616 23.32318 20.71467
#
# Velocity S-wave (km/s) = 3.08666 3.50324 3.30152
# Velocity P-wave (km/s) = 5.39484 6.74439 6.10701
#
# Compressibility (1/GPa) = 0.03208342
#
# Stress axis : x y z
#
# Youngs Moduli (GPa) = 73.62013 21.34295 71.64836
#
# Poissons Ratio (x) = 0.15257 0.38486
# Poissons Ratio (y) = 0.52627 0.61871
# Poissons Ratio (z) = 0.39546 0.18431
#
# Static dielectric constant tensor:
#      x y z
#    x 3.745030 0.000000 0.035520 
#    y 0.000000 3.123670 0.000000 
#    z 0.035520 0.000000 3.507150 
# 
# 
# High freq. dielectric constant tensor:
#      x y z
#    x 1.757500 0.000000 0.002950 
#    y 0.000000 1.700460 0.000000 
#    z 0.002950 0.000000 1.739200 
# 
# From -- ./inp_files/49911.got.cif
#   From: 2010.06.25/outbox.cif.g09.slc.cpg/sg10_25_cif.got.tgz:49911.got - 2010.06.27 22:07:45.
