data_PCOD8060442
_publ_section_title
;
Structure prediction by ZEFSAII (Michael W. Deem and Ramdas Pophale) SiO2 
 PCOD8060442
Probable space group: P 2/M
;
_chemical_formula_sum "Si O2"
_cell_formula_units_Z 28
_cell_length_a 6.879245
_cell_length_b 17.414883
_cell_length_c 14.684299
_cell_angle_alpha 90.000000
_cell_angle_beta 68.814303
_cell_angle_gamma 90.000000
_cell_volume 1640.300299
_symmetry_space_group_name_H-M "P 2/M"
_symmetry_group_IT_number 10
_symmetry_cell_setting 'monoclinic'
loop_
_space_group_symop_operation_xyz
x,y,z
-x,y,-z
-x,-y,-z
x,-y,z
loop_
_atom_site_type_symbol
_atom_site_label
_atom_site_fract_x
_atom_site_fract_y
_atom_site_fract_z
Si Si1 0.311944 0.585909 0.096828
Si Si2 0.507158 0.321399 0.396917
Si Si3 0.178411 0.801202 0.397353
Si Si4 0.530798 0.910563 0.388334
Si Si5 0.950381 0.699059 0.109575
Si Si6 0.866020 0.205083 0.292367
Si Si7 0.593091 0.585543 0.212558
O O1 0.236296 0.500000 0.081822
O O2 0.382215 0.586688 0.189807
O O3 0.129566 0.646371 0.119964
O O4 0.500000 0.611344 0.000000
O O5 0.500000 0.354634 0.500000
O O6 0.296773 0.276799 0.404683
O O7 0.705428 0.265875 0.361023
O O8 0.537904 0.393114 0.325224
O O9 0.341544 0.871331 0.365866
O O10 0.000000 0.820647 0.500000
O O11 0.078600 0.793775 0.314240
O O12 0.500000 0.892397 0.500000
O O13 0.753553 0.877810 0.316340
O O14 0.527798 0.000000 0.367003
O O15 0.919867 0.773315 0.178881
O O16 0.745610 0.646763 0.140453
O O17 0.000000 0.729213 0.000000
O O18 0.692150 0.500000 0.194948
#
# Coordination Sequence:
#
# PCOD8060442 Si02
#       7
#     4   4   4   4   4   4   4
#     4  10  19  32  50  73 101 129 161 210 265 303
#     4  10  19  32  49  70  98 133 173 208 241 290
#     4  11  17  31  53  75 102 138 163 193 244 295
#     4  10  20  33  52  81 110 131 158 196 238 292
#     4  11  21  34  54  75  96 129 172 210 250 297
#     4  10  20  34  51  75 103 132 164 203 246 289
#     4  10  21  34  49  70  98 132 168 212 259 297
#
# _framework density 17.070045
#
# number of rings (size 3 to 8) (size 9 to 14) (size 15 to 20)
#    0.000    1.714    4.286    2.143    0.000    1.714 
#    0.000    0.000    0.000    0.857    0.000    1.000 
#    0.000    0.000    0.000    0.000    0.000    0.000 
#
# Total GULP energy -347230.532408 kJ/mol
# GULP energy per Si atom -12401.090443 kJ/mol
# Density = 1.703119 g / cm^3
# Si number density = 17.070045 Si / 1000 Ang^3
#
#
#
# Elastic Constant Matrix: (Units=GPa)
#
#
# Indices 1 2 3 4 5 6 
#
# 1 97.3758 30.4860 31.9871 0.0000 8.9875 0.0000
# 2 30.4860 70.7077 37.9991 0.0000 6.1793 0.0000
# 3 31.9871 37.9991 115.9156 0.0000 12.9744 0.0000
# 4 0.0000 0.0000 0.0000 27.8700 0.0000 -1.7943
# 5 8.9875 6.1793 12.9744 0.0000 23.6731 0.0000
# 6 0.0000 0.0000 0.0000 -1.7943 0.0000 16.9661
#
#
#
# Elastic Compliance Matrix: (Units=1/GPa)
#
#
# Indices 1 2 3 4 5 6 
#
# 1 0.012397 -0.004169 -0.001757 0.000000 -0.002655 0.000000
# 2 -0.004169 0.018618 -0.004886 0.000000 -0.000599 0.000000
# 3 -0.001757 -0.004886 0.011182 0.000000 -0.004186 0.000000
# 4 0.000000 0.000000 0.000000 0.036127 0.000000 0.003821
# 5 -0.002655 -0.000599 -0.004186 0.000000 0.045701 0.000000
# 6 0.000000 0.000000 0.000000 0.003821 0.000000 0.059345
#
#
# Mechanical properties :
#
#
# Convention : Reuss Voigt Hill
#
# Bulk Modulus (GPa) = 48.60567 53.88260 51.24414
# Shear Modulus (GPa) = 23.60146 25.93698 24.76922
#
# Velocity S-wave (km/s) = 3.72240 3.90223 3.81338
# Velocity P-wave (km/s) = 6.85646 7.20676 7.03379
#
# Compressibility (1/GPa) = 0.02057373
#
# Stress axis : x y z
#
# Youngs Moduli (GPa) = 80.66555 53.71103 89.42865
#
# Poissons Ratio (x) = 0.22390 0.15714
# Poissons Ratio (y) = 0.33626 0.43694
# Poissons Ratio (z) = 0.14175 0.26243
#
# Static dielectric constant tensor:
#      x y z
#    x 3.300860 0.000000 0.012520 
#    y 0.000000 3.036930 0.000000 
#    z 0.012520 0.000000 3.219210 
# 
# 
# High freq. dielectric constant tensor:
#      x y z
#    x 1.670560 0.000000 0.005820 
#    y 0.000000 1.633760 0.000000 
#    z 0.005820 0.000000 1.648650 
# 
# From -- ./inp_files/9620.got.cif
#   From: 2010.06.25/outbox.cif.g09.slc.cpg/sg10_5_cif.got.tgz:9620.got - 2010.06.27 22:07:45.
