data_PCOD8060920
_publ_section_title
;
Structure prediction by ZEFSAII (Michael W. Deem and Ramdas Pophale) SiO2 
 PCOD8060920
Probable space group: P 2/M
;
_chemical_formula_sum "Si O2"
_cell_formula_units_Z 32
_cell_length_a 20.110123
_cell_length_b 8.908965
_cell_length_c 25.948186
_cell_angle_alpha 90.000000
_cell_angle_beta 158.686811
_cell_angle_gamma 90.000000
_cell_volume 1689.710882
_symmetry_space_group_name_H-M "P 2/M"
_symmetry_group_IT_number 10
_symmetry_cell_setting 'monoclinic'
loop_
_space_group_symop_operation_xyz
x,y,z
-x,y,-z
-x,-y,-z
x,-y,z
loop_
_atom_site_type_symbol
_atom_site_label
_atom_site_fract_x
_atom_site_fract_y
_atom_site_fract_z
Si Si1 0.358517 0.677348 0.667045
Si Si2 0.213854 0.821644 0.385181
Si Si3 0.207550 0.177228 0.657133
Si Si4 0.294341 0.176372 0.131822
Si Si5 0.053663 0.325238 0.366656
Si Si6 0.098950 0.821659 0.190226
Si Si7 0.690007 0.325895 0.163766
Si Si8 0.622288 0.823524 0.692511
O O1 0.352977 0.500000 0.669131
O O2 0.333369 0.749817 0.704568
O O3 0.552172 0.728519 0.785516
O O4 0.198804 0.734534 0.513551
O O5 0.079308 0.760721 0.331720
O O6 0.142699 0.762527 0.278852
O O7 0.418028 0.756291 0.540980
O O8 0.211591 0.000000 0.386317
O O9 0.285533 0.225815 0.768301
O O10 0.000000 0.234981 0.500000
O O11 0.219405 0.000000 0.660526
O O12 0.292363 0.215524 0.190733
O O13 0.329703 0.000000 0.148114
O O14 0.102377 0.232485 0.970608
O O15 0.084369 0.500000 0.378701
O O16 0.850469 0.289140 0.239363
O O17 0.247597 0.753410 0.257678
O O18 0.108312 0.000000 0.194356
O O19 0.694889 0.500000 0.183664
O O20 0.500000 0.281833 0.000000
O O21 0.609240 0.000000 0.674404
#
# Coordination Sequence:
#
# PCOD8060920 Si02
#       8
#     4   4   4   4   4   4   4   4
#     4  11  22  37  59  82 110 148 188 230 276 332
#     4  10  19  32  54  81 107 141 184 227 270 326
#     4  11  23  38  61  90 117 146 185 235 283 331
#     4  10  19  33  54  81 110 141 183 230 277 327
#     4  10  21  37  57  80 109 145 182 225 275 331
#     4   9  18  31  50  80 114 142 175 228 284 325
#     4  10  22  41  63  87 116 152 191 229 279 342
#     4   9  16  29  52  79 107 142 183 225 272 329
#
# _framework density 18.93815
#
# number of rings (size 3 to 8) (size 9 to 14) (size 15 to 20)
#    0.000    2.000    2.500    1.500    0.000    5.750 
#    0.000    3.125    0.000    4.500    0.000    0.000 
#    0.000    0.000    0.000    0.000    0.000    0.000 
#
# Total GULP energy -396911.572769 kJ/mol
# GULP energy per Si atom -12403.486649 kJ/mol
# Density = 1.889505 g / cm^3
# Si number density = 18.938150 Si / 1000 Ang^3
#
#
#
# Elastic Constant Matrix: (Units=GPa)
#
#
# Indices 1 2 3 4 5 6 
#
# 1 139.1512 40.6513 66.3472 0.0000 2.7070 0.0000
# 2 40.6513 37.3515 26.4699 0.0000 -2.1262 0.0000
# 3 66.3472 26.4699 145.2836 0.0000 -1.5856 0.0000
# 4 0.0000 0.0000 0.0000 18.3395 0.0000 -2.0221
# 5 2.7070 -2.1262 -1.5856 0.0000 34.0835 0.0000
# 6 0.0000 0.0000 0.0000 -2.0221 0.0000 0.9204
#
#
#
# Elastic Compliance Matrix: (Units=1/GPa)
#
#
# Indices 1 2 3 4 5 6 
#
# 1 0.012045 -0.010678 -0.003575 0.000000 -0.001789 0.000000
# 2 -0.010678 0.040301 -0.002431 0.000000 0.003249 0.000000
# 3 -0.003575 -0.002431 0.008965 0.000000 0.000549 0.000000
# 4 0.000000 0.000000 0.000000 0.071957 0.000000 0.158087
# 5 -0.001789 0.003249 0.000549 0.000000 0.029710 0.000000
# 6 0.000000 0.000000 0.000000 0.158087 0.000000 1.433791
#
#
# Mechanical properties :
#
#
# Convention : Reuss Voigt Hill
#
# Bulk Modulus (GPa) = 35.78578 65.41365 50.59971
# Shear Modulus (GPa) = 3.04980 23.22320 13.13650
#
# Velocity S-wave (km/s) = 1.27039 3.50561 2.63659
# Velocity P-wave (km/s) = 4.59228 7.14152 6.00376
#
# Compressibility (1/GPa) = 0.02794406
#
# Stress axis : x y z
#
# Youngs Moduli (GPa) = 83.02191 24.81301 111.55106
#
# Poissons Ratio (x) = 0.26494 0.39877
# Poissons Ratio (y) = 0.88648 0.27119
# Poissons Ratio (z) = 0.29678 0.06032
#
# Static dielectric constant tensor:
#      x y z
#    x 3.649370 0.000000 0.022460 
#    y 0.000000 3.117360 0.000000 
#    z 0.022460 0.000000 3.615460 
# 
# 
# High freq. dielectric constant tensor:
#      x y z
#    x 1.750970 0.000000 0.002150 
#    y 0.000000 1.701820 0.000000 
#    z 0.002150 0.000000 1.743310 
# 
# From -- ./inp_files/86873.got.cif
#   From: 2010.06.25/outbox.cif.g09.slc.cpg/sg10_44_cif.got.tgz:86873.got - 2010.06.27 22:07:45.
