data_PCOD8060638
_publ_section_title
;
Structure prediction by ZEFSAII (Michael W. Deem and Ramdas Pophale) SiO2 
 PCOD8060638
Probable space group: P 2/M
;
_chemical_formula_sum "Si O2"
_cell_formula_units_Z 26
_cell_length_a 20.341349
_cell_length_b 9.418455
_cell_length_c 11.573839
_cell_angle_alpha 90.000000
_cell_angle_beta 140.475838
_cell_angle_gamma 90.000000
_cell_volume 1411.137904
_symmetry_space_group_name_H-M "P 2/M"
_symmetry_group_IT_number 10
_symmetry_cell_setting 'monoclinic'
loop_
_space_group_symop_operation_xyz
x,y,z
-x,y,-z
-x,-y,-z
x,-y,z
loop_
_atom_site_type_symbol
_atom_site_label
_atom_site_fract_x
_atom_site_fract_y
_atom_site_fract_z
Si Si1 0.966786 0.333974 0.831584
Si Si2 0.600091 0.334142 0.074032
Si Si3 0.818273 0.332744 0.957382
Si Si4 0.686834 0.160268 0.607183
Si Si5 0.351079 0.339870 0.106431
Si Si6 0.740198 0.333912 0.472227
Si Si7 0.500000 0.755805 0.500000
O O1 0.950802 0.500000 0.827219
O O2 0.857835 0.273903 0.637762
O O3 0.000000 0.266859 0.000000
O O4 0.058938 0.303230 0.864185
O O5 0.576663 0.500000 0.024586
O O6 0.700783 0.307575 0.288898
O O7 0.500000 0.264293 0.000000
O O8 0.618581 0.261484 0.972586
O O9 0.796205 0.500000 0.906291
O O10 0.777685 0.248514 0.791267
O O11 0.755801 0.276381 0.985232
O O12 0.667895 0.243135 0.461061
O O13 0.582999 0.150388 0.543265
O O14 0.724023 0.000000 0.634104
O O15 0.326990 0.500000 0.039482
O O16 0.440883 0.338146 0.324570
O O17 0.730284 0.500000 0.491443
#
# Coordination Sequence:
#
# PCOD8060638 Si02
#       7
#     4   4   4   4   4   4   2
#     4   9  15  27  48  73  99 126 161 200 242 291
#     4   9  17  29  46  71 101 127 161 206 244 281
#     4   9  17  31  50  71  98 128 160 200 244 292
#     4  11  21  32  47  71 101 127 160 204 247 290
#     4   9  17  29  48  75  99 124 164 207 239 283
#     4  10  19  32  52  72  96 133 166 195 243 293
#     4  10  20  32  48  66  97 134 159 192 253 302
#
# _framework density 18.424847
#
# number of rings (size 3 to 8) (size 9 to 14) (size 15 to 20)
#    0.000    2.462    1.538    1.846    0.000    3.077 
#    0.000    2.308    0.000   12.462    0.000    0.000 
#    0.000    6.154    0.000    0.000    0.000    0.000 
#
# Total GULP energy -322156.059286 kJ/mol
# GULP energy per Si atom -12390.617665 kJ/mol
# Density = 1.838291 g / cm^3
# Si number density = 18.424847 Si / 1000 Ang^3
#
#
#
# Elastic Constant Matrix: (Units=GPa)
#
#
# Indices 1 2 3 4 5 6 
#
# 1 142.2666 20.6978 72.5103 0.0000 -6.0388 0.0000
# 2 20.6978 47.8955 10.7885 0.0000 -3.3504 0.0000
# 3 72.5103 10.7885 108.6734 0.0000 2.0207 0.0000
# 4 0.0000 0.0000 0.0000 3.9930 0.0000 1.7575
# 5 -6.0388 -3.3504 2.0207 0.0000 34.6438 0.0000
# 6 0.0000 0.0000 0.0000 1.7575 0.0000 10.9562
#
#
#
# Elastic Compliance Matrix: (Units=1/GPa)
#
#
# Indices 1 2 3 4 5 6 
#
# 1 0.011259 -0.003088 -0.007245 0.000000 0.002087 0.000000
# 2 -0.003088 0.022371 -0.000191 0.000000 0.001636 0.000000
# 3 -0.007245 -0.000191 0.014094 0.000000 -0.002103 0.000000
# 4 0.000000 0.000000 0.000000 0.269463 0.000000 -0.043224
# 5 0.002087 0.001636 -0.002103 0.000000 0.029510 0.000000
# 6 0.000000 0.000000 0.000000 -0.043224 0.000000 0.098206
#
#
# Mechanical properties :
#
#
# Convention : Reuss Voigt Hill
#
# Bulk Modulus (GPa) = 37.48594 56.31430 46.90012
# Shear Modulus (GPa) = 10.52980 22.90787 16.71884
#
# Velocity S-wave (km/s) = 2.39320 3.52989 3.01559
# Velocity P-wave (km/s) = 5.29396 6.87344 6.13475
#
# Compressibility (1/GPa) = 0.02667667
#
# Stress axis : x y z
#
# Youngs Moduli (GPa) = 88.81442 44.70143 70.95224
#
# Poissons Ratio (x) = 0.13803 0.51404
# Poissons Ratio (y) = 0.27424 0.01355
# Poissons Ratio (z) = 0.64345 0.00854
#
# Static dielectric constant tensor:
#      x y z
#    x 3.799190 0.000000 0.061030 
#    y 0.000000 2.805920 0.000000 
#    z 0.061030 0.000000 3.369750 
# 
# 
# High freq. dielectric constant tensor:
#      x y z
#    x 1.729720 0.000000 0.010380 
#    y 0.000000 1.651450 0.000000 
#    z 0.010380 0.000000 1.700570 
# 
# From -- ./inp_files/55420.got.cif
#   From: 2010.06.25/outbox.cif.g09.slc.cpg/sg10_28_cif.got.tgz:55420.got - 2010.06.27 22:07:45.
