data_PCOD8060043
_publ_section_title
;
Structure prediction by ZEFSAII (Michael W. Deem and Ramdas Pophale) SiO2 
 PCOD8060043
Probable space group: P 2/M
;
_chemical_formula_sum "Si O2"
_cell_formula_units_Z 32
_cell_length_a 14.251910
_cell_length_b 18.568627
_cell_length_c 14.251925
_cell_angle_alpha 90.000000
_cell_angle_beta 149.129412
_cell_angle_gamma 90.000000
_cell_volume 1935.214040
_symmetry_space_group_name_H-M "P 2/M"
_symmetry_group_IT_number 10
_symmetry_cell_setting 'monoclinic'
loop_
_space_group_symop_operation_xyz
x,y,z
-x,y,-z
-x,-y,-z
x,-y,z
loop_
_atom_site_type_symbol
_atom_site_label
_atom_site_fract_x
_atom_site_fract_y
_atom_site_fract_z
Si Si1 0.055772 0.922878 0.944227
Si Si2 0.809006 0.164368 0.602453
Si Si3 0.853013 0.311085 0.740173
Si Si4 0.259827 0.311086 0.146986
Si Si5 0.602455 0.835630 0.809008
Si Si6 0.901914 0.080208 0.508574
Si Si7 0.508575 0.080208 0.901915
Si Si8 0.442842 0.579369 0.557157
O O1 0.244455 0.880142 0.113088
O O2 0.083717 0.000000 0.916294
O O3 0.000000 0.939065 0.000000
O O4 0.886904 0.880146 0.755537
O O5 0.840650 0.247800 0.652993
O O6 0.594618 0.148061 0.405379
O O7 0.928066 0.138579 0.614123
O O8 0.757682 0.288682 0.757683
O O9 0.749428 0.378281 0.604023
O O10 0.062690 0.333159 0.937309
O O11 0.347011 0.247802 0.159351
O O12 0.395976 0.378283 0.250571
O O13 0.614124 0.861421 0.928067
O O14 0.690377 0.071506 0.309622
O O15 0.000000 0.110989 0.500000
O O16 0.980979 0.000000 0.601738
O O17 0.601739 0.000000 0.980980
O O18 0.500000 0.110989 0.000000
O O19 0.500000 0.569590 0.500000
O O20 0.418090 0.500000 0.581905
#
# Coordination Sequence:
#
# PCOD8060043 Si02
#       8
#     4   4   4   4   4   4   4   4
#     4  11  24  36  48  69  95 131 177 216 253 294
#     4  11  21  34  52  72  98 132 169 214 254 304
#     4  10  19  31  49  73 100 133 168 201 243 295
#     4  10  19  31  49  73 100 133 168 201 243 295
#     4  11  21  34  52  72  98 132 169 214 254 304
#     4   9  19  33  49  70  94 126 166 210 264 310
#     4   9  19  33  49  70  94 126 166 210 264 310
#     4   9  18  32  50  73 101 131 161 198 246 297
#
# _framework density 16.535639
#
# number of rings (size 3 to 8) (size 9 to 14) (size 15 to 20)
#    0.000    2.000    2.500    1.500    1.750    3.500 
#    0.000    3.750    0.000    0.000    0.000    0.000 
#    0.000    1.000    0.500    0.000    0.000    0.000 
#
# Total GULP energy -396577.626101 kJ/mol
# GULP energy per Si atom -12393.050816 kJ/mol
# Density = 1.649800 g / cm^3
# Si number density = 16.535639 Si / 1000 Ang^3
#
#
#
# Elastic Constant Matrix: (Units=GPa)
#
#
# Indices 1 2 3 4 5 6 
#
# 1 74.8272 48.8249 29.1017 0.0000 -4.1997 0.0000
# 2 48.8249 140.5669 50.9476 0.0000 0.6095 0.0000
# 3 29.1017 50.9476 101.7836 0.0000 11.9781 0.0000
# 4 0.0000 0.0000 0.0000 20.1488 0.0000 0.4392
# 5 -4.1997 0.6095 11.9781 0.0000 20.2592 0.0000
# 6 0.0000 0.0000 0.0000 0.4392 0.0000 18.6305
#
#
#
# Elastic Compliance Matrix: (Units=1/GPa)
#
#
# Indices 1 2 3 4 5 6 
#
# 1 0.018397 -0.005198 -0.003359 0.000000 0.005956 0.000000
# 2 -0.005198 0.010277 -0.003756 0.000000 0.000834 0.000000
# 3 -0.003359 -0.003756 0.013686 0.000000 -0.008675 0.000000
# 4 0.000000 0.000000 0.000000 0.049656 0.000000 -0.001171
# 5 0.005956 0.000834 -0.008675 0.000000 0.055699 0.000000
# 6 0.000000 0.000000 0.000000 -0.001171 0.000000 0.053703
#
#
# Mechanical properties :
#
#
# Convention : Reuss Voigt Hill
#
# Bulk Modulus (GPa) = 56.39033 63.88067 60.13550
# Shear Modulus (GPa) = 21.55576 24.36126 22.95851
#
# Velocity S-wave (km/s) = 3.61445 3.84247 3.73020
# Velocity P-wave (km/s) = 7.18299 7.64212 7.41611
#
# Compressibility (1/GPa) = 0.01773354
#
# Stress axis : x y z
#
# Youngs Moduli (GPa) = 54.35774 97.30014 73.06656
#
# Poissons Ratio (x) = 0.50581 0.24541
# Poissons Ratio (y) = 0.28257 0.27445
# Poissons Ratio (z) = 0.18257 0.36548
#
# Static dielectric constant tensor:
#      x y z
#    x 3.174600 0.000000 0.061030 
#    y 0.000000 3.263100 0.000000 
#    z 0.061030 0.000000 3.386080 
# 
# 
# High freq. dielectric constant tensor:
#      x y z
#    x 1.609790 0.000000 0.011730 
#    y 0.000000 1.619430 0.000000 
#    z 0.011730 0.000000 1.650450 
# 
# From -- ./inp_files/67753.got.cif
#   From: 2010.06.25/outbox.cif.g09.slc.cpg/sg10_34_cif.got.tgz:67753.got - 2010.06.27 22:07:45.
