data_PCOD8060300
_publ_section_title
;
Structure prediction by ZEFSAII (Michael W. Deem and Ramdas Pophale) SiO2 
 PCOD8060300
Probable space group: P 2/M
;
_chemical_formula_sum "Si O2"
_cell_formula_units_Z 28
_cell_length_a 28.844657
_cell_length_b 9.176801
_cell_length_c 9.067877
_cell_angle_alpha 90.000000
_cell_angle_beta 141.320835
_cell_angle_gamma 90.000000
_cell_volume 1500.077562
_symmetry_space_group_name_H-M "P 2/M"
_symmetry_group_IT_number 10
_symmetry_cell_setting 'monoclinic'
loop_
_space_group_symop_operation_xyz
x,y,z
-x,y,-z
-x,-y,-z
x,-y,z
loop_
_atom_site_type_symbol
_atom_site_label
_atom_site_fract_x
_atom_site_fract_y
_atom_site_fract_z
Si Si1 0.853223 0.331641 0.284227
Si Si2 0.705925 0.827791 0.419935
Si Si3 0.577667 0.331601 0.273049
Si Si4 0.429358 0.327421 0.411364
Si Si5 0.844444 0.171470 0.958485
Si Si6 0.994265 0.839402 0.660724
Si Si7 0.710713 0.668566 0.125085
O O1 0.865103 0.500000 0.277026
O O2 0.830688 0.252584 0.077926
O O3 0.789034 0.305773 0.242403
O O4 0.929062 0.270278 0.545580
O O5 0.637336 0.764108 0.337835
O O6 0.707348 0.765598 0.260523
O O7 0.697625 0.000000 0.391577
O O8 0.781568 0.780325 0.688443
O O9 0.603207 0.500000 0.335262
O O10 0.570791 0.269476 0.421738
O O11 0.500000 0.311967 0.000000
O O12 0.500000 0.260777 0.500000
O O13 0.436306 0.500000 0.432222
O O14 0.354030 0.277698 0.144891
O O15 0.924197 0.213734 0.082885
O O16 0.842655 0.000000 0.988968
O O17 0.000000 0.846871 0.500000
O O18 0.975678 0.000000 0.678606
O O19 0.698796 0.500000 0.138821
#
# Coordination Sequence:
#
# PCOD8060300 Si02
#       7
#     4   4   4   4   4   4   4
#     4  10  19  31  52  81 107 134 173 221 269 316
#     4  11  23  37  54  77 106 140 180 222 261 306
#     4  10  20  36  60  85 109 140 174 211 261 315
#     4   9  17  32  56  82 104 132 173 212 247 301
#     4   9  19  35  53  75 104 139 177 217 264 318
#     4   8  15  30  51  73 101 137 175 215 261 316
#     4  10  21  36  52  74 107 141 174 215 263 315
#
# _framework density 18.665700999999999
#
# number of rings (size 3 to 8) (size 9 to 14) (size 15 to 20)
#    0.000    2.429    0.000    3.429    0.000    8.571 
#    0.000    1.429    0.000    6.000    0.000    0.000 
#    0.000    0.000    0.000    0.000    0.000    0.000 
#
# Total GULP energy -347189.784684 kJ/mol
# GULP energy per Si atom -12399.635167 kJ/mol
# Density = 1.862322 g / cm^3
# Si number density = 18.665701 Si / 1000 Ang^3
#
#
#
# Elastic Constant Matrix: (Units=GPa)
#
#
# Indices 1 2 3 4 5 6 
#
# 1 113.5164 54.7919 68.3721 0.0000 2.3299 0.0000
# 2 54.7919 66.9620 51.4402 0.0000 1.8271 0.0000
# 3 68.3721 51.4402 126.2022 0.0000 3.3289 0.0000
# 4 0.0000 0.0000 0.0000 24.5616 0.0000 8.7974
# 5 2.3299 1.8271 3.3289 0.0000 33.5214 0.0000
# 6 0.0000 0.0000 0.0000 8.7974 0.0000 12.1776
#
#
#
# Elastic Compliance Matrix: (Units=1/GPa)
#
#
# Indices 1 2 3 4 5 6 
#
# 1 0.016471 -0.009640 -0.004991 0.000000 -0.000124 0.000000
# 2 -0.009640 0.027387 -0.005934 0.000000 -0.000233 0.000000
# 3 -0.004991 -0.005934 0.013063 0.000000 -0.000627 0.000000
# 4 0.000000 0.000000 0.000000 0.054927 0.000000 -0.039680
# 5 -0.000124 -0.000233 -0.000627 0.000000 0.029915 0.000000
# 6 0.000000 0.000000 0.000000 -0.039680 0.000000 0.110784
#
#
# Mechanical properties :
#
#
# Convention : Reuss Voigt Hill
#
# Bulk Modulus (GPa) = 63.32839 72.87654 68.10246
# Shear Modulus (GPa) = 16.72578 22.85723 19.79150
#
# Velocity S-wave (km/s) = 2.99669 3.50316 3.25978
# Velocity P-wave (km/s) = 6.78048 7.44921 7.12269
#
# Compressibility (1/GPa) = 0.01579071
#
# Stress axis : x y z
#
# Youngs Moduli (GPa) = 60.71320 36.51404 76.55257
#
# Poissons Ratio (x) = 0.35200 0.38206
# Poissons Ratio (y) = 0.58528 0.45427
# Poissons Ratio (z) = 0.30301 0.21668
#
# Static dielectric constant tensor:
#      x y z
#    x 3.485960 0.000000 0.206170 
#    y 0.000000 3.304460 0.000000 
#    z 0.206170 0.000000 3.810090 
# 
# 
# High freq. dielectric constant tensor:
#      x y z
#    x 1.721370 0.000000 0.015850 
#    y 0.000000 1.706480 0.000000 
#    z 0.015850 0.000000 1.736460 
# 
# From -- ./inp_files/37236.got.cif
#   From: 2010.06.25/outbox.cif.g09.slc.cpg/sg10_19_cif.got.tgz:37236.got - 2010.06.27 22:07:45.
