data_PCOD8060539
_publ_section_title
;
Structure prediction by ZEFSAII (Michael W. Deem and Ramdas Pophale) SiO2 
 PCOD8060539
Probable space group: P 2/M
;
_chemical_formula_sum "Si O2"
_cell_formula_units_Z 28
_cell_length_a 15.221329
_cell_length_b 8.924374
_cell_length_c 19.271692
_cell_angle_alpha 90.000000
_cell_angle_beta 142.903456
_cell_angle_gamma 90.000000
_cell_volume 1579.001803
_symmetry_space_group_name_H-M "P 2/M"
_symmetry_group_IT_number 10
_symmetry_cell_setting 'monoclinic'
loop_
_space_group_symop_operation_xyz
x,y,z
-x,y,-z
-x,-y,-z
x,-y,z
loop_
_atom_site_type_symbol
_atom_site_label
_atom_site_fract_x
_atom_site_fract_y
_atom_site_fract_z
Si Si1 0.941385 0.334901 0.234093
Si Si2 0.374017 0.320305 0.128181
Si Si3 0.746714 0.320565 0.723530
Si Si4 0.058670 0.663449 0.930294
Si Si5 0.508270 0.826786 0.669296
Si Si6 0.376822 0.321382 0.973193
Si Si7 0.773399 0.827665 0.594871
O O1 0.964167 0.500000 0.282066
O O2 0.942318 0.352672 0.152636
O O3 0.782595 0.266673 0.154256
O O4 0.072763 0.227143 0.340333
O O5 0.380717 0.500000 0.138875
O O6 0.488334 0.242144 0.251365
O O7 0.211354 0.258382 0.047682
O O8 0.410266 0.267828 0.072768
O O9 0.746868 0.500000 0.722192
O O10 0.618717 0.262151 0.690345
O O11 0.722833 0.264220 0.630284
O O12 0.903885 0.259161 0.853010
O O13 0.060792 0.500000 0.966455
O O14 0.345308 0.803680 0.539589
O O15 0.553052 0.000000 0.698291
O O16 0.376165 0.500000 0.971276
O O17 0.500000 0.254195 0.000000
O O18 0.787301 0.000000 0.625684
#
# Coordination Sequence:
#
# PCOD8060539 Si02
#       7
#     4   4   4   4   4   4   4
#     4   8  14  27  49  74  96 120 153 190 229 279
#     4   9  17  31  50  70  94 125 157 186 228 288
#     4  10  19  32  51  71  90 118 162 207 241 279
#     4   7  13  27  45  66  91 117 147 188 233 273
#     4  11  23  34  43  62  96 132 163 199 239 273
#     4   8  14  28  54  84 105 118 140 186 244 290
#     4  10  20  33  47  64  93 130 164 200 238 271
#
# _framework density 17.732721000000002
#
# number of rings (size 3 to 8) (size 9 to 14) (size 15 to 20)
#    0.000    3.000    0.000    4.286    0.000    4.571 
#    0.000   10.000    0.000    2.571    0.000    6.000 
#    0.000    0.000    0.000    0.000    0.000    0.000 
#
# Total GULP energy -346890.815688 kJ/mol
# GULP energy per Si atom -12388.957703 kJ/mol
# Density = 1.769236 g / cm^3
# Si number density = 17.732721 Si / 1000 Ang^3
#
#
#
# Elastic Constant Matrix: (Units=GPa)
#
#
# Indices 1 2 3 4 5 6 
#
# 1 106.0168 33.2951 59.2736 0.0000 19.8585 0.0000
# 2 33.2951 64.0180 43.1641 0.0000 3.9042 0.0000
# 3 59.2736 43.1641 103.8918 0.0000 6.3211 0.0000
# 4 0.0000 0.0000 0.0000 -0.5958 0.0000 4.9267
# 5 19.8585 3.9042 6.3211 0.0000 21.9620 0.0000
# 6 0.0000 0.0000 0.0000 4.9267 0.0000 7.3838
#
#
#
# Elastic Compliance Matrix: (Units=1/GPa)
#
#
# Indices 1 2 3 4 5 6 
#
# 1 0.017045 -0.002855 -0.007768 0.000000 -0.012669 0.000000
# 2 -0.002855 0.022213 -0.007651 0.000000 0.000835 0.000000
# 3 -0.007768 -0.007651 0.017024 0.000000 0.003484 0.000000
# 4 0.000000 0.000000 0.000000 -0.257536 0.000000 0.171835
# 5 -0.012669 0.000835 0.003484 0.000000 0.055838 0.000000
# 6 0.000000 0.000000 0.000000 0.171835 0.000000 0.020779
#
#
# Mechanical properties :
#
#
# Convention : Reuss Voigt Hill
#
# Bulk Modulus (GPa) = 50.67148 60.59913 55.63531
# Shear Modulus (GPa) = -61.34192 14.96291 -23.18951
#
# Velocity S-wave (km/s) = -5.88792 2.90798 -3.62017
# Velocity P-wave (km/s) = 4.19360 6.74707 3.73742
#
# Compressibility (1/GPa) = 0.01973497
#
# Stress axis : x y z
#
# Youngs Moduli (GPa) = 58.66746 45.01843 58.74073
#
# Poissons Ratio (x) = 0.12852 0.45629
# Poissons Ratio (y) = 0.16749 0.44942
# Poissons Ratio (z) = 0.45572 0.34443
#
# Static dielectric constant tensor:
#      x y z
#    x 3.399460 0.000000 0.357370 
#    y 0.000000 3.072750 0.000000 
#    z 0.357370 0.000000 3.515310 
# 
# 
# High freq. dielectric constant tensor:
#      x y z
#    x 1.662330 0.000000 0.019690 
#    y 0.000000 1.656270 0.000000 
#    z 0.019690 0.000000 1.686260 
# 
# From -- ./inp_files/77787.got.cif
#   From: 2010.06.25/outbox.cif.g09.slc.cpg/sg10_39_cif.got.tgz:77787.got - 2010.06.27 22:07:45.
