data_PCOD8060079
_publ_section_title
;
Structure prediction by ZEFSAII (Michael W. Deem and Ramdas Pophale) SiO2 
 PCOD8060079
Probable space group: P 2/M
;
_chemical_formula_sum "Si O2"
_cell_formula_units_Z 20
_cell_length_a 11.877707
_cell_length_b 13.446719
_cell_length_c 14.904932
_cell_angle_alpha 90.000000
_cell_angle_beta 154.654554
_cell_angle_gamma 90.000000
_cell_volume 1019.057361
_symmetry_space_group_name_H-M "P 2/M"
_symmetry_group_IT_number 10
_symmetry_cell_setting 'monoclinic'
loop_
_space_group_symop_operation_xyz
x,y,z
-x,y,-z
-x,-y,-z
x,-y,z
loop_
_atom_site_type_symbol
_atom_site_label
_atom_site_fract_x
_atom_site_fract_y
_atom_site_fract_z
Si Si1 0.727642 0.726470 0.001462
Si Si2 0.746042 0.386202 0.619162
Si Si3 0.748475 0.612500 0.412437
Si Si4 0.886926 0.786192 0.307179
Si Si5 0.374115 0.884265 0.709130
O O1 0.008361 0.682972 0.175690
O O2 0.722477 0.765705 0.099976
O O3 0.502347 0.642910 0.828414
O O4 0.641837 0.822663 0.879142
O O5 0.500000 0.349033 0.500000
O O6 0.818815 0.500000 0.695416
O O7 0.671659 0.375156 0.461746
O O8 0.827186 0.500000 0.446228
O O9 0.004037 0.680313 0.577118
O O10 0.143633 0.856982 0.472268
O O11 0.715771 0.842825 0.258191
O O12 0.436331 0.000000 0.756143
#
# Coordination Sequence:
#
# PCOD8060079 Si02
#       5
#     4   4   4   4   4
#     4  10  19  31  49  75 102 129 163 204 248 291
#     4   9  18  33  53  76 102 132 164 200 243 290
#     4   9  18  32  49  73 105 135 164 197 237 291
#     4   9  18  32  49  72 102 132 164 201 242 288
#     4  10  20  34  53  74  96 127 168 209 248 292
#
# _framework density 19.625979000000001
#
# number of rings (size 3 to 8) (size 9 to 14) (size 15 to 20)
#    0.000    2.600    0.000    2.400    0.000    4.000 
#    0.000   12.000    0.000   23.400    0.000   12.600 
#    0.000    0.000    0.000    0.000    0.000    0.000 
#
# Total GULP energy -247794.500414 kJ/mol
# GULP energy per Si atom -12389.725021 kJ/mol
# Density = 1.958131 g / cm^3
# Si number density = 19.625979 Si / 1000 Ang^3
#
#
#
# Elastic Constant Matrix: (Units=GPa)
#
#
# Indices 1 2 3 4 5 6 
#
# 1 40.6343 11.5727 17.9243 0.0000 2.7584 0.0000
# 2 11.5727 156.6074 46.5452 0.0000 12.4363 0.0000
# 3 17.9243 46.5452 123.5817 0.0000 2.4161 0.0000
# 4 0.0000 0.0000 0.0000 10.0408 0.0000 15.5370
# 5 2.7584 12.4363 2.4161 0.0000 24.8560 0.0000
# 6 0.0000 0.0000 0.0000 15.5370 0.0000 10.5258
#
#
#
# Elastic Compliance Matrix: (Units=1/GPa)
#
#
# Indices 1 2 3 4 5 6 
#
# 1 0.026526 -0.000735 -0.003527 0.000000 -0.002233 0.000000
# 2 -0.000735 0.007499 -0.002651 0.000000 -0.003413 0.000000
# 3 -0.003527 -0.002651 0.009586 0.000000 0.000786 0.000000
# 4 0.000000 0.000000 0.000000 -0.077560 0.000000 0.114486
# 5 -0.002233 -0.003413 0.000786 0.000000 0.042111 0.000000
# 6 0.000000 0.000000 0.000000 0.114486 0.000000 -0.073987
#
#
# Mechanical properties :
#
#
# Convention : Reuss Voigt Hill
#
# Bulk Modulus (GPa) = 33.57255 52.54531 43.05893
# Shear Modulus (GPa) = -118.84586 25.40326 -46.72130
#
# Velocity S-wave (km/s) = -7.79018 3.60164 -4.88442
# Velocity P-wave (km/s) = 7.98577 6.64283 3.13411
#
# Compressibility (1/GPa) = 0.02978624
#
# Stress axis : x y z
#
# Youngs Moduli (GPa) = 37.69826 133.35891 104.31385
#
# Poissons Ratio (x) = 0.09796 0.36792
# Poissons Ratio (y) = 0.02769 0.27653
# Poissons Ratio (z) = 0.13296 0.35353
#
# Static dielectric constant tensor:
#      x y z
#    x 3.234920 0.000000 -0.092350 
#    y 0.000000 3.686830 0.000000 
#    z -0.092350 0.000000 3.938380 
# 
# 
# High freq. dielectric constant tensor:
#      x y z
#    x 1.718220 0.000000 -0.006060 
#    y 0.000000 1.760860 0.000000 
#    z -0.006060 0.000000 1.784330 
# 
# From -- ./inp_files/69017.got.cif
#   From: 2010.06.25/outbox.cif.g09.slc.cpg/sg10_35_cif.got.tgz:69017.got - 2010.06.27 22:07:45.
