data_PCOD8060864
_publ_section_title
;
Structure prediction by ZEFSAII (Michael W. Deem and Ramdas Pophale) SiO2 
 PCOD8060864
Probable space group: P 2/M
;
_chemical_formula_sum "Si O2"
_cell_formula_units_Z 32
_cell_length_a 14.487788
_cell_length_b 9.214530
_cell_length_c 14.109103
_cell_angle_alpha 90.000000
_cell_angle_beta 61.000416
_cell_angle_gamma 90.000000
_cell_volume 1647.387177
_symmetry_space_group_name_H-M "P 2/M"
_symmetry_group_IT_number 10
_symmetry_cell_setting 'monoclinic'
loop_
_space_group_symop_operation_xyz
x,y,z
-x,y,-z
-x,-y,-z
x,-y,z
loop_
_atom_site_type_symbol
_atom_site_label
_atom_site_fract_x
_atom_site_fract_y
_atom_site_fract_z
Si Si1 0.324284 0.333331 0.841160
Si Si2 0.940199 0.671760 0.305404
Si Si3 0.388899 0.661138 0.604432
Si Si4 0.098422 0.327054 0.890378
Si Si5 0.253135 0.166439 0.537866
Si Si6 0.500123 0.672647 0.108160
Si Si7 0.925694 0.169299 0.624336
Si Si8 0.314844 0.165297 0.302461
O O1 0.304102 0.500000 0.875516
O O2 0.397819 0.313287 0.712033
O O3 0.208114 0.262976 0.880227
O O4 0.393099 0.265708 0.893456
O O5 0.947245 0.500000 0.308074
O O6 0.917753 0.725586 0.209417
O O7 0.849504 0.733239 0.419514
O O8 0.047370 0.740787 0.293484
O O9 0.500000 0.672163 0.500000
O O10 0.338981 0.500000 0.611033
O O11 0.315898 0.786263 0.599639
O O12 0.102961 0.500000 0.890058
O O13 0.000000 0.267669 0.000000
O O14 0.326883 0.188113 0.409440
O O15 0.216573 0.000000 0.565287
O O16 0.497075 0.500000 0.117890
O O17 0.395045 0.730376 0.209630
O O18 0.500000 0.725904 0.000000
O O19 0.804608 0.206016 0.663795
O O20 0.000000 0.218804 0.500000
O O21 0.942794 0.000000 0.635954
O O22 0.340826 0.000000 0.261171
#
# Coordination Sequence:
#
# PCOD8060864 Si02
#       8
#     4   4   4   4   4   4   4   4
#     4   9  17  33  54  79 114 150 181 223 288 344
#     4  11  21  34  56  86 113 146 194 240 283 335
#     4  10  19  32  53  81 112 149 188 230 284 342
#     4   9  18  33  55  82 113 149 186 228 284 347
#     4  11  21  35  55  80 115 153 187 231 287 345
#     4  10  22  39  61  87 114 149 194 246 291 331
#     4  10  20  38  58  79 116 161 193 228 292 357
#     4  10  22  39  59  82 113 156 195 230 287 354
#
# _framework density 19.424699
#
# number of rings (size 3 to 8) (size 9 to 14) (size 15 to 20)
#    0.000    2.000    2.500    1.500    0.000    4.250 
#    0.000    3.125    0.000    1.500    0.000    0.000 
#    0.000    0.000    0.000    0.000    0.000    0.000 
#
# Total GULP energy -396676.448645 kJ/mol
# GULP energy per Si atom -12396.139020 kJ/mol
# Density = 1.938049 g / cm^3
# Si number density = 19.424699 Si / 1000 Ang^3
#
#
#
# Elastic Constant Matrix: (Units=GPa)
#
#
# Indices 1 2 3 4 5 6 
#
# 1 141.2535 33.4955 60.1762 0.0000 13.5219 0.0000
# 2 33.4955 42.6702 25.9214 0.0000 5.9506 0.0000
# 3 60.1762 25.9214 99.7110 0.0000 -2.4161 0.0000
# 4 0.0000 0.0000 0.0000 7.9407 0.0000 -11.1475
# 5 13.5219 5.9506 -2.4161 0.0000 32.9877 0.0000
# 6 0.0000 0.0000 0.0000 -11.1475 0.0000 18.4152
#
#
#
# Elastic Compliance Matrix: (Units=1/GPa)
#
#
# Indices 1 2 3 4 5 6 
#
# 1 0.010900 -0.004679 -0.005459 0.000000 -0.004024 0.000000
# 2 -0.004679 0.030896 -0.005306 0.000000 -0.004044 0.000000
# 3 -0.005459 -0.005306 0.014807 0.000000 0.004279 0.000000
# 4 0.000000 0.000000 0.000000 0.838460 0.000000 0.507554
# 5 -0.004024 -0.004044 0.004279 0.000000 0.033007 0.000000
# 6 0.000000 0.000000 0.000000 0.507554 0.000000 0.361546
#
#
# Mechanical properties :
#
#
# Convention : Reuss Voigt Hill
#
# Bulk Modulus (GPa) = 38.88938 58.09122 48.49030
# Shear Modulus (GPa) = 3.76202 22.80484 13.28343
#
# Velocity S-wave (km/s) = 1.39317 3.43010 2.61787
# Velocity P-wave (km/s) = 4.75941 6.75709 5.84424
#
# Compressibility (1/GPa) = 0.02571396
#
# Stress axis : x y z
#
# Youngs Moduli (GPa) = 91.74418 32.36707 67.53633
#
# Poissons Ratio (x) = 0.15143 0.36870
# Poissons Ratio (y) = 0.42924 0.35836
# Poissons Ratio (z) = 0.50086 0.17175
#
# Static dielectric constant tensor:
#      x y z
#    x 3.944120 0.000000 0.062330 
#    y 0.000000 3.249840 0.000000 
#    z 0.062330 0.000000 3.557910 
# 
# 
# High freq. dielectric constant tensor:
#      x y z
#    x 1.770290 0.000000 0.003960 
#    y 0.000000 1.721670 0.000000 
#    z 0.003960 0.000000 1.749840 
# 
# From -- ./inp_files/66520.got.cif
#   From: 2010.06.25/outbox.cif.g09.slc.cpg/sg10_34_cif.got.tgz:66520.got - 2010.06.27 22:07:45.
