data_PCOD8060384
_publ_section_title
;
Structure prediction by ZEFSAII (Michael W. Deem and Ramdas Pophale) SiO2 
 PCOD8060384
Probable space group: P 2/M
;
_chemical_formula_sum "Si O2"
_cell_formula_units_Z 32
_cell_length_a 22.950161
_cell_length_b 12.808389
_cell_length_c 7.584590
_cell_angle_alpha 90.000000
_cell_angle_beta 120.535230
_cell_angle_gamma 90.000000
_cell_volume 1920.327648
_symmetry_space_group_name_H-M "P 2/M"
_symmetry_group_IT_number 10
_symmetry_cell_setting 'monoclinic'
loop_
_space_group_symop_operation_xyz
x,y,z
-x,y,-z
-x,-y,-z
x,-y,z
loop_
_atom_site_type_symbol
_atom_site_label
_atom_site_fract_x
_atom_site_fract_y
_atom_site_fract_z
Si Si1 0.057819 0.115806 0.944823
Si Si2 0.846135 0.382928 0.108577
Si Si3 0.573199 0.875984 0.058701
Si Si4 0.986767 0.316748 0.283205
Si Si5 0.868919 0.622278 0.549423
Si Si6 0.573262 0.875962 0.666505
Si Si7 0.188955 0.239471 0.241971
Si Si8 0.328514 0.124079 0.486306
O O1 0.126925 0.158842 0.134865
O O2 0.070784 0.000000 0.885361
O O3 0.030325 0.193364 0.751779
O O4 0.000000 0.110107 0.000000
O O5 0.816798 0.500000 0.054292
O O6 0.919707 0.380456 0.122801
O O7 0.852069 0.344463 0.321080
O O8 0.799942 0.304529 0.923131
O O9 0.630634 0.835743 0.279790
O O10 0.569296 0.000000 0.061442
O O11 0.500000 0.830002 0.000000
O O12 0.592035 0.837354 0.891533
O O13 0.000000 0.352693 0.500000
O O14 0.053605 0.347953 0.276364
O O15 0.857287 0.500000 0.557164
O O16 0.819915 0.683226 0.605909
O O17 0.500000 0.830145 0.500000
O O18 0.630905 0.835575 0.622842
O O19 0.569463 0.000000 0.651539
O O20 0.255230 0.173335 0.378720
O O21 0.320866 0.000000 0.473738
#
# Coordination Sequence:
#
# PCOD8060384 Si02
#       8
#     4   4   4   4   4   4   4   4
#     4  10  19  32  47  63  91 134 177 207 232 271
#     4   9  19  33  51  73  95 118 154 207 265 313
#     4   9  15  26  46  70  94 125 165 197 228 277
#     4   9  17  31  50  73  93 115 158 215 259 298
#     4  10  19  33  52  72  94 119 155 207 267 312
#     4   9  15  26  46  69  94 126 162 195 231 276
#     4  11  21  33  48  69  99 132 167 204 241 288
#     4  10  20  31  45  69 103 138 166 198 234 274
#
# _framework density 16.663824000000002
#
# number of rings (size 3 to 8) (size 9 to 14) (size 15 to 20)
#    0.000    2.375    2.500    1.125    0.000    2.750 
#    0.000    1.875    0.000    1.500    0.000    0.000 
#    0.000    4.000    0.000    0.000    0.000    0.000 
#
# Total GULP energy -396615.326895 kJ/mol
# GULP energy per Si atom -12394.228965 kJ/mol
# Density = 1.662590 g / cm^3
# Si number density = 16.663824 Si / 1000 Ang^3
#
#
#
# Elastic Constant Matrix: (Units=GPa)
#
#
# Indices 1 2 3 4 5 6 
#
# 1 93.4890 24.6026 49.2881 0.0000 0.8167 0.0000
# 2 24.6026 63.4797 26.0666 0.0000 2.0124 0.0000
# 3 49.2881 26.0666 98.7127 0.0000 1.7015 0.0000
# 4 0.0000 0.0000 0.0000 -3.3568 0.0000 -16.7523
# 5 0.8167 2.0124 1.7015 0.0000 27.7830 0.0000
# 6 0.0000 0.0000 0.0000 -16.7523 0.0000 4.7889
#
#
#
# Elastic Compliance Matrix: (Units=1/GPa)
#
#
# Indices 1 2 3 4 5 6 
#
# 1 0.015037 -0.003084 -0.006697 0.000000 0.000192 0.000000
# 2 -0.003084 0.018329 -0.003282 0.000000 -0.001036 0.000000
# 3 -0.006697 -0.003282 0.014349 0.000000 -0.000444 0.000000
# 4 0.000000 0.000000 0.000000 -0.016140 0.000000 -0.056459
# 5 0.000192 -0.001036 -0.000444 0.000000 0.036090 0.000000
# 6 0.000000 0.000000 0.000000 -0.056459 0.000000 0.011313
#
#
# Mechanical properties :
#
#
# Convention : Reuss Voigt Hill
#
# Bulk Modulus (GPa) = 46.32194 50.62179 48.47186
# Shear Modulus (GPa) = 44.52321 16.22462 30.37391
#
# Velocity S-wave (km/s) = 5.17460 3.12371 4.27399
# Velocity P-wave (km/s) = 7.97247 6.59199 7.31487
#
# Compressibility (1/GPa) = 0.02158804
#
# Stress axis : x y z
#
# Youngs Moduli (GPa) = 66.50226 54.55842 69.69254
#
# Poissons Ratio (x) = 0.16825 0.46674
# Poissons Ratio (y) = 0.20509 0.22876
# Poissons Ratio (z) = 0.44537 0.17908
#
# Static dielectric constant tensor:
#      x y z
#    x 3.093340 0.000000 -0.119870 
#    y 0.000000 2.961000 0.000000 
#    z -0.119870 0.000000 3.224580 
# 
# 
# High freq. dielectric constant tensor:
#      x y z
#    x 1.632980 0.000000 -0.011710 
#    y 0.000000 1.604800 0.000000 
#    z -0.011710 0.000000 1.642280 
# 
# From -- ./inp_files/34862.got.cif
#   From: 2010.06.25/outbox.cif.g09.slc.cpg/sg10_18_cif.got.tgz:34862.got - 2010.06.27 22:07:45.
