data_PCOD8060815
_publ_section_title
;
Structure prediction by ZEFSAII (Michael W. Deem and Ramdas Pophale) SiO2 
 PCOD8060815
Probable space group: P 2/M
;
_chemical_formula_sum "Si O2"
_cell_formula_units_Z 20
_cell_length_a 9.602673
_cell_length_b 23.347795
_cell_length_c 5.122094
_cell_angle_alpha 90.000000
_cell_angle_beta 115.650563
_cell_angle_gamma 90.000000
_cell_volume 1035.207989
_symmetry_space_group_name_H-M "P 2/M"
_symmetry_group_IT_number 10
_symmetry_cell_setting 'monoclinic'
loop_
_space_group_symop_operation_xyz
x,y,z
-x,y,-z
-x,-y,-z
x,-y,z
loop_
_atom_site_type_symbol
_atom_site_label
_atom_site_fract_x
_atom_site_fract_y
_atom_site_fract_z
Si Si1 0.816421 0.435997 0.866567
Si Si2 0.100173 0.064194 0.324547
Si Si3 0.600456 0.271012 0.331650
Si Si4 0.601286 0.861055 0.337746
Si Si5 0.182692 0.369453 0.628951
O O1 0.753440 0.500000 0.869417
O O2 0.758059 0.414687 0.538614
O O3 0.755382 0.393112 0.043303
O O4 0.000000 0.436556 0.000000
O O5 0.244459 0.102755 0.517575
O O6 0.000000 0.062410 0.500000
O O7 0.156201 0.000000 0.295070
O O8 0.000000 0.089470 0.000000
O O9 0.500000 0.289831 0.500000
O O10 0.651731 0.205137 0.392540
O O11 0.754065 0.308072 0.412345
O O12 0.500000 0.282916 0.000000
O O13 0.500000 0.878943 0.500000
O O14 0.500000 0.875058 0.000000
O O15 0.000000 0.362859 0.500000
#
# Coordination Sequence:
#
# PCOD8060815 Si02
#       5
#     4   4   4   4   4
#     4   9  17  30  50  76 103 129 164 214 262 306
#     4  10  21  37  57  84 117 148 179 224 281 325
#     4  10  21  37  54  74 106 142 173 215 270 316
#     4  10  21  37  57  81 108 146 192 226 263 323
#     4  10  19  32  53  78  99 129 175 215 255 313
#
# _framework density 19.319787000000002
#
# number of rings (size 3 to 8) (size 9 to 14) (size 15 to 20)
#    0.000    2.200    0.000    3.000    0.000    4.000 
#    0.000    3.000    0.000   12.000    0.000    0.000 
#    0.000    0.000    0.000    0.000    0.000    0.000 
#
# Total GULP energy -247927.144195 kJ/mol
# GULP energy per Si atom -12396.357210 kJ/mol
# Density = 1.927581 g / cm^3
# Si number density = 19.319787 Si / 1000 Ang^3
#
#
#
# Elastic Constant Matrix: (Units=GPa)
#
#
# Indices 1 2 3 4 5 6 
#
# 1 87.1444 65.7396 53.6960 0.0000 -12.2964 0.0000
# 2 65.7396 103.9026 39.0119 0.0000 3.0080 0.0000
# 3 53.6960 39.0119 105.9927 0.0000 -28.0896 0.0000
# 4 0.0000 0.0000 0.0000 40.2625 0.0000 -17.2958
# 5 -12.2964 3.0080 -28.0896 0.0000 31.2355 0.0000
# 6 0.0000 0.0000 0.0000 -17.2958 0.0000 31.3744
#
#
#
# Elastic Compliance Matrix: (Units=1/GPa)
#
#
# Indices 1 2 3 4 5 6 
#
# 1 0.028388 -0.015531 -0.006968 0.000000 0.006405 0.000000
# 2 -0.015531 0.020683 -0.002485 0.000000 -0.010341 0.000000
# 3 -0.006968 -0.002485 0.017351 0.000000 0.013100 0.000000
# 4 0.000000 0.000000 0.000000 0.032544 0.000000 0.017940
# 5 0.006405 -0.010341 0.013100 0.000000 0.047313 0.000000
# 6 0.000000 0.000000 0.000000 0.017940 0.000000 0.041763
#
#
# Mechanical properties :
#
#
# Convention : Reuss Voigt Hill
#
# Bulk Modulus (GPa) = 60.77256 68.21496 64.49376
# Shear Modulus (GPa) = 20.53436 29.81397 25.17416
#
# Velocity S-wave (km/s) = 3.26370 3.93260 3.61366
# Velocity P-wave (km/s) = 6.76215 7.48368 7.13205
#
# Compressibility (1/GPa) = 0.01645479
#
# Stress axis : x y z
#
# Youngs Moduli (GPa) = 35.22576 48.34835 57.63404
#
# Poissons Ratio (x) = 0.75088 0.40158
# Poissons Ratio (y) = 0.54708 0.14324
# Poissons Ratio (z) = 0.24545 0.12016
#
# Static dielectric constant tensor:
#      x y z
#    x 3.202300 0.000000 -0.307660 
#    y 0.000000 3.756500 0.000000 
#    z -0.307660 0.000000 3.748080 
# 
# 
# High freq. dielectric constant tensor:
#      x y z
#    x 1.738000 0.000000 -0.023290 
#    y 0.000000 1.751910 0.000000 
#    z -0.023290 0.000000 1.765030 
# 
# From -- ./inp_files/4838.got.cif
#   From: 2010.06.25/outbox.cif.g09.slc.cpg/sg10_3_cif.got.tgz:4838.got - 2010.06.27 22:07:45.
