data_PCOD8060924
_publ_section_title
;
Structure prediction by ZEFSAII (Michael W. Deem and Ramdas Pophale) SiO2 
 PCOD8060924
Probable space group: P 2/M
;
_chemical_formula_sum "Si O2"
_cell_formula_units_Z 32
_cell_length_a 14.428381
_cell_length_b 9.324276
_cell_length_c 14.412726
_cell_angle_alpha 90.000000
_cell_angle_beta 58.314295
_cell_angle_gamma 90.000000
_cell_volume 1649.980862
_symmetry_space_group_name_H-M "P 2/M"
_symmetry_group_IT_number 10
_symmetry_cell_setting 'monoclinic'
loop_
_space_group_symop_operation_xyz
x,y,z
-x,y,-z
-x,-y,-z
x,-y,z
loop_
_atom_site_type_symbol
_atom_site_label
_atom_site_fract_x
_atom_site_fract_y
_atom_site_fract_z
Si Si1 0.602523 0.337007 0.003945
Si Si2 0.327078 0.333919 0.363737
Si Si3 0.531589 0.838602 0.201656
Si Si4 0.375636 0.333975 0.550891
Si Si5 0.880360 0.333196 0.022686
Si Si6 0.896412 0.328741 0.610028
Si Si7 0.157045 0.336541 0.163109
Si Si8 0.717501 0.163410 0.240254
O O1 0.583174 0.500000 0.046908
O O2 0.614181 0.236474 0.086856
O O3 0.500000 0.280294 0.000000
O O4 0.713310 0.323711 0.887399
O O5 0.345310 0.500000 0.329806
O O6 0.419146 0.246294 0.262232
O O7 0.335934 0.305924 0.468020
O O8 0.210831 0.278181 0.388655
O O9 0.594450 0.834698 0.265862
O O10 0.506652 0.000000 0.183049
O O11 0.500000 0.282369 0.500000
O O12 0.365503 0.500000 0.584746
O O13 0.290711 0.244250 0.657500
O O14 0.842631 0.500000 0.042178
O O15 0.800354 0.243414 0.129122
O O16 0.877525 0.269243 0.918367
O O17 0.000000 0.315587 0.000000
O O18 0.899578 0.500000 0.611737
O O19 0.897666 0.267064 0.715732
O O20 0.000000 0.266858 0.500000
O O21 0.118756 0.500000 0.178678
O O22 0.757859 0.000000 0.233151
#
# Coordination Sequence:
#
# PCOD8060924 Si02
#       8
#     4   4   4   4   4   4   4   4
#     4  10  19  32  54  81 109 145 187 228 274 333
#     4  10  20  35  57  83 111 147 189 232 280 334
#     4  11  22  34  52  80 114 149 183 227 282 338
#     4  10  20  34  55  83 113 147 186 234 285 333
#     4  10  21  37  59  84 111 147 190 235 280 331
#     4   9  18  33  55  83 112 141 179 229 276 322
#     4   9  17  31  52  80 111 142 177 222 274 323
#     4  11  23  37  55  80 113 153 189 228 283 343
#
# _framework density 19.394164
#
# number of rings (size 3 to 8) (size 9 to 14) (size 15 to 20)
#    0.000    2.000    2.500    1.500    0.000    5.250 
#    0.000    3.750    0.000    0.375    0.000    0.000 
#    0.000    0.000    0.000    0.000    0.000    0.000 
#
# Total GULP energy -396730.122809 kJ/mol
# GULP energy per Si atom -12397.816338 kJ/mol
# Density = 1.935002 g / cm^3
# Si number density = 19.394164 Si / 1000 Ang^3
#
#
#
# Elastic Constant Matrix: (Units=GPa)
#
#
# Indices 1 2 3 4 5 6 
#
# 1 84.4130 18.1914 39.5628 0.0000 -0.0724 0.0000
# 2 18.1914 68.5035 50.0114 0.0000 -2.0368 0.0000
# 3 39.5628 50.0114 148.5062 0.0000 0.6680 0.0000
# 4 0.0000 0.0000 0.0000 4.3342 0.0000 3.0961
# 5 -0.0724 -2.0368 0.6680 0.0000 27.6992 0.0000
# 6 0.0000 0.0000 0.0000 3.0961 0.0000 9.7328
#
#
#
# Elastic Compliance Matrix: (Units=1/GPa)
#
#
# Indices 1 2 3 4 5 6 
#
# 1 0.013621 -0.001283 -0.003197 0.000000 0.000018 0.000000
# 2 -0.001283 0.019547 -0.006248 0.000000 0.001585 0.000000
# 3 -0.003197 -0.006248 0.009693 0.000000 -0.000702 0.000000
# 4 0.000000 0.000000 0.000000 0.298569 0.000000 -0.094979
# 5 0.000018 0.001585 -0.000702 0.000000 0.036236 0.000000
# 6 0.000000 0.000000 0.000000 -0.094979 0.000000 0.132960
#
#
# Mechanical properties :
#
#
# Convention : Reuss Voigt Hill
#
# Bulk Modulus (GPa) = 46.71693 57.43932 52.07812
# Shear Modulus (GPa) = 9.27272 21.26370 15.26821
#
# Velocity S-wave (km/s) = 2.18897 3.31478 2.80886
# Velocity P-wave (km/s) = 5.52532 6.65819 6.11803
#
# Compressibility (1/GPa) = 0.02140552
#
# Stress axis : x y z
#
# Youngs Moduli (GPa) = 73.41452 51.15863 103.17056
#
# Poissons Ratio (x) = 0.06562 0.32982
# Poissons Ratio (y) = 0.09417 0.64462
# Poissons Ratio (z) = 0.23470 0.31965
#
# Static dielectric constant tensor:
#      x y z
#    x 3.593860 0.000000 0.122650 
#    y 0.000000 3.256210 0.000000 
#    z 0.122650 0.000000 3.631860 
# 
# 
# High freq. dielectric constant tensor:
#      x y z
#    x 1.753440 0.000000 0.007580 
#    y 0.000000 1.715110 0.000000 
#    z 0.007580 0.000000 1.763660 
# 
# From -- ./inp_files/66453.got.cif
#   From: 2010.06.25/outbox.cif.g09.slc.cpg/sg10_34_cif.got.tgz:66453.got - 2010.06.27 22:07:45.
