data_PCOD8060042
_publ_section_title
;
Structure prediction by ZEFSAII (Michael W. Deem and Ramdas Pophale) SiO2 
 PCOD8060042
Probable space group: P 2/M
;
_chemical_formula_sum "Si O2"
_cell_formula_units_Z 28
_cell_length_a 9.111409
_cell_length_b 9.213625
_cell_length_c 28.638711
_cell_angle_alpha 90.000000
_cell_angle_beta 39.159443
_cell_angle_gamma 90.000000
_cell_volume 1518.201976
_symmetry_space_group_name_H-M "P 2/M"
_symmetry_group_IT_number 10
_symmetry_cell_setting 'monoclinic'
loop_
_space_group_symop_operation_xyz
x,y,z
-x,y,-z
-x,-y,-z
x,-y,z
loop_
_atom_site_type_symbol
_atom_site_label
_atom_site_fract_x
_atom_site_fract_y
_atom_site_fract_z
Si Si1 0.921310 0.331088 0.289460
Si Si2 0.394870 0.170312 0.704049
Si Si3 0.012441 0.160345 0.866700
Si Si4 0.693307 0.836867 0.854786
Si Si5 0.336329 0.663040 0.995313
Si Si6 0.072853 0.829646 0.430949
Si Si7 0.762945 0.332533 0.433174
O O1 0.942486 0.500000 0.270803
O O2 0.711326 0.261897 0.312051
O O3 0.868088 0.307175 0.356460
O O4 0.166137 0.252584 0.218850
O O5 0.661433 0.214131 0.644246
O O6 0.265187 0.208544 0.784961
O O7 0.361983 0.000000 0.700293
O O8 0.842477 0.157186 0.864659
O O9 0.915830 0.270728 0.929356
O O10 0.023825 0.000000 0.886474
O O11 0.642573 0.000000 0.849097
O O12 0.449994 0.756803 0.925671
O O13 0.297747 0.500000 0.986735
O O14 0.500000 0.664774 0.000000
O O15 0.000000 0.774024 0.500000
O O16 0.913746 0.754922 0.432393
O O17 0.033773 0.000000 0.436172
O O18 0.500000 0.273479 0.500000
O O19 0.768873 0.500000 0.446440
#
# Coordination Sequence:
#
# PCOD8060042 Si02
#       7
#     4   4   4   4   4   4   4
#     4  10  19  31  49  73 100 131 169 209 247 293
#     4   9  18  32  49  72 102 133 166 206 252 299
#     4   8  14  24  38  58  89 127 161 196 242 293
#     4   9  16  26  41  62  92 129 164 200 247 296
#     4   9  15  22  35  59  91 124 161 203 242 285
#     4  10  21  36  55  79 103 129 166 209 249 293
#     4  10  22  38  54  75 103 134 167 203 247 299
#
# _framework density 18.442869000000002
#
# number of rings (size 3 to 8) (size 9 to 14) (size 15 to 20)
#    0.000    2.714    0.000    3.000    0.000    7.429 
#    0.000    0.000    0.000    0.000    0.000    1.000 
#    0.000    8.000    0.000    0.000    0.000    0.000 
#
# Total GULP energy -347169.137345 kJ/mol
# GULP energy per Si atom -12398.897762 kJ/mol
# Density = 1.840089 g / cm^3
# Si number density = 18.442869 Si / 1000 Ang^3
#
#
#
# Elastic Constant Matrix: (Units=GPa)
#
#
# Indices 1 2 3 4 5 6 
#
# 1 67.0304 44.9873 52.0660 0.0000 -6.4385 0.0000
# 2 44.9873 114.2035 76.1318 0.0000 -2.6906 0.0000
# 3 52.0660 76.1318 168.9053 0.0000 -15.4644 0.0000
# 4 0.0000 0.0000 0.0000 33.0098 0.0000 0.6132
# 5 -6.4385 -2.6906 -15.4644 0.0000 16.4993 0.0000
# 6 0.0000 0.0000 0.0000 0.6132 0.0000 20.0797
#
#
#
# Elastic Compliance Matrix: (Units=1/GPa)
#
#
# Indices 1 2 3 4 5 6 
#
# 1 0.022398 -0.006261 -0.003692 0.000000 0.004259 0.000000
# 2 -0.006261 0.014461 -0.005027 0.000000 -0.004797 0.000000
# 3 -0.003692 -0.005027 0.009973 0.000000 0.007087 0.000000
# 4 0.000000 0.000000 0.000000 0.030311 0.000000 -0.000926
# 5 0.004259 -0.004797 0.007087 0.000000 0.068131 0.000000
# 6 0.000000 0.000000 0.000000 -0.000926 0.000000 0.049830
#
#
# Mechanical properties :
#
#
# Convention : Reuss Voigt Hill
#
# Bulk Modulus (GPa) = 59.27367 77.38993 68.33180
# Shear Modulus (GPa) = 21.67417 25.71471 23.69444
#
# Velocity S-wave (km/s) = 3.43185 3.73807 3.58823
# Velocity P-wave (km/s) = 6.92187 7.78999 7.36873
#
# Compressibility (1/GPa) = 0.01687090
#
# Stress axis : x y z
#
# Youngs Moduli (GPa) = 44.64716 69.15094 100.26627
#
# Poissons Ratio (x) = 0.43298 0.37019
# Poissons Ratio (y) = 0.27955 0.50406
# Poissons Ratio (z) = 0.16484 0.34764
#
# Static dielectric constant tensor:
#      x y z
#    x 2.816640 0.000000 -0.083480 
#    y 0.000000 3.525970 0.000000 
#    z -0.083480 0.000000 3.791280 
# 
# 
# High freq. dielectric constant tensor:
#      x y z
#    x 1.656170 0.000000 -0.003400 
#    y 0.000000 1.720600 0.000000 
#    z -0.003400 0.000000 1.738500 
# 
# From -- ./inp_files/37934.got.cif
#   From: 2010.06.25/outbox.cif.g09.slc.cpg/sg10_19_cif.got.tgz:37934.got - 2010.06.27 22:07:45.
