data_PCOD8060261
_publ_section_title
;
Structure prediction by ZEFSAII (Michael W. Deem and Ramdas Pophale) SiO2 
 PCOD8060261
Probable space group: P 2/M
;
_chemical_formula_sum "Si O2"
_cell_formula_units_Z 32
_cell_length_a 12.191798
_cell_length_b 8.807551
_cell_length_c 28.751362
_cell_angle_alpha 90.000000
_cell_angle_beta 34.906246
_cell_angle_gamma 90.000000
_cell_volume 1766.672203
_symmetry_space_group_name_H-M "P 2/M"
_symmetry_group_IT_number 10
_symmetry_cell_setting 'monoclinic'
loop_
_space_group_symop_operation_xyz
x,y,z
-x,y,-z
-x,-y,-z
x,-y,z
loop_
_atom_site_type_symbol
_atom_site_label
_atom_site_fract_x
_atom_site_fract_y
_atom_site_fract_z
Si Si1 0.039520 0.175130 0.367867
Si Si2 0.937627 0.175989 0.744215
Si Si3 0.324325 0.322730 0.031579
Si Si4 0.539514 0.675130 0.867868
Si Si5 0.824326 0.177271 0.531579
Si Si6 0.437635 0.324012 0.244213
Si Si7 0.933116 0.320595 0.210159
Si Si8 0.433116 0.179406 0.710158
O O1 0.859983 0.208756 0.464326
O O2 0.977025 0.211360 0.336806
O O3 0.215234 0.278648 0.322959
O O4 0.106295 0.000000 0.349221
O O5 0.715223 0.221344 0.822960
O O6 0.060052 0.272497 0.738252
O O7 0.956859 0.000000 0.750254
O O8 0.315628 0.500000 0.045875
O O9 0.121417 0.253417 0.118314
O O10 0.500000 0.250722 0.000000
O O11 0.359978 0.291247 0.964328
O O12 0.606290 0.500000 0.849221
O O13 0.477016 0.711360 0.836809
O O14 0.621418 0.246587 0.618313
O O15 0.000000 0.249275 0.500000
O O16 0.815626 0.000000 0.545875
O O17 0.456859 0.500000 0.250254
O O18 0.560076 0.227520 0.238246
O O19 0.919051 0.500000 0.211162
O O20 0.750003 0.249987 0.250003
O O21 0.419076 0.000000 0.711157
#
# Coordination Sequence:
#
# PCOD8060261 Si02
#       8
#     4   4   4   4   4   4   4   4
#     4   9  17  32  54  79 105 136 176 218 256 302
#     4  10  19  31  51  80 110 137 170 213 265 313
#     4   9  16  31  56  80 100 133 180 219 252 299
#     4   9  17  32  54  79 105 136 176 218 256 302
#     4   9  16  31  56  80 100 133 180 219 252 299
#     4  10  19  31  51  80 110 137 170 213 265 313
#     4  11  22  37  56  76 106 141 176 216 261 314
#     4  11  22  37  56  76 106 141 176 216 261 314
#
# _framework density 18.113150999999998
#
# number of rings (size 3 to 8) (size 9 to 14) (size 15 to 20)
#    0.000    2.250    2.500    1.500    0.000    1.000 
#    0.000    5.000    0.000    7.500    0.000    0.000 
#    0.000    0.000    0.000    0.000    0.000    0.000 
#
# Total GULP energy -396736.299710 kJ/mol
# GULP energy per Si atom -12398.009366 kJ/mol
# Density = 1.807192 g / cm^3
# Si number density = 18.113151 Si / 1000 Ang^3
#
#
#
# Elastic Constant Matrix: (Units=GPa)
#
#
# Indices 1 2 3 4 5 6 
#
# 1 141.2479 40.3386 81.4942 0.0000 5.4627 0.0000
# 2 40.3386 52.9350 30.4275 0.0000 -0.8522 0.0000
# 3 81.4942 30.4275 126.0451 0.0000 3.9519 0.0000
# 4 0.0000 0.0000 0.0000 21.4547 0.0000 -0.7052
# 5 5.4627 -0.8522 3.9519 0.0000 30.5469 0.0000
# 6 0.0000 0.0000 0.0000 -0.7052 0.0000 32.8081
#
#
#
# Elastic Compliance Matrix: (Units=1/GPa)
#
#
# Indices 1 2 3 4 5 6 
#
# 1 0.012701 -0.005819 -0.006758 0.000000 -0.001559 0.000000
# 2 -0.005819 0.024653 -0.002252 0.000000 0.002020 0.000000
# 3 -0.006758 -0.002252 0.012863 0.000000 -0.000518 0.000000
# 4 0.000000 0.000000 0.000000 0.046643 0.000000 0.001003
# 5 -0.001559 0.002020 -0.000518 0.000000 0.033139 0.000000
# 6 0.000000 0.000000 0.000000 0.001003 0.000000 0.030502
#
#
# Mechanical properties :
#
#
# Convention : Reuss Voigt Hill
#
# Bulk Modulus (GPa) = 48.64342 69.41651 59.02997
# Shear Modulus (GPa) = 25.37913 28.15977 26.76945
#
# Velocity S-wave (km/s) = 3.74725 3.94719 3.84852
# Velocity P-wave (km/s) = 6.75545 7.69291 7.23937
#
# Compressibility (1/GPa) = 0.02055776
#
# Stress axis : x y z
#
# Youngs Moduli (GPa) = 78.73270 40.56361 77.74151
#
# Poissons Ratio (x) = 0.23605 0.52540
# Poissons Ratio (y) = 0.45816 0.17508
# Poissons Ratio (z) = 0.53210 0.09135
#
# Static dielectric constant tensor:
#      x y z
#    x 3.408260 0.000000 0.294800 
#    y 0.000000 3.206930 0.000000 
#    z 0.294800 0.000000 3.504290 
# 
# 
# High freq. dielectric constant tensor:
#      x y z
#    x 1.697840 0.000000 0.025460 
#    y 0.000000 1.683870 0.000000 
#    z 0.025460 0.000000 1.692260 
# 
# From -- ./inp_files/55236.got.cif
#   From: 2010.06.25/outbox.cif.g09.slc.cpg/sg10_28_cif.got.tgz:55236.got - 2010.06.27 22:07:45.
