data_PCOD8060271
_publ_section_title
;
Structure prediction by ZEFSAII (Michael W. Deem and Ramdas Pophale) SiO2 
 PCOD8060271
Probable space group: P 2/M
;
_chemical_formula_sum "Si O2"
_cell_formula_units_Z 32
_cell_length_a 21.243319
_cell_length_b 8.543060
_cell_length_c 12.051167
_cell_angle_alpha 90.000000
_cell_angle_beta 128.157914
_cell_angle_gamma 90.000000
_cell_volume 1719.725942
_symmetry_space_group_name_H-M "P 2/M"
_symmetry_group_IT_number 10
_symmetry_cell_setting 'monoclinic'
loop_
_space_group_symop_operation_xyz
x,y,z
-x,y,-z
-x,-y,-z
x,-y,z
loop_
_atom_site_type_symbol
_atom_site_label
_atom_site_fract_x
_atom_site_fract_y
_atom_site_fract_z
Si Si1 0.831218 0.318835 0.929157
Si Si2 0.777698 0.183438 0.646437
Si Si3 0.949508 0.818711 0.220010
Si Si4 0.120515 0.319598 0.436006
Si Si5 0.395466 0.184667 0.478821
Si Si6 0.433169 0.185017 0.275347
Si Si7 0.711259 0.681712 0.993091
Si Si8 0.830929 0.818396 0.284690
O O1 0.829044 0.500000 0.893103
O O2 0.823505 0.214185 0.811339
O O3 0.915623 0.280476 0.079843
O O4 0.759635 0.273370 0.934524
O O5 0.816898 0.282186 0.591876
O O6 0.686190 0.246497 0.555122
O O7 0.781783 0.000000 0.622933
O O8 0.903909 0.771157 0.283187
O O9 0.042632 0.786671 0.336300
O O10 0.935152 0.000000 0.178034
O O11 0.095304 0.500000 0.402952
O O12 0.162220 0.284154 0.597988
O O13 0.404754 0.250118 0.364208
O O14 0.473004 0.230961 0.637403
O O15 0.391702 0.000000 0.463152
O O16 0.420332 0.000000 0.250659
O O17 0.381309 0.270865 0.124419
O O18 0.719470 0.500000 0.030082
O O19 0.746682 0.779056 0.134444
O O20 0.833657 0.000000 0.319967
#
# Coordination Sequence:
#
# PCOD8060271 Si02
#       8
#     4   4   4   4   4   4   4   4
#     4  10  20  34  52  79 113 144 175 216 270 320
#     4  11  21  36  56  77 107 147 186 220 259 315
#     4  10  21  38  60  83 105 134 178 226 266 313
#     4  12  25  39  55  78 108 142 177 219 272 322
#     4   8  16  29  51  79 108 141 179 221 259 306
#     4   9  15  29  52  80 109 140 179 218 261 311
#     4  10  19  31  51  82 115 143 172 216 271 320
#     4  10  21  38  60  82 104 136 180 226 265 310
#
# _framework density 18.607617000000001
#
# number of rings (size 3 to 8) (size 9 to 14) (size 15 to 20)
#    0.000    2.000    1.250    4.125    0.000    4.500 
#    0.000    5.000    0.000    0.750    0.000    5.250 
#    0.000    0.000    0.000    0.000    0.000    0.000 
#
# Total GULP energy -396875.540303 kJ/mol
# GULP energy per Si atom -12402.360634 kJ/mol
# Density = 1.856526 g / cm^3
# Si number density = 18.607617 Si / 1000 Ang^3
#
#
#
# Elastic Constant Matrix: (Units=GPa)
#
#
# Indices 1 2 3 4 5 6 
#
# 1 34.0248 16.8440 69.1132 0.0000 -18.1280 0.0000
# 2 16.8440 50.3345 16.1467 0.0000 -3.2142 0.0000
# 3 69.1132 16.1467 107.6235 0.0000 21.4928 0.0000
# 4 0.0000 0.0000 0.0000 27.5872 0.0000 -2.8153
# 5 -18.1280 -3.2142 21.4928 0.0000 14.5548 0.0000
# 6 0.0000 0.0000 0.0000 -2.8153 0.0000 20.6135
#
#
#
# Elastic Compliance Matrix: (Units=1/GPa)
#
#
# Indices 1 2 3 4 5 6 
#
# 1 -0.008780 -0.002713 0.011841 0.000000 -0.029020 0.000000
# 2 -0.002713 0.021955 -0.002616 0.000000 0.005332 0.000000
# 3 0.011841 -0.002616 -0.001063 0.000000 0.015740 0.000000
# 4 0.000000 0.000000 0.000000 0.036761 0.000000 0.005021
# 5 -0.029020 0.005332 0.015740 0.000000 0.010495 0.000000
# 6 0.000000 0.000000 0.000000 0.005021 0.000000 0.049198
#
#
# Mechanical properties :
#
#
# Convention : Reuss Voigt Hill
#
# Bulk Modulus (GPa) = 39.78657 44.02116 41.90387
# Shear Modulus (GPa) = 48.11354 18.54303 33.32829
#
# Velocity S-wave (km/s) = 5.09049 3.16021 4.23674
# Velocity P-wave (km/s) = 7.48191 6.08481 6.81923
#
# Compressibility (1/GPa) = 0.02513411
#
# Stress axis : x y z
#
# Youngs Moduli (GPa) = -113.89265 45.54798 -940.55995
#
# Poissons Ratio (x) = 0.12359 11.13716
# Poissons Ratio (y) = -0.30903 -2.46078
# Poissons Ratio (z) = 1.34860 0.11917
#
# Static dielectric constant tensor:
#      x y z
#    x 3.376790 0.000000 0.189350 
#    y 0.000000 3.249490 0.000000 
#    z 0.189350 0.000000 3.446700 
# 
# 
# High freq. dielectric constant tensor:
#      x y z
#    x 1.693940 0.000000 0.015970 
#    y 0.000000 1.718570 0.000000 
#    z 0.015970 0.000000 1.727240 
# 
# From -- ./inp_files/55366.got.cif
#   From: 2010.06.25/outbox.cif.g09.slc.cpg/sg10_28_cif.got.tgz:55366.got - 2010.06.27 22:07:45.
