data_PCOD8060247
_publ_section_title
;
Structure prediction by ZEFSAII (Michael W. Deem and Ramdas Pophale) SiO2 
 PCOD8060247
Probable space group: P 2/M
;
_chemical_formula_sum "Si O2"
_cell_formula_units_Z 32
_cell_length_a 12.657132
_cell_length_b 9.237392
_cell_length_c 29.646309
_cell_angle_alpha 90.000000
_cell_angle_beta 151.996531
_cell_angle_gamma 90.000000
_cell_volume 1627.473982
_symmetry_space_group_name_H-M "P 2/M"
_symmetry_group_IT_number 10
_symmetry_cell_setting 'monoclinic'
loop_
_space_group_symop_operation_xyz
x,y,z
-x,y,-z
-x,-y,-z
x,-y,z
loop_
_atom_site_type_symbol
_atom_site_label
_atom_site_fract_x
_atom_site_fract_y
_atom_site_fract_z
Si Si1 0.676137 0.166041 0.526426
Si Si2 0.335298 0.661487 0.237039
Si Si3 0.096342 0.168160 0.920193
Si Si4 0.917841 0.832672 0.188591
Si Si5 0.111995 0.329453 0.681643
Si Si6 0.573909 0.168465 0.136554
Si Si7 0.179467 0.670528 0.603600
Si Si8 0.348158 0.338181 0.348375
O O1 0.500000 0.180453 0.500000
O O2 0.572222 0.248705 0.444455
O O3 0.905601 0.245542 0.627310
O O4 0.727461 0.000000 0.533498
O O5 0.311965 0.500000 0.208004
O O6 0.569378 0.735092 0.309127
O O7 0.334376 0.656317 0.290086
O O8 0.119088 0.752146 0.139363
O O9 0.142675 0.209981 0.885518
O O10 0.044679 0.000000 0.904568
O O11 0.314962 0.211585 0.031298
O O12 0.704970 0.797605 0.139531
O O13 0.128389 0.739847 0.285821
O O14 0.989424 0.000000 0.219243
O O15 0.095389 0.500000 0.684282
O O16 0.338623 0.267456 0.789539
O O17 0.103695 0.292522 0.625530
O O18 0.599943 0.000000 0.159269
O O19 0.195927 0.500000 0.601088
O O20 0.000000 0.736786 0.500000
O O21 0.364382 0.500000 0.374880
#
# Coordination Sequence:
#
# PCOD8060247 Si02
#       8
#     4   4   4   4   4   4   4   4
#     4  11  23  37  52  72 104 145 178 205 249 312
#     4   9  18  34  56  80 105 133 169 216 268 316
#     4   9  18  33  54  79 106 140 183 222 255 302
#     4   9  17  31  52  77 106 143 183 216 253 308
#     4  11  23  37  56  81 105 134 176 223 266 311
#     4  10  20  35  53  74 107 147 179 214 263 314
#     4   9  18  36  60  81 103 134 171 213 265 321
#     4  10  19  31  51  79 106 133 169 216 266 311
#
# _framework density 19.662372999999999
#
# number of rings (size 3 to 8) (size 9 to 14) (size 15 to 20)
#    0.000    2.250    0.000    3.000    0.000    9.000 
#    0.000    1.875    0.000   10.125    0.000    0.000 
#    0.000    0.000    0.000    0.000    0.000    0.000 
#
# Total GULP energy -396820.358554 kJ/mol
# GULP energy per Si atom -12400.636205 kJ/mol
# Density = 1.961762 g / cm^3
# Si number density = 19.662373 Si / 1000 Ang^3
#
#
#
# Elastic Constant Matrix: (Units=GPa)
#
#
# Indices 1 2 3 4 5 6 
#
# 1 60.5436 34.8024 43.4449 0.0000 11.2155 0.0000
# 2 34.8024 95.1970 67.1005 0.0000 4.1395 0.0000
# 3 43.4449 67.1005 153.4221 0.0000 11.9130 0.0000
# 4 0.0000 0.0000 0.0000 35.2171 0.0000 1.4715
# 5 11.2155 4.1395 11.9130 0.0000 32.5317 0.0000
# 6 0.0000 0.0000 0.0000 1.4715 0.0000 19.2264
#
#
#
# Elastic Compliance Matrix: (Units=1/GPa)
#
#
# Indices 1 2 3 4 5 6 
#
# 1 0.023600 -0.005761 -0.003693 0.000000 -0.006051 0.000000
# 2 -0.005761 0.016601 -0.005784 0.000000 0.001992 0.000000
# 3 -0.003693 -0.005784 0.010228 0.000000 -0.001736 0.000000
# 4 0.000000 0.000000 0.000000 0.028486 0.000000 -0.002180
# 5 -0.006051 0.001992 -0.001736 0.000000 0.033208 0.000000
# 6 0.000000 0.000000 0.000000 -0.002180 0.000000 0.052179
#
#
# Mechanical properties :
#
#
# Convention : Reuss Voigt Hill
#
# Bulk Modulus (GPa) = 50.11967 66.65091 58.38529
# Shear Modulus (GPa) = 24.82260 28.31603 26.56932
#
# Velocity S-wave (km/s) = 3.55694 3.79900 3.67996
# Velocity P-wave (km/s) = 6.51265 7.29482 6.91480
#
# Compressibility (1/GPa) = 0.01995225
#
# Stress axis : x y z
#
# Youngs Moduli (GPa) = 42.37303 60.23765 97.76917
#
# Poissons Ratio (x) = 0.34705 0.36108
# Poissons Ratio (y) = 0.24413 0.56547
# Poissons Ratio (z) = 0.15649 0.34840
#
# Static dielectric constant tensor:
#      x y z
#    x 3.370660 0.000000 0.109860 
#    y 0.000000 3.618670 0.000000 
#    z 0.109860 0.000000 3.813610 
# 
# 
# High freq. dielectric constant tensor:
#      x y z
#    x 1.748440 0.000000 0.007180 
#    y 0.000000 1.751110 0.000000 
#    z 0.007180 0.000000 1.775440 
# 
# From -- ./inp_files/95030.got.cif
#   From: 2010.06.25/outbox.cif.g09.slc.cpg/sg10_48_cif.got.tgz:95030.got - 2010.06.27 22:07:45.
