data_PCOD8060612
_publ_section_title
;
Structure prediction by ZEFSAII (Michael W. Deem and Ramdas Pophale) SiO2 
 PCOD8060612
Probable space group: P 2/M
;
_chemical_formula_sum "Si O2"
_cell_formula_units_Z 24
_cell_length_a 8.118519
_cell_length_b 13.642593
_cell_length_c 21.989387
_cell_angle_alpha 90.000000
_cell_angle_beta 148.253333
_cell_angle_gamma 90.000000
_cell_volume 1281.469766
_symmetry_space_group_name_H-M "P 2/M"
_symmetry_group_IT_number 10
_symmetry_cell_setting 'monoclinic'
loop_
_space_group_symop_operation_xyz
x,y,z
-x,y,-z
-x,-y,-z
x,-y,z
loop_
_atom_site_type_symbol
_atom_site_label
_atom_site_fract_x
_atom_site_fract_y
_atom_site_fract_z
Si Si1 0.452304 0.297608 0.130821
Si Si2 0.896837 0.385651 0.880726
Si Si3 0.173960 0.282603 0.862188
Si Si4 0.715650 0.884165 0.514067
Si Si5 0.591045 0.112570 0.242010
Si Si6 0.276239 0.111694 0.270309
O O1 0.434211 0.358585 0.189503
O O2 0.754628 0.324200 0.183613
O O3 0.457998 0.181102 0.146631
O O4 0.149138 0.321825 0.995958
O O5 0.967768 0.500000 0.908738
O O6 0.922946 0.353223 0.818176
O O7 0.029476 0.174754 0.810736
O O8 0.500000 0.275767 0.000000
O O9 0.500000 0.840221 0.500000
O O10 0.569678 0.852560 0.403532
O O11 0.068756 0.845351 0.631821
O O12 0.731894 0.000000 0.523890
O O13 0.362338 0.122935 0.227264
O O14 0.603194 0.000000 0.222860
O O15 0.191212 0.000000 0.260451
#
# Coordination Sequence:
#
# PCOD8060612 Si02
#       6
#     4   4   4   4   4   4
#     4  10  19  33  54  77 104 135 173 211 262 314
#     4  10  21  38  56  77 103 131 174 226 273 314
#     4  10  21  34  53  78 107 138 178 218 259 314
#     4   9  17  29  48  74 102 138 182 218 251 297
#     4  10  19  32  51  76 109 145 178 213 255 306
#     4  10  19  33  50  73 110 148 180 214 254 301
#
# _framework density 18.728496
#
# number of rings (size 3 to 8) (size 9 to 14) (size 15 to 20)
#    0.000    2.167    1.667    2.500    0.000    8.000 
#    0.000    4.167    0.000    0.000    0.000    3.500 
#    0.000   16.667    0.000    0.000    0.000    0.000 
#
# Total GULP energy -297375.438667 kJ/mol
# GULP energy per Si atom -12390.643278 kJ/mol
# Density = 1.868587 g / cm^3
# Si number density = 18.728496 Si / 1000 Ang^3
#
#
#
# Elastic Constant Matrix: (Units=GPa)
#
#
# Indices 1 2 3 4 5 6 
#
# 1 163.9569 55.9279 19.5696 0.0000 3.9809 0.0000
# 2 55.9279 91.7042 39.4060 0.0000 -5.7651 0.0000
# 3 19.5696 39.4060 37.4182 0.0000 2.1622 0.0000
# 4 0.0000 0.0000 0.0000 2.7464 0.0000 -0.7297
# 5 3.9809 -5.7651 2.1622 0.0000 24.1442 0.0000
# 6 0.0000 0.0000 0.0000 -0.7297 0.0000 19.8814
#
#
#
# Elastic Compliance Matrix: (Units=1/GPa)
#
#
# Indices 1 2 3 4 5 6 
#
# 1 0.007956 -0.006074 0.002408 0.000000 -0.002978 0.000000
# 2 -0.006074 0.025685 -0.024411 0.000000 0.009320 0.000000
# 3 0.002408 -0.024411 0.051801 0.000000 -0.010865 0.000000
# 4 0.000000 0.000000 0.000000 0.367699 0.000000 0.013496
# 5 -0.002978 0.009320 -0.010865 0.000000 0.045107 0.000000
# 6 0.000000 0.000000 0.000000 0.013496 0.000000 0.050794
#
#
# Mechanical properties :
#
#
# Convention : Reuss Voigt Hill
#
# Bulk Modulus (GPa) = 34.14418 58.09848 46.12133
# Shear Modulus (GPa) = 8.13063 21.23278 14.68171
#
# Velocity S-wave (km/s) = 2.08584 3.37072 2.80290
# Velocity P-wave (km/s) = 4.90629 6.79984 5.92914
#
# Compressibility (1/GPa) = 0.02928757
#
# Stress axis : x y z
#
# Youngs Moduli (GPa) = 125.69135 38.93397 19.30453
#
# Poissons Ratio (x) = 0.23648 -0.04648
# Poissons Ratio (y) = 0.76345 0.47124
# Poissons Ratio (z) = -0.30264 0.95041
#
# Static dielectric constant tensor:
#      x y z
#    x 4.482280 0.000000 0.058010 
#    y 0.000000 3.185500 0.000000 
#    z 0.058010 0.000000 3.190230 
# 
# 
# High freq. dielectric constant tensor:
#      x y z
#    x 1.761410 0.000000 0.001290 
#    y 0.000000 1.692290 0.000000 
#    z 0.001290 0.000000 1.682800 
# 
# From -- ./inp_files/34702.got.cif
#   From: 2010.06.25/outbox.cif.g09.slc.cpg/sg10_18_cif.got.tgz:34702.got - 2010.06.27 22:07:45.
