data_PCOD8060422
_publ_section_title
;
Structure prediction by ZEFSAII (Michael W. Deem and Ramdas Pophale) SiO2 
 PCOD8060422
Probable space group: P 2/M
;
_chemical_formula_sum "Si O2"
_cell_formula_units_Z 28
_cell_length_a 14.980239
_cell_length_b 9.223765
_cell_length_c 18.794260
_cell_angle_alpha 90.000000
_cell_angle_beta 37.482136
_cell_angle_gamma 90.000000
_cell_volume 1580.239116
_symmetry_space_group_name_H-M "P 2/M"
_symmetry_group_IT_number 10
_symmetry_cell_setting 'monoclinic'
loop_
_space_group_symop_operation_xyz
x,y,z
-x,y,-z
-x,-y,-z
x,-y,z
loop_
_atom_site_type_symbol
_atom_site_label
_atom_site_fract_x
_atom_site_fract_y
_atom_site_fract_z
Si Si1 0.846866 0.165460 0.398952
Si Si2 0.430142 0.659215 0.439294
Si Si3 0.278967 0.168009 0.903426
Si Si4 0.123967 0.328622 0.475744
Si Si5 0.749749 0.670546 0.225430
Si Si6 0.554417 0.340409 0.739302
Si Si7 0.017087 0.163504 0.832877
O O1 0.694169 0.225302 0.462255
O O2 0.902223 0.253627 0.431944
O O3 0.969796 0.180719 0.260431
O O4 0.820696 0.000000 0.438254
O O5 0.385346 0.500000 0.497496
O O6 0.592997 0.704063 0.364014
O O7 0.447461 0.650221 0.344055
O O8 0.235363 0.248108 0.858735
O O9 0.428264 0.230303 0.844510
O O10 0.303368 0.000000 0.870656
O O11 0.150954 0.194601 0.041346
O O12 0.115900 0.500000 0.494258
O O13 0.282474 0.286272 0.341743
O O14 0.000000 0.274118 0.500000
O O15 0.765269 0.500000 0.200814
O O16 0.878861 0.722299 0.194449
O O17 0.522783 0.500000 0.791703
O O18 0.061978 0.000000 0.827708
#
# Coordination Sequence:
#
# PCOD8060422 Si02
#       7
#     4   4   4   4   4   4   4
#     4  10  20  33  49  71  98 126 159 195 233 283
#     4   8  16  31  47  66  95 126 156 196 244 285
#     4  10  19  32  49  67  94 131 166 199 237 277
#     4   9  18  34  56  79 101 122 145 183 238 292
#     4  10  20  32  48  70  93 122 166 212 243 273
#     4   8  15  29  49  73  97 120 152 193 232 275
#     4  10  22  35  45  64  97 133 164 199 240 277
#
# _framework density 17.718837000000001
#
# number of rings (size 3 to 8) (size 9 to 14) (size 15 to 20)
#    0.000    2.714    0.000    3.429    0.000   10.571 
#    0.000    2.857    0.000    0.857    0.000    6.000 
#    0.000    0.000    0.000    0.000    0.000    0.000 
#
# Total GULP energy -347103.873212 kJ/mol
# GULP energy per Si atom -12396.566900 kJ/mol
# Density = 1.767851 g / cm^3
# Si number density = 17.718837 Si / 1000 Ang^3
#
#
#
# Elastic Constant Matrix: (Units=GPa)
#
#
# Indices 1 2 3 4 5 6 
#
# 1 97.0990 47.5969 45.6225 0.0000 -22.9839 0.0000
# 2 47.5969 95.0126 52.8434 0.0000 -7.8522 0.0000
# 3 45.6225 52.8434 88.6598 0.0000 -11.5867 0.0000
# 4 0.0000 0.0000 0.0000 15.3143 0.0000 -11.6112
# 5 -22.9839 -7.8522 -11.5867 0.0000 21.5445 0.0000
# 6 0.0000 0.0000 0.0000 -11.6112 0.0000 12.5246
#
#
#
# Elastic Compliance Matrix: (Units=1/GPa)
#
#
# Indices 1 2 3 4 5 6 
#
# 1 0.018831 -0.005815 -0.004169 0.000000 0.015728 0.000000
# 2 -0.005815 0.017551 -0.008006 0.000000 -0.004113 0.000000
# 3 -0.004169 -0.008006 0.018536 0.000000 0.002604 0.000000
# 4 0.000000 0.000000 0.000000 0.219791 0.000000 0.203763
# 5 0.015728 -0.004113 0.002604 0.000000 0.063095 0.000000
# 6 0.000000 0.000000 0.000000 0.203763 0.000000 0.268747
#
#
# Mechanical properties :
#
#
# Convention : Reuss Voigt Hill
#
# Bulk Modulus (GPa) = 52.80216 63.65520 58.22868
# Shear Modulus (GPa) = 7.70603 18.85723 13.28163
#
# Velocity S-wave (km/s) = 2.08770 3.26582 2.74081
# Velocity P-wave (km/s) = 5.97294 7.08688 6.55362
#
# Compressibility (1/GPa) = 0.01893862
#
# Stress axis : x y z
#
# Youngs Moduli (GPa) = 53.10478 56.97766 53.94887
#
# Poissons Ratio (x) = 0.33133 0.22489
# Poissons Ratio (y) = 0.30881 0.43190
# Poissons Ratio (z) = 0.22137 0.45615
#
# Static dielectric constant tensor:
#      x y z
#    x 3.246620 0.000000 -0.377560 
#    y 0.000000 3.387690 0.000000 
#    z -0.377560 0.000000 3.392170 
# 
# 
# High freq. dielectric constant tensor:
#      x y z
#    x 1.655560 0.000000 -0.019820 
#    y 0.000000 1.691250 0.000000 
#    z -0.019820 0.000000 1.678650 
# 
# From -- ./inp_files/77698.got.cif
#   From: 2010.06.25/outbox.cif.g09.slc.cpg/sg10_39_cif.got.tgz:77698.got - 2010.06.27 22:07:45.
