data_PCOD8060072
_publ_section_title
;
Structure prediction by ZEFSAII (Michael W. Deem and Ramdas Pophale) SiO2 
 PCOD8060072
Probable space group: P 2/M
;
_chemical_formula_sum "Si O2"
_cell_formula_units_Z 28
_cell_length_a 15.954328
_cell_length_b 9.223969
_cell_length_c 21.146737
_cell_angle_alpha 90.000000
_cell_angle_beta 152.682643
_cell_angle_gamma 90.000000
_cell_volume 1428.155499
_symmetry_space_group_name_H-M "P 2/M"
_symmetry_group_IT_number 10
_symmetry_cell_setting 'monoclinic'
loop_
_space_group_symop_operation_xyz
x,y,z
-x,y,-z
-x,-y,-z
x,-y,z
loop_
_atom_site_type_symbol
_atom_site_label
_atom_site_fract_x
_atom_site_fract_y
_atom_site_fract_z
Si Si1 0.091153 0.827576 0.497446
Si Si2 0.311320 0.837123 0.437168
Si Si3 0.769697 0.329604 0.041939
Si Si4 0.866494 0.669312 0.788916
Si Si5 0.667538 0.831529 0.754005
Si Si6 0.946329 0.164972 0.269358
Si Si7 0.506480 0.171872 0.778544
O O1 0.299305 0.772116 0.631121
O O2 0.000000 0.764902 0.500000
O O3 0.966278 0.776417 0.354578
O O4 0.094421 0.000000 0.500001
O O5 0.285743 0.730924 0.360978
O O6 0.490971 0.791601 0.594699
O O7 0.148207 0.826409 0.377067
O O8 0.326106 0.000000 0.419685
O O9 0.737716 0.500000 0.026434
O O10 0.809529 0.267047 0.138493
O O11 0.934558 0.291313 0.104664
O O12 0.588998 0.252646 0.894618
O O13 0.837381 0.500000 0.776517
O O14 0.838347 0.743007 0.838960
O O15 0.626737 0.783189 0.798283
O O16 0.716237 0.000000 0.783809
O O17 0.871903 0.000000 0.217161
O O18 0.512804 0.000000 0.793998
#
# Coordination Sequence:
#
# PCOD8060072 Si02
#       7
#     4   4   4   4   4   4   4
#     4   9  17  33  61  93 115 130 164 223 278 321
#     4   9  16  29  49  73 103 137 175 218 265 315
#     4  10  22  38  53  74 109 150 187 221 260 310
#     4  10  21  33  46  70 104 142 184 225 261 303
#     4  10  19  31  49  74 105 138 177 222 267 314
#     4   9  16  32  58  83 107 140 177 216 266 321
#     4  10  20  36  57  82 109 140 178 220 269 324
#
# _framework density 19.605709000000001
#
# number of rings (size 3 to 8) (size 9 to 14) (size 15 to 20)
#    0.000    2.429    1.429    1.286    0.000    5.143 
#    0.000    4.286    0.000    6.000    0.000    0.000 
#    0.000    0.000    0.000    0.000    0.000    0.000 
#
# Total GULP energy -347178.947813 kJ/mol
# GULP energy per Si atom -12399.248136 kJ/mol
# Density = 1.956109 g / cm^3
# Si number density = 19.605709 Si / 1000 Ang^3
#
#
#
# Elastic Constant Matrix: (Units=GPa)
#
#
# Indices 1 2 3 4 5 6 
#
# 1 110.1698 36.4603 42.5162 0.0000 -27.4259 0.0000
# 2 36.4603 61.1549 40.3255 0.0000 -10.8739 0.0000
# 3 42.5162 40.3255 87.7186 0.0000 -21.6903 0.0000
# 4 0.0000 0.0000 0.0000 1.6813 0.0000 7.3646
# 5 -27.4259 -10.8739 -21.6903 0.0000 15.1075 0.0000
# 6 0.0000 0.0000 0.0000 7.3646 0.0000 9.7155
#
#
#
# Elastic Compliance Matrix: (Units=1/GPa)
#
#
# Indices 1 2 3 4 5 6 
#
# 1 0.018292 -0.006601 0.001868 0.000000 0.031138 0.000000
# 2 -0.006601 0.025893 -0.010944 0.000000 -0.009058 0.000000
# 3 0.001868 -0.010944 0.022352 0.000000 0.027605 0.000000
# 4 0.000000 0.000000 0.000000 -0.256331 0.000000 0.194304
# 5 0.031138 -0.009058 0.027605 0.000000 0.155832 0.000000
# 6 0.000000 0.000000 0.000000 0.194304 0.000000 -0.044358
#
#
# Mechanical properties :
#
#
# Convention : Reuss Voigt Hill
#
# Bulk Modulus (GPa) = 28.42255 55.29415 41.85835
# Shear Modulus (GPa) = -141.88988 14.61695 -63.63646
#
# Velocity S-wave (km/s) = -8.51639 2.73343 -5.70338
# Velocity P-wave (km/s) = 9.06513 6.18276 4.68775
#
# Compressibility (1/GPa) = 0.03518333
#
# Stress axis : x y z
#
# Youngs Moduli (GPa) = 54.66842 38.62037 44.73942
#
# Poissons Ratio (x) = 0.25493 -0.08358
# Poissons Ratio (y) = 0.36086 0.48963
# Poissons Ratio (z) = -0.10212 0.42266
#
# Static dielectric constant tensor:
#      x y z
#    x 3.721810 0.000000 -0.112150 
#    y 0.000000 3.274610 0.000000 
#    z -0.112150 0.000000 3.458900 
# 
# 
# High freq. dielectric constant tensor:
#      x y z
#    x 1.759420 0.000000 -0.012200 
#    y 0.000000 1.733610 0.000000 
#    z -0.012200 0.000000 1.758310 
# 
# From -- ./inp_files/84970.got.cif
#   From: 2010.06.25/outbox.cif.g09.slc.cpg/sg10_43_cif.got.tgz:84970.got - 2010.06.27 22:07:45.
