data_PCOD8060119
_publ_section_title
;
Structure prediction by ZEFSAII (Michael W. Deem and Ramdas Pophale) SiO2 
 PCOD8060119
Probable space group: P 2/M
;
_chemical_formula_sum "Si O2"
_cell_formula_units_Z 30
_cell_length_a 11.947476
_cell_length_b 9.145886
_cell_length_c 25.396913
_cell_angle_alpha 90.000000
_cell_angle_beta 142.652745
_cell_angle_gamma 90.000000
_cell_volume 1683.514953
_symmetry_space_group_name_H-M "P 2/M"
_symmetry_group_IT_number 10
_symmetry_cell_setting 'monoclinic'
loop_
_space_group_symop_operation_xyz
x,y,z
-x,y,-z
-x,-y,-z
x,-y,z
loop_
_atom_site_type_symbol
_atom_site_label
_atom_site_fract_x
_atom_site_fract_y
_atom_site_fract_z
Si Si1 0.846363 0.326451 0.900404
Si Si2 0.444724 0.334821 0.771761
Si Si3 0.913604 0.668874 0.310662
Si Si4 0.500000 0.754728 0.500000
Si Si5 0.226287 0.163188 0.484803
Si Si6 0.590038 0.332515 0.358778
Si Si7 0.789741 0.172760 0.775737
Si Si8 0.845551 0.339833 0.695306
O O1 0.835572 0.500000 0.886141
O O2 0.648499 0.261135 0.846830
O O3 0.898436 0.248941 0.864737
O O4 0.000000 0.283762 0.000000
O O5 0.487000 0.500000 0.803013
O O6 0.297882 0.273900 0.759633
O O7 0.345576 0.321748 0.677620
O O8 0.932979 0.500000 0.337897
O O9 0.041052 0.779124 0.389888
O O10 0.971238 0.679406 0.271472
O O11 0.604888 0.846207 0.494048
O O12 0.340900 0.664030 0.410124
O O13 0.255690 0.273021 0.544391
O O14 0.194700 0.000000 0.494508
O O15 0.539760 0.500000 0.354607
O O16 0.418039 0.227533 0.302858
O O17 0.870830 0.217674 0.749386
O O18 0.800738 0.000000 0.786354
O O19 0.846369 0.500000 0.722188
#
# Coordination Sequence:
#
# PCOD8060119 Si02
#       8
#     4   4   4   2   4   4   4   4
#     4   9  18  35  61  87 106 128 162 206 257 312
#     4   8  16  33  54  75  99 127 162 207 254 303
#     4   9  19  34  50  69  96 135 176 209 249 298
#     4  10  20  30  48  66  98 136 178 224 262 290
#     4  11  21  31  44  67  99 134 176 217 257 297
#     4  10  19  32  51  71  96 132 174 216 258 300
#     4  11  21  32  50  77 109 137 165 209 263 309
#     4  10  19  31  50  73  99 134 179 219 252 297
#
# _framework density 17.819859000000001
#
# number of rings (size 3 to 8) (size 9 to 14) (size 15 to 20)
#    0.000    2.267    1.333    3.200    0.000    4.000 
#    0.000    6.000    0.000    0.800    0.000    5.600 
#    0.000    0.000    0.000    0.000    0.000    0.000 
#
# Total GULP energy -371703.998041 kJ/mol
# GULP energy per Si atom -12390.133268 kJ/mol
# Density = 1.777930 g / cm^3
# Si number density = 17.819859 Si / 1000 Ang^3
#
#
#
# Elastic Constant Matrix: (Units=GPa)
#
#
# Indices 1 2 3 4 5 6 
#
# 1 109.1545 33.6503 46.0176 0.0000 4.6249 0.0000
# 2 33.6503 88.9996 36.9286 0.0000 -7.4633 0.0000
# 3 46.0176 36.9286 82.2689 0.0000 -6.9648 0.0000
# 4 0.0000 0.0000 0.0000 16.5727 0.0000 -1.4958
# 5 4.6249 -7.4633 -6.9648 0.0000 20.4750 0.0000
# 6 0.0000 0.0000 0.0000 -1.4958 0.0000 8.5809
#
#
#
# Elastic Compliance Matrix: (Units=1/GPa)
#
#
# Indices 1 2 3 4 5 6 
#
# 1 0.013042 -0.002710 -0.006602 0.000000 -0.006179 0.000000
# 2 -0.002710 0.014554 -0.004650 0.000000 0.004335 0.000000
# 3 -0.006602 -0.004650 0.018449 0.000000 0.006072 0.000000
# 4 0.000000 0.000000 0.000000 0.061305 0.000000 0.010687
# 5 -0.006179 0.004335 0.006072 0.000000 0.053881 0.000000
# 6 0.000000 0.000000 0.000000 0.010687 0.000000 0.118401
#
#
# Mechanical properties :
#
#
# Convention : Reuss Voigt Hill
#
# Bulk Modulus (GPa) = 55.18320 57.06844 56.12582
# Shear Modulus (GPa) = 15.94410 20.04748 17.99579
#
# Velocity S-wave (km/s) = 2.99446 3.35775 3.18130
# Velocity P-wave (km/s) = 6.55669 6.86494 6.71258
#
# Compressibility (1/GPa) = 0.01812146
#
# Stress axis : x y z
#
# Youngs Moduli (GPa) = 76.67704 68.71174 54.20293
#
# Poissons Ratio (x) = 0.18621 0.35783
# Poissons Ratio (y) = 0.20779 0.25204
# Poissons Ratio (z) = 0.50619 0.31950
#
# Static dielectric constant tensor:
#      x y z
#    x 3.563240 0.000000 -0.076280 
#    y 0.000000 3.113420 0.000000 
#    z -0.076280 0.000000 3.143030 
# 
# 
# High freq. dielectric constant tensor:
#      x y z
#    x 1.690210 0.000000 -0.008150 
#    y 0.000000 1.675920 0.000000 
#    z -0.008150 0.000000 1.655750 
# 
# From -- ./inp_files/88713.got.cif
#   From: 2010.06.25/outbox.cif.g09.slc.cpg/sg10_45_cif.got.tgz:88713.got - 2010.06.27 22:07:45.
