data_PCOD8060209
_publ_section_title
;
Structure prediction by ZEFSAII (Michael W. Deem and Ramdas Pophale) SiO2 
 PCOD8060209
Probable space group: P 2/M
;
_chemical_formula_sum "Si O2"
_cell_formula_units_Z 32
_cell_length_a 20.295508
_cell_length_b 9.049672
_cell_length_c 26.220384
_cell_angle_alpha 90.000000
_cell_angle_beta 21.164229
_cell_angle_gamma 90.000000
_cell_volume 1738.721626
_symmetry_space_group_name_H-M "P 2/M"
_symmetry_group_IT_number 10
_symmetry_cell_setting 'monoclinic'
loop_
_space_group_symop_operation_xyz
x,y,z
-x,y,-z
-x,-y,-z
x,-y,z
loop_
_atom_site_type_symbol
_atom_site_label
_atom_site_fract_x
_atom_site_fract_y
_atom_site_fract_z
Si Si1 0.887995 0.324506 0.183745
Si Si2 0.188291 0.824067 0.341365
Si Si3 0.297397 0.175536 0.152784
Si Si4 0.873122 0.825934 0.829046
Si Si5 0.599476 0.675655 0.311229
Si Si6 0.213770 0.675348 0.630903
Si Si7 0.700790 0.324372 0.125834
Si Si8 0.450372 0.825414 0.861791
O O1 0.889315 0.500000 0.180040
O O2 0.760835 0.260177 0.230508
O O3 0.808272 0.269738 0.295152
O O4 0.093036 0.264492 0.029268
O O5 0.209570 0.763053 0.268398
O O6 0.358524 0.770234 0.252535
O O7 0.000000 0.759589 0.500000
O O8 0.183948 0.000000 0.343888
O O9 0.175782 0.225118 0.192789
O O10 0.311434 0.000000 0.145039
O O11 0.500000 0.241783 0.000000
O O12 0.057608 0.742982 0.708859
O O13 0.904880 0.000000 0.809609
O O14 0.711890 0.776540 0.983383
O O15 0.604472 0.500000 0.310072
O O16 0.406608 0.734853 0.471072
O O17 0.628276 0.730517 0.232855
O O18 0.200189 0.500000 0.637264
O O19 0.692420 0.500000 0.126508
O O20 0.572199 0.253182 0.176105
O O21 0.450315 0.000000 0.853566
#
# Coordination Sequence:
#
# PCOD8060209 Si02
#       8
#     4   4   4   4   4   4   4   4
#     4   9  16  29  51  75  96 125 167 206 239 282
#     4   9  17  29  47  72  97 122 159 203 240 278
#     4   9  15  27  47  68  90 121 160 196 232 277
#     4  10  19  31  51  75  99 129 164 203 244 288
#     4   9  18  31  49  74 102 127 160 208 248 280
#     4  10  19  32  51  75 100 128 162 202 247 290
#     4  10  19  32  52  76  99 129 165 200 242 293
#     4  10  19  32  51  74 101 130 160 202 248 288
#
# _framework density 18.404326999999999
#
# number of rings (size 3 to 8) (size 9 to 14) (size 15 to 20)
#    0.000    2.500    2.500    0.750    0.000    4.000 
#    0.000    1.875    0.000    6.000    0.000    0.000 
#    0.000    0.000    0.000    0.000    0.000    0.000 
#
# Total GULP energy -396788.315688 kJ/mol
# GULP energy per Si atom -12399.634865 kJ/mol
# Density = 1.836244 g / cm^3
# Si number density = 18.404327 Si / 1000 Ang^3
#
#
#
# Elastic Constant Matrix: (Units=GPa)
#
#
# Indices 1 2 3 4 5 6 
#
# 1 189.0517 21.1692 83.7339 0.0000 5.6607 0.0000
# 2 21.1692 10.5421 12.3163 0.0000 -0.5024 0.0000
# 3 83.7339 12.3163 138.3307 0.0000 8.8140 0.0000
# 4 0.0000 0.0000 0.0000 13.4899 0.0000 -6.2060
# 5 5.6607 -0.5024 8.8140 0.0000 37.8978 0.0000
# 6 0.0000 0.0000 0.0000 -6.2060 0.0000 26.3584
#
#
#
# Elastic Compliance Matrix: (Units=1/GPa)
#
#
# Indices 1 2 3 4 5 6 
#
# 1 0.008451 -0.012338 -0.003985 0.000000 -0.000499 0.000000
# 2 -0.012338 0.124383 -0.003886 0.000000 0.004395 0.000000
# 3 -0.003985 -0.003886 0.010102 0.000000 -0.001806 0.000000
# 4 0.000000 0.000000 0.000000 0.083135 0.000000 0.019574
# 5 -0.000499 0.004395 -0.001806 0.000000 0.026940 0.000000
# 6 0.000000 0.000000 0.000000 0.019574 0.000000 0.042547
#
#
# Mechanical properties :
#
#
# Convention : Reuss Voigt Hill
#
# Bulk Modulus (GPa) = 9.75440 63.59592 36.67516
# Shear Modulus (GPa) = 13.50802 30.26289 21.88545
#
# Velocity S-wave (km/s) = 2.71211 4.05944 3.45214
# Velocity P-wave (km/s) = 3.88831 7.52343 5.98836
#
# Compressibility (1/GPa) = 0.10251786
#
# Stress axis : x y z
#
# Youngs Moduli (GPa) = 118.32515 8.03966 98.98540
#
# Poissons Ratio (x) = 0.09920 0.39449
# Poissons Ratio (y) = 1.45995 0.38464
# Poissons Ratio (z) = 0.47157 0.03124
#
# Static dielectric constant tensor:
#      x y z
#    x 3.595240 0.000000 0.064570 
#    y 0.000000 2.770360 0.000000 
#    z 0.064570 0.000000 3.606040 
# 
# 
# High freq. dielectric constant tensor:
#      x y z
#    x 1.732180 0.000000 0.000360 
#    y 0.000000 1.648840 0.000000 
#    z 0.000360 0.000000 1.722620 
# 
# From -- ./inp_files/82495.got.cif
#   From: 2010.06.25/outbox.cif.g09.slc.cpg/sg10_42_cif.got.tgz:82495.got - 2010.06.27 22:07:45.
