data_PCOD8060833
_publ_section_title
;
Structure prediction by ZEFSAII (Michael W. Deem and Ramdas Pophale) SiO2 
 PCOD8060833
Probable space group: P 2/M
;
_chemical_formula_sum "Si O2"
_cell_formula_units_Z 32
_cell_length_a 11.040228
_cell_length_b 9.344791
_cell_length_c 18.011567
_cell_angle_alpha 90.000000
_cell_angle_beta 115.823565
_cell_angle_gamma 90.000000
_cell_volume 1672.665290
_symmetry_space_group_name_H-M "P 2/M"
_symmetry_group_IT_number 10
_symmetry_cell_setting 'monoclinic'
loop_
_space_group_symop_operation_xyz
x,y,z
-x,y,-z
-x,-y,-z
x,-y,z
loop_
_atom_site_type_symbol
_atom_site_label
_atom_site_fract_x
_atom_site_fract_y
_atom_site_fract_z
Si Si1 0.143560 0.334838 0.009707
Si Si2 0.653990 0.160397 0.841147
Si Si3 0.398922 0.330762 0.539456
Si Si4 0.162693 0.841903 0.246323
Si Si5 0.094205 0.665043 0.830119
Si Si6 0.859806 0.166877 0.300092
Si Si7 0.161734 0.162329 0.412756
Si Si8 0.595120 0.833036 0.312601
O O1 0.145662 0.500000 0.033010
O O2 0.271933 0.263016 0.081992
O O3 0.167361 0.312371 0.928467
O O4 0.000000 0.269282 0.000000
O O5 0.712992 0.174354 0.774527
O O6 0.498009 0.200627 0.784779
O O7 0.669292 0.000000 0.876810
O O8 0.500000 0.288055 0.500000
O O9 0.388796 0.500000 0.545668
O O10 0.249637 0.268160 0.485980
O O11 0.450962 0.262549 0.630070
O O12 0.217439 0.823970 0.344105
O O13 0.056889 0.719740 0.198465
O O14 0.094842 0.000000 0.220403
O O15 0.089334 0.500000 0.806035
O O16 0.168688 0.750563 0.784610
O O17 0.747088 0.207353 0.329932
O O18 0.004869 0.209556 0.372857
O O19 0.856894 0.000000 0.279482
O O20 0.177557 0.000000 0.447218
O O21 0.581886 0.000000 0.330755
#
# Coordination Sequence:
#
# PCOD8060833 Si02
#       8
#     4   4   4   4   4   4   4   4
#     4  10  20  34  51  79 116 149 181 220 274 334
#     4  10  20  33  54  82 108 140 185 230 276 325
#     4  11  24  39  56  84 118 147 178 220 274 328
#     4   9  17  30  50  79 111 140 176 223 274 325
#     4  10  19  32  53  79 109 145 182 221 270 326
#     4   9  20  39  60  81 108 143 187 232 273 319
#     4   9  18  34  57  82 108 144 185 226 273 322
#     4  10  22  41  61  80 107 146 187 228 274 326
#
# _framework density 19.131145
#
# number of rings (size 3 to 8) (size 9 to 14) (size 15 to 20)
#    0.000    2.250    1.250    2.250    0.000    6.750 
#    0.000    3.125    0.000    3.750    0.000    0.000 
#    0.000    0.000    0.000    0.000    0.000    0.000 
#
# Total GULP energy -396743.241344 kJ/mol
# GULP energy per Si atom -12398.226292 kJ/mol
# Density = 1.908760 g / cm^3
# Si number density = 19.131145 Si / 1000 Ang^3
#
#
#
# Elastic Constant Matrix: (Units=GPa)
#
#
# Indices 1 2 3 4 5 6 
#
# 1 73.1188 36.1457 30.4936 0.0000 5.3609 0.0000
# 2 36.1457 83.6328 57.5019 0.0000 0.2742 0.0000
# 3 30.4936 57.5019 103.5863 0.0000 9.4868 0.0000
# 4 0.0000 0.0000 0.0000 31.6734 0.0000 -10.6335
# 5 5.3609 0.2742 9.4868 0.0000 21.6810 0.0000
# 6 0.0000 0.0000 0.0000 -10.6335 0.0000 7.6357
#
#
#
# Elastic Compliance Matrix: (Units=1/GPa)
#
#
# Indices 1 2 3 4 5 6 
#
# 1 0.017845 -0.007007 -0.001008 0.000000 -0.003883 0.000000
# 2 -0.007007 0.022547 -0.011028 0.000000 0.006273 0.000000
# 3 -0.001008 -0.011028 0.016706 0.000000 -0.006921 0.000000
# 4 0.000000 0.000000 0.000000 0.059294 0.000000 0.082572
# 5 -0.003883 0.006273 -0.006921 0.000000 0.050033 0.000000
# 6 0.000000 0.000000 0.000000 0.082572 0.000000 0.245953
#
#
# Mechanical properties :
#
#
# Convention : Reuss Voigt Hill
#
# Bulk Modulus (GPa) = 52.59630 56.51338 54.55484
# Shear Modulus (GPa) = 10.94568 21.27781 16.11174
#
# Velocity S-wave (km/s) = 2.39454 3.33860 2.90517
# Velocity P-wave (km/s) = 5.93273 6.66826 6.31122
#
# Compressibility (1/GPa) = 0.01901274
#
# Stress axis : x y z
#
# Youngs Moduli (GPa) = 56.03746 44.35177 59.85811
#
# Poissons Ratio (x) = 0.31076 0.06035
# Poissons Ratio (y) = 0.39264 0.66011
# Poissons Ratio (z) = 0.05649 0.48911
#
# Static dielectric constant tensor:
#      x y z
#    x 3.449350 0.000000 -0.014610 
#    y 0.000000 3.430790 0.000000 
#    z -0.014610 0.000000 3.394790 
# 
# 
# High freq. dielectric constant tensor:
#      x y z
#    x 1.731610 0.000000 -0.001370 
#    y 0.000000 1.737070 0.000000 
#    z -0.001370 0.000000 1.741040 
# 
# From -- ./inp_files/83613.got.cif
#   From: 2010.06.25/outbox.cif.g09.slc.cpg/sg10_42_cif.got.tgz:83613.got - 2010.06.27 22:07:45.
