data_PCOD8060986
_publ_section_title
;
Structure prediction by ZEFSAII (Michael W. Deem and Ramdas Pophale) SiO2 
 PCOD8060986
Probable space group: P 2/M
;
_chemical_formula_sum "Si O2"
_cell_formula_units_Z 24
_cell_length_a 9.229530
_cell_length_b 13.765651
_cell_length_c 15.548768
_cell_angle_alpha 90.000000
_cell_angle_beta 33.863676
_cell_angle_gamma 90.000000
_cell_volume 1100.773784
_symmetry_space_group_name_H-M "P 2/M"
_symmetry_group_IT_number 10
_symmetry_cell_setting 'monoclinic'
loop_
_space_group_symop_operation_xyz
x,y,z
-x,y,-z
-x,-y,-z
x,-y,z
loop_
_atom_site_type_symbol
_atom_site_label
_atom_site_fract_x
_atom_site_fract_y
_atom_site_fract_z
Si Si1 0.326883 0.107266 0.747826
Si Si2 0.077971 0.111260 0.552281
Si Si3 0.285215 0.696523 0.851413
Si Si4 0.297813 0.304637 0.032274
Si Si5 0.892527 0.111259 0.824667
Si Si6 0.286448 0.385803 0.675266
O O1 0.621652 0.123867 0.575040
O O2 0.257161 0.187046 0.853713
O O3 0.165431 0.118830 0.740153
O O4 0.285214 0.000000 0.809799
O O5 0.000000 0.164434 0.500000
O O6 0.927073 0.151098 0.709944
O O7 0.995227 0.000000 0.584181
O O8 0.414121 0.646477 0.704203
O O9 0.413496 0.670366 0.880286
O O10 0.000000 0.650975 0.000000
O O11 0.307811 0.186654 0.033629
O O12 0.999061 0.337733 0.197204
O O13 0.500000 0.352535 0.000000
O O14 0.787110 0.000000 0.880616
O O15 0.500000 0.351595 0.500000
O O16 0.245995 0.500000 0.691516
#
# Coordination Sequence:
#
# PCOD8060986 Si02
#       6
#     4   4   4   4   4   4
#     4  10  19  32  55  83 119 164 215 260 301 358
#     4   9  19  32  48  79 117 165 219 264 312 355
#     4  10  21  39  60  92 125 164 205 246 309 372
#     4  11  25  41  61  97 134 167 206 252 316 371
#     4  10  20  35  55  82 124 173 217 256 298 358
#     4  10  23  46  74  97 119 156 206 258 314 380
#
# _framework density 21.802844
#
# number of rings (size 3 to 8) (size 9 to 14) (size 15 to 20)
#    0.000    2.000    3.333    0.500    4.667    6.667 
#    0.000    0.833    0.000    2.000    0.000    0.000 
#    0.000    0.000    0.000    0.000    0.000    0.000 
#
# Total GULP energy -297313.545507 kJ/mol
# GULP energy per Si atom -12388.064396 kJ/mol
# Density = 2.175322 g / cm^3
# Si number density = 21.802844 Si / 1000 Ang^3
#
#
#
# Elastic Constant Matrix: (Units=GPa)
#
#
# Indices 1 2 3 4 5 6 
#
# 1 151.0622 19.8700 57.8135 0.0000 26.9883 0.0000
# 2 19.8700 64.3192 24.8653 0.0000 7.9172 0.0000
# 3 57.8135 24.8653 101.4867 0.0000 27.2337 0.0000
# 4 0.0000 0.0000 0.0000 20.3567 0.0000 5.2024
# 5 26.9883 7.9172 27.2337 0.0000 36.2643 0.0000
# 6 0.0000 0.0000 0.0000 5.2024 0.0000 8.7536
#
#
#
# Elastic Compliance Matrix: (Units=1/GPa)
#
#
# Indices 1 2 3 4 5 6 
#
# 1 0.008841 -0.000792 -0.003911 0.000000 -0.003469 0.000000
# 2 -0.000792 0.017261 -0.003663 0.000000 -0.000428 0.000000
# 3 -0.003911 -0.003663 0.015008 0.000000 -0.007560 0.000000
# 4 0.000000 0.000000 0.000000 0.057921 0.000000 -0.034423
# 5 -0.003469 -0.000428 -0.007560 0.000000 0.035928 0.000000
# 6 0.000000 0.000000 0.000000 -0.034423 0.000000 0.134697
#
#
# Mechanical properties :
#
#
# Convention : Reuss Voigt Hill
#
# Bulk Modulus (GPa) = 41.02268 57.99621 49.50944
# Shear Modulus (GPa) = 16.97714 27.36287 22.17001
#
# Velocity S-wave (km/s) = 2.79349 3.54646 3.19225
# Velocity P-wave (km/s) = 5.40933 6.58998 6.02863
#
# Compressibility (1/GPa) = 0.02437676
#
# Stress axis : x y z
#
# Youngs Moduli (GPa) = 113.11405 57.93430 66.63203
#
# Poissons Ratio (x) = 0.04589 0.26061
# Poissons Ratio (y) = 0.08959 0.24408
# Poissons Ratio (z) = 0.44241 0.21222
#
# Static dielectric constant tensor:
#      x y z
#    x 4.265950 0.000000 0.309750 
#    y 0.000000 3.813790 0.000000 
#    z 0.309750 0.000000 3.818590 
# 
# 
# High freq. dielectric constant tensor:
#      x y z
#    x 1.861820 0.000000 0.017920 
#    y 0.000000 1.826050 0.000000 
#    z 0.017920 0.000000 1.843690 
# 
# From -- ./inp_files/29274.got.cif
#   From: 2010.06.25/outbox.cif.g09.slc.cpg/sg10_15_cif.got.tgz:29274.got - 2010.06.27 22:07:45.
