data_PCOD8060485
_publ_section_title
;
Structure prediction by ZEFSAII (Michael W. Deem and Ramdas Pophale) SiO2 
 PCOD8060485
Probable space group: P 2/M
;
_chemical_formula_sum "Si O2"
_cell_formula_units_Z 28
_cell_length_a 28.546328
_cell_length_b 8.930184
_cell_length_c 20.182950
_cell_angle_alpha 90.000000
_cell_angle_beta 160.010577
_cell_angle_gamma 90.000000
_cell_volume 1758.841293
_symmetry_space_group_name_H-M "P 2/M"
_symmetry_group_IT_number 10
_symmetry_cell_setting 'monoclinic'
loop_
_space_group_symop_operation_xyz
x,y,z
-x,y,-z
-x,-y,-z
x,-y,z
loop_
_atom_site_type_symbol
_atom_site_label
_atom_site_fract_x
_atom_site_fract_y
_atom_site_fract_z
Si Si1 0.101352 0.825923 0.693525
Si Si2 0.886737 0.329877 0.800322
Si Si3 0.092931 0.826743 0.444827
Si Si4 0.621664 0.174684 0.111680
Si Si5 0.849979 0.669297 0.607777
Si Si6 0.647129 0.823049 0.423503
Si Si7 0.380481 0.323225 0.031601
O O1 0.000000 0.778053 0.500000
O O2 0.029914 0.791761 0.668422
O O3 0.140913 0.000000 0.738316
O O4 0.235723 0.725975 0.868982
O O5 0.853962 0.500000 0.779036
O O6 0.942530 0.326807 0.798161
O O7 0.745310 0.233785 0.614442
O O8 0.000000 0.258685 0.000000
O O9 0.236025 0.774242 0.666502
O O10 0.064956 0.736649 0.340092
O O11 0.099438 0.000000 0.435173
O O12 0.625614 0.000000 0.097369
O O13 0.500000 0.211975 0.000000
O O14 0.600202 0.269762 0.017582
O O15 0.805211 0.500000 0.531650
O O16 0.712359 0.766848 0.439856
O O17 0.497704 0.750897 0.233107
O O18 0.635218 0.000000 0.408208
O O19 0.394026 0.500000 0.053306
#
# Coordination Sequence:
#
# PCOD8060485 Si02
#       7
#     4   4   4   4   4   4   4
#     4  10  20  37  54  67  90 131 179 217 254 296
#     4   8  16  32  52  77 108 136 159 191 244 303
#     4  10  19  32  50  71  96 131 171 212 250 293
#     4  10  20  33  50  69  93 130 170 205 252 301
#     4   9  18  31  49  75 106 133 159 198 248 294
#     4  10  19  32  51  74 103 133 167 202 243 296
#     4  12  23  34  49  71  98 129 170 216 260 295
#
# _framework density 15.919570999999999
#
# number of rings (size 3 to 8) (size 9 to 14) (size 15 to 20)
#    0.857    1.286    1.429    3.429    0.000    3.143 
#    0.000    0.000    0.000    0.000    0.000    1.000 
#    0.000    8.000    0.000    0.000    0.000    0.000 
#
# Total GULP energy -347072.461581 kJ/mol
# GULP energy per Si atom -12395.445056 kJ/mol
# Density = 1.588334 g / cm^3
# Si number density = 15.919571 Si / 1000 Ang^3
#
#
#
# Elastic Constant Matrix: (Units=GPa)
#
#
# Indices 1 2 3 4 5 6 
#
# 1 52.6162 36.4968 52.5525 0.0000 4.4203 0.0000
# 2 36.4968 104.4686 60.7077 0.0000 1.3371 0.0000
# 3 52.5525 60.7077 116.5830 0.0000 -1.9159 0.0000
# 4 0.0000 0.0000 0.0000 23.0497 0.0000 0.1678
# 5 4.4203 1.3371 -1.9159 0.0000 20.7358 0.0000
# 6 0.0000 0.0000 0.0000 0.1678 0.0000 24.6740
#
#
#
# Elastic Compliance Matrix: (Units=1/GPa)
#
#
# Indices 1 2 3 4 5 6 
#
# 1 0.037630 -0.004425 -0.014808 0.000000 -0.009105 0.000000
# 2 -0.004425 0.014296 -0.005458 0.000000 -0.000483 0.000000
# 3 -0.014808 -0.005458 0.018180 0.000000 0.005188 0.000000
# 4 0.000000 0.000000 0.000000 0.043387 0.000000 -0.000295
# 5 -0.009105 -0.000483 0.005188 0.000000 0.050677 0.000000
# 6 0.000000 0.000000 0.000000 -0.000295 0.000000 0.040531
#
#
# Mechanical properties :
#
#
# Convention : Reuss Voigt Hill
#
# Bulk Modulus (GPa) = 48.25153 63.68687 55.96920
# Shear Modulus (GPa) = 19.15796 21.95261 20.55528
#
# Velocity S-wave (km/s) = 3.47280 3.71748 3.59722
# Velocity P-wave (km/s) = 6.81585 7.64973 7.24480
#
# Compressibility (1/GPa) = 0.02072473
#
# Stress axis : x y z
#
# Youngs Moduli (GPa) = 26.57477 69.95147 55.00601
#
# Poissons Ratio (x) = 0.30950 0.81453
# Poissons Ratio (y) = 0.11758 0.30020
# Poissons Ratio (z) = 0.39352 0.38177
#
# Static dielectric constant tensor:
#      x y z
#    x 2.865380 0.000000 0.009960 
#    y 0.000000 2.969490 0.000000 
#    z 0.009960 0.000000 3.011800 
# 
# 
# High freq. dielectric constant tensor:
#      x y z
#    x 1.588730 0.000000 0.002450 
#    y 0.000000 1.616270 0.000000 
#    z 0.002450 0.000000 1.597080 
# 
# From -- ./inp_files/87151.got.cif
#   From: 2010.06.25/outbox.cif.g09.slc.cpg/sg10_44_cif.got.tgz:87151.got - 2010.06.27 22:07:45.
