data_PCOD8060699
_publ_section_title
;
Structure prediction by ZEFSAII (Michael W. Deem and Ramdas Pophale) SiO2 
 PCOD8060699
Probable space group: P 2/M
;
_chemical_formula_sum "Si O2"
_cell_formula_units_Z 28
_cell_length_a 13.377773
_cell_length_b 9.133718
_cell_length_c 14.380478
_cell_angle_alpha 90.000000
_cell_angle_beta 122.651571
_cell_angle_gamma 90.000000
_cell_volume 1479.448574
_symmetry_space_group_name_H-M "P 2/M"
_symmetry_group_IT_number 10
_symmetry_cell_setting 'monoclinic'
loop_
_space_group_symop_operation_xyz
x,y,z
-x,y,-z
-x,-y,-z
x,-y,z
loop_
_atom_site_type_symbol
_atom_site_label
_atom_site_fract_x
_atom_site_fract_y
_atom_site_fract_z
Si Si1 0.812767 0.671148 0.555119
Si Si2 0.706024 0.669073 0.316583
Si Si3 0.923304 0.330920 0.293153
Si Si4 0.057205 0.169225 0.876896
Si Si5 0.278310 0.167741 0.115638
Si Si6 0.499094 0.826668 0.104946
Si Si7 0.811118 0.327815 0.762283
O O1 0.817259 0.500000 0.538555
O O2 0.725039 0.733124 0.431028
O O3 0.764978 0.708205 0.634568
O O4 0.947441 0.729835 0.611156
O O5 0.665253 0.500000 0.294670
O O6 0.832503 0.689547 0.330853
O O7 0.608575 0.764014 0.216737
O O8 0.933087 0.500000 0.266217
O O9 0.880780 0.235884 0.183688
O O10 0.938756 0.255759 0.843780
O O11 0.025528 0.000000 0.844172
O O12 0.148929 0.187278 0.006714
O O13 0.377929 0.224353 0.093942
O O14 0.283907 0.262654 0.212863
O O15 0.302982 0.000000 0.154591
O O16 0.511263 0.000000 0.109321
O O17 0.500000 0.764775 0.000000
O O18 0.823570 0.500000 0.783934
#
# Coordination Sequence:
#
# PCOD8060699 Si02
#       7
#     4   4   4   4   4   4   4
#     4   8  16  32  52  76 106 137 167 204 256 310
#     4  10  19  33  55  79 103 134 174 217 256 299
#     4   9  17  30  51  79 108 137 169 208 256 307
#     4  10  19  32  52  77 106 139 172 208 254 308
#     4  10  21  36  53  73 101 139 176 210 254 305
#     4  10  22  40  57  74 102 138 173 210 254 305
#     4  10  20  34  54  79 106 135 168 210 258 306
#
# _framework density 18.92597
#
# number of rings (size 3 to 8) (size 9 to 14) (size 15 to 20)
#    0.000    2.429    0.000    3.429    0.000    7.143 
#    0.000    4.286    0.000    8.571    0.000    0.000 
#    0.000    0.000    0.000    0.000    0.000    0.000 
#
# Total GULP energy -347147.611277 kJ/mol
# GULP energy per Si atom -12398.128974 kJ/mol
# Density = 1.888289 g / cm^3
# Si number density = 18.925970 Si / 1000 Ang^3
#
#
#
# Elastic Constant Matrix: (Units=GPa)
#
#
# Indices 1 2 3 4 5 6 
#
# 1 110.5729 41.7204 58.0834 0.0000 -22.9746 0.0000
# 2 41.7204 53.2087 42.3646 0.0000 -11.4516 0.0000
# 3 58.0834 42.3646 123.2905 0.0000 -17.1516 0.0000
# 4 0.0000 0.0000 0.0000 -6.4647 0.0000 1.1485
# 5 -22.9746 -11.4516 -17.1516 0.0000 26.8999 0.0000
# 6 0.0000 0.0000 0.0000 1.1485 0.0000 30.5832
#
#
#
# Elastic Compliance Matrix: (Units=1/GPa)
#
#
# Indices 1 2 3 4 5 6 
#
# 1 0.015356 -0.007551 -0.003580 0.000000 0.007618 0.000000
# 2 -0.007551 0.030457 -0.006586 0.000000 0.002318 0.000000
# 3 -0.003580 -0.006586 0.012340 0.000000 0.002006 0.000000
# 4 0.000000 0.000000 0.000000 -0.153661 0.000000 0.005771
# 5 0.007618 0.002318 0.002006 0.000000 0.045948 0.000000
# 6 0.000000 0.000000 0.000000 0.005771 0.000000 0.032481
#
#
# Mechanical properties :
#
#
# Convention : Reuss Voigt Hill
#
# Bulk Modulus (GPa) = 44.01491 63.48985 53.75238
# Shear Modulus (GPa) = 192.84915 19.86391 106.35653
#
# Velocity S-wave (km/s) = 10.10533 3.24320 7.50454
# Velocity P-wave (km/s) = 12.62790 6.90244 10.17614
#
# Compressibility (1/GPa) = 0.02271958
#
# Stress axis : x y z
#
# Youngs Moduli (GPa) = 65.11986 32.83357 81.03919
#
# Poissons Ratio (x) = 0.24791 0.29014
# Poissons Ratio (y) = 0.49169 0.53371
# Poissons Ratio (z) = 0.23314 0.21624
#
# Static dielectric constant tensor:
#      x y z
#    x 3.508860 0.000000 -0.231080 
#    y 0.000000 3.368390 0.000000 
#    z -0.231080 0.000000 3.601090 
# 
# 
# High freq. dielectric constant tensor:
#      x y z
#    x 1.730770 0.000000 -0.017830 
#    y 0.000000 1.717410 0.000000 
#    z -0.017830 0.000000 1.735580 
# 
# From -- ./inp_files/49390.got.cif
#   From: 2010.06.25/outbox.cif.g09.slc.cpg/sg10_25_cif.got.tgz:49390.got - 2010.06.27 22:07:45.
