data_PCOD8060175
_publ_section_title
;
Structure prediction by ZEFSAII (Michael W. Deem and Ramdas Pophale) SiO2 
 PCOD8060175
Probable space group: P 2/M
;
_chemical_formula_sum "Si O2"
_cell_formula_units_Z 18
_cell_length_a 7.388952
_cell_length_b 12.455447
_cell_length_c 10.245043
_cell_angle_alpha 90.000000
_cell_angle_beta 91.447414
_cell_angle_gamma 90.000000
_cell_volume 942.578124
_symmetry_space_group_name_H-M "P 2/M"
_symmetry_group_IT_number 10
_symmetry_cell_setting 'monoclinic'
loop_
_space_group_symop_operation_xyz
x,y,z
-x,y,-z
-x,-y,-z
x,-y,z
loop_
_atom_site_type_symbol
_atom_site_label
_atom_site_fract_x
_atom_site_fract_y
_atom_site_fract_z
Si Si1 0.861908 0.876195 0.609017
Si Si2 0.500000 0.215521 0.500000
Si Si3 0.871903 0.303549 0.811077
Si Si4 0.229332 0.378139 0.922142
Si Si5 0.506766 0.379872 0.713192
O O1 0.658922 0.860615 0.553118
O O2 0.894582 0.812748 0.744817
O O3 0.000000 0.835937 0.500000
O O4 0.895423 0.000000 0.643055
O O5 0.424843 0.293533 0.612127
O O6 0.724275 0.369774 0.724832
O O7 0.065305 0.363237 0.815377
O O8 0.797205 0.295133 0.958795
O O9 0.223886 0.500000 0.977487
O O10 0.418885 0.356439 0.853438
O O11 0.455685 0.500000 0.665910
#
# Coordination Sequence:
#
# PCOD8060175 Si02
#       5
#     4   2   4   4   4
#     4  10  21  37  55  73  95 128 169 211 255 296
#     4  10  20  34  54  76 102 130 164 208 248 292
#     4  10  19  32  51  73  99 131 168 205 241 289
#     4  10  19  32  51  75 105 137 164 193 239 298
#     4  10  19  31  50  77 106 135 164 196 239 293
#
# _framework density 19.09656
#
# number of rings (size 3 to 8) (size 9 to 14) (size 15 to 20)
#    0.000    2.000    0.000    5.333    0.000    1.778 
#    0.000    2.222    0.000   26.000    0.000    0.000 
#    0.000    0.000    0.000    0.000    0.000    0.000 
#
# Total GULP energy -223165.034468 kJ/mol
# GULP energy per Si atom -12398.057470 kJ/mol
# Density = 1.905310 g / cm^3
# Si number density = 19.096560 Si / 1000 Ang^3
#
#
#
# Elastic Constant Matrix: (Units=GPa)
#
#
# Indices 1 2 3 4 5 6 
#
# 1 65.8506 23.6784 16.8457 0.0000 -7.6957 0.0000
# 2 23.6784 89.4015 56.3631 0.0000 -14.7931 0.0000
# 3 16.8457 56.3631 95.8791 0.0000 -10.6839 0.0000
# 4 0.0000 0.0000 0.0000 32.3170 0.0000 -5.2480
# 5 -7.6957 -14.7931 -10.6839 0.0000 28.6644 0.0000
# 6 0.0000 0.0000 0.0000 -5.2480 0.0000 19.0826
#
#
#
# Elastic Compliance Matrix: (Units=1/GPa)
#
#
# Indices 1 2 3 4 5 6 
#
# 1 0.016953 -0.003785 -0.000484 0.000000 0.002418 0.000000
# 2 -0.003785 0.019491 -0.010209 0.000000 0.005238 0.000000
# 3 -0.000484 -0.010209 0.016605 0.000000 0.000790 0.000000
# 4 0.000000 0.000000 0.000000 0.032390 0.000000 0.008908
# 5 0.002418 0.005238 0.000790 0.000000 0.038533 0.000000
# 6 0.000000 0.000000 0.000000 0.008908 0.000000 0.054853
#
#
# Mechanical properties :
#
#
# Convention : Reuss Voigt Hill
#
# Bulk Modulus (GPa) = 41.50749 49.43394 45.47071
# Shear Modulus (GPa) = 23.16825 26.29574 24.73199
#
# Velocity S-wave (km/s) = 3.48690 3.71481 3.60266
# Velocity P-wave (km/s) = 6.16394 6.65899 6.41624
#
# Compressibility (1/GPa) = 0.02409204
#
# Stress axis : x y z
#
# Youngs Moduli (GPa) = 58.98569 51.30580 60.22457
#
# Poissons Ratio (x) = 0.19418 0.02917
# Poissons Ratio (y) = 0.22324 0.61485
# Poissons Ratio (z) = 0.02857 0.52380
#
# Static dielectric constant tensor:
#      x y z
#    x 3.637340 0.000000 0.009060 
#    y 0.000000 3.239450 0.000000 
#    z 0.009060 0.000000 3.455740 
# 
# 
# High freq. dielectric constant tensor:
#      x y z
#    x 1.757340 0.000000 0.000560 
#    y 0.000000 1.715430 0.000000 
#    z 0.000560 0.000000 1.736900 
# 
# From -- ./inp_files/17313.got.cif
#   From: 2010.06.25/outbox.cif.g09.slc.cpg/sg10_9_cif.got.tgz:17313.got - 2010.06.27 22:07:45.
