data_PCOD8060660
_publ_section_title
;
Structure prediction by ZEFSAII (Michael W. Deem and Ramdas Pophale) SiO2 
 PCOD8060660
Probable space group: P 2/M
;
_chemical_formula_sum "Si O2"
_cell_formula_units_Z 24
_cell_length_a 16.305737
_cell_length_b 9.655987
_cell_length_c 22.920737
_cell_angle_alpha 90.000000
_cell_angle_beta 156.908661
_cell_angle_gamma 90.000000
_cell_volume 1415.373744
_symmetry_space_group_name_H-M "P 2/M"
_symmetry_group_IT_number 10
_symmetry_cell_setting 'monoclinic'
loop_
_space_group_symop_operation_xyz
x,y,z
-x,y,-z
-x,-y,-z
x,-y,z
loop_
_atom_site_type_symbol
_atom_site_label
_atom_site_fract_x
_atom_site_fract_y
_atom_site_fract_z
Si Si1 0.600637 0.656799 0.829392
Si Si2 0.489312 0.838060 0.926010
Si Si3 0.229681 0.338624 0.668976
Si Si4 0.703559 0.839655 0.665855
Si Si5 0.778408 0.657517 0.826553
Si Si6 0.846837 0.157657 0.073474
O O1 0.665236 0.500000 0.886847
O O2 0.373446 0.691633 0.706700
O O3 0.600056 0.679215 0.759395
O O4 0.777596 0.751167 0.973653
O O5 0.309022 0.750749 0.775803
O O6 0.432525 0.000000 0.883559
O O7 0.500000 0.790707 0.000000
O O8 0.716294 0.804072 0.046222
O O9 0.232399 0.500000 0.688822
O O10 0.000000 0.289429 0.500000
O O11 0.500000 0.781101 0.500000
O O12 0.727756 0.759524 0.741576
O O13 0.905014 0.817869 0.755381
O O14 0.673553 0.000000 0.662271
O O15 0.778142 0.500000 0.803033
O O16 0.000000 0.694663 0.000000
O O17 0.800562 0.000000 0.025663
#
# Coordination Sequence:
#
# PCOD8060660 Si02
#       6
#     4   4   4   4   4   4
#     4   9  17  31  51  73  97 125 160 199 238 282
#     4   9  18  33  52  73  96 126 164 202 239 283
#     4   9  18  33  52  73 100 129 157 196 244 289
#     4  10  21  35  49  70 101 132 161 197 242 287
#     4  10  19  32  52  75  97 124 162 202 238 284
#     4   9  17  31  51  70  94 128 164 198 236 284
#
# _framework density 16.956651000000001
#
# number of rings (size 3 to 8) (size 9 to 14) (size 15 to 20)
#    0.000    2.667    1.667    0.000    0.000    2.000 
#    3.000    0.000    0.000    0.000    0.000    0.000 
#    0.000    0.000    0.000    0.000    0.000    0.000 
#
# Total GULP energy -297554.003684 kJ/mol
# GULP energy per Si atom -12398.083487 kJ/mol
# Density = 1.691806 g / cm^3
# Si number density = 16.956651 Si / 1000 Ang^3
#
#
#
# Elastic Constant Matrix: (Units=GPa)
#
#
# Indices 1 2 3 4 5 6 
#
# 1 108.5743 45.8321 66.4477 0.0000 -6.4231 0.0000
# 2 45.8321 59.6044 55.6757 0.0000 -6.2528 0.0000
# 3 66.4477 55.6757 132.2486 0.0000 3.4467 0.0000
# 4 0.0000 0.0000 0.0000 32.2451 0.0000 -7.3654
# 5 -6.4231 -6.2528 3.4467 0.0000 23.2374 0.0000
# 6 0.0000 0.0000 0.0000 -7.3654 0.0000 27.9382
#
#
#
# Elastic Compliance Matrix: (Units=1/GPa)
#
#
# Indices 1 2 3 4 5 6 
#
# 1 0.015270 -0.006882 -0.004855 0.000000 0.003089 0.000000
# 2 -0.006882 0.032862 -0.010599 0.000000 0.008513 0.000000
# 3 -0.004855 -0.010599 0.014629 0.000000 -0.006364 0.000000
# 4 0.000000 0.000000 0.000000 0.033000 0.000000 0.008700
# 5 0.003089 0.008513 -0.006364 0.000000 0.047123 0.000000
# 6 0.000000 0.000000 0.000000 0.008700 0.000000 0.038087
#
#
# Mechanical properties :
#
#
# Convention : Reuss Voigt Hill
#
# Bulk Modulus (GPa) = 55.28365 70.70424 62.99395
# Shear Modulus (GPa) = 21.58225 25.51559 23.54892
#
# Velocity S-wave (km/s) = 3.57149 3.88332 3.73067
# Velocity P-wave (km/s) = 7.04848 7.86731 7.46912
#
# Compressibility (1/GPa) = 0.01808853
#
# Stress axis : x y z
#
# Youngs Moduli (GPa) = 65.48966 30.42991 68.35731
#
# Poissons Ratio (x) = 0.20942 0.33190
# Poissons Ratio (y) = 0.45070 0.72451
# Poissons Ratio (z) = 0.31798 0.32252
#
# Static dielectric constant tensor:
#      x y z
#    x 3.345970 0.000000 0.228080 
#    y 0.000000 3.189080 0.000000 
#    z 0.228080 0.000000 3.116900 
# 
# 
# High freq. dielectric constant tensor:
#      x y z
#    x 1.659510 0.000000 0.016980 
#    y 0.000000 1.655320 0.000000 
#    z 0.016980 0.000000 1.634820 
# 
# From -- ./inp_files/33778.got.cif
#   From: 2010.06.25/outbox.cif.g09.slc.cpg/sg10_17_cif.got.tgz:33778.got - 2010.06.27 22:07:45.
