data_PCOD8060214
_publ_section_title
;
Structure prediction by ZEFSAII (Michael W. Deem and Ramdas Pophale) SiO2 
 PCOD8060214
Probable space group: P 2/M
;
_chemical_formula_sum "Si O2"
_cell_formula_units_Z 28
_cell_length_a 31.088736
_cell_length_b 8.712263
_cell_length_c 31.088729
_cell_angle_alpha 90.000000
_cell_angle_beta 170.413665
_cell_angle_gamma 90.000000
_cell_volume 1402.293221
_symmetry_space_group_name_H-M "P 2/M"
_symmetry_group_IT_number 10
_symmetry_cell_setting 'monoclinic'
loop_
_space_group_symop_operation_xyz
x,y,z
-x,y,-z
-x,-y,-z
x,-y,z
loop_
_atom_site_type_symbol
_atom_site_label
_atom_site_fract_x
_atom_site_fract_y
_atom_site_fract_z
Si Si1 0.763889 0.323109 0.736110
Si Si2 0.809735 0.819883 0.690245
Si Si3 0.951412 0.681215 0.548592
Si Si4 0.668487 0.680424 0.831535
Si Si5 0.524408 0.316942 0.975590
Si Si6 0.622341 0.821822 0.877670
Si Si7 0.905049 0.177450 0.594936
O O1 0.500000 0.283631 0.500000
O O2 0.771463 0.500000 0.728541
O O3 0.784421 0.213574 0.715571
O O4 0.000000 0.283631 0.000000
O O5 0.570526 0.749538 0.429418
O O6 0.813808 0.000000 0.686167
O O7 0.070559 0.749540 0.929450
O O8 0.953523 0.500000 0.546480
O O9 0.712385 0.749452 0.285860
O O10 0.926472 0.723113 0.573519
O O11 0.214146 0.749452 0.787621
O O12 0.672210 0.500000 0.827817
O O13 0.643265 0.716281 0.856755
O O14 0.524565 0.500000 0.975433
O O15 0.500000 0.254145 0.000000
O O16 0.858647 0.778411 0.141407
O O17 0.629211 0.000000 0.870797
O O18 0.358604 0.778407 0.641363
O O19 0.911610 0.000000 0.588369
#
# Coordination Sequence:
#
# PCOD8060214 Si02
#       7
#     4   4   4   4   4   4   4
#     4  10  21  38  61  89 123 161 201 250 305 355
#     4  12  25  42  65  93 127 165 205 250 300 362
#     4  10  19  31  51  76 101 133 175 222 268 322
#     4  12  25  42  65  93 124 159 202 253 306 356
#     4   9  17  30  49  74 102 133 172 219 270 322
#     4  10  21  38  58  81 110 148 190 230 282 345
#     4  10  21  36  55  78 109 146 181 224 279 340
#
# _framework density 19.967293999999999
#
# number of rings (size 3 to 8) (size 9 to 14) (size 15 to 20)
#    0.000    1.571    0.000    5.571    0.000    5.714 
#    0.000    0.000    0.000    2.571    0.000    0.000 
#    0.000    0.000    0.000    0.000    0.000    0.000 
#
# Total GULP energy -347369.654982 kJ/mol
# GULP energy per Si atom -12406.059106 kJ/mol
# Density = 1.992185 g / cm^3
# Si number density = 19.967294 Si / 1000 Ang^3
#
#
#
# Elastic Constant Matrix: (Units=GPa)
#
#
# Indices 1 2 3 4 5 6 
#
# 1 144.2516 45.7516 90.6114 0.0000 1.1591 0.0000
# 2 45.7516 89.2424 52.9649 0.0000 0.6349 0.0000
# 3 90.6114 52.9649 217.7858 0.0000 5.3267 0.0000
# 4 0.0000 0.0000 0.0000 32.7110 0.0000 3.6433
# 5 1.1591 0.6349 5.3267 0.0000 33.7496 0.0000
# 6 0.0000 0.0000 0.0000 3.6433 0.0000 -8.6029
#
#
#
# Elastic Compliance Matrix: (Units=1/GPa)
#
#
# Indices 1 2 3 4 5 6 
#
# 1 0.010084 -0.003130 -0.003441 0.000000 0.000256 0.000000
# 2 -0.003130 0.014069 -0.002124 0.000000 0.000178 0.000000
# 3 -0.003441 -0.002124 0.006561 0.000000 -0.000877 0.000000
# 4 0.000000 0.000000 0.000000 0.029194 0.000000 0.012364
# 5 0.000256 0.000178 -0.000877 0.000000 0.029756 0.000000
# 6 0.000000 0.000000 0.000000 0.012364 0.000000 -0.111003
#
#
# Mechanical properties :
#
#
# Convention : Reuss Voigt Hill
#
# Bulk Modulus (GPa) = 75.04051 92.21506 83.62778
# Shear Modulus (GPa) = 10173.35664 29.03499 5101.19582
#
# Velocity S-wave (km/s) = 71.45678 3.81744 50.59962
# Velocity P-wave (km/s) = 82.73909 8.10640 58.78551
#
# Compressibility (1/GPa) = 0.01332614
#
# Stress axis : x y z
#
# Youngs Moduli (GPa) = 99.16535 71.07785 152.41154
#
# Poissons Ratio (x) = 0.22244 0.52441
# Poissons Ratio (y) = 0.31035 0.32370
# Poissons Ratio (z) = 0.34120 0.15096
#
# Static dielectric constant tensor:
#      x y z
#    x 3.688270 0.000000 0.025860 
#    y 0.000000 3.427770 0.000000 
#    z 0.025860 0.000000 3.981570 
# 
# 
# High freq. dielectric constant tensor:
#      x y z
#    x 1.794610 0.000000 0.001010 
#    y 0.000000 1.758710 0.000000 
#    z 0.001010 0.000000 1.806060 
# 
# From -- ./inp_files/96002.got.cif
#   From: 2010.06.25/outbox.cif.g09.slc.cpg/sg10_49_cif.got.tgz:96002.got - 2010.06.27 22:07:45.
