data_PCOD8060162
_publ_section_title
;
Structure prediction by ZEFSAII (Michael W. Deem and Ramdas Pophale) SiO2 
 PCOD8060162
Probable space group: P 2/M
;
_chemical_formula_sum "Si O2"
_cell_formula_units_Z 24
_cell_length_a 19.518762
_cell_length_b 8.949537
_cell_length_c 11.263195
_cell_angle_alpha 90.000000
_cell_angle_beta 43.612779
_cell_angle_gamma 90.000000
_cell_volume 1357.143260
_symmetry_space_group_name_H-M "P 2/M"
_symmetry_group_IT_number 10
_symmetry_cell_setting 'monoclinic'
loop_
_space_group_symop_operation_xyz
x,y,z
-x,y,-z
-x,-y,-z
x,-y,z
loop_
_atom_site_type_symbol
_atom_site_label
_atom_site_fract_x
_atom_site_fract_y
_atom_site_fract_z
Si Si1 0.528605 0.164614 0.100785
Si Si2 0.313723 0.175959 0.402688
Si Si3 0.051002 0.672130 0.120207
Si Si4 0.719173 0.675881 0.806083
Si Si5 0.846681 0.671257 0.251328
Si Si6 0.096912 0.826115 0.302998
O O1 0.427808 0.220430 0.292813
O O2 0.560530 0.000000 0.106842
O O3 0.500000 0.154245 0.000000
O O4 0.620209 0.277033 0.003382
O O5 0.276351 0.254694 0.330118
O O6 0.245291 0.224561 0.597994
O O7 0.306089 0.000000 0.390317
O O8 0.056179 0.500000 0.156036
O O9 0.078098 0.783981 0.190719
O O10 0.940935 0.711740 0.214030
O O11 0.128852 0.700324 0.916720
O O12 0.720505 0.500000 0.791351
O O13 0.813468 0.728096 0.761265
O O14 0.816401 0.500000 0.309743
O O15 0.000000 0.786310 0.500000
O O16 0.124188 0.000000 0.278115
#
# Coordination Sequence:
#
# PCOD8060162 Si02
#       6
#     4   4   4   4   4   4
#     4   8  16  31  48  69 100 132 161 200 247 293
#     4  10  19  31  50  76 104 132 164 203 247 293
#     4   9  19  35  52  73 101 133 167 202 245 291
#     4  11  21  32  50  74 101 133 166 204 249 294
#     4   9  18  33  53  75 101 131 164 205 246 289
#     4  11  23  36  51  73 101 133 167 202 243 294
#
# _framework density 17.684206
#
# number of rings (size 3 to 8) (size 9 to 14) (size 15 to 20)
#    0.000    2.333    0.000    5.500    0.000    9.000 
#    0.000    1.667    0.000    1.000    0.000    7.000 
#    0.000    0.000    0.000    0.000    0.000    0.000 
#
# Total GULP energy -297587.660500 kJ/mol
# GULP energy per Si atom -12399.485854 kJ/mol
# Density = 1.764396 g / cm^3
# Si number density = 17.684206 Si / 1000 Ang^3
#
#
#
# Elastic Constant Matrix: (Units=GPa)
#
#
# Indices 1 2 3 4 5 6 
#
# 1 65.2691 39.1242 40.3356 0.0000 -4.3816 0.0000
# 2 39.1242 92.9645 54.5284 0.0000 -9.5241 0.0000
# 3 40.3356 54.5284 125.8413 0.0000 -17.8089 0.0000
# 4 0.0000 0.0000 0.0000 28.9848 0.0000 -2.7225
# 5 -4.3816 -9.5241 -17.8089 0.0000 24.3781 0.0000
# 6 0.0000 0.0000 0.0000 -2.7225 0.0000 26.9841
#
#
#
# Elastic Compliance Matrix: (Units=1/GPa)
#
#
# Indices 1 2 3 4 5 6 
#
# 1 0.022017 -0.006923 -0.004327 0.000000 -0.001909 0.000000
# 2 -0.006923 0.016631 -0.004733 0.000000 0.001795 0.000000
# 3 -0.004327 -0.004733 0.012282 0.000000 0.006346 0.000000
# 4 0.000000 0.000000 0.000000 0.034831 0.000000 0.003514
# 5 -0.001909 0.001795 0.006346 0.000000 0.046014 0.000000
# 6 0.000000 0.000000 0.000000 0.003514 0.000000 0.037413
#
#
# Mechanical properties :
#
#
# Convention : Reuss Voigt Hill
#
# Bulk Modulus (GPa) = 52.73435 61.33902 57.03668
# Shear Modulus (GPa) = 24.09901 26.07521 25.08711
#
# Velocity S-wave (km/s) = 3.69554 3.84408 3.77054
# Velocity P-wave (km/s) = 6.93499 7.37995 7.16093
#
# Compressibility (1/GPa) = 0.01896297
#
# Stress axis : x y z
#
# Youngs Moduli (GPa) = 45.41877 60.13024 81.41712
#
# Poissons Ratio (x) = 0.41630 0.35232
# Poissons Ratio (y) = 0.31445 0.38535
# Poissons Ratio (z) = 0.19654 0.28460
#
# Static dielectric constant tensor:
#      x y z
#    x 3.045420 0.000000 -0.287550 
#    y 0.000000 3.268850 0.000000 
#    z -0.287550 0.000000 3.646430 
# 
# 
# High freq. dielectric constant tensor:
#      x y z
#    x 1.655160 0.000000 -0.018330 
#    y 0.000000 1.688040 0.000000 
#    z -0.018330 0.000000 1.690180 
# 
# From -- ./inp_files/52881.got.cif
#   From: 2010.06.25/outbox.cif.g09.slc.cpg/sg10_27_cif.got.tgz:52881.got - 2010.06.27 22:07:45.
