data_PCOD8060100
_publ_section_title
;
Structure prediction by ZEFSAII (Michael W. Deem and Ramdas Pophale) SiO2 
 PCOD8060100
Probable space group: P 2/M
;
_chemical_formula_sum "Si O2"
_cell_formula_units_Z 28
_cell_length_a 11.024303
_cell_length_b 11.754192
_cell_length_c 21.659772
_cell_angle_alpha 90.000000
_cell_angle_beta 33.011845
_cell_angle_gamma 90.000000
_cell_volume 1529.131343
_symmetry_space_group_name_H-M "P 2/M"
_symmetry_group_IT_number 10
_symmetry_cell_setting 'monoclinic'
loop_
_space_group_symop_operation_xyz
x,y,z
-x,y,-z
-x,-y,-z
x,-y,z
loop_
_atom_site_type_symbol
_atom_site_label
_atom_site_fract_x
_atom_site_fract_y
_atom_site_fract_z
Si Si1 0.136872 0.244855 0.194011
Si Si2 0.565224 0.633386 0.841224
Si Si3 0.865888 0.244441 0.950590
Si Si4 0.288637 0.000000 0.997631
Si Si5 0.312660 0.368598 0.759908
Si Si6 0.706927 0.370931 0.376685
Si Si7 0.233342 0.367067 0.374071
Si Si8 0.245404 0.000000 0.161592
O O1 0.350497 0.302117 0.134039
O O2 0.165369 0.262644 0.109029
O O3 0.919665 0.306441 0.311260
O O4 0.106024 0.115160 0.230116
O O5 0.544518 0.500000 0.863185
O O6 0.734373 0.657716 0.712375
O O7 0.318675 0.682973 0.933273
O O8 0.836230 0.109929 0.977483
O O9 0.107178 0.289403 0.870295
O O10 0.307502 0.000000 0.063189
O O11 0.555316 0.000000 0.871969
O O12 0.272565 0.500000 0.798013
O O13 0.330336 0.359774 0.679491
O O14 0.545038 0.318584 0.686888
O O15 0.500000 0.314809 0.500000
O O16 0.738676 0.500000 0.384544
O O17 0.226511 0.500000 0.391406
O O18 0.000000 0.313270 0.500000
#
# Coordination Sequence:
#
# PCOD8060100 Si02
#       8
#     4   4   4   2   4   4   4   2
#     4  10  19  31  49  77 106 134 168 206 254 304
#     4  11  21  30  49  78 106 135 165 206 253 303
#     4  10  19  32  51  78 106 132 164 205 258 307
#     4   9  16  30  50  72 100 138 169 198 243 302
#     4   9  18  33  51  72 104 136 163 207 256 298
#     4   9  18  30  48  75 106 136 165 204 255 307
#     4   9  20  36  52  72  98 136 180 209 238 294
#     4   9  16  30  49  69 102 139 169 204 243 297
#
# _framework density 18.311049000000001
#
# number of rings (size 3 to 8) (size 9 to 14) (size 15 to 20)
#    0.000    2.429    1.429    1.286    2.000    2.857 
#    0.000    2.500    0.000    2.571    0.000    2.500 
#    0.000    0.000    0.000    0.000    0.000    0.000 
#
# Total GULP energy -347016.702831 kJ/mol
# GULP energy per Si atom -12393.453673 kJ/mol
# Density = 1.826937 g / cm^3
# Si number density = 18.311049 Si / 1000 Ang^3
#
#
#
# Elastic Constant Matrix: (Units=GPa)
#
#
# Indices 1 2 3 4 5 6 
#
# 1 56.0481 22.0837 19.9037 0.0000 -25.0616 0.0000
# 2 22.0837 91.1217 34.0237 0.0000 -9.4923 0.0000
# 3 19.9037 34.0237 104.9194 0.0000 -20.5419 0.0000
# 4 0.0000 0.0000 0.0000 -5.7448 0.0000 5.5397
# 5 -25.0616 -9.4923 -20.5419 0.0000 25.8217 0.0000
# 6 0.0000 0.0000 0.0000 5.5397 0.0000 10.0220
#
#
#
# Elastic Compliance Matrix: (Units=1/GPa)
#
#
# Indices 1 2 3 4 5 6 
#
# 1 0.033735 -0.005451 0.001642 0.000000 0.032044 0.000000
# 2 -0.005451 0.013424 -0.004014 0.000000 -0.003549 0.000000
# 3 0.001642 -0.004014 0.012490 0.000000 0.010054 0.000000
# 4 0.000000 0.000000 0.000000 -0.113546 0.000000 0.062764
# 5 0.032044 -0.003549 0.010054 0.000000 0.076522 0.000000
# 6 0.000000 0.000000 0.000000 0.062764 0.000000 0.065087
#
#
# Mechanical properties :
#
#
# Convention : Reuss Voigt Hill
#
# Bulk Modulus (GPa) = 22.72570 44.90126 33.81348
# Shear Modulus (GPa) = 42.36386 17.75832 30.06109
#
# Velocity S-wave (km/s) = 4.81517 3.11756 4.05617
# Velocity P-wave (km/s) = 6.58425 6.12646 6.35948
#
# Compressibility (1/GPa) = 0.04400305
#
# Stress axis : x y z
#
# Youngs Moduli (GPa) = 29.64304 74.49084 80.06537
#
# Poissons Ratio (x) = 0.40602 -0.13145
# Poissons Ratio (y) = 0.16157 0.32139
# Poissons Ratio (z) = -0.04867 0.29901
#
# Static dielectric constant tensor:
#      x y z
#    x 3.228760 0.000000 -0.232960 
#    y 0.000000 3.365080 0.000000 
#    z -0.232960 0.000000 3.493310 
# 
# 
# High freq. dielectric constant tensor:
#      x y z
#    x 1.699410 0.000000 -0.014360 
#    y 0.000000 1.686580 0.000000 
#    z -0.014360 0.000000 1.704920 
# 
# From -- ./inp_files/88854.got.cif
#   From: 2010.06.25/outbox.cif.g09.slc.cpg/sg10_45_cif.got.tgz:88854.got - 2010.06.27 22:07:45.
