data_PCOD8060936
_publ_section_title
;
Structure prediction by ZEFSAII (Michael W. Deem and Ramdas Pophale) SiO2 
 PCOD8060936
Probable space group: P 2/M
;
_chemical_formula_sum "Si O2"
_cell_formula_units_Z 30
_cell_length_a 8.980250
_cell_length_b 33.144807
_cell_length_c 5.256980
_cell_angle_alpha 90.000000
_cell_angle_beta 107.672636
_cell_angle_gamma 90.000000
_cell_volume 1490.887908
_symmetry_space_group_name_H-M "P 2/M"
_symmetry_group_IT_number 10
_symmetry_cell_setting 'monoclinic'
loop_
_space_group_symop_operation_xyz
x,y,z
-x,y,-z
-x,-y,-z
x,-y,z
loop_
_atom_site_type_symbol
_atom_site_label
_atom_site_fract_x
_atom_site_fract_y
_atom_site_fract_z
Si Si1 0.683700 0.293726 0.092131
Si Si2 0.837585 0.954839 0.061465
Si Si3 0.000000 0.897798 0.500000
Si Si4 0.896223 0.457398 0.196326
Si Si5 0.895074 0.630154 0.195406
Si Si6 0.603126 0.892730 0.803633
Si Si7 0.152269 0.166272 0.217092
Si Si8 0.684104 0.754298 0.590013
O O1 0.758797 0.337464 0.115013
O O2 0.737891 0.272580 0.380200
O O3 0.500000 0.300512 0.000000
O O4 0.737415 0.266762 0.880078
O O5 0.864307 0.926153 0.316561
O O6 0.787391 0.000000 0.117562
O O7 0.699799 0.934634 0.824101
O O8 0.000000 0.956204 0.000000
O O9 0.903542 0.870222 0.638675
O O10 0.795671 0.500000 0.143028
O O11 0.000000 0.458145 0.500000
O O12 0.807804 0.414105 0.153209
O O13 0.000000 0.457659 0.000000
O O14 0.000000 0.636329 0.500000
O O15 0.000000 0.635021 0.000000
O O16 0.500000 0.886326 0.500000
O O17 0.719792 0.854317 0.902135
O O18 0.500000 0.894575 0.000000
O O19 0.230384 0.203147 0.406758
O O20 0.000000 0.184078 0.000000
O O21 0.500000 0.762066 0.500000
#
# Coordination Sequence:
#
# PCOD8060936 Si02
#       8
#     4   4   2   4   4   4   4   4
#     4  10  22  41  58  80 119 158 192 234 298 365
#     4  11  24  44  70  96 129 171 206 247 295 353
#     4  12  21  46  68  96 128 158 206 248 295 362
#     4   8  14  25  43  71 106 142 183 235 294 345
#     4  10  19  32  54  82 111 147 195 248 290 341
#     4  12  26  45  69  98 135 166 203 250 296 355
#     4  12  26  43  68  95 122 162 205 249 304 355
#     4  10  24  42  62  88 117 154 197 241 295 356
#
# _framework density 20.122239
#
# number of rings (size 3 to 8) (size 9 to 14) (size 15 to 20)
#    0.000    1.467    2.667    2.200    1.867    3.733 
#    0.000    0.000    0.000    0.400    0.000    0.000 
#    0.000   13.867    0.000    0.000    0.000    2.133 
#
# Total GULP energy -371769.351337 kJ/mol
# GULP energy per Si atom -12392.311711 kJ/mol
# Density = 2.007644 g / cm^3
# Si number density = 20.122239 Si / 1000 Ang^3
#
#
#
# Elastic Constant Matrix: (Units=GPa)
#
#
# Indices 1 2 3 4 5 6 
#
# 1 66.9238 51.0160 33.3297 0.0000 -3.0474 0.0000
# 2 51.0160 181.5475 40.4245 0.0000 5.4033 0.0000
# 3 33.3297 40.4245 109.9555 0.0000 -17.3568 0.0000
# 4 0.0000 0.0000 0.0000 38.6087 0.0000 14.6144
# 5 -3.0474 5.4033 -17.3568 0.0000 26.8694 0.0000
# 6 0.0000 0.0000 0.0000 14.6144 0.0000 -53.6958
#
#
#
# Elastic Compliance Matrix: (Units=1/GPa)
#
#
# Indices 1 2 3 4 5 6 
#
# 1 0.020923 -0.004899 -0.004466 0.000000 0.000473 0.000000
# 2 -0.004899 0.007361 -0.001718 0.000000 -0.003145 0.000000
# 3 -0.004466 -0.001718 0.012310 0.000000 0.007791 0.000000
# 4 0.000000 0.000000 0.000000 0.023482 0.000000 0.006391
# 5 0.000473 -0.003145 0.007791 0.000000 0.042936 0.000000
# 6 0.000000 0.000000 0.000000 0.006391 0.000000 -0.016884
#
#
# Mechanical properties :
#
#
# Convention : Reuss Voigt Hill
#
# Bulk Modulus (GPa) = 54.26754 67.55192 60.90973
# Shear Modulus (GPa) = 42.21704 17.93355 30.07529
#
# Velocity S-wave (km/s) = 4.58539 2.98859 3.87024
# Velocity P-wave (km/s) = 7.42037 6.74926 7.09276
#
# Compressibility (1/GPa) = 0.01842722
#
# Stress axis : x y z
#
# Youngs Moduli (GPa) = 47.79484 135.85193 81.23668
#
# Poissons Ratio (x) = 0.66554 0.36283
# Poissons Ratio (y) = 0.23415 0.13954
# Poissons Ratio (z) = 0.21347 0.23336
#
# Static dielectric constant tensor:
#      x y z
#    x -4.397180 0.000000 7.716990 
#    y 0.000000 4.224280 0.000000 
#    z 7.716990 0.000000 -3.443180 
# 
# 
# High freq. dielectric constant tensor:
#      x y z
#    x 1.759340 0.000000 -0.013180 
#    y 0.000000 1.805760 0.000000 
#    z -0.013180 0.000000 1.793810 
# 
# From -- ./inp_files/5544.got.cif
#   From: 2010.06.25/outbox.cif.g09.slc.cpg/sg10_3_cif.got.tgz:5544.got - 2010.06.27 22:07:45.
