data_PCOD8060307
_publ_section_title
;
Structure prediction by ZEFSAII (Michael W. Deem and Ramdas Pophale) SiO2 
 PCOD8060307
Probable space group: P 2/M
;
_chemical_formula_sum "Si O2"
_cell_formula_units_Z 32
_cell_length_a 25.080778
_cell_length_b 9.018792
_cell_length_c 16.452579
_cell_angle_alpha 90.000000
_cell_angle_beta 26.829007
_cell_angle_gamma 90.000000
_cell_volume 1679.642890
_symmetry_space_group_name_H-M "P 2/M"
_symmetry_group_IT_number 10
_symmetry_cell_setting 'monoclinic'
loop_
_space_group_symop_operation_xyz
x,y,z
-x,y,-z
-x,-y,-z
x,-y,z
loop_
_atom_site_type_symbol
_atom_site_label
_atom_site_fract_x
_atom_site_fract_y
_atom_site_fract_z
Si Si1 0.962463 0.176597 0.841019
Si Si2 0.619675 0.674890 0.879561
Si Si3 0.399339 0.325375 0.909944
Si Si4 0.623919 0.837913 0.304934
Si Si5 0.229350 0.825936 0.453655
Si Si6 0.782119 0.328904 0.975853
Si Si7 0.194942 0.839846 0.803301
Si Si8 0.643773 0.176651 0.555532
O O1 0.896311 0.235315 0.849436
O O2 0.097251 0.227671 0.654305
O O3 0.945166 0.000000 0.864709
O O4 0.906466 0.240877 0.002824
O O5 0.633529 0.500000 0.854251
O O6 0.730734 0.747512 0.683297
O O7 0.500000 0.730914 0.000000
O O8 0.618794 0.729594 0.973436
O O9 0.424590 0.500000 0.870828
O O10 0.514315 0.245320 0.714525
O O11 0.275123 0.286083 0.033760
O O12 0.500000 0.773818 0.500000
O O13 0.695381 0.866011 0.288465
O O14 0.614650 0.000000 0.272457
O O15 0.676452 0.706433 0.180498
O O16 0.316559 0.778962 0.407711
O O17 0.230865 0.000000 0.436803
O O18 0.818223 0.500000 0.929951
O O19 0.252405 0.758215 0.646070
O O20 0.143941 0.000000 0.843603
O O21 0.635973 0.000000 0.554364
#
# Coordination Sequence:
#
# PCOD8060307 Si02
#       8
#     4   4   4   4   4   4   4   4
#     4   9  19  37  55  73 106 146 180 211 253 309
#     4  10  20  37  59  78 102 139 173 204 261 330
#     4  10  21  36  53  78 108 136 170 215 265 316
#     4   9  16  28  47  70 100 138 178 213 255 311
#     4  10  21  35  55  83 108 133 171 223 266 302
#     4  10  20  33  51  75 103 135 176 222 260 299
#     4   8  15  28  47  72 102 138 174 207 245 301
#     4  10  19  31  52  82 109 135 173 216 262 308
#
# _framework density 19.051669
#
# number of rings (size 3 to 8) (size 9 to 14) (size 15 to 20)
#    0.000    2.500    1.250    1.875    0.000    4.000 
#    0.000    6.875    0.000    3.750    0.000    5.250 
#    0.000    0.000    0.000    0.000    0.000    0.000 
#
# Total GULP energy -396427.441169 kJ/mol
# GULP energy per Si atom -12388.357537 kJ/mol
# Density = 1.900831 g / cm^3
# Si number density = 19.051669 Si / 1000 Ang^3
#
#
#
# Elastic Constant Matrix: (Units=GPa)
#
#
# Indices 1 2 3 4 5 6 
#
# 1 61.0431 21.5833 21.0893 0.0000 18.0254 0.0000
# 2 21.5833 27.3929 21.1069 0.0000 0.5624 0.0000
# 3 21.0893 21.1069 109.4057 0.0000 6.8831 0.0000
# 4 0.0000 0.0000 0.0000 21.1094 0.0000 -0.6122
# 5 18.0254 0.5624 6.8831 0.0000 26.0761 0.0000
# 6 0.0000 0.0000 0.0000 -0.6122 0.0000 24.1507
#
#
#
# Elastic Compliance Matrix: (Units=1/GPa)
#
#
# Indices 1 2 3 4 5 6 
#
# 1 0.031078 -0.024029 -0.000037 0.000000 -0.020955 0.000000
# 2 -0.024029 0.061500 -0.008333 0.000000 0.017483 0.000000
# 3 -0.000037 -0.008333 0.010923 0.000000 -0.002678 0.000000
# 4 0.000000 0.000000 0.000000 0.047407 0.000000 0.001202
# 5 -0.020955 0.017483 -0.002678 0.000000 0.053165 0.000000
# 6 0.000000 0.000000 0.000000 0.001202 0.000000 0.041437
#
#
# Mechanical properties :
#
#
# Convention : Reuss Voigt Hill
#
# Bulk Modulus (GPa) = 25.83612 36.15564 30.99588
# Shear Modulus (GPa) = 15.46988 23.20473 19.33730
#
# Velocity S-wave (km/s) = 2.85265 3.49376 3.18935
# Velocity P-wave (km/s) = 4.94375 5.94087 5.46510
#
# Compressibility (1/GPa) = 0.03870551
#
# Stress axis : x y z
#
# Youngs Moduli (GPa) = 32.17682 16.26014 91.54593
#
# Poissons Ratio (x) = 0.39071 0.00336
# Poissons Ratio (y) = 0.77316 0.76285
# Poissons Ratio (z) = 0.00118 0.13549
#
# Static dielectric constant tensor:
#      x y z
#    x 3.604100 0.000000 -0.004150 
#    y 0.000000 3.182160 0.000000 
#    z -0.004150 0.000000 3.460300 
# 
# 
# High freq. dielectric constant tensor:
#      x y z
#    x 1.741570 0.000000 -0.001080 
#    y 0.000000 1.708370 0.000000 
#    z -0.001080 0.000000 1.737010 
# 
# From -- ./inp_files/71554.got.cif
#   From: 2010.06.25/outbox.cif.g09.slc.cpg/sg10_36_cif.got.tgz:71554.got - 2010.06.27 22:07:45.
