data_PCOD8060879
_publ_section_title
;
Structure prediction by ZEFSAII (Michael W. Deem and Ramdas Pophale) SiO2 
 PCOD8060879
Probable space group: P 2/M
;
_chemical_formula_sum "Si O2"
_cell_formula_units_Z 28
_cell_length_a 16.836919
_cell_length_b 8.736563
_cell_length_c 21.467010
_cell_angle_alpha 90.000000
_cell_angle_beta 26.908672
_cell_angle_gamma 90.000000
_cell_volume 1429.092207
_symmetry_space_group_name_H-M "P 2/M"
_symmetry_group_IT_number 10
_symmetry_cell_setting 'monoclinic'
loop_
_space_group_symop_operation_xyz
x,y,z
-x,y,-z
-x,-y,-z
x,-y,z
loop_
_atom_site_type_symbol
_atom_site_label
_atom_site_fract_x
_atom_site_fract_y
_atom_site_fract_z
Si Si1 0.634833 0.179479 0.544390
Si Si2 0.635487 0.672347 0.349002
Si Si3 0.758019 0.680033 0.941126
Si Si4 0.101870 0.820187 0.749021
Si Si5 0.390736 0.820380 0.206604
Si Si6 0.189169 0.678903 0.238097
Si Si7 0.204520 0.679195 0.449808
O O1 0.444370 0.228077 0.651530
O O2 0.786665 0.228295 0.389756
O O3 0.664512 0.270110 0.587335
O O4 0.636771 0.000000 0.556631
O O5 0.500000 0.676195 0.500000
O O6 0.669034 0.500000 0.302203
O O7 0.817717 0.744744 0.244975
O O8 0.779463 0.500000 0.934523
O O9 0.779683 0.729490 0.854383
O O10 0.904517 0.762277 0.880062
O O11 0.570771 0.734397 0.097175
O O12 0.106639 0.000000 0.755157
O O13 0.325439 0.774037 0.183880
O O14 0.245892 0.769447 0.357839
O O15 0.422579 0.000000 0.187352
O O16 0.227361 0.500000 0.221447
O O17 0.992337 0.723193 0.394006
O O18 0.225677 0.500000 0.422561
#
# Coordination Sequence:
#
# PCOD8060879 Si02
#       7
#     4   4   4   4   4   4   4
#     4  10  19  32  53  83 117 148 184 233 287 334
#     4   9  17  29  49  78 113 150 189 230 275 330
#     4  11  22  39  61  84 113 151 193 235 282 340
#     4  10  19  32  53  83 117 148 184 233 287 334
#     4  12  26  40  56  83 116 151 190 236 290 340
#     4  10  22  40  62  85 110 145 192 240 285 338
#     4  11  22  39  61  84 113 151 193 235 282 340
#
# _framework density 19.592859000000001
#
# number of rings (size 3 to 8) (size 9 to 14) (size 15 to 20)
#    0.000    1.571    1.429    4.286    0.000    8.571 
#    0.000    0.000    0.000    0.857    0.000    6.000 
#    0.000    0.000    0.000    0.000    0.000    0.000 
#
# Total GULP energy -347373.428061 kJ/mol
# GULP energy per Si atom -12406.193859 kJ/mol
# Density = 1.954827 g / cm^3
# Si number density = 19.592859 Si / 1000 Ang^3
#
#
#
# Elastic Constant Matrix: (Units=GPa)
#
#
# Indices 1 2 3 4 5 6 
#
# 1 68.6092 16.2968 15.4303 0.0000 -30.2147 0.0000
# 2 16.2968 51.5390 12.9455 0.0000 -4.9046 0.0000
# 3 15.4303 12.9455 59.5805 0.0000 -8.7656 0.0000
# 4 0.0000 0.0000 0.0000 26.8529 0.0000 -8.5082
# 5 -30.2147 -4.9046 -8.7656 0.0000 25.9657 0.0000
# 6 0.0000 0.0000 0.0000 -8.5082 0.0000 31.3876
#
#
#
# Elastic Compliance Matrix: (Units=1/GPa)
#
#
# Indices 1 2 3 4 5 6 
#
# 1 0.032173 -0.006351 -0.001706 0.000000 0.035662 0.000000
# 2 -0.006351 0.021931 -0.003786 0.000000 -0.004526 0.000000
# 3 -0.001706 -0.003786 0.018574 0.000000 0.003570 0.000000
# 4 0.000000 0.000000 0.000000 0.040739 0.000000 0.011043
# 5 0.035662 -0.004526 0.003570 0.000000 0.080360 0.000000
# 6 0.000000 0.000000 0.000000 0.011043 0.000000 0.034853
#
#
# Mechanical properties :
#
#
# Convention : Reuss Voigt Hill
#
# Bulk Modulus (GPa) = 20.41149 29.89707 25.15428
# Shear Modulus (GPa) = 18.61185 25.84498 22.22841
#
# Velocity S-wave (km/s) = 3.08544 3.63588 3.37191
# Velocity P-wave (km/s) = 4.80975 5.73746 5.29397
#
# Compressibility (1/GPa) = 0.04899201
#
# Stress axis : x y z
#
# Youngs Moduli (GPa) = 31.08241 45.59691 53.83964
#
# Poissons Ratio (x) = 0.28958 0.09183
# Poissons Ratio (y) = 0.19740 0.20385
# Poissons Ratio (z) = 0.05301 0.17264
#
# Static dielectric constant tensor:
#      x y z
#    x 3.615900 0.000000 -0.173430 
#    y 0.000000 3.563780 0.000000 
#    z -0.173430 0.000000 3.408810 
# 
# 
# High freq. dielectric constant tensor:
#      x y z
#    x 1.767050 0.000000 -0.021330 
#    y 0.000000 1.772210 0.000000 
#    z -0.021330 0.000000 1.739690 
# 
# From -- ./inp_files/70279.got.cif
#   From: 2010.06.25/outbox.cif.g09.slc.cpg/sg10_36_cif.got.tgz:70279.got - 2010.06.27 22:07:45.
