data_PCOD8060018
_publ_section_title
;
Structure prediction by ZEFSAII (Michael W. Deem and Ramdas Pophale) SiO2 
 PCOD8060018
Probable space group: P 2/M
;
_chemical_formula_sum "Si O2"
_cell_formula_units_Z 32
_cell_length_a 10.595003
_cell_length_b 9.032461
_cell_length_c 21.661967
_cell_angle_alpha 90.000000
_cell_angle_beta 51.367756
_cell_angle_gamma 90.000000
_cell_volume 1619.385362
_symmetry_space_group_name_H-M "P 2/M"
_symmetry_group_IT_number 10
_symmetry_cell_setting 'monoclinic'
loop_
_space_group_symop_operation_xyz
x,y,z
-x,y,-z
-x,-y,-z
x,-y,z
loop_
_atom_site_type_symbol
_atom_site_label
_atom_site_fract_x
_atom_site_fract_y
_atom_site_fract_z
Si Si1 0.373460 0.825128 0.623371
Si Si2 0.732901 0.325356 0.226153
Si Si3 0.390056 0.673604 0.283499
Si Si4 0.807680 0.323370 0.768473
Si Si5 0.142484 0.329148 0.609587
Si Si6 0.039962 0.324614 0.055267
Si Si7 0.315686 0.676555 0.061776
Si Si8 0.305460 0.329874 0.441005
O O1 0.261256 0.760601 0.711723
O O2 0.294890 0.766710 0.584526
O O3 0.554870 0.769026 0.572533
O O4 0.372839 0.000000 0.624739
O O5 0.731287 0.500000 0.239549
O O6 0.574967 0.275405 0.235770
O O7 0.891818 0.274569 0.142448
O O8 0.381547 0.500000 0.276637
O O9 0.320825 0.743707 0.241578
O O10 0.280679 0.718821 0.376906
O O11 0.805861 0.500000 0.769825
O O12 0.764066 0.263244 0.850053
O O13 0.980377 0.266565 0.690625
O O14 0.166691 0.500000 0.620811
O O15 0.145395 0.313315 0.533091
O O16 0.051006 0.500000 0.045914
O O17 0.206888 0.267574 0.036597
O O18 0.000000 0.255956 0.000000
O O19 0.316811 0.500000 0.062555
O O20 0.500000 0.736337 0.000000
O O21 0.366475 0.500000 0.422271
#
# Coordination Sequence:
#
# PCOD8060018 Si02
#       8
#     4   4   4   4   4   4   4   4
#     4  11  21  32  49  72  98 130 169 210 252 299
#     4   9  17  31  51  72 101 132 167 211 255 303
#     4   8  15  27  45  69  95 128 165 203 246 296
#     4   9  17  28  45  69  98 132 167 202 248 300
#     4  10  19  31  49  70  98 132 164 204 253 305
#     4   9  17  27  44  72 102 134 169 207 256 308
#     4   9  17  26  38  62 102 139 165 200 251 305
#     4   9  18  32  49  72  98 127 164 205 253 304
#
# _framework density 19.760583
#
# number of rings (size 3 to 8) (size 9 to 14) (size 15 to 20)
#    0.000    2.750    0.000    3.000    1.750    4.500 
#    0.000    2.500    0.000    3.375    0.000    4.375 
#    0.000    2.500    0.000    0.000    0.000    0.000 
#
# Total GULP energy -396476.960013 kJ/mol
# GULP energy per Si atom -12389.905000 kJ/mol
# Density = 1.971561 g / cm^3
# Si number density = 19.760583 Si / 1000 Ang^3
#
#
#
# Elastic Constant Matrix: (Units=GPa)
#
#
# Indices 1 2 3 4 5 6 
#
# 1 106.5767 4.6851 59.0250 0.0000 16.6407 0.0000
# 2 4.6851 34.5395 11.5137 0.0000 -0.2933 0.0000
# 3 59.0250 11.5137 142.4241 0.0000 2.1799 0.0000
# 4 0.0000 0.0000 0.0000 3.1418 0.0000 -1.7619
# 5 16.6407 -0.2933 2.1799 0.0000 30.2856 0.0000
# 6 0.0000 0.0000 0.0000 -1.7619 0.0000 0.8362
#
#
#
# Elastic Compliance Matrix: (Units=1/GPa)
#
#
# Indices 1 2 3 4 5 6 
#
# 1 0.013527 -0.000063 -0.005493 0.000000 -0.007038 0.000000
# 2 -0.000063 0.029761 -0.002387 0.000000 0.000495 0.000000
# 3 -0.005493 -0.002387 0.009455 0.000000 0.002314 0.000000
# 4 0.000000 0.000000 0.000000 -1.753801 0.000000 -3.695020
# 5 -0.007038 0.000495 0.002314 0.000000 0.036724 0.000000
# 6 0.000000 0.000000 0.000000 -3.695020 0.000000 -6.589081
#
#
# Mechanical properties :
#
#
# Convention : Reuss Voigt Hill
#
# Bulk Modulus (GPa) = 27.13290 48.22087 37.67688
# Shear Modulus (GPa) = -0.60788 20.74049 10.06630
#
# Velocity S-wave (km/s) = -0.55524 3.24325 2.25947
# Velocity P-wave (km/s) = 3.65371 6.20326 5.09068
#
# Compressibility (1/GPa) = 0.03685562
#
# Stress axis : x y z
#
# Youngs Moduli (GPa) = 73.92764 33.60105 105.76043
#
# Poissons Ratio (x) = 0.00213 0.58095
# Poissons Ratio (y) = 0.00469 0.25247
# Poissons Ratio (z) = 0.40609 0.08021
#
# Static dielectric constant tensor:
#      x y z
#    x 3.867630 0.000000 0.211250 
#    y 0.000000 2.857270 0.000000 
#    z 0.211250 0.000000 3.924030 
# 
# 
# High freq. dielectric constant tensor:
#      x y z
#    x 1.771040 0.000000 0.007570 
#    y 0.000000 1.687860 0.000000 
#    z 0.007570 0.000000 1.786900 
# 
# From -- ./inp_files/83581.got.cif
#   From: 2010.06.25/outbox.cif.g09.slc.cpg/sg10_42_cif.got.tgz:83581.got - 2010.06.27 22:07:45.
