data_PCOD8060586
_publ_section_title
;
Structure prediction by ZEFSAII (Michael W. Deem and Ramdas Pophale) SiO2 
 PCOD8060586
Probable space group: P 2/M
;
_chemical_formula_sum "Si O2"
_cell_formula_units_Z 32
_cell_length_a 11.415636
_cell_length_b 9.300198
_cell_length_c 28.748775
_cell_angle_alpha 90.000000
_cell_angle_beta 34.242334
_cell_angle_gamma 90.000000
_cell_volume 1717.450339
_symmetry_space_group_name_H-M "P 2/M"
_symmetry_group_IT_number 10
_symmetry_cell_setting 'monoclinic'
loop_
_space_group_symop_operation_xyz
x,y,z
-x,y,-z
-x,-y,-z
x,-y,z
loop_
_atom_site_type_symbol
_atom_site_label
_atom_site_fract_x
_atom_site_fract_y
_atom_site_fract_z
Si Si1 0.769746 0.336098 0.077589
Si Si2 0.211392 0.670260 0.556155
Si Si3 0.666022 0.669841 0.382859
Si Si4 0.288045 0.168165 0.094950
Si Si5 0.123581 0.329451 0.779395
Si Si6 0.194702 0.169352 0.324402
Si Si7 0.407365 0.833663 0.158684
Si Si8 0.440429 0.336090 0.755073
O O1 0.771490 0.500000 0.059703
O O2 0.624047 0.250580 0.089967
O O3 0.694603 0.321115 0.154610
O O4 0.000000 0.269408 0.000000
O O5 0.168608 0.500000 0.567242
O O6 0.423159 0.714638 0.460009
O O7 0.229738 0.723677 0.603605
O O8 0.025551 0.756480 0.592823
O O9 0.674560 0.500000 0.379614
O O10 0.792781 0.731186 0.297439
O O11 0.296505 0.206645 0.146878
O O12 0.094840 0.254482 0.136550
O O13 0.250054 0.000000 0.099048
O O14 0.500000 0.217736 0.000000
O O15 0.088345 0.500000 0.790820
O O16 0.296120 0.284160 0.760278
O O17 0.259854 0.209729 0.250186
O O18 0.359182 0.233327 0.307232
O O19 0.177834 0.000000 0.337741
O O20 0.465545 0.000000 0.141556
O O21 0.516305 0.500000 0.722758
#
# Coordination Sequence:
#
# PCOD8060586 Si02
#       8
#     4   4   4   4   4   4   4   4
#     4   9  18  31  49  71  95 122 159 209 255 288
#     4   9  16  30  54  78 104 132 163 202 249 300
#     4   8  16  31  52  80 105 131 164 202 249 301
#     4  10  22  37  51  72 103 136 166 200 248 304
#     4  10  20  35  55  76 101 130 168 210 248 295
#     4  10  19  32  51  75 101 130 169 212 248 288
#     4   9  19  34  49  69  97 129 165 201 241 293
#     4   9  19  34  50  71  98 132 168 205 252 301
#
# _framework density 18.632272
#
# number of rings (size 3 to 8) (size 9 to 14) (size 15 to 20)
#    0.000    2.750    0.000    1.875    1.750    2.000 
#    0.000    2.500    0.000    3.750    0.000    0.000 
#    0.000    0.000    0.000    0.000    0.000    0.000 
#
# Total GULP energy -396799.480226 kJ/mol
# GULP energy per Si atom -12399.983757 kJ/mol
# Density = 1.858986 g / cm^3
# Si number density = 18.632272 Si / 1000 Ang^3
#
#
#
# Elastic Constant Matrix: (Units=GPa)
#
#
# Indices 1 2 3 4 5 6 
#
# 1 96.6662 40.3879 46.1135 0.0000 -21.0840 0.0000
# 2 40.3879 55.9389 37.8224 0.0000 -19.3719 0.0000
# 3 46.1135 37.8224 94.2189 0.0000 -27.7144 0.0000
# 4 0.0000 0.0000 0.0000 16.2474 0.0000 -0.0561
# 5 -21.0840 -19.3719 -27.7144 0.0000 34.4446 0.0000
# 6 0.0000 0.0000 0.0000 -0.0561 0.0000 20.3229
#
#
#
# Elastic Compliance Matrix: (Units=1/GPa)
#
#
# Indices 1 2 3 4 5 6 
#
# 1 0.016138 -0.008252 -0.003989 0.000000 0.002027 0.000000
# 2 -0.008252 0.030419 -0.006060 0.000000 0.007180 0.000000
# 3 -0.003989 -0.006060 0.017395 0.000000 0.008146 0.000000
# 4 0.000000 0.000000 0.000000 0.061549 0.000000 0.000170
# 5 0.002027 0.007180 0.008146 0.000000 0.040866 0.000000
# 6 0.000000 0.000000 0.000000 0.000170 0.000000 0.049206
#
#
# Mechanical properties :
#
#
# Convention : Reuss Voigt Hill
#
# Bulk Modulus (GPa) = 36.56514 55.05240 45.80877
# Shear Modulus (GPa) = 19.13569 22.36965 20.75267
#
# Velocity S-wave (km/s) = 3.20819 3.46871 3.34099
# Velocity P-wave (km/s) = 5.77845 6.75674 6.28665
#
# Compressibility (1/GPa) = 0.02734845
#
# Stress axis : x y z
#
# Youngs Moduli (GPa) = 61.96555 32.87439 57.48803
#
# Poissons Ratio (x) = 0.27129 0.22934
# Poissons Ratio (y) = 0.51135 0.34838
# Poissons Ratio (z) = 0.24721 0.19922
#
# Static dielectric constant tensor:
#      x y z
#    x 3.474240 0.000000 0.036220 
#    y 0.000000 3.197460 0.000000 
#    z 0.036220 0.000000 3.517200 
# 
# 
# High freq. dielectric constant tensor:
#      x y z
#    x 1.720670 0.000000 -0.011430 
#    y 0.000000 1.701800 0.000000 
#    z -0.011430 0.000000 1.721880 
# 
# From -- ./inp_files/94958.got.cif
#   From: 2010.06.25/outbox.cif.g09.slc.cpg/sg10_48_cif.got.tgz:94958.got - 2010.06.27 22:07:45.
