data_PCOD8060014
_publ_section_title
;
Structure prediction by ZEFSAII (Michael W. Deem and Ramdas Pophale) SiO2 
 PCOD8060014
Probable space group: P 2/M
;
_chemical_formula_sum "Si O2"
_cell_formula_units_Z 32
_cell_length_a 30.134011
_cell_length_b 13.241840
_cell_length_c 9.622129
_cell_angle_alpha 90.000000
_cell_angle_beta 29.842611
_cell_angle_gamma 90.000000
_cell_volume 1910.616690
_symmetry_space_group_name_H-M "P 2/M"
_symmetry_group_IT_number 10
_symmetry_cell_setting 'monoclinic'
loop_
_space_group_symop_operation_xyz
x,y,z
-x,y,-z
-x,-y,-z
x,-y,z
loop_
_atom_site_type_symbol
_atom_site_label
_atom_site_fract_x
_atom_site_fract_y
_atom_site_fract_z
Si Si1 0.980530 0.386343 0.203427
Si Si2 0.201577 0.704419 0.286828
Si Si3 0.926512 0.112448 0.309537
Si Si4 0.052606 0.111781 0.224511
Si Si5 0.866889 0.308537 0.045583
Si Si6 0.748632 0.381561 0.129824
Si Si7 0.598312 0.380458 0.751921
Si Si8 0.725125 0.380372 0.645949
O O1 0.014823 0.500000 0.110187
O O2 0.875226 0.380081 0.514186
O O3 0.000000 0.336244 0.000000
O O4 0.029931 0.331035 0.196852
O O5 0.158439 0.813282 0.441268
O O6 0.274112 0.675636 0.207722
O O7 0.250249 0.694094 0.005341
O O8 0.977096 0.107129 0.315158
O O9 0.891605 0.000000 0.361414
O O10 0.000000 0.152454 0.000000
O O11 0.000000 0.153207 0.500000
O O12 0.093760 0.000000 0.136855
O O13 0.135489 0.186833 0.966849
O O14 0.835401 0.365187 0.991649
O O15 0.812420 0.345648 0.326376
O O16 0.743184 0.500000 0.102279
O O17 0.662467 0.345885 0.452381
O O18 0.592628 0.500000 0.764757
O O19 0.638494 0.346591 0.792132
O O20 0.500000 0.332258 0.000000
O O21 0.727420 0.500000 0.662060
#
# Coordination Sequence:
#
# PCOD8060014 Si02
#       8
#     4   4   4   4   4   4   4   4
#     4  11  20  28  42  62  92 134 168 190 218 276
#     4  12  20  31  45  68 101 126 157 200 245 269
#     4  10  20  34  49  64  86 127 176 211 237 268
#     4  10  20  33  45  59  82 119 167 213 249 269
#     4  11  19  31  46  62  89 126 170 198 230 274
#     4  10  21  32  46  71 101 125 153 199 241 281
#     4   8  16  34  55  71  92 126 158 183 226 291
#     4  10  19  31  49  70  96 126 154 189 231 281
#
# _framework density 16.748519000000002
#
# number of rings (size 3 to 8) (size 9 to 14) (size 15 to 20)
#    0.000    1.750    2.500    4.875    0.000    0.000 
#    0.000    1.875    0.000    3.000    0.000    0.000 
#    0.000   19.000    0.000    0.000    0.000    0.000 
#
# Total GULP energy -396584.100492 kJ/mol
# GULP energy per Si atom -12393.253140 kJ/mol
# Density = 1.671040 g / cm^3
# Si number density = 16.748519 Si / 1000 Ang^3
#
#
#
# Elastic Constant Matrix: (Units=GPa)
#
#
# Indices 1 2 3 4 5 6 
#
# 1 112.2801 23.3396 54.4578 0.0000 8.8069 0.0000
# 2 23.3396 89.9444 24.6183 0.0000 1.2974 0.0000
# 3 54.4578 24.6183 66.8102 0.0000 3.9330 0.0000
# 4 0.0000 0.0000 0.0000 13.4796 0.0000 4.2193
# 5 8.8069 1.2974 3.9330 0.0000 28.7691 0.0000
# 6 0.0000 0.0000 0.0000 4.2193 0.0000 16.3177
#
#
#
# Elastic Compliance Matrix: (Units=1/GPa)
#
#
# Indices 1 2 3 4 5 6 
#
# 1 0.015002 -0.000613 -0.011829 0.000000 -0.002948 0.000000
# 2 -0.000613 0.012390 -0.004077 0.000000 0.000186 0.000000
# 3 -0.011829 -0.004077 0.026098 0.000000 0.000237 0.000000
# 4 0.000000 0.000000 0.000000 0.080719 0.000000 -0.020872
# 5 -0.002948 0.000186 0.000237 0.000000 0.035621 0.000000
# 6 0.000000 0.000000 0.000000 -0.020872 0.000000 0.066680
#
#
# Mechanical properties :
#
#
# Convention : Reuss Voigt Hill
#
# Bulk Modulus (GPa) = 48.89327 52.65181 50.77254
# Shear Modulus (GPa) = 18.09189 22.82121 20.45655
#
# Velocity S-wave (km/s) = 3.29022 3.69532 3.49864
# Velocity P-wave (km/s) = 6.60984 7.05068 6.83382
#
# Compressibility (1/GPa) = 0.02045271
#
# Stress axis : x y z
#
# Youngs Moduli (GPa) = 66.65666 80.70891 38.31668
#
# Poissons Ratio (x) = 0.04945 0.45326
# Poissons Ratio (y) = 0.04084 0.15622
# Poissons Ratio (z) = 0.78850 0.32906
#
# Static dielectric constant tensor:
#      x y z
#    x 3.303300 0.000000 0.111090 
#    y 0.000000 3.243660 0.000000 
#    z 0.111090 0.000000 3.088560 
# 
# 
# High freq. dielectric constant tensor:
#      x y z
#    x 1.650090 0.000000 0.026660 
#    y 0.000000 1.631920 0.000000 
#    z 0.026660 0.000000 1.608970 
# 
# From -- ./inp_files/38285.got.cif
#   From: 2010.06.25/outbox.cif.g09.slc.cpg/sg10_20_cif.got.tgz:38285.got - 2010.06.27 22:07:45.
