data_PCOD8060553
_publ_section_title
;
Structure prediction by ZEFSAII (Michael W. Deem and Ramdas Pophale) SiO2 
 PCOD8060553
Probable space group: P 2/M
;
_chemical_formula_sum "Si O2"
_cell_formula_units_Z 32
_cell_length_a 20.653587
_cell_length_b 9.223893
_cell_length_c 14.289800
_cell_angle_alpha 90.000000
_cell_angle_beta 136.582577
_cell_angle_gamma 90.000000
_cell_volume 1871.059339
_symmetry_space_group_name_H-M "P 2/M"
_symmetry_group_IT_number 10
_symmetry_cell_setting 'monoclinic'
loop_
_space_group_symop_operation_xyz
x,y,z
-x,y,-z
-x,-y,-z
x,-y,z
loop_
_atom_site_type_symbol
_atom_site_label
_atom_site_fract_x
_atom_site_fract_y
_atom_site_fract_z
Si Si1 0.632328 0.169616 0.909959
Si Si2 0.287624 0.834015 0.621604
Si Si3 0.771602 0.167986 0.898659
Si Si4 0.603852 0.172843 0.085742
Si Si5 0.845446 0.669501 0.645858
Si Si6 0.014272 0.169404 0.908114
Si Si7 0.306636 0.330641 0.356951
Si Si8 0.441166 0.166081 0.624083
O O1 0.729030 0.202387 0.956449
O O2 0.543315 0.231007 0.758274
O O3 0.613525 0.000000 0.901154
O O4 0.637219 0.235126 0.019893
O O5 0.320709 0.775016 0.757571
O O6 0.200670 0.736595 0.495716
O O7 0.376493 0.818782 0.647076
O O8 0.252886 0.000000 0.589581
O O9 0.714902 0.263296 0.765670
O O10 0.758072 0.000000 0.856913
O O11 0.880982 0.209190 0.014963
O O12 0.600472 0.000000 0.084292
O O13 0.500000 0.234479 0.000000
O O14 0.859172 0.500000 0.644503
O O15 0.780346 0.705290 0.666373
O O16 0.946221 0.741900 0.768777
O O17 0.991334 0.000000 0.873582
O O18 0.000000 0.219800 0.000000
O O19 0.323407 0.500000 0.363391
O O20 0.401645 0.260463 0.497064
O O21 0.446640 0.000000 0.595701
#
# Coordination Sequence:
#
# PCOD8060553 Si02
#       8
#     4   4   4   4   4   4   4   4
#     4   9  17  29  47  73 101 127 159 197 239 284
#     4   9  16  27  49  76 100 125 155 193 237 285
#     4  10  20  33  49  70  97 128 160 199 242 285
#     4   9  14  25  48  78 103 123 154 198 241 279
#     4  10  20  32  49  72  98 125 158 202 244 284
#     4  10  19  32  51  72  94 123 161 203 244 286
#     4  10  20  32  46  67  97 131 164 197 234 282
#     4   9  16  28  47  70  97 129 161 192 229 281
#
# _framework density 17.102611
#
# number of rings (size 3 to 8) (size 9 to 14) (size 15 to 20)
#    0.000    2.500    2.500    0.750    0.000    2.250 
#    0.000    3.125    0.000    2.625    0.000    5.250 
#    0.000    0.000    0.000    0.000    0.000    0.000 
#
# Total GULP energy -396803.068444 kJ/mol
# GULP energy per Si atom -12400.095889 kJ/mol
# Density = 1.706368 g / cm^3
# Si number density = 17.102611 Si / 1000 Ang^3
#
#
#
# Elastic Constant Matrix: (Units=GPa)
#
#
# Indices 1 2 3 4 5 6 
#
# 1 94.5764 31.4072 67.4700 0.0000 -1.9916 0.0000
# 2 31.4072 49.1317 47.6911 0.0000 -2.9305 0.0000
# 3 67.4700 47.6911 145.1534 0.0000 -3.4530 0.0000
# 4 0.0000 0.0000 0.0000 1.1676 0.0000 0.5457
# 5 -1.9916 -2.9305 -3.4530 0.0000 24.4467 0.0000
# 6 0.0000 0.0000 0.0000 0.5457 0.0000 10.4672
#
#
#
# Elastic Compliance Matrix: (Units=1/GPa)
#
#
# Indices 1 2 3 4 5 6 
#
# 1 0.016484 -0.004556 -0.006167 0.000000 -0.000074 0.000000
# 2 -0.004556 0.031262 -0.008101 0.000000 0.002232 0.000000
# 3 -0.006167 -0.008101 0.012424 0.000000 0.000281 0.000000
# 4 0.000000 0.000000 0.000000 0.877834 0.000000 -0.045763
# 5 -0.000074 0.002232 0.000281 0.000000 0.041207 0.000000
# 6 0.000000 0.000000 0.000000 -0.045763 0.000000 0.097922
#
#
# Mechanical properties :
#
#
# Convention : Reuss Voigt Hill
#
# Bulk Modulus (GPa) = 44.39825 64.66646 54.53236
# Shear Modulus (GPa) = 4.45519 16.70253 10.57886
#
# Velocity S-wave (km/s) = 1.61574 3.12846 2.48977
# Velocity P-wave (km/s) = 5.43113 7.13741 6.34192
#
# Compressibility (1/GPa) = 0.02252341
#
# Stress axis : x y z
#
# Youngs Moduli (GPa) = 60.66343 31.98777 80.48847
#
# Poissons Ratio (x) = 0.14572 0.49639
# Poissons Ratio (y) = 0.27636 0.65201
# Poissons Ratio (z) = 0.37413 0.25912
#
# Static dielectric constant tensor:
#      x y z
#    x 3.089530 0.000000 -0.059790 
#    y 0.000000 2.918680 0.000000 
#    z -0.059790 0.000000 3.291920 
# 
# 
# High freq. dielectric constant tensor:
#      x y z
#    x 1.637930 0.000000 -0.001160 
#    y 0.000000 1.630440 0.000000 
#    z -0.001160 0.000000 1.665730 
# 
# From -- ./inp_files/66068.got.cif
#   From: 2010.06.25/outbox.cif.g09.slc.cpg/sg10_34_cif.got.tgz:66068.got - 2010.06.27 22:07:45.
