data_PCOD8060342
_publ_section_title
;
Structure prediction by ZEFSAII (Michael W. Deem and Ramdas Pophale) SiO2 
 PCOD8060342
Probable space group: P 2/M
;
_chemical_formula_sum "Si O2"
_cell_formula_units_Z 32
_cell_length_a 33.118838
_cell_length_b 8.886866
_cell_length_c 12.445981
_cell_angle_alpha 90.000000
_cell_angle_beta 28.324808
_cell_angle_gamma 90.000000
_cell_volume 1738.045174
_symmetry_space_group_name_H-M "P 2/M"
_symmetry_group_IT_number 10
_symmetry_cell_setting 'monoclinic'
loop_
_space_group_symop_operation_xyz
x,y,z
-x,y,-z
-x,-y,-z
x,-y,z
loop_
_atom_site_type_symbol
_atom_site_label
_atom_site_fract_x
_atom_site_fract_y
_atom_site_fract_z
Si Si1 0.682659 0.175184 0.687600
Si Si2 0.725175 0.326301 0.799923
Si Si3 0.848445 0.323684 0.700933
Si Si4 0.509799 0.174948 0.801242
Si Si5 0.803351 0.178565 0.029728
Si Si6 0.325591 0.322209 0.509743
Si Si7 0.534363 0.326004 0.304904
Si Si8 0.014921 0.834607 0.339298
O O1 0.735828 0.230711 0.666168
O O2 0.715092 0.262272 0.506006
O O3 0.699582 0.000000 0.631530
O O4 0.583437 0.212601 0.936147
O O5 0.735054 0.500000 0.745264
O O6 0.796759 0.275185 0.716344
O O7 0.634708 0.294828 0.067234
O O8 0.840960 0.500000 0.741098
O O9 0.947120 0.280686 0.447387
O O10 0.809717 0.237211 0.893200
O O11 0.576775 0.268368 0.714317
O O12 0.515396 0.224887 0.664406
O O13 0.532054 0.000000 0.760006
O O14 0.723262 0.254534 0.273829
O O15 0.791440 0.000000 0.053480
O O16 0.887732 0.222191 0.901742
O O17 0.319891 0.500000 0.526790
O O18 0.500000 0.274573 0.500000
O O19 0.513195 0.500000 0.330705
O O20 0.000000 0.848785 0.500000
O O21 0.002673 0.000000 0.315187
#
# Coordination Sequence:
#
# PCOD8060342 Si02
#       8
#     4   4   4   4   4   4   4   4
#     4  10  21  38  57  76 102 138 181 223 263 307
#     4   9  19  34  51  76 107 139 177 216 258 309
#     4  10  19  31  53  83 113 142 175 215 258 314
#     4  10  21  36  53  76 103 136 179 222 261 309
#     4  10  21  36  53  78 110 141 174 216 266 316
#     4  12  24  36  55  79 105 137 175 221 271 319
#     4   9  18  32  50  71 103 144 177 214 260 306
#     4   8  16  32  52  74 105 142 175 210 258 315
#
# _framework density 18.411487999999999
#
# number of rings (size 3 to 8) (size 9 to 14) (size 15 to 20)
#    0.000    2.250    0.000    3.750    1.750    7.000 
#    0.000    0.000    0.000    0.750    0.000    5.250 
#    0.000    0.000    0.000    0.000    0.000    0.000 
#
# Total GULP energy -396831.131796 kJ/mol
# GULP energy per Si atom -12400.972869 kJ/mol
# Density = 1.836958 g / cm^3
# Si number density = 18.411488 Si / 1000 Ang^3
#
#
#
# Elastic Constant Matrix: (Units=GPa)
#
#
# Indices 1 2 3 4 5 6 
#
# 1 116.1221 55.5729 31.3075 0.0000 -7.5830 0.0000
# 2 55.5729 99.9619 29.4654 0.0000 -2.6196 0.0000
# 3 31.3075 29.4654 36.2476 0.0000 -5.7912 0.0000
# 4 0.0000 0.0000 0.0000 21.6921 0.0000 -6.5254
# 5 -7.5830 -2.6196 -5.7912 0.0000 24.5035 0.0000
# 6 0.0000 0.0000 0.0000 -6.5254 0.0000 28.3372
#
#
#
# Elastic Compliance Matrix: (Units=1/GPa)
#
#
# Indices 1 2 3 4 5 6 
#
# 1 0.013046 -0.005222 -0.006721 0.000000 0.001891 0.000000
# 2 -0.005222 0.015279 -0.008217 0.000000 -0.001925 0.000000
# 3 -0.006721 -0.008217 0.041154 0.000000 0.006768 0.000000
# 4 0.000000 0.000000 0.000000 0.049531 0.000000 0.011406
# 5 0.001891 -0.001925 0.006768 0.000000 0.042789 0.000000
# 6 0.000000 0.000000 0.000000 0.011406 0.000000 0.037916
#
#
# Mechanical properties :
#
#
# Convention : Reuss Voigt Hill
#
# Bulk Modulus (GPa) = 34.29539 53.89146 44.09342
# Shear Modulus (GPa) = 20.01959 23.97227 21.99593
#
# Velocity S-wave (km/s) = 3.30107 3.61228 3.46017
# Velocity P-wave (km/s) = 5.76168 6.83609 6.32175
#
# Compressibility (1/GPa) = 0.02915844
#
# Stress axis : x y z
#
# Youngs Moduli (GPa) = 76.64934 65.45046 24.29906
#
# Poissons Ratio (x) = 0.34181 0.16332
# Poissons Ratio (y) = 0.40029 0.19966
# Poissons Ratio (z) = 0.51517 0.53780
#
# Static dielectric constant tensor:
#      x y z
#    x 3.438430 0.000000 -0.145740 
#    y 0.000000 3.390200 0.000000 
#    z -0.145740 0.000000 3.423390 
# 
# 
# High freq. dielectric constant tensor:
#      x y z
#    x 1.709070 0.000000 -0.004870 
#    y 0.000000 1.719610 0.000000 
#    z -0.004870 0.000000 1.694360 
# 
# From -- ./inp_files/58165.got.cif
#   From: 2010.06.25/outbox.cif.g09.slc.cpg/sg10_30_cif.got.tgz:58165.got - 2010.06.27 22:07:45.
