data_PCOD8060292
_publ_section_title
;
Structure prediction by ZEFSAII (Michael W. Deem and Ramdas Pophale) SiO2 
 PCOD8060292
Probable space group: P 2/M
;
_chemical_formula_sum "Si O2"
_cell_formula_units_Z 32
_cell_length_a 15.723055
_cell_length_b 13.298680
_cell_length_c 8.870376
_cell_angle_alpha 90.000000
_cell_angle_beta 82.053926
_cell_angle_gamma 90.000000
_cell_volume 1836.950799
_symmetry_space_group_name_H-M "P 2/M"
_symmetry_group_IT_number 10
_symmetry_cell_setting 'monoclinic'
loop_
_space_group_symop_operation_xyz
x,y,z
-x,y,-z
-x,-y,-z
x,-y,z
loop_
_atom_site_type_symbol
_atom_site_label
_atom_site_fract_x
_atom_site_fract_y
_atom_site_fract_z
Si Si1 0.643999 0.615211 0.703043
Si Si2 0.248184 0.229675 0.508771
Si Si3 0.911354 0.891985 0.944101
Si Si4 0.679522 0.610660 0.039649
Si Si5 0.911770 0.881293 0.600965
Si Si6 0.364586 0.881931 0.692893
Si Si7 0.479999 0.736887 0.833638
Si Si8 0.784810 0.231513 0.157444
O O1 0.629007 0.500000 0.647156
O O2 0.714665 0.672748 0.585020
O O3 0.557036 0.680176 0.729793
O O4 0.679933 0.609877 0.861040
O O5 0.176266 0.170988 0.431631
O O6 0.329545 0.158117 0.538120
O O7 0.199665 0.264793 0.673324
O O8 0.921555 0.851403 0.772698
O O9 0.861997 0.000000 0.951346
O O10 0.868403 0.811961 0.062288
O O11 0.000000 0.912693 0.000000
O O12 0.686911 0.500000 0.104742
O O13 0.595099 0.655973 0.136236
O O14 0.763059 0.670674 0.067533
O O15 0.000000 0.843276 0.500000
O O16 0.901209 0.000000 0.574752
O O17 0.452144 0.828528 0.730206
O O18 0.291110 0.852964 0.833574
O O19 0.381998 0.000000 0.680040
O O20 0.500000 0.775617 0.000000
#
# Coordination Sequence:
#
# PCOD8060292 Si02
#       8
#     4   4   4   4   4   4   4   4
#     4  10  20  35  55  77 107 139 181 231 280 324
#     4  10  21  34  51  77 110 145 177 219 271 324
#     4  10  19  31  52  80 106 138 179 219 263 314
#     4   9  17  33  55  77 101 137 179 226 274 319
#     4  10  20  34  55  82 112 144 178 219 265 320
#     4   9  19  34  51  72 106 149 180 216 266 315
#     4   9  18  34  54  79 106 138 182 229 271 316
#     4   9  19  32  51  73 104 140 175 222 256 319
#
# _framework density 17.420172999999998
#
# number of rings (size 3 to 8) (size 9 to 14) (size 15 to 20)
#    0.750    1.750    0.000    2.625    0.000    3.750 
#    0.000    2.500    0.000    1.500    0.000    0.000 
#    0.000    0.000    0.000    0.000    0.000    0.000 
#
# Total GULP energy -396424.146999 kJ/mol
# GULP energy per Si atom -12388.254594 kJ/mol
# Density = 1.738052 g / cm^3
# Si number density = 17.420173 Si / 1000 Ang^3
#
#
#
# Elastic Constant Matrix: (Units=GPa)
#
#
# Indices 1 2 3 4 5 6 
#
# 1 81.1160 47.6950 44.0433 0.0000 7.8537 0.0000
# 2 47.6950 113.5589 46.8183 0.0000 3.5330 0.0000
# 3 44.0433 46.8183 82.9216 0.0000 -9.0421 0.0000
# 4 0.0000 0.0000 0.0000 24.4769 0.0000 -0.7118
# 5 7.8537 3.5330 -9.0421 0.0000 29.6376 0.0000
# 6 0.0000 0.0000 0.0000 -0.7118 0.0000 24.0996
#
#
#
# Elastic Compliance Matrix: (Units=1/GPa)
#
#
# Indices 1 2 3 4 5 6 
#
# 1 0.020896 -0.004700 -0.009297 0.000000 -0.007813 0.000000
# 2 -0.004700 0.012889 -0.004978 0.000000 -0.001810 0.000000
# 3 -0.009297 -0.004978 0.020835 0.000000 0.009413 0.000000
# 4 0.000000 0.000000 0.000000 0.040890 0.000000 0.001208
# 5 -0.007813 -0.001810 0.009413 0.000000 0.038899 0.000000
# 6 0.000000 0.000000 0.000000 0.001208 0.000000 0.041530
#
#
# Mechanical properties :
#
#
# Convention : Reuss Voigt Hill
#
# Bulk Modulus (GPa) = 59.99115 61.63441 60.81278
# Shear Modulus (GPa) = 22.78468 24.91215 23.84841
#
# Velocity S-wave (km/s) = 3.62048 3.78574 3.70403
# Velocity P-wave (km/s) = 7.21039 7.38694 7.29920
#
# Compressibility (1/GPa) = 0.01666912
#
# Stress axis : x y z
#
# Youngs Moduli (GPa) = 47.85545 77.58704 47.99696
#
# Poissons Ratio (x) = 0.36469 0.44623
# Poissons Ratio (y) = 0.22494 0.23892
# Poissons Ratio (z) = 0.44491 0.38622
#
# Static dielectric constant tensor:
#      x y z
#    x 3.117310 0.000000 0.112900 
#    y 0.000000 3.228990 0.000000 
#    z 0.112900 0.000000 3.250980 
# 
# 
# High freq. dielectric constant tensor:
#      x y z
#    x 1.661120 0.000000 0.007150 
#    y 0.000000 1.659110 0.000000 
#    z 0.007150 0.000000 1.674600 
# 
# From -- ./inp_files/29024.got.cif
#   From: 2010.06.25/outbox.cif.g09.slc.cpg/sg10_15_cif.got.tgz:29024.got - 2010.06.27 22:07:45.
