data_PCOD8060366
_publ_section_title
;
Structure prediction by ZEFSAII (Michael W. Deem and Ramdas Pophale) SiO2 
 PCOD8060366
Probable space group: P 2/M
;
_chemical_formula_sum "Si O2"
_cell_formula_units_Z 28
_cell_length_a 25.436027
_cell_length_b 19.230163
_cell_length_c 23.183356
_cell_angle_alpha 90.000000
_cell_angle_beta 169.194667
_cell_angle_gamma 90.000000
_cell_volume 2125.918846
_symmetry_space_group_name_H-M "P 2/M"
_symmetry_group_IT_number 10
_symmetry_cell_setting 'monoclinic'
loop_
_space_group_symop_operation_xyz
x,y,z
-x,y,-z
-x,-y,-z
x,-y,z
loop_
_atom_site_type_symbol
_atom_site_label
_atom_site_fract_x
_atom_site_fract_y
_atom_site_fract_z
Si Si1 0.512293 0.706995 0.582319
Si Si2 0.178522 0.500000 0.135732
Si Si3 0.809247 0.416996 0.346025
Si Si4 0.052734 0.582176 0.727535
Si Si5 0.070759 0.364957 0.186305
Si Si6 0.319482 0.148154 0.362195
Si Si7 0.317734 0.000000 0.360545
Si Si8 0.322692 0.417636 0.572421
O O1 0.500000 0.699286 0.500000
O O2 0.281685 0.655707 0.361909
O O3 0.433713 0.784838 0.520079
O O4 0.833766 0.692246 0.946683
O O5 0.500000 0.500000 0.500000
O O6 0.000000 0.500000 0.000000
O O7 0.107937 0.432884 0.021966
O O8 0.814002 0.500000 0.352867
O O9 0.000000 0.388542 0.500000
O O10 0.920327 0.386170 0.526364
O O11 0.500000 0.388727 0.000000
O O12 0.023080 0.500000 0.692439
O O13 0.890230 0.609358 0.608470
O O14 0.372868 0.605273 0.077605
O O15 0.260611 0.377894 0.446516
O O16 0.500000 0.141263 0.500000
O O17 0.362986 0.073886 0.443598
O O18 0.000000 0.162278 0.000000
O O19 0.500000 0.000000 0.500000
O O20 0.000000 0.000000 0.000000
O O21 0.303024 0.500000 0.540449
#
# Coordination Sequence:
#
# PCOD8060366 Si02
#       8
#     4   2   4   4   4   4   2   4
#     4  11  21  32  45  57  74  91 115 147 196 240
#     4  12  24  34  44  54  66  84 114 158 204 240
#     4   9  15  23  36  56  77  91 106 127 163 215
#     4   9  17  27  42  55  70  92 112 141 176 214
#     4  12  22  34  44  55  69  92 121 159 194 235
#     4   9  16  27  42  59  77  94 110 132 166 221
#     4   8  14  24  40  60  78  94 110 126 154 206
#     4  10  19  32  42  52  67  88 123 154 184 218
#
# _framework density 13.170775000000001
#
# number of rings (size 3 to 8) (size 9 to 14) (size 15 to 20)
#    0.000    2.000    0.714    6.000    0.000    3.429 
#    0.000    0.000    0.000    0.000    0.000    0.000 
#    0.000    0.000    0.000    0.000    0.000    0.000 
#
# Total GULP energy -346975.404605 kJ/mol
# GULP energy per Si atom -12391.978736 kJ/mol
# Density = 1.314080 g / cm^3
# Si number density = 13.170775 Si / 1000 Ang^3
#
#
#
# Elastic Constant Matrix: (Units=GPa)
#
#
# Indices 1 2 3 4 5 6 
#
# 1 65.2210 21.7001 33.5500 0.0000 2.8019 0.0000
# 2 21.7001 57.8981 22.9305 0.0000 -3.5581 0.0000
# 3 33.5500 22.9305 81.4626 0.0000 6.9755 0.0000
# 4 0.0000 0.0000 0.0000 11.4955 0.0000 4.2056
# 5 2.8019 -3.5581 6.9755 0.0000 29.3413 0.0000
# 6 0.0000 0.0000 0.0000 4.2056 0.0000 4.2408
#
#
#
# Elastic Compliance Matrix: (Units=1/GPa)
#
#
# Indices 1 2 3 4 5 6 
#
# 1 0.020649 -0.005018 -0.007014 0.000000 -0.000913 0.000000
# 2 -0.005018 0.021067 -0.004209 0.000000 0.004035 0.000000
# 3 -0.007014 -0.004209 0.016675 0.000000 -0.003805 0.000000
# 4 0.000000 0.000000 0.000000 0.136522 0.000000 -0.135388
# 5 -0.000913 0.004035 -0.003805 0.000000 0.035563 0.000000
# 6 0.000000 0.000000 0.000000 -0.135388 0.000000 0.370066
#
#
# Mechanical properties :
#
#
# Convention : Reuss Voigt Hill
#
# Bulk Modulus (GPa) = 38.59470 40.10477 39.34974
# Shear Modulus (GPa) = 7.79230 17.44227 12.61729
#
# Velocity S-wave (km/s) = 2.43500 3.64306 3.09848
# Velocity P-wave (km/s) = 6.10512 6.94347 6.53775
#
# Compressibility (1/GPa) = 0.02591029
#
# Stress axis : x y z
#
# Youngs Moduli (GPa) = 48.42857 47.46698 59.97103
#
# Poissons Ratio (x) = 0.23817 0.42062
# Poissons Ratio (y) = 0.24299 0.25243
# Poissons Ratio (z) = 0.33966 0.19980
#
# Static dielectric constant tensor:
#      x y z
#    x 2.615830 0.000000 0.148740 
#    y 0.000000 2.898230 0.000000 
#    z 0.148740 0.000000 2.771820 
# 
# 
# High freq. dielectric constant tensor:
#      x y z
#    x 1.487480 0.000000 0.027950 
#    y 0.000000 1.457510 0.000000 
#    z 0.027950 0.000000 1.514480 
# 
# From -- ./inp_files/13362.got.cif
#   From: 2010.06.25/outbox.cif.g09.slc.cpg/sg10_7_cif.got.tgz:13362.got - 2010.06.27 22:07:45.
