data_PCOD8060270
_publ_section_title
;
Structure prediction by ZEFSAII (Michael W. Deem and Ramdas Pophale) SiO2 
 PCOD8060270
Probable space group: P 2/M
;
_chemical_formula_sum "Si O2"
_cell_formula_units_Z 24
_cell_length_a 14.936535
_cell_length_b 12.701747
_cell_length_c 22.568202
_cell_angle_alpha 90.000000
_cell_angle_beta 162.745258
_cell_angle_gamma 90.000000
_cell_volume 1270.023070
_symmetry_space_group_name_H-M "P 2/M"
_symmetry_group_IT_number 10
_symmetry_cell_setting 'monoclinic'
loop_
_space_group_symop_operation_xyz
x,y,z
-x,y,-z
-x,-y,-z
x,-y,z
loop_
_atom_site_type_symbol
_atom_site_label
_atom_site_fract_x
_atom_site_fract_y
_atom_site_fract_z
Si Si1 0.768964 0.230079 0.209832
Si Si2 0.814395 0.120781 0.441397
Si Si3 0.643751 0.302959 0.838763
Si Si4 0.091809 0.619195 0.323931
Si Si5 0.447456 0.382830 0.095099
Si Si6 0.716821 0.379533 0.758104
O O1 0.647646 0.299828 0.186991
O O2 0.971167 0.138145 0.365835
O O3 0.969376 0.303463 0.295902
O O4 0.500000 0.180348 0.000000
O O5 0.506231 0.187534 0.253135
O O6 0.000000 0.152136 0.500000
O O7 0.712475 0.000000 0.374938
O O8 0.505496 0.370056 0.805221
O O9 0.571197 0.360703 0.731221
O O10 0.008253 0.298000 0.077895
O O11 0.051050 0.500000 0.321661
O O12 0.450531 0.641254 0.541959
O O13 0.908286 0.634473 0.146590
O O14 0.549593 0.500000 0.141245
O O15 0.837687 0.500000 0.830145
#
# Coordination Sequence:
#
# PCOD8060270 Si02
#       6
#     4   4   4   4   4   4
#     4  10  19  35  56  80 107 137 175 223 273 321
#     4  11  23  40  58  79 102 133 183 236 280 316
#     4  11  20  35  53  77 108 144 177 219 265 313
#     4   9  18  32  52  79 114 147 172 209 258 316
#     4  10  19  31  51  82 113 143 178 210 258 328
#     4  10  20  34  54  80 115 147 178 215 253 313
#
# _framework density 18.897293999999999
#
# number of rings (size 3 to 8) (size 9 to 14) (size 15 to 20)
#    0.000    1.833    3.333    2.500    0.000    3.000 
#    0.000    5.000    0.000    0.000    0.000    1.167 
#    0.000    0.000    0.000    0.000    0.000    0.000 
#
# Total GULP energy -297450.648243 kJ/mol
# GULP energy per Si atom -12393.777010 kJ/mol
# Density = 1.885428 g / cm^3
# Si number density = 18.897294 Si / 1000 Ang^3
#
#
#
# Elastic Constant Matrix: (Units=GPa)
#
#
# Indices 1 2 3 4 5 6 
#
# 1 52.0798 23.7582 16.0684 0.0000 -2.8364 0.0000
# 2 23.7582 76.3437 48.8777 0.0000 8.2898 0.0000
# 3 16.0684 48.8777 99.6994 0.0000 9.0533 0.0000
# 4 0.0000 0.0000 0.0000 28.5575 0.0000 3.0302
# 5 -2.8364 8.2898 9.0533 0.0000 26.3996 0.0000
# 6 0.0000 0.0000 0.0000 3.0302 0.0000 25.2607
#
#
#
# Elastic Compliance Matrix: (Units=1/GPa)
#
#
# Indices 1 2 3 4 5 6 
#
# 1 0.022991 -0.007335 -0.000560 0.000000 0.004966 0.000000
# 2 -0.007335 0.021645 -0.009021 0.000000 -0.004491 0.000000
# 3 -0.000560 -0.009021 0.014751 0.000000 -0.002286 0.000000
# 4 0.000000 0.000000 0.000000 0.035468 0.000000 -0.004255
# 5 0.004966 -0.004491 -0.002286 0.000000 0.040607 0.000000
# 6 0.000000 0.000000 0.000000 -0.004255 0.000000 0.040098
#
#
# Mechanical properties :
#
#
# Convention : Reuss Voigt Hill
#
# Bulk Modulus (GPa) = 39.13470 45.05903 42.09686
# Shear Modulus (GPa) = 22.94518 25.33816 24.14167
#
# Velocity S-wave (km/s) = 3.48832 3.66571 3.57812
# Velocity P-wave (km/s) = 6.08101 6.46626 6.27659
#
# Compressibility (1/GPa) = 0.02555277
#
# Stress axis : x y z
#
# Youngs Moduli (GPa) = 43.49553 46.20040 67.79332
#
# Poissons Ratio (x) = 0.33889 0.03797
# Poissons Ratio (y) = 0.31905 0.61159
# Poissons Ratio (z) = 0.02436 0.41679
#
# Static dielectric constant tensor:
#      x y z
#    x 3.470340 0.000000 -0.151890 
#    y 0.000000 3.085970 0.000000 
#    z -0.151890 0.000000 3.804190 
# 
# 
# High freq. dielectric constant tensor:
#      x y z
#    x 1.729130 0.000000 -0.008950 
#    y 0.000000 1.693250 0.000000 
#    z -0.008950 0.000000 1.750850 
# 
# From -- ./inp_files/24004.got.cif
#   From: 2010.06.25/outbox.cif.g09.slc.cpg/sg10_13_cif.got.tgz:24004.got - 2010.06.27 22:07:45.
