data_PCOD8060060
_publ_section_title
;
Structure prediction by ZEFSAII (Michael W. Deem and Ramdas Pophale) SiO2 
 PCOD8060060
Probable space group: P 2/M
;
_chemical_formula_sum "Si O2"
_cell_formula_units_Z 24
_cell_length_a 21.948001
_cell_length_b 11.317708
_cell_length_c 21.989666
_cell_angle_alpha 90.000000
_cell_angle_beta 13.372090
_cell_angle_gamma 90.000000
_cell_volume 1263.277994
_symmetry_space_group_name_H-M "P 2/M"
_symmetry_group_IT_number 10
_symmetry_cell_setting 'monoclinic'
loop_
_space_group_symop_operation_xyz
x,y,z
-x,y,-z
-x,-y,-z
x,-y,z
loop_
_atom_site_type_symbol
_atom_site_label
_atom_site_fract_x
_atom_site_fract_y
_atom_site_fract_z
Si Si1 0.772842 0.755156 0.769824
Si Si2 0.778007 0.500000 0.264588
Si Si3 0.072199 0.752256 0.859399
Si Si4 0.227917 0.500000 0.230795
Si Si5 0.371194 0.860001 0.366290
Si Si6 0.835651 0.862605 0.834990
Si Si7 0.536823 0.138187 0.339096
O O1 0.791133 0.625534 0.785714
O O2 0.802446 0.848182 0.794975
O O3 0.000000 0.775857 0.500000
O O4 0.500000 0.775755 0.000000
O O5 0.500000 0.500000 0.500000
O O6 0.826180 0.619711 0.256748
O O7 0.000000 0.500000 0.000000
O O8 0.319425 0.836035 0.602329
O O9 0.000000 0.768040 0.000000
O O10 0.806561 0.787246 0.082032
O O11 0.000000 0.500000 0.500000
O O12 0.500000 0.500000 0.000000
O O13 0.409190 0.823305 0.399254
O O14 0.102034 0.803603 0.601993
O O15 0.367943 0.000000 0.362795
O O16 0.597798 0.804095 0.103699
O O17 0.843883 0.000000 0.841383
O O18 0.611223 0.000000 0.269617
#
# Coordination Sequence:
#
# PCOD8060060 Si02
#       7
#     4   2   4   2   4   4   4
#     4  10  19  31  49  73  99 127 160 204 256 302
#     4  10  20  38  58  77 106 147 190 216 250 322
#     4  11  22  36  57  83 110 142 177 221 272 320
#     4   8  16  30  46  65  92 127 162 190 231 300
#     4   9  19  35  52  71  98 139 179 202 239 307
#     4  10  19  32  51  73  99 131 168 208 247 298
#     4  11  22  36  56  82 112 143 177 221 271 323
#
# _framework density 18.998193000000001
#
# number of rings (size 3 to 8) (size 9 to 14) (size 15 to 20)
#    0.000    2.000    0.000    5.000    0.000    5.333 
#    0.000    0.000    0.000    6.000    0.000    0.000 
#    0.000    0.000    0.000    0.000    0.000    0.000 
#
# Total GULP energy -297434.793758 kJ/mol
# GULP energy per Si atom -12393.116407 kJ/mol
# Density = 1.895495 g / cm^3
# Si number density = 18.998193 Si / 1000 Ang^3
#
#
#
# Elastic Constant Matrix: (Units=GPa)
#
#
# Indices 1 2 3 4 5 6 
#
# 1 95.7076 33.9984 50.3787 0.0000 -10.1302 0.0000
# 2 33.9984 55.0155 36.4063 0.0000 -8.4170 0.0000
# 3 50.3787 36.4063 164.8142 0.0000 -15.5065 0.0000
# 4 0.0000 0.0000 0.0000 23.5096 0.0000 -6.3952
# 5 -10.1302 -8.4170 -15.5065 0.0000 38.8319 0.0000
# 6 0.0000 0.0000 0.0000 -6.3952 0.0000 8.8167
#
#
#
# Elastic Compliance Matrix: (Units=1/GPa)
#
#
# Indices 1 2 3 4 5 6 
#
# 1 0.014506 -0.006939 -0.002792 0.000000 0.001165 0.000000
# 2 -0.006939 0.024914 -0.003163 0.000000 0.002327 0.000000
# 3 -0.002792 -0.003163 0.007779 0.000000 0.001692 0.000000
# 4 0.000000 0.000000 0.000000 0.052992 0.000000 0.038438
# 5 0.001165 0.002327 0.001692 0.000000 0.027236 0.000000
# 6 0.000000 0.000000 0.000000 0.038438 0.000000 0.141302
#
#
# Mechanical properties :
#
#
# Convention : Reuss Voigt Hill
#
# Bulk Modulus (GPa) = 46.70458 61.90046 54.30252
# Shear Modulus (GPa) = 16.57524 27.21523 21.89524
#
# Velocity S-wave (km/s) = 2.95695 3.78897 3.39852
# Velocity P-wave (km/s) = 6.02455 7.19685 6.63664
#
# Compressibility (1/GPa) = 0.02141117
#
# Stress axis : x y z
#
# Youngs Moduli (GPa) = 68.93570 40.13779 128.55486
#
# Poissons Ratio (x) = 0.27851 0.35889
# Poissons Ratio (y) = 0.47833 0.40668
# Poissons Ratio (z) = 0.19245 0.12697
#
# Static dielectric constant tensor:
#      x y z
#    x 3.258760 0.000000 -0.072480 
#    y 0.000000 4.390510 0.000000 
#    z -0.072480 0.000000 3.809580 
# 
# 
# High freq. dielectric constant tensor:
#      x y z
#    x 1.718920 0.000000 -0.005960 
#    y 0.000000 1.717350 0.000000 
#    z -0.005960 0.000000 1.769210 
# 
# From -- ./inp_files/90788.got.cif
#   From: 2010.06.25/outbox.cif.g09.slc.cpg/sg10_46_cif.got.tgz:90788.got - 2010.06.27 22:07:45.
