data_PCOD8060076
_publ_section_title
;
Structure prediction by ZEFSAII (Michael W. Deem and Ramdas Pophale) SiO2 
 PCOD8060076
Probable space group: P 2/M
;
_chemical_formula_sum "Si O2"
_cell_formula_units_Z 28
_cell_length_a 8.628452
_cell_length_b 15.352551
_cell_length_c 20.495281
_cell_angle_alpha 90.000000
_cell_angle_beta 29.476603
_cell_angle_gamma 90.000000
_cell_volume 1335.957152
_symmetry_space_group_name_H-M "P 2/M"
_symmetry_group_IT_number 10
_symmetry_cell_setting 'monoclinic'
loop_
_space_group_symop_operation_xyz
x,y,z
-x,y,-z
-x,-y,-z
x,-y,z
loop_
_atom_site_type_symbol
_atom_site_label
_atom_site_fract_x
_atom_site_fract_y
_atom_site_fract_z
Si Si1 0.243143 0.904476 0.542476
Si Si2 0.661649 0.401438 0.008417
Si Si3 0.298229 0.690488 0.239955
Si Si4 0.721035 0.863881 0.826900
Si Si5 0.779700 0.266145 0.520665
Si Si6 0.953734 0.902495 0.882354
Si Si7 0.246519 0.725526 0.806040
O O1 0.500000 0.870071 0.500000
O O2 0.234231 0.837548 0.486194
O O3 0.903217 0.910840 0.701388
O O4 0.335544 0.000000 0.481623
O O5 0.790969 0.500000 0.958260
O O6 0.943944 0.335497 0.920233
O O7 0.500000 0.374987 0.000000
O O8 0.407115 0.395832 0.161185
O O9 0.319551 0.762812 0.175603
O O10 0.536767 0.710056 0.210974
O O11 0.936987 0.684872 0.400207
O O12 0.923893 0.873965 0.818171
O O13 0.384507 0.908325 0.959059
O O14 0.432514 0.298018 0.670059
O O15 0.000000 0.285656 0.500000
O O16 0.163868 0.828422 0.839779
O O17 0.104152 0.000000 0.832578
#
# Coordination Sequence:
#
# PCOD8060076 Si02
#       7
#     4   4   4   4   4   4   4
#     4  10  19  31  49  74 108 153 210 252 285 337
#     4  11  24  43  68  94 119 149 188 237 296 359
#     4  10  21  40  63  87 119 157 196 244 298 346
#     4  10  19  34  52  77 114 157 203 251 293 341
#     4   9  21  38  56  81 117 158 191 236 293 344
#     4  11  21  33  53  81 120 163 204 248 294 342
#     4  11  22  39  62  89 123 156 199 244 291 347
#
# _framework density 20.958755
#
# number of rings (size 3 to 8) (size 9 to 14) (size 15 to 20)
#    0.000    1.714    1.429    3.857    0.000    4.286 
#    0.000    8.571    0.000    4.286    0.000    0.000 
#    0.000    0.000    0.000    0.000    0.000    0.000 
#
# Total GULP energy -347030.428216 kJ/mol
# GULP energy per Si atom -12393.943865 kJ/mol
# Density = 2.091105 g / cm^3
# Si number density = 20.958755 Si / 1000 Ang^3
#
#
#
# Elastic Constant Matrix: (Units=GPa)
#
#
# Indices 1 2 3 4 5 6 
#
# 1 40.0141 23.0336 18.9408 0.0000 8.6413 0.0000
# 2 23.0336 81.0051 34.2646 0.0000 3.5292 0.0000
# 3 18.9408 34.2646 106.8842 0.0000 17.3337 0.0000
# 4 0.0000 0.0000 0.0000 9.5019 0.0000 3.1573
# 5 8.6413 3.5292 17.3337 0.0000 27.4615 0.0000
# 6 0.0000 0.0000 0.0000 3.1573 0.0000 14.7136
#
#
#
# Elastic Compliance Matrix: (Units=1/GPa)
#
#
# Indices 1 2 3 4 5 6 
#
# 1 0.032201 -0.008030 -0.001845 0.000000 -0.007936 0.000000
# 2 -0.008030 0.016318 -0.004320 0.000000 0.003157 0.000000
# 3 -0.001845 -0.004320 0.012125 0.000000 -0.006517 0.000000
# 4 0.000000 0.000000 0.000000 0.113322 0.000000 -0.024317
# 5 -0.007936 0.003157 -0.006517 0.000000 0.042620 0.000000
# 6 0.000000 0.000000 0.000000 -0.024317 0.000000 0.073182
#
#
# Mechanical properties :
#
#
# Convention : Reuss Voigt Hill
#
# Bulk Modulus (GPa) = 31.00461 42.26461 36.63461
# Shear Modulus (GPa) = 15.20179 20.44637 17.82408
#
# Velocity S-wave (km/s) = 2.69610 3.12677 2.91939
# Velocity P-wave (km/s) = 4.95148 5.76585 5.37411
#
# Compressibility (1/GPa) = 0.03225327
#
# Stress axis : x y z
#
# Youngs Moduli (GPa) = 31.05520 61.28167 82.47605
#
# Poissons Ratio (x) = 0.49209 0.15217
# Poissons Ratio (y) = 0.24937 0.35631
# Poissons Ratio (z) = 0.05730 0.26474
#
# Static dielectric constant tensor:
#      x y z
#    x 3.628210 0.000000 0.112840 
#    y 0.000000 3.551570 0.000000 
#    z 0.112840 0.000000 4.437440 
# 
# 
# High freq. dielectric constant tensor:
#      x y z
#    x 1.804180 0.000000 0.009380 
#    y 0.000000 1.792600 0.000000 
#    z 0.009380 0.000000 1.842900 
# 
# From -- ./inp_files/82887.got.cif
#   From: 2010.06.25/outbox.cif.g09.slc.cpg/sg10_42_cif.got.tgz:82887.got - 2010.06.27 22:07:45.
