data_PCOD8060363
_publ_section_title
;
Structure prediction by ZEFSAII (Michael W. Deem and Ramdas Pophale) SiO2 
 PCOD8060363
Probable space group: P 2/M
;
_chemical_formula_sum "Si O2"
_cell_formula_units_Z 30
_cell_length_a 11.593386
_cell_length_b 19.071363
_cell_length_c 11.871591
_cell_angle_alpha 90.000000
_cell_angle_beta 37.861483
_cell_angle_gamma 90.000000
_cell_volume 1611.000647
_symmetry_space_group_name_H-M "P 2/M"
_symmetry_group_IT_number 10
_symmetry_cell_setting 'monoclinic'
loop_
_space_group_symop_operation_xyz
x,y,z
-x,y,-z
-x,-y,-z
x,-y,z
loop_
_atom_site_type_symbol
_atom_site_label
_atom_site_fract_x
_atom_site_fract_y
_atom_site_fract_z
Si Si1 0.649900 0.166594 0.148832
Si Si2 0.000000 0.121064 0.500000
Si Si3 0.967046 0.171940 0.279063
Si Si4 0.608662 0.679172 0.251134
Si Si5 0.789740 0.680787 0.351134
Si Si6 0.592633 0.077817 0.814824
Si Si7 0.088794 0.578212 0.054472
Si Si8 0.810071 0.920675 0.217215
O O1 0.604288 0.248185 0.189034
O O2 0.466849 0.130033 0.237924
O O3 0.671643 0.130436 0.254519
O O4 0.828968 0.158393 0.930858
O O5 0.023017 0.167861 0.594013
O O6 0.183093 0.073109 0.345760
O O7 0.884315 0.247828 0.317482
O O8 0.836275 0.112221 0.321925
O O9 0.730603 0.692249 0.268274
O O10 0.393470 0.656887 0.437915
O O11 0.710884 0.618428 0.100518
O O12 0.942610 0.619161 0.247221
O O13 0.514592 0.000000 0.849046
O O14 0.500000 0.106828 0.000000
O O15 0.121911 0.500000 0.077033
O O16 0.000000 0.573649 0.000000
O O17 0.729742 0.000000 0.292174
O O18 0.000000 0.923088 0.000000
#
# Coordination Sequence:
#
# PCOD8060363 Si02
#       8
#     4   2   4   4   4   4   4   4
#     4  11  19  37  61  81 110 148 191 241 286 338
#     4  12  25  42  58  80 111 150 194 244 291 346
#     4  11  21  36  59  81 113 150 193 234 291 338
#     4  10  19  31  56  81 114 149 189 229 283 333
#     4  10  19  33  53  83 113 151 185 233 280 331
#     4  11  24  41  58  78 109 149 192 239 294 346
#     4   9  18  31  50  80 118 155 185 218 273 342
#     4   9  19  32  54  85 110 142 189 239 288 341
#
# _framework density 18.621966
#
# number of rings (size 3 to 8) (size 9 to 14) (size 15 to 20)
#    0.000    1.733    4.000    1.400    0.000    2.133 
#    0.000    2.667    0.000    2.400    0.000    0.467 
#    0.000    6.400    0.000    0.133    0.000    0.000 
#
# Total GULP energy -371938.622069 kJ/mol
# GULP energy per Si atom -12397.954069 kJ/mol
# Density = 1.857958 g / cm^3
# Si number density = 18.621966 Si / 1000 Ang^3
#
#
#
# Elastic Constant Matrix: (Units=GPa)
#
#
# Indices 1 2 3 4 5 6 
#
# 1 81.6238 45.3524 44.1618 0.0000 0.1834 0.0000
# 2 45.3524 153.1541 44.7995 0.0000 -1.1514 0.0000
# 3 44.1618 44.7995 94.0094 0.0000 -8.5812 0.0000
# 4 0.0000 0.0000 0.0000 4.2046 0.0000 -2.4630
# 5 0.1834 -1.1514 -8.5812 0.0000 29.7073 0.0000
# 6 0.0000 0.0000 0.0000 -2.4630 0.0000 16.3695
#
#
#
# Elastic Compliance Matrix: (Units=1/GPa)
#
#
# Indices 1 2 3 4 5 6 
#
# 1 0.017880 -0.003247 -0.007060 0.000000 -0.002275 0.000000
# 2 -0.003247 0.008194 -0.002412 0.000000 -0.000359 0.000000
# 3 -0.007060 -0.002412 0.015508 0.000000 0.004430 0.000000
# 4 0.000000 0.000000 0.000000 0.260820 0.000000 0.039243
# 5 -0.002275 -0.000359 0.004430 0.000000 0.034941 0.000000
# 6 0.000000 0.000000 0.000000 0.039243 0.000000 0.066994
#
#
# Mechanical properties :
#
#
# Convention : Reuss Voigt Hill
#
# Bulk Modulus (GPa) = 61.94373 66.37940 64.16157
# Shear Modulus (GPa) = 11.49015 23.02120 17.25567
#
# Velocity S-wave (km/s) = 2.48669 3.51983 3.04736
# Velocity P-wave (km/s) = 6.44832 7.22787 6.84919
#
# Compressibility (1/GPa) = 0.01614368
#
# Stress axis : x y z
#
# Youngs Moduli (GPa) = 55.92830 122.04479 64.48484
#
# Poissons Ratio (x) = 0.39624 0.45525
# Poissons Ratio (y) = 0.18158 0.15555
# Poissons Ratio (z) = 0.39484 0.29441
#
# Static dielectric constant tensor:
#      x y z
#    x 3.232370 0.000000 -0.148600 
#    y 0.000000 3.463560 0.000000 
#    z -0.148600 0.000000 3.519330 
# 
# 
# High freq. dielectric constant tensor:
#      x y z
#    x 1.691720 0.000000 -0.017540 
#    y 0.000000 1.714620 0.000000 
#    z -0.017540 0.000000 1.729070 
# 
# From -- ./inp_files/47898.got.cif
#   From: 2010.06.25/outbox.cif.g09.slc.cpg/sg10_24_cif.got.tgz:47898.got - 2010.06.27 22:07:45.
