data_PCOD8060425
_publ_section_title
;
Structure prediction by ZEFSAII (Michael W. Deem and Ramdas Pophale) SiO2 
 PCOD8060425
Probable space group: P 2/M
;
_chemical_formula_sum "Si O2"
_cell_formula_units_Z 30
_cell_length_a 17.568867
_cell_length_b 15.210073
_cell_length_c 11.111206
_cell_angle_alpha 90.000000
_cell_angle_beta 144.973545
_cell_angle_gamma 90.000000
_cell_volume 1704.173445
_symmetry_space_group_name_H-M "P 2/M"
_symmetry_group_IT_number 10
_symmetry_cell_setting 'monoclinic'
loop_
_space_group_symop_operation_xyz
x,y,z
-x,y,-z
-x,-y,-z
x,-y,z
loop_
_atom_site_type_symbol
_atom_site_label
_atom_site_fract_x
_atom_site_fract_y
_atom_site_fract_z
Si Si1 0.205402 0.756804 0.947497
Si Si2 0.850367 0.244694 0.848375
Si Si3 0.623025 0.402704 0.816776
Si Si4 0.608770 0.102168 0.901521
Si Si5 0.670823 0.597570 0.596226
Si Si6 0.699857 0.103058 0.509856
Si Si7 0.000000 0.176412 0.500000
Si Si8 0.239277 0.898867 0.672832
O O1 0.085025 0.763051 0.698445
O O2 0.148049 0.747291 0.006168
O O3 0.286093 0.671547 0.005415
O O4 0.301476 0.841822 0.073684
O O5 0.777121 0.329130 0.694431
O O6 0.776894 0.155595 0.712943
O O7 0.000000 0.243054 0.000000
O O8 0.664613 0.500000 0.916792
O O9 0.469328 0.384720 0.651779
O O10 0.642689 0.396652 0.700355
O O11 0.456177 0.119687 0.676404
O O12 0.646336 0.000000 0.932317
O O13 0.647329 0.133550 0.087095
O O14 0.724521 0.500000 0.631868
O O15 0.744126 0.143842 0.437725
O O16 0.734401 0.000000 0.569484
O O17 0.093741 0.115930 0.539037
O O18 0.264055 0.000000 0.680566
#
# Coordination Sequence:
#
# PCOD8060425 Si02
#       8
#     4   4   4   4   4   4   2   4
#     4  10  20  33  49  70  97 126 161 201 236 283
#     4  11  22  33  46  69 101 132 159 191 238 289
#     4   8  14  28  50  73  94 118 152 195 239 279
#     4   9  18  32  52  74  93 121 162 205 242 275
#     4   8  15  29  50  72  93 120 155 194 235 279
#     4  10  20  33  49  71  99 128 158 196 243 288
#     4  10  19  32  49  68  94 130 168 196 230 278
#     4   9  17  31  50  70  94 126 166 204 233 271
#
# _framework density 17.603842
#
# number of rings (size 3 to 8) (size 9 to 14) (size 15 to 20)
#    0.000    2.667    0.000    3.000    0.000    4.800 
#    0.000    1.667    0.000    0.000    0.000    3.733 
#    0.000   24.533    0.000    0.000    0.000    0.000 
#
# Total GULP energy -371873.658598 kJ/mol
# GULP energy per Si atom -12395.788620 kJ/mol
# Density = 1.756378 g / cm^3
# Si number density = 17.603842 Si / 1000 Ang^3
#
#
#
# Elastic Constant Matrix: (Units=GPa)
#
#
# Indices 1 2 3 4 5 6 
#
# 1 56.7286 31.6077 37.7424 0.0000 7.6044 0.0000
# 2 31.6077 91.8095 49.8923 0.0000 10.9809 0.0000
# 3 37.7424 49.8923 97.4181 0.0000 17.0974 0.0000
# 4 0.0000 0.0000 0.0000 25.1647 0.0000 3.7537
# 5 7.6044 10.9809 17.0974 0.0000 23.4963 0.0000
# 6 0.0000 0.0000 0.0000 3.7537 0.0000 15.3530
#
#
#
# Elastic Compliance Matrix: (Units=1/GPa)
#
#
# Indices 1 2 3 4 5 6 
#
# 1 0.025116 -0.004631 -0.007236 0.000000 -0.000699 0.000000
# 2 -0.004631 0.016002 -0.006135 0.000000 -0.001515 0.000000
# 3 -0.007236 -0.006135 0.017536 0.000000 -0.007551 0.000000
# 4 0.000000 0.000000 0.000000 0.041242 0.000000 -0.010084
# 5 -0.000699 -0.001515 -0.007551 0.000000 0.048989 0.000000
# 6 0.000000 0.000000 0.000000 -0.010084 0.000000 0.067599
#
#
# Mechanical properties :
#
#
# Convention : Reuss Voigt Hill
#
# Bulk Modulus (GPa) = 44.15191 53.82676 48.98933
# Shear Modulus (GPa) = 19.22793 21.25038 20.23915
#
# Velocity S-wave (km/s) = 3.30852 3.47817 3.39440
# Velocity P-wave (km/s) = 6.30320 6.83910 6.57661
#
# Compressibility (1/GPa) = 0.02264908
#
# Stress axis : x y z
#
# Youngs Moduli (GPa) = 39.81519 62.49346 57.02566
#
# Poissons Ratio (x) = 0.28939 0.41266
# Poissons Ratio (y) = 0.18437 0.34986
# Poissons Ratio (z) = 0.28812 0.38341
#
# Static dielectric constant tensor:
#      x y z
#    x 3.135620 0.000000 0.091560 
#    y 0.000000 3.393280 0.000000 
#    z 0.091560 0.000000 3.307130 
# 
# 
# High freq. dielectric constant tensor:
#      x y z
#    x 1.659830 0.000000 0.013090 
#    y 0.000000 1.673800 0.000000 
#    z 0.013090 0.000000 1.679100 
# 
# From -- ./inp_files/53943.got.cif
#   From: 2010.06.25/outbox.cif.g09.slc.cpg/sg10_27_cif.got.tgz:53943.got - 2010.06.27 22:07:45.
