data_PCOD8060275
_publ_section_title
;
Structure prediction by ZEFSAII (Michael W. Deem and Ramdas Pophale) SiO2 
 PCOD8060275
Probable space group: P 2/M
;
_chemical_formula_sum "Si O2"
_cell_formula_units_Z 32
_cell_length_a 14.542107
_cell_length_b 9.281595
_cell_length_c 22.940331
_cell_angle_alpha 90.000000
_cell_angle_beta 35.903227
_cell_angle_gamma 90.000000
_cell_volume 1815.753570
_symmetry_space_group_name_H-M "P 2/M"
_symmetry_group_IT_number 10
_symmetry_cell_setting 'monoclinic'
loop_
_space_group_symop_operation_xyz
x,y,z
-x,y,-z
-x,-y,-z
x,-y,z
loop_
_atom_site_type_symbol
_atom_site_label
_atom_site_fract_x
_atom_site_fract_y
_atom_site_fract_z
Si Si1 0.353913 0.661221 0.707644
Si Si2 0.933507 0.829519 0.315703
Si Si3 0.596962 0.164883 0.208490
Si Si4 0.993602 0.170716 0.594268
Si Si5 0.963765 0.333256 0.186562
Si Si6 0.091295 0.834416 0.011646
Si Si7 0.750357 0.828381 0.626411
Si Si8 0.625226 0.661442 0.485778
O O1 0.334668 0.500000 0.741656
O O2 0.320905 0.767017 0.777479
O O3 0.224055 0.686599 0.723831
O O4 0.529436 0.686770 0.594483
O O5 0.015042 0.749120 0.219357
O O6 0.752868 0.785048 0.414292
O O7 0.016410 0.778535 0.333389
O O8 0.945146 0.000000 0.299895
O O9 0.720545 0.183077 0.092598
O O10 0.426847 0.235681 0.281639
O O11 0.570081 0.000000 0.238193
O O12 0.841333 0.228272 0.637502
O O13 0.153430 0.225517 0.480178
O O14 0.997709 0.000000 0.589923
O O15 0.012063 0.500000 0.167219
O O16 0.048991 0.266878 0.087032
O O17 0.047443 0.000000 0.048558
O O18 0.000000 0.785505 0.000000
O O19 0.744469 0.000000 0.631199
O O20 0.500000 0.677460 0.500000
O O21 0.700796 0.500000 0.445459
#
# Coordination Sequence:
#
# PCOD8060275 Si02
#       8
#     4   4   4   4   4   4   4   4
#     4  10  20  32  47  67  97 134 169 202 239 291
#     4  11  21  32  50  76 102 131 169 213 256 296
#     4  10  19  31  52  76 100 128 162 206 258 305
#     4   8  15  28  48  76 107 131 159 202 250 300
#     4  11  22  36  51  68  96 139 178 203 242 304
#     4  10  20  34  50  74 104 129 162 216 263 292
#     4   8  14  28  50  76 104 132 160 197 249 308
#     4  10  19  33  46  63  98 138 170 199 235 290
#
# _framework density 17.623536999999999
#
# number of rings (size 3 to 8) (size 9 to 14) (size 15 to 20)
#    0.000    2.250    2.500    2.250    0.000    3.000 
#    0.000    0.000    0.000    2.250    0.000   11.375 
#    0.000    0.000    0.000    0.000    0.000    0.000 
#
# Total GULP energy -396638.259108 kJ/mol
# GULP energy per Si atom -12394.945597 kJ/mol
# Density = 1.758343 g / cm^3
# Si number density = 17.623537 Si / 1000 Ang^3
#
#
#
# Elastic Constant Matrix: (Units=GPa)
#
#
# Indices 1 2 3 4 5 6 
#
# 1 79.4787 37.5820 57.2576 0.0000 18.1589 0.0000
# 2 37.5820 62.8435 39.5641 0.0000 15.6901 0.0000
# 3 57.2576 39.5641 80.3054 0.0000 13.5134 0.0000
# 4 0.0000 0.0000 0.0000 23.5592 0.0000 2.1114
# 5 18.1589 15.6901 13.5134 0.0000 32.0978 0.0000
# 6 0.0000 0.0000 0.0000 2.1114 0.0000 7.0167
#
#
#
# Elastic Compliance Matrix: (Units=1/GPa)
#
#
# Indices 1 2 3 4 5 6 
#
# 1 0.028504 -0.004766 -0.016847 0.000000 -0.006703 0.000000
# 2 -0.004766 0.025418 -0.008058 0.000000 -0.006336 0.000000
# 3 -0.016847 -0.008058 0.028163 0.000000 0.001613 0.000000
# 4 0.000000 0.000000 0.000000 0.043623 0.000000 -0.013126
# 5 -0.006703 -0.006336 0.001613 0.000000 0.037365 0.000000
# 6 0.000000 0.000000 0.000000 -0.013126 0.000000 0.146466
#
#
# Mechanical properties :
#
#
# Convention : Reuss Voigt Hill
#
# Bulk Modulus (GPa) = 43.97181 54.60389 49.28785
# Shear Modulus (GPa) = 13.28150 18.41633 15.84892
#
# Velocity S-wave (km/s) = 2.74820 3.23613 3.00209
# Velocity P-wave (km/s) = 5.92241 6.70926 6.32807
#
# Compressibility (1/GPa) = 0.02274184
#
# Stress axis : x y z
#
# Youngs Moduli (GPa) = 35.08238 39.34239 35.50728
#
# Poissons Ratio (x) = 0.18751 0.59821
# Poissons Ratio (y) = 0.16721 0.28613
# Poissons Ratio (z) = 0.59105 0.31703
#
# Static dielectric constant tensor:
#      x y z
#    x 3.441090 0.000000 -0.011560 
#    y 0.000000 3.058330 0.000000 
#    z -0.011560 0.000000 3.338550 
# 
# 
# High freq. dielectric constant tensor:
#      x y z
#    x 1.666080 0.000000 0.009140 
#    y 0.000000 1.658100 0.000000 
#    z 0.009140 0.000000 1.676700 
# 
# From -- ./inp_files/84734.got.cif
#   From: 2010.06.25/outbox.cif.g09.slc.cpg/sg10_43_cif.got.tgz:84734.got - 2010.06.27 22:07:45.
