data_PCOD8060820
_publ_section_title
;
Structure prediction by ZEFSAII (Michael W. Deem and Ramdas Pophale) SiO2 
 PCOD8060820
Probable space group: P 2/M
;
_chemical_formula_sum "Si O2"
_cell_formula_units_Z 32
_cell_length_a 11.045856
_cell_length_b 9.420195
_cell_length_c 17.417142
_cell_angle_alpha 90.000000
_cell_angle_beta 89.831436
_cell_angle_gamma 90.000000
_cell_volume 1812.317496
_symmetry_space_group_name_H-M "P 2/M"
_symmetry_group_IT_number 10
_symmetry_cell_setting 'monoclinic'
loop_
_space_group_symop_operation_xyz
x,y,z
-x,y,-z
-x,-y,-z
x,-y,z
loop_
_atom_site_type_symbol
_atom_site_label
_atom_site_fract_x
_atom_site_fract_y
_atom_site_fract_z
Si Si1 0.497224 0.251293 0.672893
Si Si2 0.871100 0.830547 0.717202
Si Si3 0.670561 0.660887 0.800161
Si Si4 0.716160 0.656571 0.425334
Si Si5 0.685806 0.843899 0.207158
Si Si6 0.879503 0.667933 0.284683
Si Si7 0.286567 0.842530 0.424571
Si Si8 0.488537 0.836020 0.088437
O O1 0.577492 0.348971 0.728871
O O2 0.411821 0.345547 0.618751
O O3 0.414467 0.149269 0.724955
O O4 0.584646 0.159438 0.618683
O O5 0.785587 0.758668 0.780706
O O6 0.819514 0.794114 0.632912
O O7 0.000318 0.758225 0.724710
O O8 0.877276 0.000000 0.731177
O O9 0.711160 0.500000 0.819568
O O10 0.610057 0.732039 0.874458
O O11 0.741738 0.500000 0.455820
O O12 0.823706 0.703489 0.368116
O O13 0.714276 0.751289 0.499696
O O14 0.785554 0.722234 0.220185
O O15 0.619414 0.810441 0.127118
O O16 0.747250 0.000000 0.204663
O O17 0.901794 0.500000 0.273240
O O18 0.261508 0.000000 0.453462
O O19 0.448112 0.000000 0.099730
O O20 0.500000 0.794690 0.000000
#
# Coordination Sequence:
#
# PCOD8060820 Si02
#       8
#     4   4   4   4   4   4   4   4
#     4   9  18  31  49  71  98 130 166 205 248 301
#     4  10  21  37  54  71  94 128 171 213 254 300
#     4  10  19  32  53  79 105 133 167 206 247 292
#     4  10  21  33  46  67  96 129 163 204 256 308
#     4   9  17  31  53  77 101 132 168 203 241 288
#     4  10  21  36  52  71  96 128 169 213 255 298
#     4  10  21  33  47  69  95 125 164 211 257 301
#     4   9  18  33  54  82 115 144 166 192 232 286
#
# _framework density 17.656949999999998
#
# number of rings (size 3 to 8) (size 9 to 14) (size 15 to 20)
#    0.000    2.375    0.000    2.250    0.000   13.750 
#    0.000    2.500    0.000    0.750    0.000    5.250 
#    0.000    0.000    0.000    0.000    0.000    0.000 
#
# Total GULP energy -396708.714395 kJ/mol
# GULP energy per Si atom -12397.147325 kJ/mol
# Density = 1.761676 g / cm^3
# Si number density = 17.656950 Si / 1000 Ang^3
#
#
#
# Elastic Constant Matrix: (Units=GPa)
#
#
# Indices 1 2 3 4 5 6 
#
# 1 110.4529 55.6225 49.7588 0.0000 -2.1656 0.0000
# 2 55.6225 106.6383 60.6661 0.0000 -2.8919 0.0000
# 3 49.7588 60.6661 117.9865 0.0000 -1.1136 0.0000
# 4 0.0000 0.0000 0.0000 15.9963 0.0000 -1.9667
# 5 -2.1656 -2.8919 -1.1136 0.0000 12.7024 0.0000
# 6 0.0000 0.0000 0.0000 -1.9667 0.0000 27.4713
#
#
#
# Elastic Compliance Matrix: (Units=1/GPa)
#
#
# Indices 1 2 3 4 5 6 
#
# 1 0.012910 -0.005116 -0.002807 0.000000 0.000790 0.000000
# 2 -0.005116 0.015357 -0.005719 0.000000 0.002123 0.000000
# 3 -0.002807 -0.005719 0.012593 0.000000 -0.000676 0.000000
# 4 0.000000 0.000000 0.000000 0.063069 0.000000 0.004515
# 5 0.000790 0.002123 -0.000676 0.000000 0.079284 0.000000
# 6 0.000000 0.000000 0.000000 0.004515 0.000000 0.036725
#
#
# Mechanical properties :
#
#
# Convention : Reuss Voigt Hill
#
# Bulk Modulus (GPa) = 73.64940 74.13026 73.88983
# Shear Modulus (GPa) = 19.86134 22.50268 21.18201
#
# Velocity S-wave (km/s) = 3.35751 3.57380 3.46734
# Velocity P-wave (km/s) = 7.53872 7.68792 7.61369
#
# Compressibility (1/GPa) = 0.01357784
#
# Stress axis : x y z
#
# Youngs Moduli (GPa) = 77.46154 65.11857 79.40786
#
# Poissons Ratio (x) = 0.33312 0.22287
# Poissons Ratio (y) = 0.39626 0.45410
# Poissons Ratio (z) = 0.21741 0.37239
#
# Static dielectric constant tensor:
#      x y z
#    x 3.252300 0.000000 0.038690 
#    y 0.000000 3.266990 0.000000 
#    z 0.038690 0.000000 3.129660 
# 
# 
# High freq. dielectric constant tensor:
#      x y z
#    x 1.673860 0.000000 0.001030 
#    y 0.000000 1.689930 0.000000 
#    z 0.001030 0.000000 1.664320 
# 
# From -- ./inp_files/54951.got.cif
#   From: 2010.06.25/outbox.cif.g09.slc.cpg/sg10_28_cif.got.tgz:54951.got - 2010.06.27 22:07:45.
