data_PCOD8060874
_publ_section_title
;
Structure prediction by ZEFSAII (Michael W. Deem and Ramdas Pophale) SiO2 
 PCOD8060874
Probable space group: P 2/M
;
_chemical_formula_sum "Si O2"
_cell_formula_units_Z 24
_cell_length_a 18.973599
_cell_length_b 8.773060
_cell_length_c 24.768062
_cell_angle_alpha 90.000000
_cell_angle_beta 160.843308
_cell_angle_gamma 90.000000
_cell_volume 1352.909869
_symmetry_space_group_name_H-M "P 2/M"
_symmetry_group_IT_number 10
_symmetry_cell_setting 'monoclinic'
loop_
_space_group_symop_operation_xyz
x,y,z
-x,y,-z
-x,-y,-z
x,-y,z
loop_
_atom_site_type_symbol
_atom_site_label
_atom_site_fract_x
_atom_site_fract_y
_atom_site_fract_z
Si Si1 0.296961 0.673927 0.884544
Si Si2 0.553253 0.678396 0.702352
Si Si3 0.157745 0.326745 0.896759
Si Si4 0.111068 0.179436 0.381673
Si Si5 0.318667 0.323248 0.325486
Si Si6 0.866616 0.821662 0.012371
O O1 0.261497 0.500000 0.839690
O O2 0.078474 0.768657 0.713690
O O3 0.500000 0.746231 0.000000
O O4 0.338041 0.680162 0.979495
O O5 0.520843 0.500000 0.687080
O O6 0.339387 0.762749 0.568476
O O7 0.595649 0.722219 0.671255
O O8 0.754526 0.733974 0.882485
O O9 0.109348 0.500000 0.879596
O O10 0.236540 0.230894 0.005238
O O11 0.937667 0.255832 0.712306
O O12 0.112184 0.000000 0.376509
O O13 0.500000 0.284816 0.500000
O O14 0.250270 0.500000 0.278016
O O15 0.116279 0.219632 0.193430
O O16 0.831787 0.000000 0.979453
#
# Coordination Sequence:
#
# PCOD8060874 Si02
#       6
#     4   4   4   4   4   4
#     4   8  16  32  56  83 109 141 181 220 262 320
#     4  11  22  37  56  77 107 149 188 222 267 325
#     4   9  18  34  55  78 107 142 181 219 262 321
#     4  10  19  32  53  83 113 139 175 223 274 316
#     4  10  22  39  59  79 103 139 186 230 269 320
#     4  12  24  36  53  79 111 144 181 229 279 320
#
# _framework density 17.739540000000002
#
# number of rings (size 3 to 8) (size 9 to 14) (size 15 to 20)
#    1.000    1.000    0.000    5.000    0.000    5.333 
#    0.000    0.000    0.000    1.000    0.000    7.000 
#    0.000    0.000    0.000    0.000    0.000    0.000 
#
# Total GULP energy -297499.798632 kJ/mol
# GULP energy per Si atom -12395.824943 kJ/mol
# Density = 1.769916 g / cm^3
# Si number density = 17.739540 Si / 1000 Ang^3
#
#
#
# Elastic Constant Matrix: (Units=GPa)
#
#
# Indices 1 2 3 4 5 6 
#
# 1 84.9554 33.2878 53.0966 0.0000 9.4146 0.0000
# 2 33.2878 79.9319 22.4397 0.0000 4.2111 0.0000
# 3 53.0966 22.4397 81.5101 0.0000 -1.1461 0.0000
# 4 0.0000 0.0000 0.0000 22.9359 0.0000 -0.2696
# 5 9.4146 4.2111 -1.1461 0.0000 28.3932 0.0000
# 6 0.0000 0.0000 0.0000 -0.2696 0.0000 21.0009
#
#
#
# Elastic Compliance Matrix: (Units=1/GPa)
#
#
# Indices 1 2 3 4 5 6 
#
# 1 0.023392 -0.005461 -0.013840 0.000000 -0.007505 0.000000
# 2 -0.005461 0.014967 -0.000569 0.000000 -0.000432 0.000000
# 3 -0.013840 -0.000569 0.021519 0.000000 0.005542 0.000000
# 4 0.000000 0.000000 0.000000 0.043606 0.000000 0.000560
# 5 -0.007505 -0.000432 0.005542 0.000000 0.037996 0.000000
# 6 0.000000 0.000000 0.000000 0.000560 0.000000 0.047624
#
#
# Mechanical properties :
#
#
# Convention : Reuss Voigt Hill
#
# Bulk Modulus (GPa) = 49.65809 51.56061 50.60935
# Shear Modulus (GPa) = 21.22614 23.63756 22.43185
#
# Velocity S-wave (km/s) = 3.46286 3.65427 3.55985
# Velocity P-wave (km/s) = 6.63643 6.85080 6.74447
#
# Compressibility (1/GPa) = 0.02013770
#
# Stress axis : x y z
#
# Youngs Moduli (GPa) = 42.74897 66.81159 46.47112
#
# Poissons Ratio (x) = 0.36486 0.64317
# Poissons Ratio (y) = 0.23345 0.02645
# Poissons Ratio (z) = 0.59165 0.03803
#
# Static dielectric constant tensor:
#      x y z
#    x 3.274970 0.000000 0.039300 
#    y 0.000000 3.238120 0.000000 
#    z 0.039300 0.000000 3.112790 
# 
# 
# High freq. dielectric constant tensor:
#      x y z
#    x 1.674750 0.000000 0.004130 
#    y 0.000000 1.692010 0.000000 
#    z 0.004130 0.000000 1.668290 
# 
# From -- ./inp_files/90058.got.cif
#   From: 2010.06.25/outbox.cif.g09.slc.cpg/sg10_46_cif.got.tgz:90058.got - 2010.06.27 22:07:45.
