data_PCOD8060058
_publ_section_title
;
Structure prediction by ZEFSAII (Michael W. Deem and Ramdas Pophale) SiO2 
 PCOD8060058
Probable space group: P 2/M
;
_chemical_formula_sum "Si O2"
_cell_formula_units_Z 32
_cell_length_a 23.788767
_cell_length_b 13.908459
_cell_length_c 20.087274
_cell_angle_alpha 90.000000
_cell_angle_beta 17.176411
_cell_angle_gamma 90.000000
_cell_volume 1962.714191
_symmetry_space_group_name_H-M "P 2/M"
_symmetry_group_IT_number 10
_symmetry_cell_setting 'monoclinic'
loop_
_space_group_symop_operation_xyz
x,y,z
-x,y,-z
-x,-y,-z
x,-y,z
loop_
_atom_site_type_symbol
_atom_site_label
_atom_site_fract_x
_atom_site_fract_y
_atom_site_fract_z
Si Si1 0.787372 0.608318 0.162453
Si Si2 0.567370 0.887817 0.854135
Si Si3 0.369745 0.203935 0.707274
Si Si4 0.983518 0.886508 0.174939
Si Si5 0.225330 0.608336 0.668454
Si Si6 0.397480 0.794549 0.427381
Si Si7 0.642310 0.111736 0.040546
Si Si8 0.957302 0.886386 0.354734
O O1 0.714689 0.500000 0.231236
O O2 0.659586 0.680349 0.263380
O O3 0.760667 0.636220 0.269849
O O4 0.006775 0.617632 0.892907
O O5 0.402397 0.870429 0.986317
O O6 0.768310 0.841888 0.602882
O O7 0.602147 0.000000 0.826623
O O8 0.500000 0.839939 0.000000
O O9 0.500000 0.166090 0.500000
O O10 0.465008 0.173560 0.668589
O O11 0.166974 0.152933 0.929232
O O12 0.799412 0.851984 0.342753
O O13 0.978224 0.844943 0.256425
O O14 0.991086 0.000000 0.166549
O O15 0.298120 0.500000 0.573479
O O16 0.354575 0.680470 0.478982
O O17 0.499695 0.821280 0.243154
O O18 0.606125 0.000000 0.101051
O O19 0.859561 0.142132 0.808463
O O20 0.934251 0.000000 0.375639
#
# Coordination Sequence:
#
# PCOD8060058 Si02
#       8
#     4   4   4   4   4   4   4   4
#     4   9  18  35  54  73  97 123 154 205 271 326
#     4   9  17  29  47  73 102 131 164 203 244 287
#     4  12  24  35  53  75  95 124 176 224 257 305
#     4  11  23  38  52  67  97 138 176 214 254 294
#     4   9  18  33  55  75  96 124 158 204 261 318
#     4  12  21  33  56  74  96 130 172 208 256 304
#     4  10  19  31  49  73  98 134 174 200 237 296
#     4   9  17  31  49  68  95 131 169 202 239 290
#
# _framework density 16.303953
#
# number of rings (size 3 to 8) (size 9 to 14) (size 15 to 20)
#    0.000    1.875    5.000    1.125    0.000    2.500 
#    0.000    3.125    0.000    0.000    0.000    0.000 
#    0.000    0.500    0.000    1.250    0.000    0.250 
#
# Total GULP energy -396810.629491 kJ/mol
# GULP energy per Si atom -12400.332172 kJ/mol
# Density = 1.626684 g / cm^3
# Si number density = 16.303953 Si / 1000 Ang^3
#
#
#
# Elastic Constant Matrix: (Units=GPa)
#
#
# Indices 1 2 3 4 5 6 
#
# 1 79.3256 24.8818 34.3197 0.0000 -5.6479 0.0000
# 2 24.8818 52.8605 24.5750 0.0000 3.1521 0.0000
# 3 34.3197 24.5750 90.5532 0.0000 -7.5282 0.0000
# 4 0.0000 0.0000 0.0000 20.1009 0.0000 -5.3094
# 5 -5.6479 3.1521 -7.5282 0.0000 28.9342 0.0000
# 6 0.0000 0.0000 0.0000 -5.3094 0.0000 10.3287
#
#
#
# Elastic Compliance Matrix: (Units=1/GPa)
#
#
# Indices 1 2 3 4 5 6 
#
# 1 0.016577 -0.005892 -0.004457 0.000000 0.002718 0.000000
# 2 -0.005892 0.024200 -0.004752 0.000000 -0.005023 0.000000
# 3 -0.004457 -0.004752 0.014302 0.000000 0.003369 0.000000
# 4 0.000000 0.000000 0.000000 0.057565 0.000000 0.029591
# 5 0.002718 -0.005023 0.003369 0.000000 0.036515 0.000000
# 6 0.000000 0.000000 0.000000 0.029591 0.000000 0.112028
#
#
# Mechanical properties :
#
#
# Convention : Reuss Voigt Hill
#
# Bulk Modulus (GPa) = 40.20066 43.36581 41.78323
# Shear Modulus (GPa) = 16.68431 21.13696 18.91064
#
# Velocity S-wave (km/s) = 3.20242 3.60451 3.40940
# Velocity P-wave (km/s) = 6.19553 6.63169 6.41732
#
# Compressibility (1/GPa) = 0.02487522
#
# Stress axis : x y z
#
# Youngs Moduli (GPa) = 60.32623 41.32220 69.91891
#
# Poissons Ratio (x) = 0.24349 0.31166
# Poissons Ratio (y) = 0.35547 0.33225
# Poissons Ratio (z) = 0.26890 0.19636
#
# Static dielectric constant tensor:
#      x y z
#    x 3.063540 0.000000 -0.098650 
#    y 0.000000 2.830530 0.000000 
#    z -0.098650 0.000000 3.275870 
# 
# 
# High freq. dielectric constant tensor:
#      x y z
#    x 1.617490 0.000000 -0.022480 
#    y 0.000000 1.586370 0.000000 
#    z -0.022480 0.000000 1.636440 
# 
# From -- ./inp_files/79688.got.cif
#   From: 2010.06.25/outbox.cif.g09.slc.cpg/sg10_40_cif.got.tgz:79688.got - 2010.06.27 22:07:45.
