data_PCOD8060635
_publ_section_title
;
Structure prediction by ZEFSAII (Michael W. Deem and Ramdas Pophale) SiO2 
 PCOD8060635
Probable space group: P 2/M
;
_chemical_formula_sum "Si O2"
_cell_formula_units_Z 28
_cell_length_a 17.357837
_cell_length_b 7.686421
_cell_length_c 16.233099
_cell_angle_alpha 90.000000
_cell_angle_beta 38.423963
_cell_angle_gamma 90.000000
_cell_volume 1346.000491
_symmetry_space_group_name_H-M "P 2/M"
_symmetry_group_IT_number 10
_symmetry_cell_setting 'monoclinic'
loop_
_space_group_symop_operation_xyz
x,y,z
-x,y,-z
-x,-y,-z
x,-y,z
loop_
_atom_site_type_symbol
_atom_site_label
_atom_site_fract_x
_atom_site_fract_y
_atom_site_fract_z
Si Si1 0.785280 0.803428 0.442997
Si Si2 0.736326 0.802716 0.103013
Si Si3 0.763092 0.697744 0.813059
Si Si4 0.366534 0.500000 0.509042
Si Si5 0.062245 0.203651 0.197269
Si Si6 0.282699 0.704816 0.326337
Si Si7 0.432363 0.705259 0.895210
Si Si8 0.342961 0.500000 0.719897
O O1 0.682578 0.673699 0.493646
O O2 0.784803 0.802566 0.542604
O O3 0.920876 0.740437 0.298957
O O4 0.758024 0.000000 0.434890
O O5 0.612479 0.795789 0.151391
O O6 0.723554 0.673561 0.190784
O O7 0.755294 0.000000 0.119824
O O8 0.853934 0.737908 0.950288
O O9 0.725587 0.500000 0.827798
O O10 0.890851 0.710056 0.756840
O O11 0.773670 0.779195 0.712476
O O12 0.651272 0.781640 0.959957
O O13 0.324123 0.500000 0.638461
O O14 0.513494 0.500000 0.375105
O O15 0.073729 0.000000 0.201473
O O16 0.262259 0.500000 0.356001
O O17 0.427182 0.754445 0.205568
O O18 0.410657 0.500000 0.902850
#
# Coordination Sequence:
#
# PCOD8060635 Si02
#       8
#     4   4   4   2   4   4   4   2
#     4  11  24  42  62  84 118 164 201 236 290 347
#     4  10  20  37  63  92 120 153 195 241 290 347
#     4   9  18  30  52  83 114 156 203 247 294 335
#     4  11  26  45  65  91 124 149 183 236 291 361
#     4   9  21  39  58  84 120 159 201 246 285 334
#     4  10  19  32  51  81 119 157 202 249 290 342
#     4   9  16  30  52  80 119 158 194 243 296 344
#     4  11  24  43  67  96 120 146 182 233 298 360
#
# _framework density 20.80237
#
# number of rings (size 3 to 8) (size 9 to 14) (size 15 to 20)
#    0.000    2.143    1.429    1.286    2.000    5.714 
#    0.000    5.714    0.000    6.857    0.000    0.000 
#    0.000    0.000    0.000    0.000    0.000    0.000 
#
# Total GULP energy -347186.568682 kJ/mol
# GULP energy per Si atom -12399.520310 kJ/mol
# Density = 2.075502 g / cm^3
# Si number density = 20.802370 Si / 1000 Ang^3
#
#
#
# Elastic Constant Matrix: (Units=GPa)
#
#
# Indices 1 2 3 4 5 6 
#
# 1 46.2777 23.0208 36.5621 0.0000 8.4418 0.0000
# 2 23.0208 72.8968 33.3346 0.0000 5.0092 0.0000
# 3 36.5621 33.3346 94.6909 0.0000 13.3155 0.0000
# 4 0.0000 0.0000 0.0000 25.5267 0.0000 -3.1055
# 5 8.4418 5.0092 13.3155 0.0000 33.9979 0.0000
# 6 0.0000 0.0000 0.0000 -3.1055 0.0000 7.9963
#
#
#
# Elastic Compliance Matrix: (Units=1/GPa)
#
#
# Indices 1 2 3 4 5 6 
#
# 1 0.033170 -0.005487 -0.010405 0.000000 -0.003353 0.000000
# 2 -0.005487 0.017259 -0.004012 0.000000 0.000391 0.000000
# 3 -0.010405 -0.004012 0.016450 0.000000 -0.003268 0.000000
# 4 0.000000 0.000000 0.000000 0.041117 0.000000 0.015968
# 5 -0.003353 0.000391 -0.003268 0.000000 0.031468 0.000000
# 6 0.000000 0.000000 0.000000 0.015968 0.000000 0.131259
#
#
# Mechanical properties :
#
#
# Convention : Reuss Voigt Hill
#
# Bulk Modulus (GPa) = 36.93897 44.41115 40.67506
# Shear Modulus (GPa) = 15.64679 21.56738 18.60709
#
# Velocity S-wave (km/s) = 2.74554 3.22339 2.99401
# Velocity P-wave (km/s) = 5.27696 5.93710 5.61673
#
# Compressibility (1/GPa) = 0.02707168
#
# Stress axis : x y z
#
# Youngs Moduli (GPa) = 30.14781 57.94234 60.79018
#
# Poissons Ratio (x) = 0.31792 0.63249
# Poissons Ratio (y) = 0.16542 0.24389
# Poissons Ratio (z) = 0.31367 0.23247
#
# Static dielectric constant tensor:
#      x y z
#    x 3.545810 0.000000 0.013450 
#    y 0.000000 3.603950 0.000000 
#    z 0.013450 0.000000 3.968540 
# 
# 
# High freq. dielectric constant tensor:
#      x y z
#    x 1.789990 0.000000 -0.000050 
#    y 0.000000 1.806770 0.000000 
#    z -0.000050 0.000000 1.817870 
# 
# From -- ./inp_files/68637.got.cif
#   From: 2010.06.25/outbox.cif.g09.slc.cpg/sg10_35_cif.got.tgz:68637.got - 2010.06.27 22:07:45.
