data_PCOD8060550
_publ_section_title
;
Structure prediction by ZEFSAII (Michael W. Deem and Ramdas Pophale) SiO2 
 PCOD8060550
Probable space group: P 2/M
;
_chemical_formula_sum "Si O2"
_cell_formula_units_Z 28
_cell_length_a 11.908851
_cell_length_b 17.803757
_cell_length_c 9.241870
_cell_angle_alpha 90.000000
_cell_angle_beta 49.515164
_cell_angle_gamma 90.000000
_cell_volume 1490.338885
_symmetry_space_group_name_H-M "P 2/M"
_symmetry_group_IT_number 10
_symmetry_cell_setting 'monoclinic'
loop_
_space_group_symop_operation_xyz
x,y,z
-x,y,-z
-x,-y,-z
x,-y,z
loop_
_atom_site_type_symbol
_atom_site_label
_atom_site_fract_x
_atom_site_fract_y
_atom_site_fract_z
Si Si1 0.781687 0.084260 0.960611
Si Si2 0.118460 0.915606 0.729012
Si Si3 0.162401 0.145065 0.390290
Si Si4 0.348876 0.179963 0.704758
Si Si5 0.638288 0.713558 0.782482
Si Si6 0.442690 0.340784 0.697873
Si Si7 0.340479 0.581997 0.057468
O O1 0.781349 0.096872 0.790745
O O2 0.943320 0.098546 0.897193
O O3 0.730029 0.000000 0.034810
O O4 0.660691 0.140087 0.130790
O O5 0.160230 0.911817 0.525630
O O6 0.208720 0.850427 0.733480
O O7 0.159690 0.000000 0.749022
O O8 0.265380 0.215312 0.333815
O O9 0.000000 0.178539 0.500000
O O10 0.500000 0.156320 0.500000
O O11 0.341531 0.269596 0.735938
O O12 0.584532 0.686306 0.670265
O O13 0.736604 0.649082 0.785494
O O14 0.500000 0.735510 0.000000
O O15 0.500000 0.379687 0.500000
O O16 0.350631 0.397945 0.877245
O O17 0.262392 0.500000 0.136188
O O18 0.500000 0.577637 0.000000
#
# Coordination Sequence:
#
# PCOD8060550 Si02
#       7
#     4   4   4   4   4   4   4
#     4  10  20  34  50  67  90 123 163 205 245 282
#     4  10  21  35  49  67  94 127 163 205 245 278
#     4  10  19  32  51  72  93 121 162 203 240 284
#     4  11  21  33  48  68  96 126 159 195 238 287
#     4   9  17  31  49  68  96 126 151 187 236 282
#     4   9  17  28  45  68  96 123 150 189 234 273
#     4   8  15  28  47  70  94 122 154 185 225 279
#
# _framework density 18.787673999999999
#
# number of rings (size 3 to 8) (size 9 to 14) (size 15 to 20)
#    0.000    2.714    0.000    4.714    0.000    4.286 
#    0.000    0.000    0.000    3.857    0.000    0.000 
#    0.000   22.857    0.000    0.000    0.000    0.000 
#
# Total GULP energy -346934.070748 kJ/mol
# GULP energy per Si atom -12390.502527 kJ/mol
# Density = 1.874491 g / cm^3
# Si number density = 18.787674 Si / 1000 Ang^3
#
#
#
# Elastic Constant Matrix: (Units=GPa)
#
#
# Indices 1 2 3 4 5 6 
#
# 1 45.8790 13.5647 13.0776 0.0000 15.8376 0.0000
# 2 13.5647 85.2411 17.2018 0.0000 -5.3922 0.0000
# 3 13.0776 17.2018 79.4716 0.0000 9.6318 0.0000
# 4 0.0000 0.0000 0.0000 8.0662 0.0000 8.4606
# 5 15.8376 -5.3922 9.6318 0.0000 25.1891 0.0000
# 6 0.0000 0.0000 0.0000 8.4606 0.0000 10.8165
#
#
#
# Elastic Compliance Matrix: (Units=1/GPa)
#
#
# Indices 1 2 3 4 5 6 
#
# 1 0.030898 -0.005919 -0.001358 0.000000 -0.020175 0.000000
# 2 -0.005919 0.013762 -0.002950 0.000000 0.007795 0.000000
# 3 -0.001358 -0.002950 0.014070 0.000000 -0.005158 0.000000
# 4 0.000000 0.000000 0.000000 0.690418 0.000000 -0.540039
# 5 -0.020175 0.007795 -0.005158 0.000000 0.056025 0.000000
# 6 0.000000 0.000000 0.000000 -0.540039 0.000000 0.514865
#
#
# Mechanical properties :
#
#
# Convention : Reuss Voigt Hill
#
# Bulk Modulus (GPa) = 26.12576 33.14223 29.63399
# Shear Modulus (GPa) = 3.69481 19.93087 11.81284
#
# Velocity S-wave (km/s) = 1.40388 3.26060 2.51022
# Velocity P-wave (km/s) = 4.06987 5.64394 4.92026
#
# Compressibility (1/GPa) = 0.03827640
#
# Stress axis : x y z
#
# Youngs Moduli (GPa) = 32.36453 72.66556 71.07258
#
# Poissons Ratio (x) = 0.43011 0.09653
# Poissons Ratio (y) = 0.19157 0.20963
# Poissons Ratio (z) = 0.04396 0.21433
#
# Static dielectric constant tensor:
#      x y z
#    x 3.285570 0.000000 0.338790 
#    y 0.000000 3.679250 0.000000 
#    z 0.338790 0.000000 3.586180 
# 
# 
# High freq. dielectric constant tensor:
#      x y z
#    x 1.704640 0.000000 0.038670 
#    y 0.000000 1.720100 0.000000 
#    z 0.038670 0.000000 1.730670 
# 
# From -- ./inp_files/25962.got.cif
#   From: 2010.06.25/outbox.cif.g09.slc.cpg/sg10_13_cif.got.tgz:25962.got - 2010.06.27 22:07:45.
