data_PCOD8060406
_publ_section_title
;
Structure prediction by ZEFSAII (Michael W. Deem and Ramdas Pophale) SiO2 
 PCOD8060406
Probable space group: P 2/M
;
_chemical_formula_sum "Si O2"
_cell_formula_units_Z 26
_cell_length_a 27.458010
_cell_length_b 8.204167
_cell_length_c 5.253950
_cell_angle_alpha 90.000000
_cell_angle_beta 88.659789
_cell_angle_gamma 90.000000
_cell_volume 1183.234066
_symmetry_space_group_name_H-M "P 2/M"
_symmetry_group_IT_number 10
_symmetry_cell_setting 'monoclinic'
loop_
_space_group_symop_operation_xyz
x,y,z
-x,y,-z
-x,-y,-z
x,-y,z
loop_
_atom_site_type_symbol
_atom_site_label
_atom_site_fract_x
_atom_site_fract_y
_atom_site_fract_z
Si Si1 0.697932 0.808173 0.259721
Si Si2 0.807120 0.693635 0.269276
Si Si3 0.351250 0.187174 0.236148
Si Si4 0.137231 0.693791 0.237020
Si Si5 0.443817 0.177850 0.935445
Si Si6 0.972604 0.305564 0.753348
Si Si7 0.532484 0.500000 0.251373
O O1 0.754025 0.768613 0.286387
O O2 0.676590 0.731118 0.001890
O O3 0.689613 0.000000 0.252196
O O4 0.667057 0.730528 0.499448
O O5 0.803434 0.500000 0.268046
O O6 0.836167 0.757421 0.512504
O O7 0.834448 0.758917 0.014561
O O8 0.409706 0.206451 0.187770
O O9 0.335590 0.000000 0.252002
O O10 0.135969 0.500000 0.234926
O O11 0.082366 0.762760 0.239760
O O12 0.435511 0.332727 0.749169
O O13 0.429251 0.000000 0.812580
O O14 0.500000 0.169286 0.000000
O O15 0.972482 0.500000 0.753260
O O16 0.000000 0.238964 0.500000
O O17 0.000000 0.238965 0.000000
O O18 0.500000 0.500000 0.500000
O O19 0.500000 0.500000 0.000000
#
# Coordination Sequence:
#
# PCOD8060406 Si02
#       7
#     4   4   4   4   4   4   2
#     4  10  20  36  54  74 103 133 167 216 260 302
#     4  10  19  32  48  70  98 129 167 205 252 306
#     4   9  19  35  55  78 103 132 168 209 260 311
#     4   9  17  28  44  66  98 133 163 207 254 297
#     4   9  19  38  62  86 114 150 186 226 279 338
#     4   9  15  23  37  60  92 129 164 196 243 303
#     4  10  22  38  56  84 116 144 184 228 268 320
#
# _framework density 21.973673999999999
#
# number of rings (size 3 to 8) (size 9 to 14) (size 15 to 20)
#    0.000    2.615    0.000    1.846    0.000    6.462 
#    2.769    4.615    0.000    0.000    0.000    0.000 
#    0.000   12.308    0.000    0.000    0.000    0.000 
#
# Total GULP energy -322198.375709 kJ/mol
# GULP energy per Si atom -12392.245220 kJ/mol
# Density = 2.192366 g / cm^3
# Si number density = 21.973674 Si / 1000 Ang^3
#
#
#
# Elastic Constant Matrix: (Units=GPa)
#
#
# Indices 1 2 3 4 5 6 
#
# 1 155.0082 -8.0498 63.5467 0.0000 -16.0690 0.0000
# 2 -8.0498 68.4087 10.9945 0.0000 -12.4395 0.0000
# 3 63.5467 10.9945 184.9724 0.0000 -17.9299 0.0000
# 4 0.0000 0.0000 0.0000 9.0491 0.0000 -8.6633
# 5 -16.0690 -12.4395 -17.9299 0.0000 47.8436 0.0000
# 6 0.0000 0.0000 0.0000 -8.6633 0.0000 23.7523
#
#
#
# Elastic Compliance Matrix: (Units=1/GPa)
#
#
# Indices 1 2 3 4 5 6 
#
# 1 0.007818 0.001718 -0.002584 0.000000 0.002104 0.000000
# 2 0.001718 0.015774 -0.001115 0.000000 0.004260 0.000000
# 3 -0.002584 -0.001115 0.006483 0.000000 0.001272 0.000000
# 4 0.000000 0.000000 0.000000 0.169800 0.000000 0.061932
# 5 0.002104 0.004260 0.001272 0.000000 0.023193 0.000000
# 6 0.000000 0.000000 0.000000 0.061932 0.000000 0.064690
#
#
# Mechanical properties :
#
#
# Convention : Reuss Voigt Hill
#
# Bulk Modulus (GPa) = 38.29412 60.15248 49.22330
# Shear Modulus (GPa) = 16.64312 38.92216 27.78264
#
# Velocity S-wave (km/s) = 2.75510 4.21326 3.55964
# Velocity P-wave (km/s) = 5.25222 7.14863 6.27251
#
# Compressibility (1/GPa) = 0.02611367
#
# Stress axis : x y z
#
# Youngs Moduli (GPa) = 127.91134 63.39517 154.23785
#
# Poissons Ratio (x) = -0.10890 0.39855
# Poissons Ratio (y) = -0.21973 0.17194
# Poissons Ratio (z) = 0.33052 0.07067
#
# Static dielectric constant tensor:
#      x y z
#    x 3.971040 0.000000 -0.095800 
#    y 0.000000 4.206780 0.000000 
#    z -0.095800 0.000000 4.306390 
# 
# 
# High freq. dielectric constant tensor:
#      x y z
#    x 1.870530 0.000000 -0.011970 
#    y 0.000000 1.817120 0.000000 
#    z -0.011970 0.000000 1.871760 
# 
# From -- ./inp_files/13426.got.cif
#   From: 2010.06.25/outbox.cif.g09.slc.cpg/sg10_7_cif.got.tgz:13426.got - 2010.06.27 22:07:45.
