data_PCOD8060456
_publ_section_title
;
Structure prediction by ZEFSAII (Michael W. Deem and Ramdas Pophale) SiO2 
 PCOD8060456
Probable space group: P 2/M
;
_chemical_formula_sum "Si O2"
_cell_formula_units_Z 28
_cell_length_a 10.263945
_cell_length_b 12.656153
_cell_length_c 14.723752
_cell_angle_alpha 90.000000
_cell_angle_beta 63.072318
_cell_angle_gamma 90.000000
_cell_volume 1705.274417
_symmetry_space_group_name_H-M "P 2/M"
_symmetry_group_IT_number 10
_symmetry_cell_setting 'monoclinic'
loop_
_space_group_symop_operation_xyz
x,y,z
-x,y,-z
-x,-y,-z
x,-y,z
loop_
_atom_site_type_symbol
_atom_site_label
_atom_site_fract_x
_atom_site_fract_y
_atom_site_fract_z
Si Si1 0.845685 0.883942 0.500368
Si Si2 0.973047 0.379170 0.155040
Si Si3 0.766159 0.000000 0.043153
Si Si4 0.445346 0.805406 0.915459
Si Si5 0.272343 0.874104 0.277976
Si Si6 0.762679 0.621187 0.058064
Si Si7 0.972987 0.806796 0.286875
Si Si8 0.944958 0.000000 0.164899
O O1 0.733931 0.841718 0.612885
O O2 0.861183 0.808724 0.407851
O O3 0.000000 0.895508 0.500000
O O4 0.796473 0.000000 0.481384
O O5 0.979927 0.500000 0.185251
O O6 0.835379 0.360833 0.133005
O O7 0.955783 0.308122 0.249155
O O8 0.121052 0.347730 0.056085
O O9 0.898582 0.000000 0.931650
O O10 0.674307 0.103945 0.052703
O O11 0.817378 0.000000 0.130788
O O12 0.577043 0.830083 0.806581
O O13 0.378823 0.693874 0.906060
O O14 0.500000 0.796746 0.000000
O O15 0.139641 0.823004 0.264490
O O16 0.261408 0.000000 0.269890
O O17 0.713173 0.500000 0.062457
O O18 0.925779 0.895663 0.230508
#
# Coordination Sequence:
#
# PCOD8060456 Si02
#       8
#     4   4   2   4   4   4   4   2
#     4   8  15  29  48  72  97 127 165 203 241 283
#     4   9  18  33  54  74  97 128 163 211 252 282
#     4  11  23  32  41  69 107 130 153 193 253 298
#     4  12  22  32  49  72 102 138 161 190 242 303
#     4  10  19  32  49  72 106 137 159 194 245 298
#     4   9  19  36  52  71  98 130 170 206 242 286
#     4  11  17  30  54  77  95 121 170 209 242 291
#     4  11  20  30  48  71  95 125 163 209 240 279
#
# _framework density 16.419646
#
# number of rings (size 3 to 8) (size 9 to 14) (size 15 to 20)
#    0.000    2.000    2.143    5.357    0.000    2.571 
#    0.000    0.714    0.000    9.000    0.000    2.000 
#    0.000    0.000    0.000    0.000    0.000    0.000 
#
# Total GULP energy -347172.537605 kJ/mol
# GULP energy per Si atom -12399.019200 kJ/mol
# Density = 1.638227 g / cm^3
# Si number density = 16.419646 Si / 1000 Ang^3
#
#
#
# Elastic Constant Matrix: (Units=GPa)
#
#
# Indices 1 2 3 4 5 6 
#
# 1 67.8665 45.7944 31.2213 0.0000 4.9596 0.0000
# 2 45.7944 99.3255 57.2363 0.0000 9.4133 0.0000
# 3 31.2213 57.2363 105.1564 0.0000 9.6982 0.0000
# 4 0.0000 0.0000 0.0000 24.9101 0.0000 4.8704
# 5 4.9596 9.4133 9.6982 0.0000 20.3152 0.0000
# 6 0.0000 0.0000 0.0000 4.8704 0.0000 23.7520
#
#
#
# Elastic Compliance Matrix: (Units=1/GPa)
#
#
# Indices 1 2 3 4 5 6 
#
# 1 0.021541 -0.009078 -0.001420 0.000000 -0.000375 0.000000
# 2 -0.009078 0.018686 -0.007198 0.000000 -0.003006 0.000000
# 3 -0.001420 -0.007198 0.014132 0.000000 -0.003064 0.000000
# 4 0.000000 0.000000 0.000000 0.041821 0.000000 -0.008575
# 5 -0.000375 -0.003006 -0.003064 0.000000 0.052171 0.000000
# 6 0.000000 0.000000 0.000000 -0.008575 0.000000 0.043860
#
#
# Mechanical properties :
#
#
# Convention : Reuss Voigt Hill
#
# Bulk Modulus (GPa) = 52.72403 60.09470 56.40937
# Shear Modulus (GPa) = 21.37430 23.00189 22.18810
#
# Velocity S-wave (km/s) = 3.61189 3.74689 3.68001
# Velocity P-wave (km/s) = 7.04091 7.44296 7.24472
#
# Compressibility (1/GPa) = 0.01896668
#
# Stress axis : x y z
#
# Youngs Moduli (GPa) = 46.42348 53.51557 70.76174
#
# Poissons Ratio (x) = 0.48580 0.10048
# Poissons Ratio (y) = 0.42142 0.50937
# Poissons Ratio (z) = 0.06592 0.38523
#
# Static dielectric constant tensor:
#      x y z
#    x 2.976370 0.000000 0.040760 
#    y 0.000000 3.018270 0.000000 
#    z 0.040760 0.000000 3.373220 
# 
# 
# High freq. dielectric constant tensor:
#      x y z
#    x 1.617410 0.000000 0.008360 
#    y 0.000000 1.622610 0.000000 
#    z 0.008360 0.000000 1.633890 
# 
# From -- ./inp_files/28372.got.cif
#   From: 2010.06.25/outbox.cif.g09.slc.cpg/sg10_15_cif.got.tgz:28372.got - 2010.06.27 22:07:45.
