data_PCOD8060559
_publ_section_title
;
Structure prediction by ZEFSAII (Michael W. Deem and Ramdas Pophale) SiO2 
 PCOD8060559
Probable space group: P 2/M
;
_chemical_formula_sum "Si O2"
_cell_formula_units_Z 28
_cell_length_a 17.229548
_cell_length_b 9.319896
_cell_length_c 20.878698
_cell_angle_alpha 90.000000
_cell_angle_beta 26.976526
_cell_angle_gamma 90.000000
_cell_volume 1520.847765
_symmetry_space_group_name_H-M "P 2/M"
_symmetry_group_IT_number 10
_symmetry_cell_setting 'monoclinic'
loop_
_space_group_symop_operation_xyz
x,y,z
-x,y,-z
-x,-y,-z
x,-y,z
loop_
_atom_site_type_symbol
_atom_site_label
_atom_site_fract_x
_atom_site_fract_y
_atom_site_fract_z
Si Si1 0.680218 0.169110 0.836111
Si Si2 0.402259 0.832613 0.701080
Si Si3 0.917656 0.155866 0.991088
Si Si4 0.016175 0.333819 0.624865
Si Si5 0.208856 0.663888 0.735063
Si Si6 0.277599 0.339398 0.537111
Si Si7 0.816900 0.842875 0.602736
O O1 0.683719 0.205284 0.756995
O O2 0.835894 0.251505 0.756184
O O3 0.709577 0.000000 0.825277
O O4 0.500000 0.218636 0.000000
O O5 0.337040 0.751964 0.685534
O O6 0.584810 0.774217 0.589637
O O7 0.411593 0.000000 0.677247
O O8 0.280214 0.803283 0.852132
O O9 0.014668 0.276652 0.879494
O O10 0.933948 0.000000 0.944787
O O11 0.000000 0.144368 0.000000
O O12 0.983897 0.500000 0.631630
O O13 0.094424 0.312708 0.638282
O O14 0.162507 0.273300 0.468716
O O15 0.208905 0.500000 0.758298
O O16 0.268413 0.680766 0.619324
O O17 0.340683 0.500000 0.474161
O O18 0.000000 0.859050 0.500000
O O19 0.761972 0.000000 0.615767
#
# Coordination Sequence:
#
# PCOD8060559 Si02
#       7
#     4   4   4   4   4   4   4
#     4   9  18  34  56  80 104 130 162 200 242 292
#     4  10  20  33  51  74  97 126 169 215 254 297
#     4   8  16  31  48  69  95 118 152 205 252 292
#     4  10  20  34  51  73 103 135 167 203 245 293
#     4  10  19  32  51  72  97 132 170 207 252 301
#     4  10  22  36  48  69 102 135 167 207 251 296
#     4   8  15  30  52  75  99 127 159 194 233 284
#
# _framework density 18.410784
#
# number of rings (size 3 to 8) (size 9 to 14) (size 15 to 20)
#    0.000    2.714    0.000    3.429    0.000   10.000 
#    0.000    1.429    0.000    6.857    0.000    0.000 
#    0.000    0.000    0.000    0.000    0.000    0.000 
#
# Total GULP energy -347006.493509 kJ/mol
# GULP energy per Si atom -12393.089054 kJ/mol
# Density = 1.836888 g / cm^3
# Si number density = 18.410784 Si / 1000 Ang^3
#
#
#
# Elastic Constant Matrix: (Units=GPa)
#
#
# Indices 1 2 3 4 5 6 
#
# 1 45.8247 35.0697 22.7782 0.0000 -12.2702 0.0000
# 2 35.0697 109.1150 56.1880 0.0000 -12.6496 0.0000
# 3 22.7782 56.1880 116.0807 0.0000 -13.6551 0.0000
# 4 0.0000 0.0000 0.0000 29.2433 0.0000 0.2476
# 5 -12.2702 -12.6496 -13.6551 0.0000 15.3250 0.0000
# 6 0.0000 0.0000 0.0000 0.2476 0.0000 11.2001
#
#
#
# Elastic Compliance Matrix: (Units=1/GPa)
#
#
# Indices 1 2 3 4 5 6 
#
# 1 0.033678 -0.008422 -0.000198 0.000000 0.019836 0.000000
# 2 -0.008422 0.014723 -0.005404 0.000000 0.000594 0.000000
# 3 -0.000198 -0.005404 0.011982 0.000000 0.006057 0.000000
# 4 0.000000 0.000000 0.000000 0.034202 0.000000 -0.000756
# 5 0.019836 0.000594 0.006057 0.000000 0.087022 0.000000
# 6 0.000000 0.000000 0.000000 -0.000756 0.000000 0.089302
#
#
# Mechanical properties :
#
#
# Convention : Reuss Voigt Hill
#
# Bulk Modulus (GPa) = 30.92768 55.45471 43.19120
# Shear Modulus (GPa) = 16.14274 21.61930 18.88102
#
# Velocity S-wave (km/s) = 2.96431 3.43049 3.20588
# Velocity P-wave (km/s) = 5.34334 6.77327 6.10035
#
# Compressibility (1/GPa) = 0.03233349
#
# Stress axis : x y z
#
# Youngs Moduli (GPa) = 29.69293 67.91945 83.45903
#
# Poissons Ratio (x) = 0.57205 0.01655
# Poissons Ratio (y) = 0.25009 0.45102
# Poissons Ratio (z) = 0.00589 0.36704
#
# Static dielectric constant tensor:
#      x y z
#    x 3.118490 0.000000 0.041110 
#    y 0.000000 3.563140 0.000000 
#    z 0.041110 0.000000 4.004260 
# 
# 
# High freq. dielectric constant tensor:
#      x y z
#    x 1.677780 0.000000 0.001090 
#    y 0.000000 1.721490 0.000000 
#    z 0.001090 0.000000 1.713780 
# 
# From -- ./inp_files/85593.got.cif
#   From: 2010.06.25/outbox.cif.g09.slc.cpg/sg10_43_cif.got.tgz:85593.got - 2010.06.27 22:07:45.
