data_PCOD8060762
_publ_section_title
;
Structure prediction by ZEFSAII (Michael W. Deem and Ramdas Pophale) SiO2 
 PCOD8060762
Probable space group: P 2/M
;
_chemical_formula_sum "Si O2"
_cell_formula_units_Z 32
_cell_length_a 11.001464
_cell_length_b 9.432744
_cell_length_c 21.482792
_cell_angle_alpha 90.000000
_cell_angle_beta 131.757175
_cell_angle_gamma 90.000000
_cell_volume 1663.040916
_symmetry_space_group_name_H-M "P 2/M"
_symmetry_group_IT_number 10
_symmetry_cell_setting 'monoclinic'
loop_
_space_group_symop_operation_xyz
x,y,z
-x,y,-z
-x,-y,-z
x,-y,z
loop_
_atom_site_type_symbol
_atom_site_label
_atom_site_fract_x
_atom_site_fract_y
_atom_site_fract_z
Si Si1 0.896610 0.660746 0.161909
Si Si2 0.177483 0.167324 0.412609
Si Si3 0.825798 0.336621 0.467414
Si Si4 0.476655 0.838715 0.170470
Si Si5 0.827714 0.157503 0.249410
Si Si6 0.507402 0.661654 0.707395
Si Si7 0.747331 0.334688 0.681061
Si Si8 0.386189 0.337328 0.019533
O O1 0.881516 0.500000 0.178524
O O2 0.796259 0.745027 0.179491
O O3 0.086267 0.705898 0.224857
O O4 0.804182 0.683195 0.064856
O O5 0.232373 0.238906 0.495379
O O6 0.272095 0.239080 0.387155
O O7 0.986022 0.204129 0.341909
O O8 0.215332 0.000000 0.426808
O O9 0.836981 0.500000 0.493508
O O10 0.686741 0.318615 0.367504
O O11 0.000000 0.285609 0.500000
O O12 0.672240 0.833694 0.240688
O O13 0.418644 0.758092 0.212536
O O14 0.412100 0.764620 0.086447
O O15 0.411809 0.000000 0.149190
O O16 0.854766 0.000000 0.232388
O O17 0.549103 0.500000 0.739226
O O18 0.597314 0.703898 0.674214
O O19 0.745993 0.500000 0.661353
O O20 0.421486 0.500000 0.051009
O O21 0.500000 0.294443 0.000000
#
# Coordination Sequence:
#
# PCOD8060762 Si02
#       8
#     4   4   4   4   4   4   4   4
#     4   9  17  31  53  78 103 134 173 216 260 307
#     4  10  20  34  55  82 110 142 177 218 266 314
#     4  10  21  37  57  82 110 140 176 219 268 317
#     4  11  22  34  52  78 109 143 177 215 267 323
#     4   9  18  31  48  75 109 140 170 209 262 318
#     4  10  22  39  57  76 103 141 182 224 265 309
#     4   9  19  37  58  78 103 140 185 224 259 306
#     4  10  19  32  52  81 111 137 171 217 266 316
#
# _framework density 19.241859000000002
#
# number of rings (size 3 to 8) (size 9 to 14) (size 15 to 20)
#    0.000    2.250    1.250    1.500    0.000    3.500 
#    0.000    3.125    0.000    3.750    0.000    0.000 
#    0.000    0.000    0.000    0.000    0.000    0.000 
#
# Total GULP energy -396767.019873 kJ/mol
# GULP energy per Si atom -12398.969371 kJ/mol
# Density = 1.919806 g / cm^3
# Si number density = 19.241859 Si / 1000 Ang^3
#
#
#
# Elastic Constant Matrix: (Units=GPa)
#
#
# Indices 1 2 3 4 5 6 
#
# 1 75.6745 40.8602 28.3816 0.0000 -12.3840 0.0000
# 2 40.8602 102.5551 52.6151 0.0000 -25.7641 0.0000
# 3 28.3816 52.6151 78.0561 0.0000 -20.2582 0.0000
# 4 0.0000 0.0000 0.0000 7.0246 0.0000 16.3678
# 5 -12.3840 -25.7641 -20.2582 0.0000 28.5527 0.0000
# 6 0.0000 0.0000 0.0000 16.3678 0.0000 2.7223
#
#
#
# Elastic Compliance Matrix: (Units=1/GPa)
#
#
# Indices 1 2 3 4 5 6 
#
# 1 0.017164 -0.005398 -0.002371 0.000000 0.000891 0.000000
# 2 -0.005398 0.018147 -0.008123 0.000000 0.008270 0.000000
# 3 -0.002371 -0.008123 0.020812 0.000000 0.006408 0.000000
# 4 0.000000 0.000000 0.000000 -0.010942 0.000000 0.065792
# 5 0.000891 0.008270 0.006408 0.000000 0.047418 0.000000
# 6 0.000000 0.000000 0.000000 0.065792 0.000000 -0.028236
#
#
# Mechanical properties :
#
#
# Convention : Reuss Voigt Hill
#
# Bulk Modulus (GPa) = 41.08699 55.55550 48.32125
# Shear Modulus (GPa) = 47.95712 16.62184 32.28948
#
# Velocity S-wave (km/s) = 4.99774 2.94230 4.10089
# Velocity P-wave (km/s) = 7.39612 6.36221 6.89856
#
# Compressibility (1/GPa) = 0.02433860
#
# Stress axis : x y z
#
# Youngs Moduli (GPa) = 58.26021 55.10667 48.04949
#
# Poissons Ratio (x) = 0.29749 0.11392
# Poissons Ratio (y) = 0.31451 0.39030
# Poissons Ratio (z) = 0.13813 0.44763
#
# Static dielectric constant tensor:
#      x y z
#    x 3.362880 0.000000 0.171100 
#    y 0.000000 3.517490 0.000000 
#    z 0.171100 0.000000 3.422550 
# 
# 
# High freq. dielectric constant tensor:
#      x y z
#    x 1.728860 0.000000 0.006640 
#    y 0.000000 1.748070 0.000000 
#    z 0.006640 0.000000 1.745640 
# 
# From -- ./inp_files/83625.got.cif
#   From: 2010.06.25/outbox.cif.g09.slc.cpg/sg10_42_cif.got.tgz:83625.got - 2010.06.27 22:07:45.
