data_PCOD8060096
_publ_section_title
;
Structure prediction by ZEFSAII (Michael W. Deem and Ramdas Pophale) SiO2 
 PCOD8060096
Probable space group: P 2/M
;
_chemical_formula_sum "Si O2"
_cell_formula_units_Z 28
_cell_length_a 14.811811
_cell_length_b 9.499152
_cell_length_c 11.763273
_cell_angle_alpha 90.000000
_cell_angle_beta 109.501964
_cell_angle_gamma 90.000000
_cell_volume 1560.135987
_symmetry_space_group_name_H-M "P 2/M"
_symmetry_group_IT_number 10
_symmetry_cell_setting 'monoclinic'
loop_
_space_group_symop_operation_xyz
x,y,z
-x,y,-z
-x,-y,-z
x,-y,z
loop_
_atom_site_type_symbol
_atom_site_label
_atom_site_fract_x
_atom_site_fract_y
_atom_site_fract_z
Si Si1 0.868903 0.833191 0.345754
Si Si2 0.407403 0.837709 0.527971
Si Si3 0.710865 0.660701 0.148085
Si Si4 0.671778 0.665848 0.875897
Si Si5 0.920414 0.166141 0.615207
Si Si6 0.545477 0.338873 0.244524
Si Si7 0.762421 0.163435 0.716334
O O1 0.783121 0.759474 0.245073
O O2 0.873515 0.777530 0.477909
O O3 0.968813 0.789317 0.326759
O O4 0.852314 0.000000 0.333023
O O5 0.500000 0.782899 0.500000
O O6 0.396729 0.749725 0.638082
O O7 0.316418 0.810252 0.412370
O O8 0.418379 0.000000 0.567056
O O9 0.745664 0.500000 0.175657
O O10 0.603158 0.677177 0.151122
O O11 0.708225 0.706485 0.016017
O O12 0.678660 0.500000 0.857004
O O13 0.562409 0.718716 0.816028
O O14 0.741285 0.744990 0.818050
O O15 0.862132 0.216931 0.702050
O O16 0.912684 0.000000 0.602560
O O17 0.542819 0.500000 0.283833
O O18 0.766347 0.000000 0.754080
#
# Coordination Sequence:
#
# PCOD8060096 Si02
#       7
#     4   4   4   4   4   4   4
#     4   9  17  34  58  80 100 127 167 207 249 302
#     4  10  19  31  49  76 107 131 157 204 257 295
#     4  10  21  36  52  73 101 133 170 214 257 290
#     4  10  21  36  51  69 100 139 175 208 244 294
#     4   8  16  32  56  81 103 129 161 203 252 303
#     4  10  20  34  53  73  97 135 177 209 244 298
#     4  10  19  33  52  75 105 136 165 201 251 302
#
# _framework density 17.947154000000001
#
# number of rings (size 3 to 8) (size 9 to 14) (size 15 to 20)
#    0.000    2.429    1.429    2.143    0.000    4.857 
#    0.000    3.571    0.000    6.857    0.000    0.000 
#    0.000    0.000    0.000    0.000    0.000    0.000 
#
# Total GULP energy -347176.362386 kJ/mol
# GULP energy per Si atom -12399.155800 kJ/mol
# Density = 1.790631 g / cm^3
# Si number density = 17.947154 Si / 1000 Ang^3
#
#
#
# Elastic Constant Matrix: (Units=GPa)
#
#
# Indices 1 2 3 4 5 6 
#
# 1 106.7889 26.3906 42.0674 0.0000 -19.1534 0.0000
# 2 26.3906 41.9982 38.0921 0.0000 -7.8503 0.0000
# 3 42.0674 38.0921 88.5978 0.0000 -16.0691 0.0000
# 4 0.0000 0.0000 0.0000 27.1696 0.0000 -4.9618
# 5 -19.1534 -7.8503 -16.0691 0.0000 28.5628 0.0000
# 6 0.0000 0.0000 0.0000 -4.9618 0.0000 24.1876
#
#
#
# Elastic Compliance Matrix: (Units=1/GPa)
#
#
# Indices 1 2 3 4 5 6 
#
# 1 0.012625 -0.003889 -0.003320 0.000000 0.005529 0.000000
# 2 -0.003889 0.040281 -0.015521 0.000000 -0.000269 0.000000
# 3 -0.003320 -0.015521 0.020445 0.000000 0.005010 0.000000
# 4 0.000000 0.000000 0.000000 0.038238 0.000000 0.007844
# 5 0.005529 -0.000269 0.005010 0.000000 0.041463 0.000000
# 6 0.000000 0.000000 0.000000 0.007844 0.000000 0.042953
#
#
# Mechanical properties :
#
#
# Convention : Reuss Voigt Hill
#
# Bulk Modulus (GPa) = 35.85187 50.05389 42.95288
# Shear Modulus (GPa) = 19.93927 24.70633 22.32280
#
# Velocity S-wave (km/s) = 3.33678 3.71430 3.53059
# Velocity P-wave (km/s) = 5.90468 6.80771 6.37221
#
# Compressibility (1/GPa) = 0.02789255
#
# Stress axis : x y z
#
# Youngs Moduli (GPa) = 79.20983 24.82538 48.91168
#
# Poissons Ratio (x) = 0.09654 0.16237
# Poissons Ratio (y) = 0.30802 0.75916
# Poissons Ratio (z) = 0.26294 0.38532
#
# Static dielectric constant tensor:
#      x y z
#    x 3.763630 0.000000 -0.193420 
#    y 0.000000 3.090310 0.000000 
#    z -0.193420 0.000000 3.204320 
# 
# 
# High freq. dielectric constant tensor:
#      x y z
#    x 1.704930 0.000000 -0.008450 
#    y 0.000000 1.672260 0.000000 
#    z -0.008450 0.000000 1.685660 
# 
# From -- ./inp_files/49106.got.cif
#   From: 2010.06.25/outbox.cif.g09.slc.cpg/sg10_25_cif.got.tgz:49106.got - 2010.06.27 22:07:45.
