data_PCOD8060131
_publ_section_title
;
Structure prediction by ZEFSAII (Michael W. Deem and Ramdas Pophale) SiO2 
 PCOD8060131
Probable space group: P 2/M
;
_chemical_formula_sum "Si O2"
_cell_formula_units_Z 32
_cell_length_a 32.086473
_cell_length_b 9.345437
_cell_length_c 11.772399
_cell_angle_alpha 90.000000
_cell_angle_beta 29.024142
_cell_angle_gamma 90.000000
_cell_volume 1712.725494
_symmetry_space_group_name_H-M "P 2/M"
_symmetry_group_IT_number 10
_symmetry_cell_setting 'monoclinic'
loop_
_space_group_symop_operation_xyz
x,y,z
-x,y,-z
-x,-y,-z
x,-y,z
loop_
_atom_site_type_symbol
_atom_site_label
_atom_site_fract_x
_atom_site_fract_y
_atom_site_fract_z
Si Si1 0.399712 0.666145 0.239670
Si Si2 0.775988 0.170700 0.757673
Si Si3 0.504461 0.658236 0.623004
Si Si4 0.914209 0.665521 0.557878
Si Si5 0.890375 0.335146 0.874873
Si Si6 0.337065 0.842621 0.763854
Si Si7 0.334624 0.666889 0.144177
Si Si8 0.735686 0.160040 0.300053
O O1 0.394430 0.500000 0.286708
O O2 0.351680 0.694324 0.235423
O O3 0.348161 0.760217 0.452718
O O4 0.500000 0.714134 0.000000
O O5 0.867504 0.235376 0.576222
O O6 0.745811 0.239937 0.709884
O O7 0.783531 0.000000 0.728446
O O8 0.708278 0.220127 0.015975
O O9 0.500000 0.653990 0.500000
O O10 0.516126 0.500000 0.647660
O O11 0.585395 0.748709 0.467876
O O12 0.418011 0.725595 0.878899
O O13 0.890452 0.500000 0.592776
O O14 0.887722 0.709613 0.748726
O O15 0.015332 0.691117 0.299374
O O16 0.863754 0.500000 0.949695
O O17 0.824357 0.244950 0.110355
O O18 0.269221 0.848834 0.824283
O O19 0.373040 0.000000 0.707091
O O20 0.317300 0.500000 0.159251
O O21 0.740876 0.000000 0.340031
#
# Coordination Sequence:
#
# PCOD8060131 Si02
#       8
#     4   4   4   4   4   4   4   4
#     4  10  22  41  62  81 106 144 192 240 280 322
#     4  11  21  33  51  78 114 149 179 214 269 335
#     4  10  19  31  50  74  99 133 176 222 269 319
#     4   9  18  33  54  82 115 148 183 225 273 328
#     4   9  18  33  55  83 113 147 186 226 273 328
#     4  10  21  33  46  73 110 145 176 214 266 324
#     4  10  21  37  55  78 106 139 184 231 278 329
#     4  11  22  36  55  81 113 146 186 229 275 329
#
# _framework density 18.683671
#
# number of rings (size 3 to 8) (size 9 to 14) (size 15 to 20)
#    0.000    2.000    2.500    2.250    0.000    4.500 
#    0.000    1.250    0.000    0.750    0.000    5.250 
#    0.000    0.000    0.000    0.000    0.000    0.000 
#
# Total GULP energy -396740.747769 kJ/mol
# GULP energy per Si atom -12398.148368 kJ/mol
# Density = 1.864115 g / cm^3
# Si number density = 18.683671 Si / 1000 Ang^3
#
#
#
# Elastic Constant Matrix: (Units=GPa)
#
#
# Indices 1 2 3 4 5 6 
#
# 1 85.7602 38.7645 22.1692 0.0000 -16.2247 0.0000
# 2 38.7645 91.5963 52.4806 0.0000 -15.2383 0.0000
# 3 22.1692 52.4806 92.3192 0.0000 -14.2485 0.0000
# 4 0.0000 0.0000 0.0000 8.7141 0.0000 3.0335
# 5 -16.2247 -15.2383 -14.2485 0.0000 27.6260 0.0000
# 6 0.0000 0.0000 0.0000 3.0335 0.0000 12.8197
#
#
#
# Elastic Compliance Matrix: (Units=1/GPa)
#
#
# Indices 1 2 3 4 5 6 
#
# 1 0.015275 -0.005768 0.000548 0.000000 0.006072 0.000000
# 2 -0.005768 0.018912 -0.008995 0.000000 0.002405 0.000000
# 3 0.000548 -0.008995 0.016403 0.000000 0.003821 0.000000
# 4 0.000000 0.000000 0.000000 0.125058 0.000000 -0.029592
# 5 0.006072 0.002405 0.003821 0.000000 0.043061 0.000000
# 6 0.000000 0.000000 0.000000 -0.029592 0.000000 0.085007
#
#
# Mechanical properties :
#
#
# Convention : Reuss Voigt Hill
#
# Bulk Modulus (GPa) = 45.12503 55.16713 50.14608
# Shear Modulus (GPa) = 14.72609 20.24938 17.48774
#
# Velocity S-wave (km/s) = 2.81050 3.29568 3.06272
# Velocity P-wave (km/s) = 5.89376 6.63876 6.27732
#
# Compressibility (1/GPa) = 0.02216065
#
# Stress axis : x y z
#
# Youngs Moduli (GPa) = 65.46734 52.87535 60.96354
#
# Poissons Ratio (x) = 0.30501 -0.03342
# Poissons Ratio (y) = 0.37765 0.54835
# Poissons Ratio (z) = -0.03589 0.47560
#
# Static dielectric constant tensor:
#      x y z
#    x 3.288950 0.000000 -0.101240 
#    y 0.000000 3.470750 0.000000 
#    z -0.101240 0.000000 3.244490 
# 
# 
# High freq. dielectric constant tensor:
#      x y z
#    x 1.712470 0.000000 -0.013890 
#    y 0.000000 1.723050 0.000000 
#    z -0.013890 0.000000 1.709250 
# 
# From -- ./inp_files/58168.got.cif
#   From: 2010.06.25/outbox.cif.g09.slc.cpg/sg10_30_cif.got.tgz:58168.got - 2010.06.27 22:07:45.
