data_PCOD8060633
_publ_section_title
;
Structure prediction by ZEFSAII (Michael W. Deem and Ramdas Pophale) SiO2 
 PCOD8060633
Probable space group: P 2/M
;
_chemical_formula_sum "Si O2"
_cell_formula_units_Z 22
_cell_length_a 15.397559
_cell_length_b 14.242158
_cell_length_c 6.697703
_cell_angle_alpha 90.000000
_cell_angle_beta 51.628951
_cell_angle_gamma 90.000000
_cell_volume 1151.525666
_symmetry_space_group_name_H-M "P 2/M"
_symmetry_group_IT_number 10
_symmetry_cell_setting 'monoclinic'
loop_
_space_group_symop_operation_xyz
x,y,z
-x,y,-z
-x,-y,-z
x,-y,z
loop_
_atom_site_type_symbol
_atom_site_label
_atom_site_fract_x
_atom_site_fract_y
_atom_site_fract_z
Si Si1 0.592420 0.399274 0.207431
Si Si2 0.117557 0.249326 0.230059
Si Si3 0.742111 0.242322 0.581865
Si Si4 0.873199 0.892468 0.121461
Si Si5 0.500000 0.270174 0.000000
Si Si6 0.202544 0.611706 0.825090
O O1 0.500000 0.415311 0.500000
O O2 0.621332 0.500000 0.066456
O O3 0.697102 0.360209 0.174779
O O4 0.552703 0.330917 0.096638
O O5 0.213802 0.260674 0.257719
O O6 0.000000 0.235621 0.500000
O O7 0.148860 0.157015 0.058633
O O8 0.104266 0.337346 0.091395
O O9 0.800642 0.153293 0.400006
O O10 0.609571 0.215556 0.765298
O O11 0.772563 0.339242 0.422151
O O12 0.836950 0.000000 0.151633
O O13 0.000000 0.881522 0.000000
O O14 0.181847 0.500000 0.825145
#
# Coordination Sequence:
#
# PCOD8060633 Si02
#       6
#     4   4   4   4   2   4
#     4  10  19  32  51  80 113 151 207 254 280 318
#     4  11  22  39  61  89 120 152 195 247 296 358
#     4  11  23  38  59  90 124 155 199 241 295 352
#     4  10  22  42  68  93 115 143 190 253 306 352
#     4  12  21  34  57  86 118 164 194 240 294 346
#     4  10  22  37  55  84 123 164 204 245 287 336
#
# _framework density 19.105090000000001
#
# number of rings (size 3 to 8) (size 9 to 14) (size 15 to 20)
#    0.000    1.455    5.455    0.273    0.000    2.909 
#    0.000    1.364    0.000    1.091    0.000    0.000 
#    0.000    0.000    0.000    0.000    0.000    0.000 
#
# Total GULP energy -272610.203025 kJ/mol
# GULP energy per Si atom -12391.372865 kJ/mol
# Density = 1.906161 g / cm^3
# Si number density = 19.105090 Si / 1000 Ang^3
#
#
#
# Elastic Constant Matrix: (Units=GPa)
#
#
# Indices 1 2 3 4 5 6 
#
# 1 68.6458 32.6782 19.8700 0.0000 12.6941 0.0000
# 2 32.6782 136.3651 54.6952 0.0000 10.4471 0.0000
# 3 19.8700 54.6952 100.8931 0.0000 2.8618 0.0000
# 4 0.0000 0.0000 0.0000 20.5179 0.0000 5.0010
# 5 12.6941 10.4471 2.8618 0.0000 28.9668 0.0000
# 6 0.0000 0.0000 0.0000 5.0010 0.0000 21.2796
#
#
#
# Elastic Compliance Matrix: (Units=1/GPa)
#
#
# Indices 1 2 3 4 5 6 
#
# 1 0.017711 -0.003095 -0.001626 0.000000 -0.006484 0.000000
# 2 -0.003095 0.010159 -0.004846 0.000000 -0.001829 0.000000
# 3 -0.001626 -0.004846 0.012825 0.000000 0.001193 0.000000
# 4 0.000000 0.000000 0.000000 0.051699 0.000000 -0.012150
# 5 -0.006484 -0.001829 0.001193 0.000000 0.037906 0.000000
# 6 0.000000 0.000000 0.000000 -0.012150 0.000000 0.049849
#
#
# Mechanical properties :
#
#
# Convention : Reuss Voigt Hill
#
# Bulk Modulus (GPa) = 46.38165 57.82120 52.10142
# Shear Modulus (GPa) = 24.21677 27.39690 25.80683
#
# Velocity S-wave (km/s) = 3.56414 3.79094 3.67929
# Velocity P-wave (km/s) = 6.42396 7.03507 6.73645
#
# Compressibility (1/GPa) = 0.02156025
#
# Stress axis : x y z
#
# Youngs Moduli (GPa) = 56.46286 98.43842 77.97408
#
# Poissons Ratio (x) = 0.30468 0.12680
# Poissons Ratio (y) = 0.17476 0.37784
# Poissons Ratio (z) = 0.09182 0.47700
#
# Static dielectric constant tensor:
#      x y z
#    x 3.672870 0.000000 -0.086730 
#    y 0.000000 3.663420 0.000000 
#    z -0.086730 0.000000 3.826770 
# 
# 
# High freq. dielectric constant tensor:
#      x y z
#    x 1.745890 0.000000 0.003810 
#    y 0.000000 1.721180 0.000000 
#    z 0.003810 0.000000 1.760750 
# 
# From -- ./inp_files/9073.got.cif
#   From: 2010.06.25/outbox.cif.g09.slc.cpg/sg10_5_cif.got.tgz:9073.got - 2010.06.27 22:07:45.
