data_PCOD8060751
_publ_section_title
;
Structure prediction by ZEFSAII (Michael W. Deem and Ramdas Pophale) SiO2 
 PCOD8060751
Probable space group: P 2/M
;
_chemical_formula_sum "Si O2"
_cell_formula_units_Z 32
_cell_length_a 14.767404
_cell_length_b 8.989248
_cell_length_c 23.565438
_cell_angle_alpha 90.000000
_cell_angle_beta 31.156885
_cell_angle_gamma 90.000000
_cell_volume 1618.509896
_symmetry_space_group_name_H-M "P 2/M"
_symmetry_group_IT_number 10
_symmetry_cell_setting 'monoclinic'
loop_
_space_group_symop_operation_xyz
x,y,z
-x,y,-z
-x,-y,-z
x,-y,z
loop_
_atom_site_type_symbol
_atom_site_label
_atom_site_fract_x
_atom_site_fract_y
_atom_site_fract_z
Si Si1 0.418323 0.826352 0.104704
Si Si2 0.800099 0.174902 0.096747
Si Si3 0.911137 0.661562 0.693491
Si Si4 0.297702 0.333390 0.624407
Si Si5 0.626497 0.827113 0.307385
Si Si6 0.178039 0.338674 0.385098
Si Si7 0.462783 0.679039 0.844315
Si Si8 0.764708 0.826500 0.452256
O O1 0.220641 0.767595 0.201797
O O2 0.522874 0.743562 0.099443
O O3 0.415907 0.000000 0.121086
O O4 0.500000 0.793076 0.000000
O O5 0.692260 0.219101 0.210537
O O6 0.715621 0.260946 0.088695
O O7 0.790276 0.000000 0.089160
O O8 0.000000 0.225429 0.000000
O O9 0.935272 0.500000 0.710765
O O10 0.825612 0.633213 0.679315
O O11 0.095905 0.742378 0.583581
O O12 0.500000 0.332333 0.500000
O O13 0.221197 0.500000 0.664460
O O14 0.264964 0.264252 0.703913
O O15 0.201368 0.231753 0.629783
O O16 0.422904 0.785047 0.421530
O O17 0.657440 0.000000 0.303623
O O18 0.174337 0.500000 0.419056
O O19 0.372582 0.265057 0.285260
O O20 0.000000 0.248259 0.500000
O O21 0.458791 0.500000 0.849030
O O22 0.799972 0.000000 0.434475
#
# Coordination Sequence:
#
# PCOD8060751 Si02
#       8
#     4   4   4   4   4   4   4   4
#     4  10  21  40  64  86 113 153 194 232 283 345
#     4  10  22  41  61  82 114 156 200 246 291 347
#     4  10  20  33  53  83 117 147 182 230 278 331
#     4   9  17  31  51  76 105 139 182 229 280 337
#     4   9  19  35  55  78 107 148 192 236 291 345
#     4   8  16  31  51  79 114 148 179 215 272 340
#     4  10  21  37  61  89 118 153 190 242 295 338
#     4  10  19  32  52  79 114 148 184 230 285 348
#
# _framework density 19.771273000000001
#
# number of rings (size 3 to 8) (size 9 to 14) (size 15 to 20)
#    0.000    2.500    0.000    2.625    1.750    3.750 
#    2.250    0.000    0.000    2.250    0.000    0.000 
#    0.000    0.000    0.000    0.000    0.000    0.000 
#
# Total GULP energy -396497.617996 kJ/mol
# GULP energy per Si atom -12390.550562 kJ/mol
# Density = 1.972627 g / cm^3
# Si number density = 19.771273 Si / 1000 Ang^3
#
#
#
# Elastic Constant Matrix: (Units=GPa)
#
#
# Indices 1 2 3 4 5 6 
#
# 1 86.0688 42.1129 47.7270 0.0000 -8.3639 0.0000
# 2 42.1129 87.0181 46.7676 0.0000 -3.1380 0.0000
# 3 47.7270 46.7676 104.9038 0.0000 -4.6657 0.0000
# 4 0.0000 0.0000 0.0000 21.9888 0.0000 -1.4992
# 5 -8.3639 -3.1380 -4.6657 0.0000 29.7905 0.0000
# 6 0.0000 0.0000 0.0000 -1.4992 0.0000 28.3383
#
#
#
# Elastic Compliance Matrix: (Units=1/GPa)
#
#
# Indices 1 2 3 4 5 6 
#
# 1 0.017664 -0.005506 -0.005425 0.000000 0.003530 0.000000
# 2 -0.005506 0.016838 -0.005027 0.000000 -0.000559 0.000000
# 3 -0.005425 -0.005027 0.014249 0.000000 0.000179 0.000000
# 4 0.000000 0.000000 0.000000 0.045642 0.000000 0.002415
# 5 0.003530 -0.000559 0.000179 0.000000 0.034528 0.000000
# 6 0.000000 0.000000 0.000000 0.002415 0.000000 0.035416
#
#
# Mechanical properties :
#
#
# Convention : Reuss Voigt Hill
#
# Bulk Modulus (GPa) = 59.39321 61.24509 60.31915
# Shear Modulus (GPa) = 24.76930 25.44905 25.10918
#
# Velocity S-wave (km/s) = 3.54332 3.59161 3.56755
# Velocity P-wave (km/s) = 6.84438 6.94576 6.89526
#
# Compressibility (1/GPa) = 0.01683694
#
# Stress axis : x y z
#
# Youngs Moduli (GPa) = 56.61353 59.39071 70.17806
#
# Poissons Ratio (x) = 0.32698 0.38070
# Poissons Ratio (y) = 0.31169 0.35275
# Poissons Ratio (z) = 0.30712 0.29853
#
# Static dielectric constant tensor:
#      x y z
#    x 3.566650 0.000000 -0.121900 
#    y 0.000000 3.608650 0.000000 
#    z -0.121900 0.000000 3.627490 
# 
# 
# High freq. dielectric constant tensor:
#      x y z
#    x 1.765980 0.000000 -0.004380 
#    y 0.000000 1.764090 0.000000 
#    z -0.004380 0.000000 1.758670 
# 
# From -- ./inp_files/89492.got.cif
#   From: 2010.06.25/outbox.cif.g09.slc.cpg/sg10_45_cif.got.tgz:89492.got - 2010.06.27 22:07:45.
