data_PCOD8060337
_publ_section_title
;
Structure prediction by ZEFSAII (Michael W. Deem and Ramdas Pophale) SiO2 
 PCOD8060337
Probable space group: P 2/M
;
_chemical_formula_sum "Si O2"
_cell_formula_units_Z 28
_cell_length_a 15.826433
_cell_length_b 9.018757
_cell_length_c 11.854397
_cell_angle_alpha 90.000000
_cell_angle_beta 56.510986
_cell_angle_gamma 90.000000
_cell_volume 1411.142565
_symmetry_space_group_name_H-M "P 2/M"
_symmetry_group_IT_number 10
_symmetry_cell_setting 'monoclinic'
loop_
_space_group_symop_operation_xyz
x,y,z
-x,y,-z
-x,-y,-z
x,-y,z
loop_
_atom_site_type_symbol
_atom_site_label
_atom_site_fract_x
_atom_site_fract_y
_atom_site_fract_z
Si Si1 0.632028 0.328027 0.141567
Si Si2 0.797520 0.676133 0.416296
Si Si3 0.459433 0.174465 0.148971
Si Si4 0.227764 0.824195 0.335362
Si Si5 0.612329 0.326758 0.408313
Si Si6 0.008661 0.675301 0.867790
Si Si7 0.177896 0.323468 0.144157
O O1 0.613348 0.500000 0.133475
O O2 0.526406 0.246122 0.197389
O O3 0.661203 0.297080 0.249738
O O4 0.721390 0.268829 0.995474
O O5 0.796614 0.500000 0.436870
O O6 0.821462 0.758070 0.515592
O O7 0.690821 0.735966 0.443524
O O8 0.884920 0.722563 0.264669
O O9 0.344508 0.226059 0.247676
O O10 0.471099 0.000000 0.149092
O O11 0.500000 0.234775 0.000000
O O12 0.171122 0.754128 0.270283
O O13 0.214627 0.000000 0.341990
O O14 0.500000 0.253124 0.500000
O O15 0.601195 0.500000 0.439701
O O16 0.999131 0.500000 0.883176
O O17 0.917415 0.734538 0.857327
O O18 0.000000 0.743967 0.000000
O O19 0.176915 0.500000 0.160472
#
# Coordination Sequence:
#
# PCOD8060337 Si02
#       7
#     4   4   4   4   4   4   4
#     4  10  19  31  53  83 110 138 178 228 273 319
#     4  10  20  36  59  82 110 147 183 222 270 325
#     4  10  20  35  52  73 107 149 185 218 267 325
#     4  11  23  38  55  77 111 148 184 226 273 325
#     4   9  17  30  50  79 111 138 170 218 272 320
#     4   9  18  35  60  87 112 140 178 225 275 325
#     4  10  20  34  55  83 110 138 181 228 270 321
#
# _framework density 19.842078999999998
#
# number of rings (size 3 to 8) (size 9 to 14) (size 15 to 20)
#    0.000    2.143    1.429    2.143    0.000    6.571 
#    0.000    4.286    0.000    6.000    0.000    0.000 
#    0.000    0.000    0.000    0.000    0.000    0.000 
#
# Total GULP energy -347230.163478 kJ/mol
# GULP energy per Si atom -12401.077267 kJ/mol
# Density = 1.979692 g / cm^3
# Si number density = 19.842079 Si / 1000 Ang^3
#
#
#
# Elastic Constant Matrix: (Units=GPa)
#
#
# Indices 1 2 3 4 5 6 
#
# 1 155.5913 30.3927 65.4541 0.0000 11.9216 0.0000
# 2 30.3927 29.1000 29.0352 0.0000 3.3151 0.0000
# 3 65.4541 29.0352 133.3002 0.0000 13.4706 0.0000
# 4 0.0000 0.0000 0.0000 12.4698 0.0000 -6.6305
# 5 11.9216 3.3151 13.4706 0.0000 31.6776 0.0000
# 6 0.0000 0.0000 0.0000 -6.6305 0.0000 7.1591
#
#
#
# Elastic Compliance Matrix: (Units=1/GPa)
#
#
# Indices 1 2 3 4 5 6 
#
# 1 0.008994 -0.006347 -0.002883 0.000000 -0.001495 0.000000
# 2 -0.006347 0.048395 -0.007476 0.000000 0.000503 0.000000
# 3 -0.002883 -0.007476 0.010822 0.000000 -0.002735 0.000000
# 4 0.000000 0.000000 0.000000 0.158007 0.000000 0.146341
# 5 -0.001495 0.000503 -0.002735 0.000000 0.033241 0.000000
# 6 0.000000 0.000000 0.000000 0.146341 0.000000 0.275220
#
#
# Mechanical properties :
#
#
# Convention : Reuss Voigt Hill
#
# Bulk Modulus (GPa) = 28.73534 63.08394 45.90964
# Shear Modulus (GPa) = 8.62530 23.13526 15.88028
#
# Velocity S-wave (km/s) = 2.08720 3.41833 2.83209
# Velocity P-wave (km/s) = 4.50799 6.88782 5.82083
#
# Compressibility (1/GPa) = 0.03480036
#
# Stress axis : x y z
#
# Youngs Moduli (GPa) = 111.18288 20.66333 92.40365
#
# Poissons Ratio (x) = 0.13115 0.26639
# Poissons Ratio (y) = 0.70568 0.69077
# Poissons Ratio (z) = 0.32052 0.15447
#
# Static dielectric constant tensor:
#      x y z
#    x 3.756720 0.000000 0.006360 
#    y 0.000000 3.107260 0.000000 
#    z 0.006360 0.000000 3.708120 
# 
# 
# High freq. dielectric constant tensor:
#      x y z
#    x 1.783360 0.000000 0.005700 
#    y 0.000000 1.725660 0.000000 
#    z 0.005700 0.000000 1.784820 
# 
# From -- ./inp_files/49587.got.cif
#   From: 2010.06.25/outbox.cif.g09.slc.cpg/sg10_25_cif.got.tgz:49587.got - 2010.06.27 22:07:45.
