data_PCOD8060020
_publ_section_title
;
Structure prediction by ZEFSAII (Michael W. Deem and Ramdas Pophale) SiO2 
 PCOD8060020
Probable space group: P 2/M
;
_chemical_formula_sum "Si O2"
_cell_formula_units_Z 28
_cell_length_a 15.059522
_cell_length_b 9.211258
_cell_length_c 18.952674
_cell_angle_alpha 90.000000
_cell_angle_beta 142.569741
_cell_angle_gamma 90.000000
_cell_volume 1597.930787
_symmetry_space_group_name_H-M "P 2/M"
_symmetry_group_IT_number 10
_symmetry_cell_setting 'monoclinic'
loop_
_space_group_symop_operation_xyz
x,y,z
-x,y,-z
-x,-y,-z
x,-y,z
loop_
_atom_site_type_symbol
_atom_site_label
_atom_site_fract_x
_atom_site_fract_y
_atom_site_fract_z
Si Si1 0.336699 0.331061 0.676240
Si Si2 0.007936 0.333450 0.211828
Si Si3 0.615726 0.163964 0.869032
Si Si4 0.262330 0.837498 0.912022
Si Si5 0.200534 0.833123 0.721044
Si Si6 0.084354 0.332685 0.410808
Si Si7 0.053065 0.829976 0.958349
O O1 0.349773 0.500000 0.700583
O O2 0.496598 0.268684 0.758915
O O3 0.273152 0.255410 0.704888
O O4 0.234906 0.298099 0.545194
O O5 0.007441 0.500000 0.188648
O O6 0.849531 0.289131 0.140142
O O7 0.114716 0.304812 0.346289
O O8 0.046387 0.241508 0.166106
O O9 0.776947 0.210614 0.945010
O O10 0.581435 0.000000 0.823277
O O11 0.604615 0.176657 0.948115
O O12 0.305061 0.820354 0.856681
O O13 0.192326 0.000000 0.879040
O O14 0.040095 0.771274 0.636590
O O15 0.183677 0.000000 0.686937
O O16 0.035684 0.500000 0.392332
O O17 0.026031 0.000000 0.936551
O O18 0.000000 0.768339 0.000000
#
# Coordination Sequence:
#
# PCOD8060020 Si02
#       7
#     4   4   4   4   4   4   4
#     4  11  22  33  45  64  96 134 165 197 239 280
#     4   9  16  28  49  74  96 120 155 195 231 273
#     4   9  18  33  50  69  94 123 156 191 232 285
#     4   8  16  31  48  66  93 126 156 195 245 286
#     4  10  19  31  49  71  92 121 167 212 243 275
#     4   9  19  34  48  65  95 132 165 199 238 275
#     4   9  18  34  56  79 101 122 144 181 238 294
#
# _framework density 17.522660999999999
#
# number of rings (size 3 to 8) (size 9 to 14) (size 15 to 20)
#    0.000    2.714    0.000    2.571    0.000    7.143 
#    0.000    2.857    0.000    0.857    0.000    6.000 
#    0.000    0.000    0.000    0.000    0.000    0.000 
#
# Total GULP energy -346986.907392 kJ/mol
# GULP energy per Si atom -12392.389550 kJ/mol
# Density = 1.748278 g / cm^3
# Si number density = 17.522661 Si / 1000 Ang^3
#
#
#
# Elastic Constant Matrix: (Units=GPa)
#
#
# Indices 1 2 3 4 5 6 
#
# 1 84.9729 42.2025 53.1967 0.0000 -21.3571 0.0000
# 2 42.2025 78.2050 48.2032 0.0000 -4.8676 0.0000
# 3 53.1967 48.2032 91.3188 0.0000 -8.3460 0.0000
# 4 0.0000 0.0000 0.0000 27.7308 0.0000 -2.4470
# 5 -21.3571 -4.8676 -8.3460 0.0000 22.5503 0.0000
# 6 0.0000 0.0000 0.0000 -2.4470 0.0000 21.0463
#
#
#
# Elastic Compliance Matrix: (Units=1/GPa)
#
#
# Indices 1 2 3 4 5 6 
#
# 1 0.026386 -0.006889 -0.009922 0.000000 0.019830 0.000000
# 2 -0.006889 0.020756 -0.007379 0.000000 -0.004775 0.000000
# 3 -0.009922 -0.007379 0.020308 0.000000 -0.003474 0.000000
# 4 0.000000 0.000000 0.000000 0.036435 0.000000 0.004236
# 5 0.019830 -0.004775 -0.003474 0.000000 0.060810 0.000000
# 6 0.000000 0.000000 0.000000 0.004236 0.000000 0.048007
#
#
# Mechanical properties :
#
#
# Convention : Reuss Voigt Hill
#
# Bulk Modulus (GPa) = 52.44055 60.18906 56.31481
# Shear Modulus (GPa) = 18.69592 21.65843 20.17717
#
# Velocity S-wave (km/s) = 3.26997 3.51953 3.39704
# Velocity P-wave (km/s) = 6.65201 7.13722 6.89888
#
# Compressibility (1/GPa) = 0.01906921
#
# Stress axis : x y z
#
# Youngs Moduli (GPa) = 37.89951 48.17972 49.24086
#
# Poissons Ratio (x) = 0.33190 0.48856
# Poissons Ratio (y) = 0.26108 0.36337
# Poissons Ratio (z) = 0.37604 0.35554
#
# Static dielectric constant tensor:
#      x y z
#    x 3.089460 0.000000 -0.336000 
#    y 0.000000 3.339010 0.000000 
#    z -0.336000 0.000000 3.473600 
# 
# 
# High freq. dielectric constant tensor:
#      x y z
#    x 1.641140 0.000000 -0.025860 
#    y 0.000000 1.684300 0.000000 
#    z -0.025860 0.000000 1.674580 
# 
# From -- ./inp_files/54651.got.cif
#   From: 2010.06.25/outbox.cif.g09.slc.cpg/sg10_28_cif.got.tgz:54651.got - 2010.06.27 22:07:45.
