data_PCOD8060796
_publ_section_title
;
Structure prediction by ZEFSAII (Michael W. Deem and Ramdas Pophale) SiO2 
 PCOD8060796
Probable space group: P 2/M
;
_chemical_formula_sum "Si O2"
_cell_formula_units_Z 28
_cell_length_a 9.376881
_cell_length_b 9.198173
_cell_length_c 29.899886
_cell_angle_alpha 90.000000
_cell_angle_beta 143.077225
_cell_angle_gamma 90.000000
_cell_volume 1549.225555
_symmetry_space_group_name_H-M "P 2/M"
_symmetry_group_IT_number 10
_symmetry_cell_setting 'monoclinic'
loop_
_space_group_symop_operation_xyz
x,y,z
-x,y,-z
-x,-y,-z
x,-y,z
loop_
_atom_site_type_symbol
_atom_site_label
_atom_site_fract_x
_atom_site_fract_y
_atom_site_fract_z
Si Si1 0.401259 0.840071 0.291030
Si Si2 0.721326 0.667003 0.430124
Si Si3 0.143239 0.333055 0.991737
Si Si4 0.556033 0.828869 0.563697
Si Si5 0.696808 0.331818 0.133378
Si Si6 0.978449 0.840008 0.725579
Si Si7 0.976397 0.172365 0.127147
O O1 0.613749 0.730873 0.356759
O O2 0.219040 0.848146 0.285950
O O3 0.246599 0.787555 0.209564
O O4 0.510808 0.000000 0.309579
O O5 0.646480 0.500000 0.413920
O O6 0.622685 0.747362 0.448575
O O7 0.000000 0.689748 0.500000
O O8 0.094543 0.500000 0.965927
O O9 0.054997 0.228643 0.930569
O O10 0.419222 0.306680 0.070010
O O11 0.000000 0.289539 0.000000
O O12 0.500000 0.773996 0.500000
O O13 0.833376 0.792201 0.644623
O O14 0.509832 0.000000 0.557697
O O15 0.762438 0.500000 0.143506
O O16 0.784070 0.246336 0.111514
O O17 0.819248 0.274048 0.209748
O O18 0.094802 0.000000 0.748433
O O19 0.934263 0.000000 0.119118
#
# Coordination Sequence:
#
# PCOD8060796 Si02
#       7
#     4   4   4   4   4   4   4
#     4   8  16  31  50  72  97 127 164 203 244 290
#     4  10  20  32  48  74 104 132 165 204 245 289
#     4  10  22  38  52  70 101 137 167 197 240 295
#     4   9  18  33  52  73  98 131 168 203 245 296
#     4  10  19  32  53  77  98 127 167 204 243 293
#     4   8  15  29  49  73  99 125 160 207 249 286
#     4  10  20  34  54  79 101 123 161 210 250 288
#
# _framework density 18.073547000000001
#
# number of rings (size 3 to 8) (size 9 to 14) (size 15 to 20)
#    0.000    2.714    0.000    3.429    0.000   10.286 
#    0.000    1.429    0.000    6.857    0.000    0.000 
#    0.000    0.000    0.000    0.000    0.000    0.000 
#
# Total GULP energy -347099.493923 kJ/mol
# GULP energy per Si atom -12396.410497 kJ/mol
# Density = 1.803241 g / cm^3
# Si number density = 18.073547 Si / 1000 Ang^3
#
#
#
# Elastic Constant Matrix: (Units=GPa)
#
#
# Indices 1 2 3 4 5 6 
#
# 1 70.2863 49.5640 55.2811 0.0000 -6.4939 0.0000
# 2 49.5640 104.1310 74.7765 0.0000 -2.3749 0.0000
# 3 55.2811 74.7765 148.1360 0.0000 -16.6260 0.0000
# 4 0.0000 0.0000 0.0000 30.2689 0.0000 0.0555
# 5 -6.4939 -2.3749 -16.6260 0.0000 21.3708 0.0000
# 6 0.0000 0.0000 0.0000 0.0555 0.0000 1.3051
#
#
#
# Elastic Compliance Matrix: (Units=1/GPa)
#
#
# Indices 1 2 3 4 5 6 
#
# 1 0.023628 -0.007963 -0.004483 0.000000 0.002807 0.000000
# 2 -0.007963 0.018181 -0.006848 0.000000 -0.005727 0.000000
# 3 -0.004483 -0.006848 0.012756 0.000000 0.007801 0.000000
# 4 0.000000 0.000000 0.000000 0.033040 0.000000 -0.001405
# 5 0.002807 -0.005727 0.007801 0.000000 0.053078 0.000000
# 6 0.000000 0.000000 0.000000 -0.001405 0.000000 0.766295
#
#
# Mechanical properties :
#
#
# Convention : Reuss Voigt Hill
#
# Bulk Modulus (GPa) = 62.59419 75.75516 69.17468
# Shear Modulus (GPa) = 5.25822 20.11775 12.68798
#
# Velocity S-wave (km/s) = 1.70753 3.33994 2.65244
# Velocity P-wave (km/s) = 6.21255 7.54185 6.90924
#
# Compressibility (1/GPa) = 0.01597592
#
# Stress axis : x y z
#
# Youngs Moduli (GPa) = 42.32237 55.00261 78.39562
#
# Poissons Ratio (x) = 0.43801 0.35141
# Poissons Ratio (y) = 0.33703 0.53689
# Poissons Ratio (z) = 0.18971 0.37668
#
# Static dielectric constant tensor:
#      x y z
#    x 2.969820 0.000000 -0.205850 
#    y 0.000000 3.429810 0.000000 
#    z -0.205850 0.000000 3.979380 
# 
# 
# High freq. dielectric constant tensor:
#      x y z
#    x 1.656600 0.000000 -0.005760 
#    y 0.000000 1.703950 0.000000 
#    z -0.005760 0.000000 1.719780 
# 
# From -- ./inp_files/94544.got.cif
#   From: 2010.06.25/outbox.cif.g09.slc.cpg/sg10_48_cif.got.tgz:94544.got - 2010.06.27 22:07:45.
