data_PCOD8060952
_publ_section_title
;
Structure prediction by ZEFSAII (Michael W. Deem and Ramdas Pophale) SiO2 
 PCOD8060952
Probable space group: P 2/M
;
_chemical_formula_sum "Si O2"
_cell_formula_units_Z 28
_cell_length_a 11.455331
_cell_length_b 9.516661
_cell_length_c 14.578502
_cell_angle_alpha 90.000000
_cell_angle_beta 69.717623
_cell_angle_gamma 90.000000
_cell_volume 1490.753865
_symmetry_space_group_name_H-M "P 2/M"
_symmetry_group_IT_number 10
_symmetry_cell_setting 'monoclinic'
loop_
_space_group_symop_operation_xyz
x,y,z
-x,y,-z
-x,-y,-z
x,-y,z
loop_
_atom_site_type_symbol
_atom_site_label
_atom_site_fract_x
_atom_site_fract_y
_atom_site_fract_z
Si Si1 0.385198 0.834444 0.142720
Si Si2 0.124651 0.337323 0.916075
Si Si3 0.803727 0.660582 0.303243
Si Si4 0.437503 0.159268 0.608845
Si Si5 0.336419 0.166253 0.955854
Si Si6 0.123444 0.335945 0.516663
Si Si7 0.316328 0.840604 0.354402
O O1 0.526127 0.775803 0.105707
O O2 0.305955 0.782874 0.252601
O O3 0.401292 0.000000 0.143934
O O4 0.312251 0.794504 0.069605
O O5 0.149285 0.500000 0.933009
O O6 0.111309 0.313948 0.809871
O O7 0.239401 0.246879 0.919760
O O8 0.000000 0.283718 0.000000
O O9 0.758821 0.500000 0.320531
O O10 0.680826 0.752798 0.328750
O O11 0.883715 0.697608 0.372608
O O12 0.500000 0.222288 0.500000
O O13 0.537428 0.164844 0.662784
O O14 0.392785 0.000000 0.601691
O O15 0.321853 0.000000 0.942607
O O16 0.140958 0.500000 0.492257
O O17 0.241711 0.257395 0.443362
O O18 0.000000 0.279011 0.500000
O O19 0.265841 0.000000 0.377593
#
# Coordination Sequence:
#
# PCOD8060952 Si02
#       7
#     4   4   4   4   4   4   4
#     4   8  16  31  54  81 108 136 165 210 268 316
#     4  10  22  38  54  75 106 142 179 222 270 311
#     4  10  21  37  56  77 105 142 179 217 265 319
#     4  10  19  32  54  84 112 136 169 216 264 310
#     4   9  17  34  57  79 104 136 175 215 261 316
#     4  10  22  38  53  72 102 139 178 215 254 306
#     4  10  19  33  53  79 109 138 170 209 259 314
#
# _framework density 18.782444000000002
#
# number of rings (size 3 to 8) (size 9 to 14) (size 15 to 20)
#    0.000    2.429    1.429    1.714    0.000    4.286 
#    0.000    4.286    0.000    0.000    0.000    0.000 
#    0.000    0.000    0.000    0.000    0.000    0.000 
#
# Total GULP energy -347130.478747 kJ/mol
# GULP energy per Si atom -12397.517098 kJ/mol
# Density = 1.873969 g / cm^3
# Si number density = 18.782444 Si / 1000 Ang^3
#
#
#
# Elastic Constant Matrix: (Units=GPa)
#
#
# Indices 1 2 3 4 5 6 
#
# 1 84.0829 32.6414 40.3729 0.0000 8.6954 0.0000
# 2 32.6414 44.8142 34.2766 0.0000 0.3278 0.0000
# 3 40.3729 34.2766 142.9646 0.0000 9.9465 0.0000
# 4 0.0000 0.0000 0.0000 28.6850 0.0000 -2.0054
# 5 8.6954 0.3278 9.9465 0.0000 29.3425 0.0000
# 6 0.0000 0.0000 0.0000 -2.0054 0.0000 23.8457
#
#
#
# Elastic Compliance Matrix: (Units=1/GPa)
#
#
# Indices 1 2 3 4 5 6 
#
# 1 0.017709 -0.011361 -0.001967 0.000000 -0.004454 0.000000
# 2 -0.011361 0.034725 -0.005453 0.000000 0.004827 0.000000
# 3 -0.001967 -0.005453 0.009026 0.000000 -0.002416 0.000000
# 4 0.000000 0.000000 0.000000 0.035068 0.000000 0.002949
# 5 -0.004454 0.004827 -0.002416 0.000000 0.036165 0.000000
# 6 0.000000 0.000000 0.000000 0.002949 0.000000 0.042184
#
#
# Mechanical properties :
#
#
# Convention : Reuss Voigt Hill
#
# Bulk Modulus (GPa) = 41.84687 54.04926 47.94807
# Shear Modulus (GPa) = 22.68549 27.34602 25.01575
#
# Velocity S-wave (km/s) = 3.47912 3.81981 3.65344
# Velocity P-wave (km/s) = 6.20219 6.94936 6.58638
#
# Compressibility (1/GPa) = 0.02389665
#
# Stress axis : x y z
#
# Youngs Moduli (GPa) = 56.46940 28.79752 110.79496
#
# Poissons Ratio (x) = 0.32718 0.21794
# Poissons Ratio (y) = 0.64157 0.60416
# Poissons Ratio (z) = 0.11108 0.15703
#
# Static dielectric constant tensor:
#      x y z
#    x 3.260260 0.000000 0.226450 
#    y 0.000000 3.214660 0.000000 
#    z 0.226450 0.000000 3.989320 
# 
# 
# High freq. dielectric constant tensor:
#      x y z
#    x 1.712550 0.000000 0.015010 
#    y 0.000000 1.705690 0.000000 
#    z 0.015010 0.000000 1.748320 
# 
# From -- ./inp_files/49360.got.cif
#   From: 2010.06.25/outbox.cif.g09.slc.cpg/sg10_25_cif.got.tgz:49360.got - 2010.06.27 22:07:45.
