data_PCOD8060508
_publ_section_title
;
Structure prediction by ZEFSAII (Michael W. Deem and Ramdas Pophale) SiO2 
 PCOD8060508
Probable space group: P 2/M
;
_chemical_formula_sum "Si O2"
_cell_formula_units_Z 32
_cell_length_a 12.233515
_cell_length_b 8.849087
_cell_length_c 20.274096
_cell_angle_alpha 90.000000
_cell_angle_beta 124.733033
_cell_angle_gamma 90.000000
_cell_volume 1803.705599
_symmetry_space_group_name_H-M "P 2/M"
_symmetry_group_IT_number 10
_symmetry_cell_setting 'monoclinic'
loop_
_space_group_symop_operation_xyz
x,y,z
-x,y,-z
-x,-y,-z
x,-y,z
loop_
_atom_site_type_symbol
_atom_site_label
_atom_site_fract_x
_atom_site_fract_y
_atom_site_fract_z
Si Si1 0.311944 0.179120 0.889259
Si Si2 0.640914 0.819913 0.674242
Si Si3 0.635370 0.676788 0.444943
Si Si4 0.100850 0.821760 0.712649
Si Si5 0.818223 0.677342 0.629950
Si Si6 0.291719 0.172046 0.660060
Si Si7 0.589787 0.827079 0.799009
Si Si8 0.402564 0.180239 0.057043
O O1 0.187374 0.240075 0.804430
O O2 0.450476 0.244057 0.908678
O O3 0.314735 0.000000 0.883552
O O4 0.301032 0.227221 0.963217
O O5 0.503664 0.763495 0.594950
O O6 0.767131 0.758671 0.678392
O O7 0.649900 0.754442 0.752724
O O8 0.639087 0.000000 0.672952
O O9 0.604959 0.500000 0.433878
O O10 0.725010 0.724655 0.537372
O O11 0.714701 0.721465 0.406040
O O12 0.175621 0.782509 0.670382
O O13 0.965342 0.731088 0.664795
O O14 0.073735 0.000000 0.709443
O O15 0.816770 0.500000 0.641580
O O16 0.430738 0.191054 0.745640
O O17 0.275003 0.000000 0.629894
O O18 0.643198 0.754916 0.886649
O O19 0.632893 0.000000 0.812280
O O20 0.411561 0.000000 0.064674
#
# Coordination Sequence:
#
# PCOD8060508 Si02
#       8
#     4   4   4   4   4   4   4   4
#     4   8  13  21  40  72 105 132 154 187 237 288
#     4  10  20  34  55  78  97 121 159 208 253 289
#     4  10  21  36  53  72  96 125 161 206 249 294
#     4  10  19  32  50  73 103 133 166 204 240 285
#     4  11  24  38  50  67  94 132 171 204 245 295
#     4   9  17  30  49  74 102 130 160 199 246 289
#     4   8  13  24  44  72 103 126 149 191 244 290
#     4   8  11  19  40  72 106 130 150 184 240 292
#
# _framework density 17.741256
#
# number of rings (size 3 to 8) (size 9 to 14) (size 15 to 20)
#    0.000    2.750    1.250    3.000    0.000    4.500 
#    0.000    2.500    0.000    0.750    0.000   11.375 
#    0.000    0.000    0.000    0.000    0.000    0.000 
#
# Total GULP energy -396559.091171 kJ/mol
# GULP energy per Si atom -12392.471599 kJ/mol
# Density = 1.770088 g / cm^3
# Si number density = 17.741256 Si / 1000 Ang^3
#
#
#
# Elastic Constant Matrix: (Units=GPa)
#
#
# Indices 1 2 3 4 5 6 
#
# 1 89.1103 18.8172 26.6063 0.0000 -15.2719 0.0000
# 2 18.8172 33.5189 18.4907 0.0000 -4.2138 0.0000
# 3 26.6063 18.4907 58.1515 0.0000 -25.3330 0.0000
# 4 0.0000 0.0000 0.0000 -1.0808 0.0000 -2.5039
# 5 -15.2719 -4.2138 -25.3330 0.0000 23.3007 0.0000
# 6 0.0000 0.0000 0.0000 -2.5039 0.0000 15.0770
#
#
#
# Elastic Compliance Matrix: (Units=1/GPa)
#
#
# Indices 1 2 3 4 5 6 
#
# 1 0.014120 -0.006148 -0.001820 0.000000 0.006164 0.000000
# 2 -0.006148 0.040504 -0.016397 0.000000 -0.014532 0.000000
# 3 -0.001820 -0.016397 0.040716 0.000000 0.040109 0.000000
# 4 0.000000 0.000000 0.000000 -0.668157 0.000000 -0.110964
# 5 0.006164 -0.014532 0.040109 0.000000 0.087937 0.000000
# 6 0.000000 0.000000 0.000000 -0.110964 0.000000 0.047898
#
#
# Mechanical properties :
#
#
# Convention : Reuss Voigt Hill
#
# Bulk Modulus (GPa) = 21.45466 34.28990 27.87228
# Shear Modulus (GPa) = -13.41505 15.25047 0.91771
#
# Velocity S-wave (km/s) = -2.75280 2.93508 0.72000
# Velocity P-wave (km/s) = 1.41967 5.55482 4.05410
#
# Compressibility (1/GPa) = 0.04660992
#
# Stress axis : x y z
#
# Youngs Moduli (GPa) = 70.82078 24.68910 24.56016
#
# Poissons Ratio (x) = 0.15178 0.04471
# Poissons Ratio (y) = 0.43539 0.40271
# Poissons Ratio (z) = 0.12893 0.40482
#
# Static dielectric constant tensor:
#      x y z
#    x 3.234040 0.000000 -0.320100 
#    y 0.000000 2.912310 0.000000 
#    z -0.320100 0.000000 3.619480 
# 
# 
# High freq. dielectric constant tensor:
#      x y z
#    x 1.670770 0.000000 -0.025480 
#    y 0.000000 1.647320 0.000000 
#    z -0.025480 0.000000 1.691110 
# 
# From -- ./inp_files/54918.got.cif
#   From: 2010.06.25/outbox.cif.g09.slc.cpg/sg10_28_cif.got.tgz:54918.got - 2010.06.27 22:07:45.
