data_PCOD8060317
_publ_section_title
;
Structure prediction by ZEFSAII (Michael W. Deem and Ramdas Pophale) SiO2 
 PCOD8060317
Probable space group: P 2/M
;
_chemical_formula_sum "Si O2"
_cell_formula_units_Z 28
_cell_length_a 9.483777
_cell_length_b 14.052333
_cell_length_c 11.922519
_cell_angle_alpha 90.000000
_cell_angle_beta 122.850680
_cell_angle_gamma 90.000000
_cell_volume 1334.818182
_symmetry_space_group_name_H-M "P 2/M"
_symmetry_group_IT_number 10
_symmetry_cell_setting 'monoclinic'
loop_
_space_group_symop_operation_xyz
x,y,z
-x,y,-z
-x,-y,-z
x,-y,z
loop_
_atom_site_type_symbol
_atom_site_label
_atom_site_fract_x
_atom_site_fract_y
_atom_site_fract_z
Si Si1 0.809384 0.897230 0.903765
Si Si2 0.693534 0.887530 0.089513
Si Si3 0.736865 0.609126 0.267352
Si Si4 0.166538 0.264677 0.256936
Si Si5 0.394400 0.391425 0.235992
Si Si6 0.049829 0.782267 0.638093
Si Si7 0.149484 0.607293 0.925931
O O1 0.776844 0.827677 0.787349
O O2 0.715946 0.000000 0.843738
O O3 0.756097 0.848507 0.997278
O O4 0.000000 0.921855 0.000000
O O5 0.799590 0.837259 0.233684
O O6 0.721370 0.000000 0.115765
O O7 0.500000 0.858840 0.000000
O O8 0.778056 0.500000 0.317428
O O9 0.568169 0.644188 0.256784
O O10 0.886338 0.677537 0.371458
O O11 0.725718 0.620293 0.126834
O O12 0.330934 0.333239 0.318905
O O13 0.120457 0.229244 0.361930
O O14 0.002424 0.318316 0.139022
O O15 0.412100 0.500000 0.280587
O O16 0.252239 0.374760 0.082137
O O17 0.000000 0.835287 0.500000
O O18 0.074479 0.500000 0.892205
#
# Coordination Sequence:
#
# PCOD8060317 Si02
#       7
#     4   4   4   4   4   4   4
#     4  10  19  34  57  88 120 149 187 236 293 355
#     4  10  23  42  67  96 122 152 195 246 298 356
#     4   9  20  36  54  78 114 161 204 245 293 349
#     4  11  21  32  54  82 117 156 197 241 299 349
#     4  10  19  31  52  84 116 150 198 253 305 347
#     4  11  25  41  60  87 121 164 205 241 293 357
#     4   9  17  29  48  80 119 152 191 243 303 359
#
# _framework density 20.97664
#
# number of rings (size 3 to 8) (size 9 to 14) (size 15 to 20)
#    0.000    2.000    1.429    2.143    4.000    4.000 
#    0.000    0.714    0.000    1.714    0.000    3.000 
#    0.000    0.000    0.000    0.000    0.000    0.000 
#
# Total GULP energy -346954.491482 kJ/mol
# GULP energy per Si atom -12391.231839 kJ/mol
# Density = 2.092890 g / cm^3
# Si number density = 20.976640 Si / 1000 Ang^3
#
#
#
# Elastic Constant Matrix: (Units=GPa)
#
#
# Indices 1 2 3 4 5 6 
#
# 1 153.8332 42.2617 54.9421 0.0000 -20.7808 0.0000
# 2 42.2617 79.4027 34.2644 0.0000 -8.8002 0.0000
# 3 54.9421 34.2644 78.9875 0.0000 -24.4816 0.0000
# 4 0.0000 0.0000 0.0000 12.6336 0.0000 -1.3215
# 5 -20.7808 -8.8002 -24.4816 0.0000 18.2226 0.0000
# 6 0.0000 0.0000 0.0000 -1.3215 0.0000 35.0661
#
#
#
# Elastic Compliance Matrix: (Units=1/GPa)
#
#
# Indices 1 2 3 4 5 6 
#
# 1 0.009206 -0.002733 -0.004066 0.000000 0.003715 0.000000
# 2 -0.002733 0.016381 -0.006373 0.000000 -0.003767 0.000000
# 3 -0.004066 -0.006373 0.027179 0.000000 0.028800 0.000000
# 4 0.000000 0.000000 0.000000 0.079467 0.000000 0.002995
# 5 0.003715 -0.003767 0.028800 0.000000 0.095987 0.000000
# 6 0.000000 0.000000 0.000000 0.002995 0.000000 0.028630
#
#
# Mechanical properties :
#
#
# Convention : Reuss Voigt Hill
#
# Bulk Modulus (GPa) = 37.84667 63.90664 50.87665
# Shear Modulus (GPa) = 17.12323 25.23482 21.17902
#
# Velocity S-wave (km/s) = 2.86020 3.47219 3.18094
# Velocity P-wave (km/s) = 5.38415 6.82690 6.14799
#
# Compressibility (1/GPa) = 0.02642241
#
# Stress axis : x y z
#
# Youngs Moduli (GPa) = 108.63067 61.04569 36.79282
#
# Poissons Ratio (x) = 0.16685 0.14960
# Poissons Ratio (y) = 0.29691 0.23446
# Poissons Ratio (z) = 0.44169 0.38902
#
# Static dielectric constant tensor:
#      x y z
#    x 4.146600 0.000000 -0.263010 
#    y 0.000000 3.964120 0.000000 
#    z -0.263010 0.000000 3.244920 
# 
# 
# High freq. dielectric constant tensor:
#      x y z
#    x 1.840620 0.000000 -0.019870 
#    y 0.000000 1.829310 0.000000 
#    z -0.019870 0.000000 1.762330 
# 
# From -- ./inp_files/43059.got.cif
#   From: 2010.06.25/outbox.cif.g09.slc.cpg/sg10_22_cif.got.tgz:43059.got - 2010.06.27 22:07:45.
