data_PCOD8060355
_publ_section_title
;
Structure prediction by ZEFSAII (Michael W. Deem and Ramdas Pophale) SiO2 
 PCOD8060355
Probable space group: P 2/M
;
_chemical_formula_sum "Si O2"
_cell_formula_units_Z 32
_cell_length_a 15.767582
_cell_length_b 13.332441
_cell_length_c 12.402619
_cell_angle_alpha 90.000000
_cell_angle_beta 141.882127
_cell_angle_gamma 90.000000
_cell_volume 1609.427096
_symmetry_space_group_name_H-M "P 2/M"
_symmetry_group_IT_number 10
_symmetry_cell_setting 'monoclinic'
loop_
_space_group_symop_operation_xyz
x,y,z
-x,y,-z
-x,-y,-z
x,-y,z
loop_
_atom_site_type_symbol
_atom_site_label
_atom_site_fract_x
_atom_site_fract_y
_atom_site_fract_z
Si Si1 0.334044 0.184061 0.161261
Si Si2 0.151678 0.886313 0.160728
Si Si3 0.474967 0.388777 0.816522
Si Si4 0.730734 0.735201 0.117717
Si Si5 0.580378 0.611046 0.690257
Si Si6 0.648106 0.880639 0.453723
Si Si7 0.232138 0.743104 0.607545
Si Si8 0.985672 0.611553 0.358454
O O1 0.233788 0.114515 0.130137
O O2 0.312590 0.297990 0.185693
O O3 0.493236 0.151156 0.329142
O O4 0.282890 0.177493 0.986142
O O5 0.249945 0.839133 0.351067
O O6 0.125233 0.000000 0.168958
O O7 0.000000 0.833737 0.000000
O O8 0.502935 0.500000 0.886630
O O9 0.477029 0.381991 0.688395
O O10 0.325633 0.355664 0.704733
O O11 0.583145 0.316312 0.982154
O O12 0.779864 0.783091 0.280547
O O13 0.834026 0.649647 0.177322
O O14 0.500000 0.629446 0.500000
O O15 0.651371 0.500000 0.759313
O O16 0.701875 0.831321 0.397070
O O17 0.652931 0.000000 0.445115
O O18 0.088696 0.698997 0.418683
O O19 0.009496 0.500000 0.331067
O O20 0.000000 0.602656 0.500000
#
# Coordination Sequence:
#
# PCOD8060355 Si02
#       8
#     4   4   4   4   4   4   4   4
#     4  11  21  37  62  88 117 156 194 237 298 349
#     4  10  23  42  66  91 112 142 196 253 298 349
#     4  10  19  31  54  84 115 154 199 244 288 340
#     4  10  21  35  54  85 124 158 194 238 286 352
#     4   9  17  30  49  78 115 150 187 230 281 343
#     4  11  23  40  62  88 118 152 195 249 300 348
#     4  11  21  36  56  84 122 156 202 241 293 347
#     4   9  19  35  56  81 115 160 202 242 286 339
#
# _framework density 19.882852
#
# number of rings (size 3 to 8) (size 9 to 14) (size 15 to 20)
#    0.000    1.875    2.500    2.625    1.750    3.500 
#    0.000    1.875    0.000    3.750    0.000    0.000 
#    0.000    0.000    0.000    0.000    0.000    0.000 
#
# Total GULP energy -396568.065967 kJ/mol
# GULP energy per Si atom -12392.752061 kJ/mol
# Density = 1.983760 g / cm^3
# Si number density = 19.882852 Si / 1000 Ang^3
#
#
#
# Elastic Constant Matrix: (Units=GPa)
#
#
# Indices 1 2 3 4 5 6 
#
# 1 87.1246 26.2280 48.3599 0.0000 3.9958 0.0000
# 2 26.2280 61.4518 18.8603 0.0000 0.2628 0.0000
# 3 48.3599 18.8603 101.4631 0.0000 2.0283 0.0000
# 4 0.0000 0.0000 0.0000 16.3258 0.0000 7.9025
# 5 3.9958 0.2628 2.0283 0.0000 36.9065 0.0000
# 6 0.0000 0.0000 0.0000 7.9025 0.0000 20.4511
#
#
#
# Elastic Compliance Matrix: (Units=1/GPa)
#
#
# Indices 1 2 3 4 5 6 
#
# 1 0.017038 -0.005072 -0.007150 0.000000 -0.001416 0.000000
# 2 -0.005072 0.018767 -0.001081 0.000000 0.000475 0.000000
# 3 -0.007150 -0.001081 0.013464 0.000000 0.000042 0.000000
# 4 0.000000 0.000000 0.000000 0.075345 0.000000 -0.029114
# 5 -0.001416 0.000475 0.000042 0.000000 0.027243 0.000000
# 6 0.000000 0.000000 0.000000 -0.029114 0.000000 0.060147
#
#
# Mechanical properties :
#
#
# Convention : Reuss Voigt Hill
#
# Bulk Modulus (GPa) = 44.12152 48.54846 46.33499
# Shear Modulus (GPa) = 20.31171 25.17609 22.74390
#
# Velocity S-wave (km/s) = 3.19967 3.56226 3.38582
# Velocity P-wave (km/s) = 5.99078 6.43349 6.21608
#
# Compressibility (1/GPa) = 0.02266468
#
# Stress axis : x y z
#
# Youngs Moduli (GPa) = 58.69210 53.28456 74.27419
#
# Poissons Ratio (x) = 0.27024 0.53104
# Poissons Ratio (y) = 0.29766 0.08027
# Poissons Ratio (z) = 0.41963 0.05759
#
# Static dielectric constant tensor:
#      x y z
#    x 3.576630 0.000000 -0.063460 
#    y 0.000000 3.577470 0.000000 
#    z -0.063460 0.000000 3.801130 
# 
# 
# High freq. dielectric constant tensor:
#      x y z
#    x 1.767290 0.000000 -0.004430 
#    y 0.000000 1.756480 0.000000 
#    z -0.004430 0.000000 1.775670 
# 
# From -- ./inp_files/51636.got.cif
#   From: 2010.06.25/outbox.cif.g09.slc.cpg/sg10_26_cif.got.tgz:51636.got - 2010.06.27 22:07:45.
