data_PCOD8060223
_publ_section_title
;
Structure prediction by ZEFSAII (Michael W. Deem and Ramdas Pophale) SiO2 
 PCOD8060223
Probable space group: P 2/M
;
_chemical_formula_sum "Si O2"
_cell_formula_units_Z 32
_cell_length_a 15.162913
_cell_length_b 9.153215
_cell_length_c 14.760940
_cell_angle_alpha 90.000000
_cell_angle_beta 120.664080
_cell_angle_gamma 90.000000
_cell_volume 1762.202085
_symmetry_space_group_name_H-M "P 2/M"
_symmetry_group_IT_number 10
_symmetry_cell_setting 'monoclinic'
loop_
_space_group_symop_operation_xyz
x,y,z
-x,y,-z
-x,-y,-z
x,-y,z
loop_
_atom_site_type_symbol
_atom_site_label
_atom_site_fract_x
_atom_site_fract_y
_atom_site_fract_z
Si Si1 0.922999 0.172387 0.230963
Si Si2 0.709458 0.172586 0.430145
Si Si3 0.385882 0.669553 0.953426
Si Si4 0.725396 0.826400 0.778902
Si Si5 0.494814 0.173562 0.395269
Si Si6 0.847271 0.827311 0.672076
Si Si7 0.760948 0.829246 0.997357
Si Si8 0.775063 0.329133 0.283858
O O1 0.874216 0.254574 0.290919
O O2 0.037802 0.233349 0.279454
O O3 0.919505 0.000000 0.249011
O O4 0.862851 0.211829 0.106777
O O5 0.593207 0.225110 0.388847
O O6 0.778273 0.218814 0.551403
O O7 0.754693 0.258325 0.369541
O O8 0.715268 0.000000 0.414338
O O9 0.386095 0.500000 0.978253
O O10 0.323668 0.702105 0.829559
O O11 0.500000 0.730349 0.000000
O O12 0.338115 0.752540 0.013131
O O13 0.608746 0.768208 0.706789
O O14 0.796959 0.760831 0.736984
O O15 0.772467 0.775819 0.899685
O O16 0.723881 0.000000 0.770151
O O17 0.500000 0.237200 0.500000
O O18 0.495827 0.000000 0.401534
O O19 0.852467 0.000000 0.683918
O O20 0.738918 0.000000 0.989684
O O21 0.797097 0.500000 0.306698
#
# Coordination Sequence:
#
# PCOD8060223 Si02
#       8
#     4   4   4   4   4   4   4   4
#     4   9  18  34  52  72  99 130 165 206 245 285
#     4  10  19  31  51  77 100 129 167 203 239 287
#     4   9  19  35  51  67  93 131 168 198 238 296
#     4   9  16  27  45  75 106 128 157 198 245 293
#     4   9  15  26  45  71 103 131 157 196 243 289
#     4   9  17  30  50  74 101 132 165 200 241 291
#     4   9  18  30  48  75 102 125 157 203 247 284
#     4  10  21  36  52  71  98 131 164 204 251 293
#
# _framework density 18.159098
#
# number of rings (size 3 to 8) (size 9 to 14) (size 15 to 20)
#    0.000    2.750    1.250    0.375    1.750    1.750 
#    0.000    5.625    0.000    1.875    0.000    3.500 
#    0.000    0.000    0.000    0.000    0.000    0.000 
#
# Total GULP energy -396764.826679 kJ/mol
# GULP energy per Si atom -12398.900834 kJ/mol
# Density = 1.811777 g / cm^3
# Si number density = 18.159098 Si / 1000 Ang^3
#
#
#
# Elastic Constant Matrix: (Units=GPa)
#
#
# Indices 1 2 3 4 5 6 
#
# 1 186.9304 38.9122 92.3683 0.0000 -1.4082 0.0000
# 2 38.9122 30.5826 30.7125 0.0000 -7.2605 0.0000
# 3 92.3683 30.7125 97.3991 0.0000 -18.1889 0.0000
# 4 0.0000 0.0000 0.0000 11.2430 0.0000 6.5974
# 5 -1.4082 -7.2605 -18.1889 0.0000 37.4618 0.0000
# 6 0.0000 0.0000 0.0000 6.5974 0.0000 0.8552
#
#
#
# Elastic Compliance Matrix: (Units=1/GPa)
#
#
# Indices 1 2 3 4 5 6 
#
# 1 0.011537 -0.005813 -0.010159 0.000000 -0.005625 0.000000
# 2 -0.005813 0.050937 -0.009618 0.000000 0.004984 0.000000
# 3 -0.010159 -0.009618 0.024759 0.000000 0.009775 0.000000
# 4 0.000000 0.000000 0.000000 -0.025221 0.000000 0.194557
# 5 -0.005625 0.004984 0.009775 0.000000 0.032195 0.000000
# 6 0.000000 0.000000 0.000000 0.194557 0.000000 -0.331558
#
#
# Mechanical properties :
#
#
# Convention : Reuss Voigt Hill
#
# Bulk Modulus (GPa) = 27.73660 70.98866 49.36263
# Shear Modulus (GPa) = -28.71030 20.10661 -4.30184
#
# Velocity S-wave (km/s) = -3.98055 3.33114 -1.54082
# Velocity P-wave (km/s) = 2.41225 7.34662 4.90683
#
# Compressibility (1/GPa) = 0.03605345
#
# Stress axis : x y z
#
# Youngs Moduli (GPa) = 86.67841 19.63210 40.38881
#
# Poissons Ratio (x) = 0.11412 0.41029
# Poissons Ratio (y) = 0.50385 0.38848
# Poissons Ratio (z) = 0.88052 0.18883
#
# Static dielectric constant tensor:
#      x y z
#    x 3.598910 0.000000 0.059030 
#    y 0.000000 2.906500 0.000000 
#    z 0.059030 0.000000 3.490570 
# 
# 
# High freq. dielectric constant tensor:
#      x y z
#    x 1.713880 0.000000 -0.000430 
#    y 0.000000 1.654890 0.000000 
#    z -0.000430 0.000000 1.710000 
# 
# From -- ./inp_files/66479.got.cif
#   From: 2010.06.25/outbox.cif.g09.slc.cpg/sg10_34_cif.got.tgz:66479.got - 2010.06.27 22:07:45.
