data_PCOD8060777
_publ_section_title
;
Structure prediction by ZEFSAII (Michael W. Deem and Ramdas Pophale) SiO2 
 PCOD8060777
Probable space group: P 2/M
;
_chemical_formula_sum "Si O2"
_cell_formula_units_Z 32
_cell_length_a 26.378296
_cell_length_b 8.902777
_cell_length_c 20.892645
_cell_angle_alpha 90.000000
_cell_angle_beta 21.133816
_cell_angle_gamma 90.000000
_cell_volume 1769.000662
_symmetry_space_group_name_H-M "P 2/M"
_symmetry_group_IT_number 10
_symmetry_cell_setting 'monoclinic'
loop_
_space_group_symop_operation_xyz
x,y,z
-x,y,-z
-x,-y,-z
x,-y,z
loop_
_atom_site_type_symbol
_atom_site_label
_atom_site_fract_x
_atom_site_fract_y
_atom_site_fract_z
Si Si1 0.910062 0.674803 0.917211
Si Si2 0.401780 0.323023 0.025544
Si Si3 0.391092 0.672324 0.781043
Si Si4 0.295928 0.322158 0.287614
Si Si5 0.898251 0.175549 0.061975
Si Si6 0.015124 0.822115 0.668021
Si Si7 0.252920 0.321524 0.074019
Si Si8 0.587478 0.177324 0.456761
O O1 0.947163 0.500000 0.866984
O O2 0.997194 0.762879 0.761103
O O3 0.744595 0.704640 0.102985
O O4 0.954273 0.735379 0.934406
O O5 0.403731 0.500000 0.017020
O O6 0.564104 0.270433 0.838704
O O7 0.315995 0.277088 0.189742
O O8 0.323210 0.256220 0.055856
O O9 0.435027 0.500000 0.727006
O O10 0.522659 0.765391 0.599712
O O11 0.357401 0.722407 0.893144
O O12 0.268417 0.500000 0.327532
O O13 0.167505 0.227297 0.465134
O O14 0.746038 0.234857 0.262920
O O15 0.895000 0.000000 0.048598
O O16 0.000000 0.213247 0.000000
O O17 0.898294 0.754328 0.757927
O O18 0.002345 0.000000 0.682489
O O19 0.227899 0.500000 0.105085
O O20 0.500000 0.242994 0.500000
O O21 0.580622 0.000000 0.466180
#
# Coordination Sequence:
#
# PCOD8060777 Si02
#       8
#     4   4   4   4   4   4   4   4
#     4  10  20  36  57  78 102 136 179 224 264 311
#     4   8  16  33  59  82 106 140 179 223 267 313
#     4   9  18  31  51  77 103 130 168 221 267 302
#     4   9  17  34  58  82 106 141 184 220 261 318
#     4  10  21  37  54  75 108 142 171 212 265 318
#     4  11  22  35  53  79 110 144 178 218 268 322
#     4   9  18  35  55  79 108 139 177 222 270 314
#     4  10  19  32  53  76  98 134 176 208 248 311
#
# _framework density 18.089309
#
# number of rings (size 3 to 8) (size 9 to 14) (size 15 to 20)
#    0.000    2.500    1.250    3.000    0.000    3.500 
#    2.250    5.000    0.000    0.000    0.000    0.000 
#    0.000    0.000    0.000    0.000    0.000    0.000 
#
# Total GULP energy -396797.340931 kJ/mol
# GULP energy per Si atom -12399.916904 kJ/mol
# Density = 1.804814 g / cm^3
# Si number density = 18.089309 Si / 1000 Ang^3
#
#
#
# Elastic Constant Matrix: (Units=GPa)
#
#
# Indices 1 2 3 4 5 6 
#
# 1 130.8030 44.4824 70.0921 0.0000 -1.1998 0.0000
# 2 44.4824 60.0958 44.6558 0.0000 0.6779 0.0000
# 3 70.0921 44.6558 136.7333 0.0000 0.7192 0.0000
# 4 0.0000 0.0000 0.0000 18.0442 0.0000 0.1772
# 5 -1.1998 0.6779 0.7192 0.0000 20.4430 0.0000
# 6 0.0000 0.0000 0.0000 0.1772 0.0000 13.1849
#
#
#
# Elastic Compliance Matrix: (Units=1/GPa)
#
#
# Indices 1 2 3 4 5 6 
#
# 1 0.011838 -0.005626 -0.004236 0.000000 0.001030 0.000000
# 2 -0.005626 0.024651 -0.005162 0.000000 -0.000966 0.000000
# 3 -0.004236 -0.005162 0.011173 0.000000 -0.000471 0.000000
# 4 0.000000 0.000000 0.000000 0.055427 0.000000 -0.000745
# 5 0.001030 -0.000966 -0.000471 0.000000 0.049026 0.000000
# 6 0.000000 0.000000 0.000000 -0.000745 0.000000 0.075855
#
#
# Mechanical properties :
#
#
# Convention : Reuss Voigt Hill
#
# Bulk Modulus (GPa) = 56.77279 71.78806 64.28043
# Shear Modulus (GPa) = 18.94742 21.56120 20.25431
#
# Velocity S-wave (km/s) = 3.23992 3.45618 3.34980
# Velocity P-wave (km/s) = 6.74159 7.46314 7.11152
#
# Compressibility (1/GPa) = 0.01761407
#
# Stress axis : x y z
#
# Youngs Moduli (GPa) = 84.47485 40.56668 89.49861
#
# Poissons Ratio (x) = 0.22823 0.37915
# Poissons Ratio (y) = 0.47525 0.46196
# Poissons Ratio (z) = 0.35786 0.20939
#
# Static dielectric constant tensor:
#      x y z
#    x 3.639380 0.000000 0.009920 
#    y 0.000000 3.096750 0.000000 
#    z 0.009920 0.000000 3.300250 
# 
# 
# High freq. dielectric constant tensor:
#      x y z
#    x 1.699620 0.000000 0.007530 
#    y 0.000000 1.681440 0.000000 
#    z 0.007530 0.000000 1.701590 
# 
# From -- ./inp_files/86894.got.cif
#   From: 2010.06.25/outbox.cif.g09.slc.cpg/sg10_44_cif.got.tgz:86894.got - 2010.06.27 22:07:45.
