data_PCOD8060052
_publ_section_title
;
Structure prediction by ZEFSAII (Michael W. Deem and Ramdas Pophale) SiO2 
 PCOD8060052
Probable space group: P 2/M
;
_chemical_formula_sum "Si O2"
_cell_formula_units_Z 32
_cell_length_a 12.375051
_cell_length_b 8.918138
_cell_length_c 17.422208
_cell_angle_alpha 90.000000
_cell_angle_beta 77.243339
_cell_angle_gamma 90.000000
_cell_volume 1875.296838
_symmetry_space_group_name_H-M "P 2/M"
_symmetry_group_IT_number 10
_symmetry_cell_setting 'monoclinic'
loop_
_space_group_symop_operation_xyz
x,y,z
-x,y,-z
-x,-y,-z
x,-y,z
loop_
_atom_site_type_symbol
_atom_site_label
_atom_site_fract_x
_atom_site_fract_y
_atom_site_fract_z
Si Si1 0.867150 0.675800 0.410446
Si Si2 0.939219 0.323413 0.836593
Si Si3 0.534593 0.326328 0.579304
Si Si4 0.306140 0.328094 0.693013
Si Si5 0.125430 0.165480 0.008318
Si Si6 0.829181 0.823421 0.162957
Si Si7 0.760806 0.172603 0.569408
Si Si8 0.914081 0.172833 0.686336
O O1 0.892682 0.500000 0.407575
O O2 0.767755 0.716486 0.368471
O O3 0.831829 0.727712 0.500124
O O4 0.976150 0.762470 0.369147
O O5 0.946004 0.500000 0.830816
O O6 0.863756 0.277627 0.921657
O O7 0.882430 0.259993 0.769001
O O8 0.063340 0.260409 0.821449
O O9 0.500000 0.273584 0.500000
O O10 0.571364 0.500000 0.571115
O O11 0.433674 0.299238 0.653201
O O12 0.634652 0.226124 0.593602
O O13 0.284821 0.500000 0.718855
O O14 0.276259 0.225490 0.770608
O O15 0.164107 0.000000 0.029024
O O16 0.194993 0.219875 0.922654
O O17 0.000000 0.158692 0.000000
O O18 0.851003 0.000000 0.166325
O O19 0.811080 0.193854 0.645829
O O20 0.766201 0.000000 0.542097
O O21 0.935779 0.000000 0.702618
#
# Coordination Sequence:
#
# PCOD8060052 Si02
#       8
#     4   4   4   4   4   4   4   4
#     4  11  21  35  54  76 103 136 173 210 255 307
#     4  11  20  30  48  74 102 135 172 208 251 302
#     4  10  20  38  57  73  99 133 171 215 261 304
#     4  10  20  33  52  77 103 134 172 213 256 302
#     4   8  16  30  46  68 100 137 169 199 247 304
#     4  10  19  31  49  73 104 138 169 206 252 304
#     4  11  24  38  53  75 101 134 176 218 257 301
#     4  11  23  37  51  72 105 139 173 213 255 302
#
# _framework density 17.063966000000001
#
# number of rings (size 3 to 8) (size 9 to 14) (size 15 to 20)
#    0.000    1.750    2.500    3.750    0.000    7.500 
#    0.000    0.000    0.000    0.000    0.000    0.875 
#    0.000    7.000    0.000    0.000    0.000    0.000 
#
# Total GULP energy -396858.693160 kJ/mol
# GULP energy per Si atom -12401.834161 kJ/mol
# Density = 1.702513 g / cm^3
# Si number density = 17.063966 Si / 1000 Ang^3
#
#
#
# Elastic Constant Matrix: (Units=GPa)
#
#
# Indices 1 2 3 4 5 6 
#
# 1 54.8941 40.2935 38.6708 0.0000 11.3423 0.0000
# 2 40.2935 98.0466 60.3650 0.0000 -2.0855 0.0000
# 3 38.6708 60.3650 129.2509 0.0000 -8.9094 0.0000
# 4 0.0000 0.0000 0.0000 27.8708 0.0000 -4.4063
# 5 11.3423 -2.0855 -8.9094 0.0000 13.2714 0.0000
# 6 0.0000 0.0000 0.0000 -4.4063 0.0000 23.8795
#
#
#
# Elastic Compliance Matrix: (Units=1/GPa)
#
#
# Indices 1 2 3 4 5 6 
#
# 1 0.045240 -0.012975 -0.010781 0.000000 -0.047940 0.000000
# 2 -0.012975 0.018107 -0.003789 0.000000 0.011390 0.000000
# 3 -0.010781 -0.003789 0.013973 0.000000 0.017998 0.000000
# 4 0.000000 0.000000 0.000000 0.036958 0.000000 0.006819
# 5 -0.047940 0.011390 0.017998 0.000000 0.130194 0.000000
# 6 0.000000 0.000000 0.000000 0.006819 0.000000 0.043135
#
#
# Mechanical properties :
#
#
# Convention : Reuss Voigt Hill
#
# Bulk Modulus (GPa) = 44.98266 62.31667 53.64966
# Shear Modulus (GPa) = 14.28136 22.52851 18.40494
#
# Velocity S-wave (km/s) = 2.89611 3.63745 3.28774
# Velocity P-wave (km/s) = 6.13203 7.36479 6.77650
#
# Compressibility (1/GPa) = 0.02223079
#
# Stress axis : x y z
#
# Youngs Moduli (GPa) = 22.10411 55.22838 71.56755
#
# Poissons Ratio (x) = 0.71656 0.77154
# Poissons Ratio (y) = 0.28679 0.27120
# Poissons Ratio (z) = 0.23829 0.20929
#
# Static dielectric constant tensor:
#      x y z
#    x 2.925450 0.000000 -0.103430 
#    y 0.000000 3.270380 0.000000 
#    z -0.103430 0.000000 3.499800 
# 
# 
# High freq. dielectric constant tensor:
#      x y z
#    x 1.617970 0.000000 -0.009470 
#    y 0.000000 1.668510 0.000000 
#    z -0.009470 0.000000 1.666380 
# 
# From -- ./inp_files/56436.got.cif
#   From: 2010.06.25/outbox.cif.g09.slc.cpg/sg10_29_cif.got.tgz:56436.got - 2010.06.27 22:07:45.
