data_PCOD8060644
_publ_section_title
;
Structure prediction by ZEFSAII (Michael W. Deem and Ramdas Pophale) SiO2 
 PCOD8060644
Probable space group: P 2/M
;
_chemical_formula_sum "Si O2"
_cell_formula_units_Z 28
_cell_length_a 9.337447
_cell_length_b 9.126271
_cell_length_c 27.428231
_cell_angle_alpha 90.000000
_cell_angle_beta 140.640532
_cell_angle_gamma 90.000000
_cell_volume 1482.294138
_symmetry_space_group_name_H-M "P 2/M"
_symmetry_group_IT_number 10
_symmetry_cell_setting 'monoclinic'
loop_
_space_group_symop_operation_xyz
x,y,z
-x,y,-z
-x,-y,-z
x,-y,z
loop_
_atom_site_type_symbol
_atom_site_label
_atom_site_fract_x
_atom_site_fract_y
_atom_site_fract_z
Si Si1 0.183391 0.325160 0.152445
Si Si2 0.989778 0.326121 0.287397
Si Si3 0.520027 0.325622 0.859485
Si Si4 0.332413 0.673442 0.295801
Si Si5 0.325671 0.325410 0.994802
Si Si6 0.760081 0.829962 0.560667
Si Si7 0.230448 0.337193 0.532817
O O1 0.187697 0.500000 0.152802
O O2 0.322815 0.263831 0.142770
O O3 0.295836 0.262901 0.231770
O O4 0.925918 0.268418 0.082906
O O5 0.000920 0.500000 0.295135
O O6 0.734646 0.269671 0.214845
O O7 0.132132 0.270502 0.278294
O O8 0.089702 0.259132 0.362402
O O9 0.527929 0.500000 0.861570
O O10 0.607079 0.264944 0.934204
O O11 0.325115 0.500000 0.290422
O O12 0.572831 0.726274 0.380310
O O13 0.333220 0.500000 0.996508
O O14 0.500000 0.264349 0.000000
O O15 0.500000 0.793295 0.500000
O O16 0.819801 0.777006 0.522702
O O17 0.815576 0.000000 0.580963
O O18 0.302280 0.500000 0.532316
O O19 0.000000 0.353226 0.500000
#
# Coordination Sequence:
#
# PCOD8060644 Si02
#       7
#     4   4   4   4   4   4   4
#     4   9  16  25  39  62  98 133 165 206 252 303
#     4  10  19  32  52  74 100 132 173 216 259 307
#     4   9  17  26  41  67  96 130 168 208 252 302
#     4   9  17  29  44  68  97 129 165 208 255 302
#     4   9  15  24  38  59  94 137 170 197 245 307
#     4  11  23  38  55  76 104 138 176 216 265 314
#     4  10  21  35  55  79 104 135 175 216 263 313
#
# _framework density 18.889638999999999
#
# number of rings (size 3 to 8) (size 9 to 14) (size 15 to 20)
#    0.000    2.429    1.429    1.714    2.000    6.000 
#    0.000    0.000    0.000    0.000    0.000    0.000 
#    0.000    8.571    0.000    0.000    0.000    0.286 
#
# Total GULP energy -347153.866644 kJ/mol
# GULP energy per Si atom -12398.352380 kJ/mol
# Density = 1.884665 g / cm^3
# Si number density = 18.889639 Si / 1000 Ang^3
#
#
#
# Elastic Constant Matrix: (Units=GPa)
#
#
# Indices 1 2 3 4 5 6 
#
# 1 156.6447 9.8729 89.9989 0.0000 -2.9996 0.0000
# 2 9.8729 9.0927 16.6778 0.0000 3.4792 0.0000
# 3 89.9989 16.6778 163.8495 0.0000 -13.8056 0.0000
# 4 0.0000 0.0000 0.0000 3.2023 0.0000 3.9173
# 5 -2.9996 3.4792 -13.8056 0.0000 38.2734 0.0000
# 6 0.0000 0.0000 0.0000 3.9173 0.0000 8.2170
#
#
#
# Elastic Compliance Matrix: (Units=1/GPa)
#
#
# Indices 1 2 3 4 5 6 
#
# 1 0.009377 -0.000151 -0.005231 0.000000 -0.001138 0.000000
# 2 -0.000151 0.148102 -0.016633 0.000000 -0.019475 0.000000
# 3 -0.005231 -0.016633 0.011100 0.000000 0.005106 0.000000
# 4 0.000000 0.000000 0.000000 0.749141 0.000000 -0.357138
# 5 -0.001138 -0.019475 0.005106 0.000000 0.029651 0.000000
# 6 0.000000 0.000000 0.000000 -0.357138 0.000000 0.291957
#
#
# Mechanical properties :
#
#
# Convention : Reuss Voigt Hill
#
# Bulk Modulus (GPa) = 8.02898 62.52067 35.27482
# Shear Modulus (GPa) = 3.77394 24.14101 13.95747
#
# Velocity S-wave (km/s) = 1.41500 3.57879 2.72121
# Velocity P-wave (km/s) = 2.63236 7.08849 5.34678
#
# Compressibility (1/GPa) = 0.12454889
#
# Stress axis : x y z
#
# Youngs Moduli (GPa) = 106.64242 6.75209 90.09229
#
# Poissons Ratio (x) = 0.00102 0.47129
# Poissons Ratio (y) = 0.01613 1.49848
# Poissons Ratio (z) = 0.55786 0.11231
#
# Static dielectric constant tensor:
#      x y z
#    x 3.672870 0.000000 -0.015790 
#    y 0.000000 2.780350 0.000000 
#    z -0.015790 0.000000 3.708340 
# 
# 
# High freq. dielectric constant tensor:
#      x y z
#    x 1.747170 0.000000 -0.000270 
#    y 0.000000 1.655160 0.000000 
#    z -0.000270 0.000000 1.753060 
# 
# From -- ./inp_files/37017.got.cif
#   From: 2010.06.25/outbox.cif.g09.slc.cpg/sg10_19_cif.got.tgz:37017.got - 2010.06.27 22:07:45.
