data_PCOD8060717
_publ_section_title
;
Structure prediction by ZEFSAII (Michael W. Deem and Ramdas Pophale) SiO2 
 PCOD8060717
Probable space group: P 2/M
;
_chemical_formula_sum "Si O2"
_cell_formula_units_Z 32
_cell_length_a 26.028429
_cell_length_b 9.027529
_cell_length_c 20.138379
_cell_angle_alpha 90.000000
_cell_angle_beta 158.674710
_cell_angle_gamma 90.000000
_cell_volume 1720.837272
_symmetry_space_group_name_H-M "P 2/M"
_symmetry_group_IT_number 10
_symmetry_cell_setting 'monoclinic'
loop_
_space_group_symop_operation_xyz
x,y,z
-x,y,-z
-x,-y,-z
x,-y,z
loop_
_atom_site_type_symbol
_atom_site_label
_atom_site_fract_x
_atom_site_fract_y
_atom_site_fract_z
Si Si1 0.343032 0.670295 0.298918
Si Si2 0.381179 0.323959 0.706234
Si Si3 0.810024 0.676493 0.403103
Si Si4 0.840670 0.825857 0.814803
Si Si5 0.629577 0.174528 0.445158
Si Si6 0.689278 0.323776 0.120005
Si Si7 0.650863 0.670783 0.845936
Si Si8 0.125756 0.324251 0.778166
O O1 0.500000 0.735596 0.500000
O O2 0.340409 0.500000 0.318516
O O3 0.228509 0.756786 0.203360
O O4 0.301266 0.690022 0.172053
O O5 0.379558 0.500000 0.695867
O O6 0.271308 0.268883 0.629526
O O7 0.335711 0.251060 0.582656
O O8 0.535425 0.265853 0.913513
O O9 0.812224 0.500000 0.403087
O O10 0.730118 0.738331 0.241634
O O11 0.968621 0.742089 0.595810
O O12 0.755276 0.780480 0.646173
O O13 0.839571 0.000000 0.824383
O O14 0.000000 0.765123 0.000000
O O15 0.484464 0.231074 0.301671
O O16 0.619314 0.000000 0.422420
O O17 0.687758 0.500000 0.119323
O O18 0.803583 0.264845 0.204533
O O19 0.613010 0.500000 0.816924
O O20 0.780832 0.727595 0.046952
O O21 0.116712 0.500000 0.765061
#
# Coordination Sequence:
#
# PCOD8060717 Si02
#       8
#     4   4   4   4   4   4   4   4
#     4  10  20  34  57  86 113 140 174 220 269 321
#     4  10  19  32  52  78 106 137 171 215 263 308
#     4   9  17  27  44  76 110 135 170 215 259 308
#     4  10  23  41  58  79 109 144 183 223 264 317
#     4  11  22  36  56  78 102 137 178 217 259 313
#     4   9  15  26  47  74 105 139 171 210 259 306
#     4  10  19  34  55  80 109 137 173 218 264 312
#     4   9  16  27  46  74 107 138 168 210 260 304
#
# _framework density 18.595599
#
# number of rings (size 3 to 8) (size 9 to 14) (size 15 to 20)
#    0.000    2.250    2.500    1.125    0.000    5.500 
#    0.000    1.250    0.000    2.250    0.000    0.875 
#    0.000    0.000    0.000    0.000    0.000    0.000 
#
# Total GULP energy -396835.358375 kJ/mol
# GULP energy per Si atom -12401.104949 kJ/mol
# Density = 1.855327 g / cm^3
# Si number density = 18.595599 Si / 1000 Ang^3
#
#
#
# Elastic Constant Matrix: (Units=GPa)
#
#
# Indices 1 2 3 4 5 6 
#
# 1 161.2045 31.5129 85.5242 0.0000 4.2435 0.0000
# 2 31.5129 20.7101 24.1917 0.0000 -3.4962 0.0000
# 3 85.5242 24.1917 140.9137 0.0000 3.7580 0.0000
# 4 0.0000 0.0000 0.0000 12.9185 0.0000 6.7228
# 5 4.2435 -3.4962 3.7580 0.0000 39.8829 0.0000
# 6 0.0000 0.0000 0.0000 6.7228 0.0000 8.5878
#
#
#
# Elastic Compliance Matrix: (Units=1/GPa)
#
#
# Indices 1 2 3 4 5 6 
#
# 1 0.010964 -0.011582 -0.004619 0.000000 -0.001747 0.000000
# 2 -0.011582 0.074247 -0.005938 0.000000 0.008301 0.000000
# 3 -0.004619 -0.005938 0.010948 0.000000 -0.001061 0.000000
# 4 0.000000 0.000000 0.000000 0.130623 0.000000 -0.102257
# 5 -0.001747 0.008301 -0.001061 0.000000 0.026087 0.000000
# 6 0.000000 0.000000 0.000000 -0.102257 0.000000 0.196495
#
#
# Mechanical properties :
#
#
# Convention : Reuss Voigt Hill
#
# Bulk Modulus (GPa) = 19.27551 67.25398 43.26474
# Shear Modulus (GPa) = 9.78593 24.38448 17.08521
#
# Velocity S-wave (km/s) = 2.29650 3.62512 3.03442
# Velocity P-wave (km/s) = 4.17373 7.33261 5.96604
#
# Compressibility (1/GPa) = 0.05187931
#
# Stress axis : x y z
#
# Youngs Moduli (GPa) = 91.20612 13.46853 91.34088
#
# Poissons Ratio (x) = 0.15599 0.42195
# Poissons Ratio (y) = 1.05636 0.54242
# Poissons Ratio (z) = 0.42133 0.07998
#
# Static dielectric constant tensor:
#      x y z
#    x 3.549970 0.000000 -0.044570 
#    y 0.000000 2.947400 0.000000 
#    z -0.044570 0.000000 3.683780 
# 
# 
# High freq. dielectric constant tensor:
#      x y z
#    x 1.736610 0.000000 -0.005450 
#    y 0.000000 1.669210 0.000000 
#    z -0.005450 0.000000 1.731680 
# 
# From -- ./inp_files/87077.got.cif
#   From: 2010.06.25/outbox.cif.g09.slc.cpg/sg10_44_cif.got.tgz:87077.got - 2010.06.27 22:07:45.
