data_PCOD8060161
_publ_section_title
;
Structure prediction by ZEFSAII (Michael W. Deem and Ramdas Pophale) SiO2 
 PCOD8060161
Probable space group: P 2/M
;
_chemical_formula_sum "Si O2"
_cell_formula_units_Z 32
_cell_length_a 25.236953
_cell_length_b 8.994760
_cell_length_c 18.731200
_cell_angle_alpha 90.000000
_cell_angle_beta 153.214069
_cell_angle_gamma 90.000000
_cell_volume 1916.194213
_symmetry_space_group_name_H-M "P 2/M"
_symmetry_group_IT_number 10
_symmetry_cell_setting 'monoclinic'
loop_
_space_group_symop_operation_xyz
x,y,z
-x,y,-z
-x,-y,-z
x,-y,z
loop_
_atom_site_type_symbol
_atom_site_label
_atom_site_fract_x
_atom_site_fract_y
_atom_site_fract_z
Si Si1 0.638598 0.828982 0.301211
Si Si2 0.373161 0.176173 0.007502
Si Si3 0.141708 0.667941 0.375103
Si Si4 0.980381 0.325167 0.555863
Si Si5 0.743961 0.828577 0.279387
Si Si6 0.988158 0.668496 0.064914
Si Si7 0.792274 0.323964 0.082609
Si Si8 0.911148 0.823789 0.102920
O O1 0.730886 0.734379 0.457640
O O2 0.651028 0.803581 0.231248
O O3 0.660466 0.000000 0.347051
O O4 0.509134 0.777470 0.167594
O O5 0.310251 0.233978 0.859469
O O6 0.320691 0.259542 0.012780
O O7 0.358178 0.000000 0.997682
O O8 0.135098 0.500000 0.397620
O O9 0.115703 0.668984 0.258139
O O10 0.036222 0.762918 0.285493
O O11 0.964296 0.500000 0.536668
O O12 0.861572 0.256114 0.444431
O O13 0.000000 0.263061 0.500000
O O14 0.092407 0.274669 0.735500
O O15 0.775609 0.000000 0.307888
O O16 0.938643 0.500000 0.000430
O O17 0.898863 0.768114 0.005616
O O18 0.000000 0.737699 0.000000
O O19 0.779474 0.500000 0.058959
O O20 0.804052 0.247534 0.019150
O O21 0.906386 0.000000 0.101584
#
# Coordination Sequence:
#
# PCOD8060161 Si02
#       8
#     4   4   4   4   4   4   4   4
#     4  10  20  34  50  69  95 129 167 211 255 295
#     4  10  21  35  49  66  92 128 172 216 255 294
#     4   9  18  32  50  75 102 131 163 194 238 291
#     4  10  20  33  47  65  91 122 159 206 257 302
#     4  10  20  33  50  69  90 123 167 211 256 303
#     4   8  16  32  52  77 109 137 159 188 231 286
#     4  11  21  34  49  67  95 129 166 206 251 300
#     4  10  19  31  50  76 104 130 159 195 239 289
#
# _framework density 16.699767999999999
#
# number of rings (size 3 to 8) (size 9 to 14) (size 15 to 20)
#    0.750    1.500    1.250    2.625    0.000    6.000 
#    0.000    0.000    0.000    2.250    0.000    0.875 
#    0.000    7.000    0.000    0.000    0.000    0.000 
#
# Total GULP energy -396668.378820 kJ/mol
# GULP energy per Si atom -12395.886838 kJ/mol
# Density = 1.666176 g / cm^3
# Si number density = 16.699768 Si / 1000 Ang^3
#
#
#
# Elastic Constant Matrix: (Units=GPa)
#
#
# Indices 1 2 3 4 5 6 
#
# 1 128.5737 46.6486 36.2583 0.0000 8.6461 0.0000
# 2 46.6486 69.3753 20.6848 0.0000 7.5853 0.0000
# 3 36.2583 20.6848 39.6076 0.0000 10.7028 0.0000
# 4 0.0000 0.0000 0.0000 18.7250 0.0000 -1.4057
# 5 8.6461 7.5853 10.7028 0.0000 26.8937 0.0000
# 6 0.0000 0.0000 0.0000 -1.4057 0.0000 19.8108
#
#
#
# Elastic Compliance Matrix: (Units=1/GPa)
#
#
# Indices 1 2 3 4 5 6 
#
# 1 0.012182 -0.005800 -0.008411 0.000000 0.001067 0.000000
# 2 -0.005800 0.019883 -0.004552 0.000000 -0.001932 0.000000
# 3 -0.008411 -0.004552 0.038374 0.000000 -0.011284 0.000000
# 4 0.000000 0.000000 0.000000 0.053690 0.000000 0.003810
# 5 0.001067 -0.001932 -0.011284 0.000000 0.041876 0.000000
# 6 0.000000 0.000000 0.000000 0.003810 0.000000 0.050748
#
#
# Mechanical properties :
#
#
# Convention : Reuss Voigt Hill
#
# Bulk Modulus (GPa) = 30.38393 49.41557 39.89975
# Shear Modulus (GPa) = 18.85007 22.01689 20.43348
#
# Velocity S-wave (km/s) = 3.36335 3.63491 3.50176
# Velocity P-wave (km/s) = 5.77205 6.87543 6.34776
#
# Compressibility (1/GPa) = 0.03291214
#
# Stress axis : x y z
#
# Youngs Moduli (GPa) = 82.08594 50.29446 26.05935
#
# Poissons Ratio (x) = 0.29172 0.21919
# Poissons Ratio (y) = 0.47612 0.11862
# Poissons Ratio (z) = 0.69045 0.22894
#
# Static dielectric constant tensor:
#      x y z
#    x 3.164800 0.000000 -0.000050 
#    y 0.000000 3.028610 0.000000 
#    z -0.000050 0.000000 2.866850 
# 
# 
# High freq. dielectric constant tensor:
#      x y z
#    x 1.642470 0.000000 0.002150 
#    y 0.000000 1.644460 0.000000 
#    z 0.002150 0.000000 1.605570 
# 
# From -- ./inp_files/56432.got.cif
#   From: 2010.06.25/outbox.cif.g09.slc.cpg/sg10_29_cif.got.tgz:56432.got - 2010.06.27 22:07:45.
