data_PCOD8060284
_publ_section_title
;
Structure prediction by ZEFSAII (Michael W. Deem and Ramdas Pophale) SiO2 
 PCOD8060284
Probable space group: P 2/M
;
_chemical_formula_sum "Si O2"
_cell_formula_units_Z 26
_cell_length_a 5.006371
_cell_length_b 13.267653
_cell_length_c 23.112292
_cell_angle_alpha 90.000000
_cell_angle_beta 113.143383
_cell_angle_gamma 90.000000
_cell_volume 1411.637860
_symmetry_space_group_name_H-M "P 2/M"
_symmetry_group_IT_number 10
_symmetry_cell_setting 'monoclinic'
loop_
_space_group_symop_operation_xyz
x,y,z
-x,y,-z
-x,-y,-z
x,-y,z
loop_
_atom_site_type_symbol
_atom_site_label
_atom_site_fract_x
_atom_site_fract_y
_atom_site_fract_z
Si Si1 0.731167 0.382697 0.648711
Si Si2 0.007797 0.763161 0.764823
Si Si3 0.165771 0.810075 0.069266
Si Si4 0.100064 0.383911 0.568898
Si Si5 0.277127 0.304231 0.897462
Si Si6 0.547760 0.885815 0.797776
Si Si7 0.176201 0.500000 0.955763
O O1 0.755586 0.500000 0.671015
O O2 0.909569 0.311079 0.706118
O O3 0.402543 0.340429 0.619365
O O4 0.849562 0.369153 0.594174
O O5 0.735897 0.810589 0.774907
O O6 0.206671 0.693670 0.823461
O O7 0.213285 0.853367 0.759517
O O8 0.373402 0.716065 0.064550
O O9 0.371497 0.881369 0.126181
O O10 0.898649 0.785282 0.088078
O O11 0.000000 0.860402 0.000000
O O12 0.167153 0.500000 0.561104
O O13 0.000000 0.331625 0.500000
O O14 0.132191 0.402836 0.912606
O O15 0.586534 0.000000 0.779668
O O16 0.500000 0.500000 0.000000
O O17 0.000000 0.500000 0.000000
#
# Coordination Sequence:
#
# PCOD8060284 Si02
#       7
#     4   4   4   4   4   4   2
#     4  10  19  31  52  78 110 149 176 207 243 301
#     4  10  21  36  53  76 105 135 173 214 256 309
#     4  10  19  34  52  71  94 123 159 210 270 325
#     4   9  17  30  48  76 112 148 179 207 243 285
#     4  10  21  33  48  68  97 132 163 213 253 295
#     4  10  21  37  55  75 100 131 168 221 276 316
#     4  12  22  32  48  68  92 130 177 208 243 300
#
# _framework density 18.418320999999999
#
# number of rings (size 3 to 8) (size 9 to 14) (size 15 to 20)
#    0.000    2.000    0.000    4.615    1.077    2.154 
#    0.000    0.000    0.000    5.538    0.000    0.000 
#    0.000   43.077    0.000    0.000    0.000    0.000 
#
# Total GULP energy -322164.881119 kJ/mol
# GULP energy per Si atom -12390.956966 kJ/mol
# Density = 1.837640 g / cm^3
# Si number density = 18.418321 Si / 1000 Ang^3
#
#
#
# Elastic Constant Matrix: (Units=GPa)
#
#
# Indices 1 2 3 4 5 6 
#
# 1 91.1985 9.0445 14.7325 0.0000 1.8627 0.0000
# 2 9.0445 63.3945 33.0923 0.0000 -1.9105 0.0000
# 3 14.7325 33.0923 93.8002 0.0000 7.0089 0.0000
# 4 0.0000 0.0000 0.0000 12.0992 0.0000 1.8809
# 5 1.8627 -1.9105 7.0089 0.0000 28.1385 0.0000
# 6 0.0000 0.0000 0.0000 1.8809 0.0000 20.6047
#
#
#
# Elastic Compliance Matrix: (Units=1/GPa)
#
#
# Indices 1 2 3 4 5 6 
#
# 1 0.011292 -0.000878 -0.001430 0.000000 -0.000451 0.000000
# 2 -0.000878 0.019667 -0.007036 0.000000 0.003146 0.000000
# 3 -0.001430 -0.007036 0.013650 0.000000 -0.003783 0.000000
# 4 0.000000 0.000000 0.000000 0.083840 0.000000 -0.007653
# 5 -0.000451 0.003146 -0.003783 0.000000 0.036724 0.000000
# 6 0.000000 0.000000 0.000000 -0.007653 0.000000 0.049231
#
#
# Mechanical properties :
#
#
# Convention : Reuss Voigt Hill
#
# Bulk Modulus (GPa) = 38.57713 40.23685 39.40699
# Shear Modulus (GPa) = 20.68396 24.93673 22.81034
#
# Velocity S-wave (km/s) = 3.35477 3.68354 3.52299
# Velocity P-wave (km/s) = 5.99970 6.32336 6.16365
#
# Compressibility (1/GPa) = 0.02592210
#
# Stress axis : x y z
#
# Youngs Moduli (GPa) = 88.55496 50.84675 73.25802
#
# Poissons Ratio (x) = 0.04465 0.10477
# Poissons Ratio (y) = 0.07776 0.51541
# Poissons Ratio (z) = 0.12664 0.35774
#
# Static dielectric constant tensor:
#      x y z
#    x 3.544980 0.000000 0.103880 
#    y 0.000000 2.906760 0.000000 
#    z 0.103880 0.000000 3.422680 
# 
# 
# High freq. dielectric constant tensor:
#      x y z
#    x 1.738770 0.000000 0.001150 
#    y 0.000000 1.666180 0.000000 
#    z 0.001150 0.000000 1.705610 
# 
# From -- ./inp_files/81239.got.cif
#   From: 2010.06.25/outbox.cif.g09.slc.cpg/sg10_41_cif.got.tgz:81239.got - 2010.06.27 22:07:45.
