data_PCOD8060249
_publ_section_title
;
Structure prediction by ZEFSAII (Michael W. Deem and Ramdas Pophale) SiO2 
 PCOD8060249
Probable space group: P 2/M
;
_chemical_formula_sum "Si O2"
_cell_formula_units_Z 32
_cell_length_a 20.483154
_cell_length_b 9.344539
_cell_length_c 25.284555
_cell_angle_alpha 90.000000
_cell_angle_beta 157.926703
_cell_angle_gamma 90.000000
_cell_volume 1818.687277
_symmetry_space_group_name_H-M "P 2/M"
_symmetry_group_IT_number 10
_symmetry_cell_setting 'monoclinic'
loop_
_space_group_symop_operation_xyz
x,y,z
-x,y,-z
-x,-y,-z
x,-y,z
loop_
_atom_site_type_symbol
_atom_site_label
_atom_site_fract_x
_atom_site_fract_y
_atom_site_fract_z
Si Si1 0.810041 0.836171 0.617529
Si Si2 0.396568 0.835159 0.069938
Si Si3 0.520846 0.666170 0.348834
Si Si4 0.345059 0.163428 0.647611
Si Si5 0.348546 0.333875 0.927734
Si Si6 0.985285 0.162830 0.335085
Si Si7 0.124109 0.665744 0.046630
Si Si8 0.082237 0.166929 0.908142
O O1 0.640273 0.737880 0.483609
O O2 0.946272 0.807883 0.672663
O O3 0.904436 0.799128 0.743300
O O4 0.747857 0.000000 0.569457
O O5 0.581081 0.814891 0.238075
O O6 0.364267 0.000000 0.029303
O O7 0.402035 0.739911 0.022313
O O8 0.245054 0.781821 0.995259
O O9 0.568293 0.500000 0.381365
O O10 0.553614 0.734534 0.316286
O O11 0.320804 0.692271 0.213415
O O12 0.139170 0.196907 0.492449
O O13 0.375498 0.000000 0.651075
O O14 0.316794 0.500000 0.914759
O O15 0.173633 0.267327 0.772020
O O16 0.500000 0.306429 0.000000
O O17 0.920189 0.000000 0.291900
O O18 0.090472 0.500000 0.009142
O O19 0.076513 0.749895 0.958285
O O20 0.000000 0.721876 0.000000
O O21 0.101396 0.000000 0.935061
#
# Coordination Sequence:
#
# PCOD8060249 Si02
#       8
#     4   4   4   4   4   4   4   4
#     4   9  18  33  53  79 109 135 169 222 271 311
#     4  10  19  35  58  82 106 136 177 223 267 314
#     4  10  19  31  51  79 106 139 180 214 259 317
#     4   9  18  33  55  81 108 133 167 221 273 312
#     4  11  24  38  52  76 111 147 180 216 261 313
#     4   9  17  33  55  79 105 138 174 214 265 317
#     4  10  22  38  53  75 111 148 180 217 263 318
#     4  10  19  34  57  83 106 134 179 226 267 312
#
# _framework density 17.595108
#
# number of rings (size 3 to 8) (size 9 to 14) (size 15 to 20)
#    0.000    2.250    2.500    1.500    0.000    5.250 
#    0.000    1.250    0.000    7.500    0.000    0.000 
#    0.000    0.000    0.000    0.000    0.000    0.000 
#
# Total GULP energy -396839.307208 kJ/mol
# GULP energy per Si atom -12401.228350 kJ/mol
# Density = 1.755506 g / cm^3
# Si number density = 17.595108 Si / 1000 Ang^3
#
#
#
# Elastic Constant Matrix: (Units=GPa)
#
#
# Indices 1 2 3 4 5 6 
#
# 1 96.9468 62.1319 61.4513 0.0000 -3.1556 0.0000
# 2 62.1319 98.3850 70.8703 0.0000 2.7582 0.0000
# 3 61.4513 70.8703 132.0753 0.0000 -5.0070 0.0000
# 4 0.0000 0.0000 0.0000 13.0179 0.0000 3.0795
# 5 -3.1556 2.7582 -5.0070 0.0000 23.1437 0.0000
# 6 0.0000 0.0000 0.0000 3.0795 0.0000 23.3408
#
#
#
# Elastic Compliance Matrix: (Units=1/GPa)
#
#
# Indices 1 2 3 4 5 6 
#
# 1 0.018609 -0.009248 -0.003587 0.000000 0.002863 0.000000
# 2 -0.009248 0.021527 -0.007454 0.000000 -0.005439 0.000000
# 3 -0.003587 -0.007454 0.013365 0.000000 0.003291 0.000000
# 4 0.000000 0.000000 0.000000 0.079292 0.000000 -0.010462
# 5 0.002863 -0.005439 0.003291 0.000000 0.044959 0.000000
# 6 0.000000 0.000000 0.000000 -0.010462 0.000000 0.044224
#
#
# Mechanical properties :
#
#
# Convention : Reuss Voigt Hill
#
# Bulk Modulus (GPa) = 77.39100 79.59047 78.49073
# Shear Modulus (GPa) = 18.73628 20.76403 19.75016
#
# Velocity S-wave (km/s) = 3.26675 3.43899 3.35398
# Velocity P-wave (km/s) = 7.63602 7.81674 7.72691
#
# Compressibility (1/GPa) = 0.01292140
#
# Stress axis : x y z
#
# Youngs Moduli (GPa) = 53.73741 46.45434 74.82161
#
# Poissons Ratio (x) = 0.42962 0.26841
# Poissons Ratio (y) = 0.49697 0.55773
# Poissons Ratio (z) = 0.19277 0.34628
#
# Static dielectric constant tensor:
#      x y z
#    x 3.002230 0.000000 -0.098840 
#    y 0.000000 3.255060 0.000000 
#    z -0.098840 0.000000 3.516810 
# 
# 
# High freq. dielectric constant tensor:
#      x y z
#    x 1.648890 0.000000 -0.012460 
#    y 0.000000 1.679650 0.000000 
#    z -0.012460 0.000000 1.696920 
# 
# From -- ./inp_files/86127.got.cif
#   From: 2010.06.25/outbox.cif.g09.slc.cpg/sg10_44_cif.got.tgz:86127.got - 2010.06.27 22:07:45.
