data_PCOD8060073
_publ_section_title
;
Structure prediction by ZEFSAII (Michael W. Deem and Ramdas Pophale) SiO2 
 PCOD8060073
Probable space group: P 2/M
;
_chemical_formula_sum "Si O2"
_cell_formula_units_Z 28
_cell_length_a 17.561133
_cell_length_b 18.385389
_cell_length_c 12.773712
_cell_angle_alpha 90.000000
_cell_angle_beta 157.642354
_cell_angle_gamma 90.000000
_cell_volume 1568.801335
_symmetry_space_group_name_H-M "P 2/M"
_symmetry_group_IT_number 10
_symmetry_cell_setting 'monoclinic'
loop_
_space_group_symop_operation_xyz
x,y,z
-x,y,-z
-x,-y,-z
x,-y,z
loop_
_atom_site_type_symbol
_atom_site_label
_atom_site_fract_x
_atom_site_fract_y
_atom_site_fract_z
Si Si1 0.321253 0.420645 0.693939
Si Si2 0.342202 0.765488 0.205566
Si Si3 0.469795 0.301993 0.751413
Si Si4 0.136297 0.081373 0.266928
Si Si5 0.902608 0.784075 0.654460
Si Si6 0.555597 0.921465 0.691674
Si Si7 0.176430 0.294268 0.643527
O O1 0.221817 0.500000 0.543732
O O2 0.400547 0.385438 0.684975
O O3 0.170435 0.364329 0.558386
O O4 0.500000 0.434285 0.000000
O O5 0.500000 0.762089 0.500000
O O6 0.413067 0.707430 0.208399
O O7 0.321381 0.847448 0.129523
O O8 0.117205 0.746550 0.956631
O O9 0.272874 0.251848 0.499481
O O10 0.613070 0.281089 0.031236
O O11 0.097136 0.130468 0.318779
O O12 0.364046 0.083378 0.521832
O O13 0.065781 0.000000 0.206481
O O14 0.000000 0.112720 0.000000
O O15 0.863062 0.775693 0.479992
O O16 0.500000 0.921175 0.500000
O O17 0.664073 0.000000 0.853670
O O18 0.000000 0.305998 0.500000
#
# Coordination Sequence:
#
# PCOD8060073 Si02
#       7
#     4   4   4   4   4   4   4
#     4   8  16  31  54  81 109 136 167 217 266 308
#     4  11  21  32  52  80 107 139 179 220 265 315
#     4  10  20  36  54  78 111 138 176 212 264 321
#     4  10  19  31  49  74 105 139 178 225 274 312
#     4  11  21  33  55  75 106 143 175 221 270 313
#     4   9  17  30  46  69 102 133 169 220 267 309
#     4  10  19  35  56  81 108 139 177 216 265 315
#
# _framework density 17.848022
#
# number of rings (size 3 to 8) (size 9 to 14) (size 15 to 20)
#    0.000    2.143    2.857    3.000    0.000    2.000 
#    0.000    0.000    0.000    3.429    0.000    4.000 
#    0.000    0.000    0.000    0.000    0.000    0.000 
#
# Total GULP energy -346908.818776 kJ/mol
# GULP energy per Si atom -12389.600671 kJ/mol
# Density = 1.780740 g / cm^3
# Si number density = 17.848022 Si / 1000 Ang^3
#
#
#
# Elastic Constant Matrix: (Units=GPa)
#
#
# Indices 1 2 3 4 5 6 
#
# 1 102.8759 56.5019 24.7526 0.0000 6.9254 0.0000
# 2 56.5019 114.0983 25.3702 0.0000 -11.1006 0.0000
# 3 24.7526 25.3702 78.9493 0.0000 6.7133 0.0000
# 4 0.0000 0.0000 0.0000 7.7321 0.0000 6.6115
# 5 6.9254 -11.1006 6.7133 0.0000 27.8303 0.0000
# 6 0.0000 0.0000 0.0000 6.6115 0.0000 15.0489
#
#
#
# Elastic Compliance Matrix: (Units=1/GPa)
#
#
# Indices 1 2 3 4 5 6 
#
# 1 0.014656 -0.007496 -0.001656 0.000000 -0.006238 0.000000
# 2 -0.007496 0.013885 -0.002799 0.000000 0.008079 0.000000
# 3 -0.001656 -0.002799 0.014441 0.000000 -0.004188 0.000000
# 4 0.000000 0.000000 0.000000 0.207148 0.000000 -0.091006
# 5 -0.006238 0.008079 -0.004188 0.000000 0.041717 0.000000
# 6 0.000000 0.000000 0.000000 -0.091006 0.000000 0.106432
#
#
# Mechanical properties :
#
#
# Convention : Reuss Voigt Hill
#
# Bulk Modulus (GPa) = 52.40950 56.57476 54.49213
# Shear Modulus (GPa) = 11.66753 22.74218 17.20485
#
# Velocity S-wave (km/s) = 2.55956 3.57348 3.10815
# Velocity P-wave (km/s) = 6.17764 6.98522 6.59380
#
# Compressibility (1/GPa) = 0.01908051
#
# Stress axis : x y z
#
# Youngs Moduli (GPa) = 68.23184 72.02087 69.24805
#
# Poissons Ratio (x) = 0.53990 0.11465
# Poissons Ratio (y) = 0.51149 0.19379
# Poissons Ratio (z) = 0.11297 0.20155
#
# Static dielectric constant tensor:
#      x y z
#    x 3.321950 0.000000 0.175520 
#    y 0.000000 3.664100 0.000000 
#    z 0.175520 0.000000 3.175510 
# 
# 
# High freq. dielectric constant tensor:
#      x y z
#    x 1.691510 0.000000 0.024570 
#    y 0.000000 1.678650 0.000000 
#    z 0.024570 0.000000 1.664870 
# 
# From -- ./inp_files/54240.got.cif
#   From: 2010.06.25/outbox.cif.g09.slc.cpg/sg10_28_cif.got.tgz:54240.got - 2010.06.27 22:07:45.
