data_PCOD8060333
_publ_section_title
;
Structure prediction by ZEFSAII (Michael W. Deem and Ramdas Pophale) SiO2 
 PCOD8060333
Probable space group: P 2/M
;
_chemical_formula_sum "Si O2"
_cell_formula_units_Z 32
_cell_length_a 14.111421
_cell_length_b 9.130922
_cell_length_c 20.398241
_cell_angle_alpha 90.000000
_cell_angle_beta 43.136424
_cell_angle_gamma 90.000000
_cell_volume 1797.081192
_symmetry_space_group_name_H-M "P 2/M"
_symmetry_group_IT_number 10
_symmetry_cell_setting 'monoclinic'
loop_
_space_group_symop_operation_xyz
x,y,z
-x,y,-z
-x,-y,-z
x,-y,z
loop_
_atom_site_type_symbol
_atom_site_label
_atom_site_fract_x
_atom_site_fract_y
_atom_site_fract_z
Si Si1 0.348826 0.832395 0.704691
Si Si2 0.932168 0.829664 0.219991
Si Si3 0.915805 0.326356 0.359509
Si Si4 0.363719 0.667314 0.829643
Si Si5 0.072093 0.170274 0.395755
Si Si6 0.366891 0.167443 0.297236
Si Si7 0.070918 0.332173 0.031995
Si Si8 0.343436 0.832025 0.460753
O O1 0.231258 0.802905 0.710334
O O2 0.319393 0.735969 0.783019
O O3 0.498735 0.796885 0.597250
O O4 0.347945 0.000000 0.729434
O O5 0.975822 0.738945 0.261833
O O6 0.021137 0.774385 0.114031
O O7 0.964704 0.000000 0.214812
O O8 0.920320 0.500000 0.354328
O O9 0.758062 0.273203 0.448246
O O10 0.012455 0.270745 0.369063
O O11 0.398532 0.500000 0.798120
O O12 0.500718 0.738948 0.792107
O O13 0.236736 0.685279 0.943853
O O14 0.235995 0.203097 0.317489
O O15 0.000000 0.214338 0.500000
O O16 0.042181 0.000000 0.395075
O O17 0.325481 0.201572 0.392931
O O18 0.411817 0.000000 0.267985
O O19 0.029252 0.500000 0.068892
O O20 0.000000 0.282724 0.000000
O O21 0.303211 0.000000 0.496863
#
# Coordination Sequence:
#
# PCOD8060333 Si02
#       8
#     4   4   4   4   4   4   4   4
#     4   9  19  34  53  77 106 143 187 228 264 311
#     4  11  23  38  57  79 106 146 192 233 270 319
#     4  12  25  37  52  79 114 147 181 227 278 330
#     4  10  19  31  53  82 114 146 174 217 274 327
#     4  10  19  37  61  81 106 144 185 225 272 321
#     4   9  18  33  56  82 109 141 179 226 269 315
#     4  10  20  36  56  81 114 148 179 220 277 328
#     4   9  17  34  54  75 107 146 185 221 265 319
#
# _framework density 17.806653000000001
#
# number of rings (size 3 to 8) (size 9 to 14) (size 15 to 20)
#    0.000    2.000    2.500    2.625    0.000    5.000 
#    0.000    2.500    0.000    0.750    0.000    5.250 
#    0.000    0.000    0.000    0.000    0.000    0.000 
#
# Total GULP energy -396862.300634 kJ/mol
# GULP energy per Si atom -12401.946895 kJ/mol
# Density = 1.776612 g / cm^3
# Si number density = 17.806653 Si / 1000 Ang^3
#
#
#
# Elastic Constant Matrix: (Units=GPa)
#
#
# Indices 1 2 3 4 5 6 
#
# 1 85.6657 56.7102 49.6753 0.0000 2.0797 0.0000
# 2 56.7102 117.8854 59.6852 0.0000 5.0320 0.0000
# 3 49.6753 59.6852 84.4692 0.0000 2.0072 0.0000
# 4 0.0000 0.0000 0.0000 31.1083 0.0000 -0.1660
# 5 2.0797 5.0320 2.0072 0.0000 22.5879 0.0000
# 6 0.0000 0.0000 0.0000 -0.1660 0.0000 24.8842
#
#
#
# Elastic Compliance Matrix: (Units=1/GPa)
#
#
# Indices 1 2 3 4 5 6 
#
# 1 0.019887 -0.005682 -0.007683 0.000000 0.000117 0.000000
# 2 -0.005682 0.014933 -0.007159 0.000000 -0.002167 0.000000
# 3 -0.007683 -0.007159 0.021406 0.000000 0.000400 0.000000
# 4 0.000000 0.000000 0.000000 0.032147 0.000000 0.000214
# 5 0.000117 -0.002167 0.000400 0.000000 0.044708 0.000000
# 6 0.000000 0.000000 0.000000 0.000214 0.000000 0.040188
#
#
# Mechanical properties :
#
#
# Convention : Reuss Voigt Hill
#
# Bulk Modulus (GPa) = 65.88369 68.90686 67.39527
# Shear Modulus (GPa) = 22.79193 23.84607 23.31900
#
# Velocity S-wave (km/s) = 3.58154 3.66343 3.62272
# Velocity P-wave (km/s) = 7.36092 7.52832 7.44509
#
# Compressibility (1/GPa) = 0.01517826
#
# Stress axis : x y z
#
# Youngs Moduli (GPa) = 50.28352 66.96546 46.71612
#
# Poissons Ratio (x) = 0.38049 0.35894
# Poissons Ratio (y) = 0.28571 0.33442
# Poissons Ratio (z) = 0.38635 0.47938
#
# Static dielectric constant tensor:
#      x y z
#    x 3.406950 0.000000 -0.240170 
#    y 0.000000 3.275560 0.000000 
#    z -0.240170 0.000000 3.185620 
# 
# 
# High freq. dielectric constant tensor:
#      x y z
#    x 1.680070 0.000000 -0.016610 
#    y 0.000000 1.688980 0.000000 
#    z -0.016610 0.000000 1.676020 
# 
# From -- ./inp_files/69987.got.cif
#   From: 2010.06.25/outbox.cif.g09.slc.cpg/sg10_35_cif.got.tgz:69987.got - 2010.06.27 22:07:45.
