data_PCOD8060844
_publ_section_title
;
Structure prediction by ZEFSAII (Michael W. Deem and Ramdas Pophale) SiO2 
 PCOD8060844
Probable space group: P 2/M
;
_chemical_formula_sum "Si O2"
_cell_formula_units_Z 30
_cell_length_a 11.743967
_cell_length_b 9.216945
_cell_length_c 30.803532
_cell_angle_alpha 90.000000
_cell_angle_beta 150.472256
_cell_angle_gamma 90.000000
_cell_volume 1643.284070
_symmetry_space_group_name_H-M "P 2/M"
_symmetry_group_IT_number 10
_symmetry_cell_setting 'monoclinic'
loop_
_space_group_symop_operation_xyz
x,y,z
-x,y,-z
-x,-y,-z
x,-y,z
loop_
_atom_site_type_symbol
_atom_site_label
_atom_site_fract_x
_atom_site_fract_y
_atom_site_fract_z
Si Si1 0.152020 0.166113 0.772785
Si Si2 0.780488 0.666676 0.766070
Si Si3 0.338206 0.164835 0.357038
Si Si4 0.000000 0.751094 0.500000
Si Si5 0.415301 0.163433 0.696082
Si Si6 0.761407 0.341881 0.506957
Si Si7 0.785181 0.665885 0.291787
Si Si8 0.726897 0.666925 0.101107
O O1 0.255237 0.256965 0.767513
O O2 0.250415 0.229682 0.850075
O O3 0.872264 0.174990 0.678945
O O4 0.233759 0.000000 0.795970
O O5 0.707022 0.500000 0.749024
O O6 0.698074 0.715868 0.691675
O O7 0.652769 0.767794 0.757922
O O8 0.057152 0.687287 0.860181
O O9 0.582193 0.212808 0.458480
O O10 0.358762 0.000000 0.345635
O O11 0.206681 0.841184 0.591471
O O12 0.121391 0.659682 0.502095
O O13 0.363479 0.254129 0.721517
O O14 0.467372 0.000000 0.727260
O O15 0.642956 0.500000 0.472011
O O16 0.948674 0.323541 0.606657
O O17 0.701599 0.500000 0.260436
O O18 0.713805 0.500000 0.112600
O O19 0.500000 0.714235 0.000000
#
# Coordination Sequence:
#
# PCOD8060844 Si02
#       8
#     4   4   4   2   4   4   4   4
#     4  10  21  37  55  78 108 140 174 216 267 322
#     4  10  19  32  53  80 110 140 175 220 268 317
#     4  10  20  32  49  73 103 138 178 223 271 316
#     4  10  20  30  48  72 104 142 186 230 268 310
#     4  11  21  33  51  76 108 144 184 226 270 315
#     4  10  20  32  48  70 100 138 185 231 269 310
#     4  10  22  37  52  73 102 143 188 224 263 314
#     4   9  19  37  62  89 112 137 170 212 266 326
#
# _framework density 18.256125000000001
#
# number of rings (size 3 to 8) (size 9 to 14) (size 15 to 20)
#    0.000    2.000    1.333    2.400    0.000    6.667 
#    0.000    2.667    0.000    0.800    0.000    5.600 
#    0.000    0.000    0.000    0.000    0.000    0.000 
#
# Total GULP energy -371883.469586 kJ/mol
# GULP energy per Si atom -12396.115653 kJ/mol
# Density = 1.821457 g / cm^3
# Si number density = 18.256125 Si / 1000 Ang^3
#
#
#
# Elastic Constant Matrix: (Units=GPa)
#
#
# Indices 1 2 3 4 5 6 
#
# 1 92.2014 58.2827 42.0062 0.0000 -3.0683 0.0000
# 2 58.2827 140.3880 47.4493 0.0000 0.5066 0.0000
# 3 42.0062 47.4493 69.9450 0.0000 5.8491 0.0000
# 4 0.0000 0.0000 0.0000 16.8397 0.0000 -1.0144
# 5 -3.0683 0.5066 5.8491 0.0000 20.6688 0.0000
# 6 0.0000 0.0000 0.0000 -1.0144 0.0000 30.9233
#
#
#
# Elastic Compliance Matrix: (Units=1/GPa)
#
#
# Indices 1 2 3 4 5 6 
#
# 1 0.017484 -0.004656 -0.007751 0.000000 0.004903 0.000000
# 2 -0.004656 0.010533 -0.004373 0.000000 0.000288 0.000000
# 3 -0.007751 -0.004373 0.022540 0.000000 -0.007422 0.000000
# 4 0.000000 0.000000 0.000000 0.059501 0.000000 0.001952
# 5 0.004903 0.000288 -0.007422 0.000000 0.051203 0.000000
# 6 0.000000 0.000000 0.000000 0.001952 0.000000 0.032402
#
#
# Mechanical properties :
#
#
# Convention : Reuss Voigt Hill
#
# Bulk Modulus (GPa) = 58.84186 66.44566 62.64376
# Shear Modulus (GPa) = 21.46936 24.00610 22.73773
#
# Velocity S-wave (km/s) = 3.43302 3.63017 3.53297
# Velocity P-wave (km/s) = 6.92932 7.35162 7.14359
#
# Compressibility (1/GPa) = 0.01699470
#
# Stress axis : x y z
#
# Youngs Moduli (GPa) = 57.19570 94.93718 44.36652
#
# Poissons Ratio (x) = 0.44206 0.34390
# Poissons Ratio (y) = 0.26632 0.19403
# Poissons Ratio (z) = 0.44335 0.41519
#
# Static dielectric constant tensor:
#      x y z
#    x 3.331620 0.000000 0.192740 
#    y 0.000000 3.449740 0.000000 
#    z 0.192740 0.000000 3.154060 
# 
# 
# High freq. dielectric constant tensor:
#      x y z
#    x 1.701750 0.000000 0.009570 
#    y 0.000000 1.721900 0.000000 
#    z 0.009570 0.000000 1.671740 
# 
# From -- ./inp_files/94895.got.cif
#   From: 2010.06.25/outbox.cif.g09.slc.cpg/sg10_48_cif.got.tgz:94895.got - 2010.06.27 22:07:45.
