data_PCOD8060461
_publ_section_title
;
Structure prediction by ZEFSAII (Michael W. Deem and Ramdas Pophale) SiO2 
 PCOD8060461
Probable space group: P 2/M
;
_chemical_formula_sum "Si O2"
_cell_formula_units_Z 32
_cell_length_a 25.190334
_cell_length_b 9.321878
_cell_length_c 21.118447
_cell_angle_alpha 90.000000
_cell_angle_beta 158.765539
_cell_angle_gamma 90.000000
_cell_volume 1796.098244
_symmetry_space_group_name_H-M "P 2/M"
_symmetry_group_IT_number 10
_symmetry_cell_setting 'monoclinic'
loop_
_space_group_symop_operation_xyz
x,y,z
-x,y,-z
-x,-y,-z
x,-y,z
loop_
_atom_site_type_symbol
_atom_site_label
_atom_site_fract_x
_atom_site_fract_y
_atom_site_fract_z
Si Si1 0.363553 0.167604 0.536260
Si Si2 0.852244 0.329266 0.368235
Si Si3 0.588526 0.335160 0.993280
Si Si4 0.604455 0.338601 0.869286
Si Si5 0.797148 0.664485 0.966460
Si Si6 0.551977 0.167479 0.625969
Si Si7 0.870677 0.670183 0.654943
Si Si8 0.739364 0.329767 0.376101
O O1 0.479246 0.223494 0.716315
O O2 0.422691 0.202832 0.531818
O O3 0.213608 0.253034 0.381106
O O4 0.337647 0.000000 0.517617
O O5 0.853204 0.500000 0.361630
O O6 0.841353 0.284149 0.430019
O O7 0.000000 0.266133 0.500000
O O8 0.707431 0.264134 0.172610
O O9 0.571231 0.500000 0.993624
O O10 0.656721 0.317698 0.999085
O O11 0.425595 0.265466 0.816071
O O12 0.539536 0.500000 0.787812
O O13 0.742457 0.313572 0.977453
O O14 0.785470 0.500000 0.932365
O O15 0.702026 0.754403 0.811153
O O16 0.962679 0.719320 0.150477
O O17 0.500000 0.223730 0.500000
O O18 0.587851 0.000000 0.664497
O O19 0.852803 0.500000 0.640580
O O20 0.811696 0.727664 0.521474
O O21 0.728442 0.500000 0.368753
#
# Coordination Sequence:
#
# PCOD8060461 Si02
#       8
#     4   4   4   4   4   4   4   4
#     4  10  19  32  52  77 100 125 163 204 241 289
#     4   9  17  24  34  59  94 125 160 208 251 293
#     4   9  15  24  40  60  88 126 162 196 247 300
#     4   9  16  29  48  71  97 129 164 202 248 297
#     4   9  19  31  49  76 105 132 165 202 242 293
#     4   9  19  37  58  77 100 131 165 200 242 292
#     4  10  19  32  49  73 105 137 165 202 251 296
#     4   9  16  26  40  59  90 131 165 196 244 299
#
# _framework density 17.816398
#
# number of rings (size 3 to 8) (size 9 to 14) (size 15 to 20)
#    0.000    2.750    1.250    0.750    1.750    2.750 
#    0.000    0.625    0.000    3.750    0.000    1.750 
#    0.000    1.000    0.000    0.000    0.000    0.000 
#
# Total GULP energy -396673.704768 kJ/mol
# GULP energy per Si atom -12396.053274 kJ/mol
# Density = 1.777585 g / cm^3
# Si number density = 17.816398 Si / 1000 Ang^3
#
#
#
# Elastic Constant Matrix: (Units=GPa)
#
#
# Indices 1 2 3 4 5 6 
#
# 1 110.8470 32.6220 77.2891 0.0000 4.9988 0.0000
# 2 32.6220 31.1086 33.7141 0.0000 4.5770 0.0000
# 3 77.2891 33.7141 134.9170 0.0000 11.7192 0.0000
# 4 0.0000 0.0000 0.0000 6.9979 0.0000 4.3999
# 5 4.9988 4.5770 11.7192 0.0000 32.7547 0.0000
# 6 0.0000 0.0000 0.0000 4.3999 0.0000 17.1064
#
#
#
# Elastic Compliance Matrix: (Units=1/GPa)
#
#
# Indices 1 2 3 4 5 6 
#
# 1 0.017084 -0.010128 -0.007382 0.000000 0.001449 0.000000
# 2 -0.010128 0.050256 -0.006482 0.000000 -0.003158 0.000000
# 3 -0.007382 -0.006482 0.013504 0.000000 -0.002799 0.000000
# 4 0.000000 0.000000 0.000000 0.170468 0.000000 -0.043845
# 5 0.001449 -0.003158 -0.002799 0.000000 0.031752 0.000000
# 6 0.000000 0.000000 0.000000 -0.043845 0.000000 0.069735
#
#
# Mechanical properties :
#
#
# Convention : Reuss Voigt Hill
#
# Bulk Modulus (GPa) = 30.43253 62.68032 46.55643
# Shear Modulus (GPa) = 12.14377 20.25496 16.19937
#
# Velocity S-wave (km/s) = 2.61359 3.37541 3.01863
# Velocity P-wave (km/s) = 5.12114 7.10273 6.19173
#
# Compressibility (1/GPa) = 0.03285957
#
# Stress axis : x y z
#
# Youngs Moduli (GPa) = 58.53543 19.89820 74.05481
#
# Poissons Ratio (x) = 0.20153 0.54664
# Poissons Ratio (y) = 0.59286 0.48002
# Poissons Ratio (z) = 0.43208 0.12898
#
# Static dielectric constant tensor:
#      x y z
#    x 3.476120 0.000000 0.086560 
#    y 0.000000 2.873750 0.000000 
#    z 0.086560 0.000000 3.337040 
# 
# 
# High freq. dielectric constant tensor:
#      x y z
#    x 1.698970 0.000000 0.006570 
#    y 0.000000 1.635830 0.000000 
#    z 0.006570 0.000000 1.683550 
# 
# From -- ./inp_files/87008.got.cif
#   From: 2010.06.25/outbox.cif.g09.slc.cpg/sg10_44_cif.got.tgz:87008.got - 2010.06.27 22:07:45.
