data_PCOD8060534
_publ_section_title
;
Structure prediction by ZEFSAII (Michael W. Deem and Ramdas Pophale) SiO2 
 PCOD8060534
Probable space group: P 2/M
;
_chemical_formula_sum "Si O2"
_cell_formula_units_Z 32
_cell_length_a 19.748371
_cell_length_b 9.600860
_cell_length_c 10.264852
_cell_angle_alpha 90.000000
_cell_angle_beta 81.916812
_cell_angle_gamma 90.000000
_cell_volume 1926.893875
_symmetry_space_group_name_H-M "P 2/M"
_symmetry_group_IT_number 10
_symmetry_cell_setting 'monoclinic'
loop_
_space_group_symop_operation_xyz
x,y,z
-x,y,-z
-x,-y,-z
x,-y,z
loop_
_atom_site_type_symbol
_atom_site_label
_atom_site_fract_x
_atom_site_fract_y
_atom_site_fract_z
Si Si1 0.339084 0.339221 0.761938
Si Si2 0.820562 0.334451 0.908797
Si Si3 0.185004 0.334257 0.800464
Si Si4 0.461253 0.838087 0.641887
Si Si5 0.666645 0.660559 0.933315
Si Si6 0.451949 0.837566 0.132033
Si Si7 0.920862 0.334293 0.380654
Si Si8 0.925898 0.334245 0.670034
O O1 0.350240 0.500000 0.722062
O O2 0.262476 0.290138 0.745383
O O3 0.391079 0.247305 0.664608
O O4 0.351964 0.314973 0.911118
O O5 0.825667 0.500000 0.910091
O O6 0.744408 0.291472 0.885359
O O7 0.874947 0.269983 0.792074
O O8 0.835879 0.277312 0.050416
O O9 0.180730 0.500000 0.804027
O O10 0.133734 0.270347 0.706358
O O11 0.500000 0.799416 0.500000
O O12 0.510569 0.794399 0.746006
O O13 0.441914 0.000000 0.655050
O O14 0.656125 0.500000 0.897863
O O15 0.618595 0.753390 0.855363
O O16 0.433935 0.000000 0.132060
O O17 0.500000 0.793153 0.000000
O O18 0.917834 0.500000 0.377279
O O19 0.903586 0.282636 0.531851
O O20 0.996929 0.283904 0.320144
O O21 0.922800 0.500000 0.674817
#
# Coordination Sequence:
#
# PCOD8060534 Si02
#       8
#     4   4   4   4   4   4   4   4
#     4   9  17  30  47  66  91 119 146 181 222 264
#     4   8  14  24  36  53  80 110 139 172 211 252
#     4   8  14  24  37  54  78 109 141 172 209 252
#     4  10  21  36  50  65  89 117 144 182 228 264
#     4   9  17  29  46  68  92 117 145 182 225 262
#     4  10  19  32  51  70  85 111 151 185 215 262
#     4   8  13  21  33  50  75 109 144 173 206 248
#     4   8  13  21  33  50  76 109 141 174 209 247
#
# _framework density 16.607036999999998
#
# number of rings (size 3 to 8) (size 9 to 14) (size 15 to 20)
#    0.000    3.250    1.250    2.250    0.000    1.500 
#    2.250    2.500    0.000    0.000    0.000    0.000 
#    0.000    1.000    0.000    8.250    0.000   10.000 
#
# Total GULP energy -396651.481544 kJ/mol
# GULP energy per Si atom -12395.358798 kJ/mol
# Density = 1.656924 g / cm^3
# Si number density = 16.607037 Si / 1000 Ang^3
#
#
#
# Elastic Constant Matrix: (Units=GPa)
#
#
# Indices 1 2 3 4 5 6 
#
# 1 148.2055 35.7154 95.5554 0.0000 1.6022 0.0000
# 2 35.7154 22.7955 27.0732 0.0000 -2.1144 0.0000
# 3 95.5554 27.0732 127.7796 0.0000 -1.8677 0.0000
# 4 0.0000 0.0000 0.0000 8.7860 0.0000 0.8968
# 5 1.6022 -2.1144 -1.8677 0.0000 29.9755 0.0000
# 6 0.0000 0.0000 0.0000 0.8968 0.0000 0.6797
#
#
#
# Elastic Compliance Matrix: (Units=1/GPa)
#
#
# Indices 1 2 3 4 5 6 
#
# 1 0.016123 -0.014869 -0.008943 0.000000 -0.002468 0.000000
# 2 -0.014869 0.072673 -0.004195 0.000000 0.005659 0.000000
# 3 -0.008943 -0.004195 0.015419 0.000000 0.001143 0.000000
# 4 0.000000 0.000000 0.000000 0.131533 0.000000 -0.173556
# 5 -0.002468 0.005659 0.001143 0.000000 0.033963 0.000000
# 6 0.000000 0.000000 0.000000 -0.173556 0.000000 1.700295
#
#
# Mechanical properties :
#
#
# Convention : Reuss Voigt Hill
#
# Bulk Modulus (GPa) = 20.74681 68.38542 44.56612
# Shear Modulus (GPa) = 2.44847 17.25069 9.84958
#
# Velocity S-wave (km/s) = 1.21555 3.22647 2.43800
# Velocity P-wave (km/s) = 3.80657 7.42618 5.90077
#
# Compressibility (1/GPa) = 0.04820018
#
# Stress axis : x y z
#
# Youngs Moduli (GPa) = 62.02221 13.76032 64.85463
#
# Poissons Ratio (x) = 0.20461 0.57998
# Poissons Ratio (y) = 0.92223 0.27208
# Poissons Ratio (z) = 0.55465 0.05773
#
# Static dielectric constant tensor:
#      x y z
#    x 3.287660 0.000000 0.024250 
#    y 0.000000 2.576710 0.000000 
#    z 0.024250 0.000000 3.329490 
# 
# 
# High freq. dielectric constant tensor:
#      x y z
#    x 1.647510 0.000000 0.001510 
#    y 0.000000 1.578900 0.000000 
#    z 0.001510 0.000000 1.637330 
# 
# From -- ./inp_files/32193.got.cif
#   From: 2010.06.25/outbox.cif.g09.slc.cpg/sg10_17_cif.got.tgz:32193.got - 2010.06.27 22:07:45.
