data_PCOD8060604
_publ_section_title
;
Structure prediction by ZEFSAII (Michael W. Deem and Ramdas Pophale) SiO2 
 PCOD8060604
Probable space group: P 2/M
;
_chemical_formula_sum "Si O2"
_cell_formula_units_Z 28
_cell_length_a 19.327615
_cell_length_b 8.663730
_cell_length_c 12.730540
_cell_angle_alpha 90.000000
_cell_angle_beta 48.166295
_cell_angle_gamma 90.000000
_cell_volume 1588.309403
_symmetry_space_group_name_H-M "P 2/M"
_symmetry_group_IT_number 10
_symmetry_cell_setting 'monoclinic'
loop_
_space_group_symop_operation_xyz
x,y,z
-x,y,-z
-x,-y,-z
x,-y,z
loop_
_atom_site_type_symbol
_atom_site_label
_atom_site_fract_x
_atom_site_fract_y
_atom_site_fract_z
Si Si1 0.782183 0.318474 0.920296
Si Si2 0.600903 0.818975 0.790119
Si Si3 0.896530 0.819748 0.228708
Si Si4 0.221077 0.680936 0.472574
Si Si5 0.107470 0.820743 0.007991
Si Si6 0.589883 0.681908 0.027714
Si Si7 0.104179 0.683822 0.391510
O O1 0.787956 0.500000 0.904462
O O2 0.818693 0.268801 0.996429
O O3 0.845091 0.247508 0.762963
O O4 0.675310 0.265880 0.015164
O O5 0.681373 0.771383 0.627749
O O6 0.501489 0.772617 0.841000
O O7 0.602750 0.000000 0.811587
O O8 0.615986 0.724945 0.882106
O O9 0.829850 0.717444 0.367339
O O10 0.002779 0.768858 0.141980
O O11 0.883328 0.000000 0.267071
O O12 0.869996 0.783459 0.135538
O O13 0.240669 0.500000 0.444593
O O14 0.158017 0.741300 0.440328
O O15 0.118635 0.000000 0.019548
O O16 0.571375 0.500000 0.052493
O O17 0.101996 0.500000 0.391240
O O18 0.000000 0.751224 0.500000
#
# Coordination Sequence:
#
# PCOD8060604 Si02
#       7
#     4   4   4   4   4   4   4
#     4  10  19  32  51  76 105 136 171 214 257 304
#     4  11  21  33  51  76 105 136 173 214 255 311
#     4   9  19  36  53  74 104 140 178 216 257 301
#     4  11  20  33  53  76 104 138 173 213 262 307
#     4   9  19  35  54  74 104 141 176 215 258 305
#     4  10  19  34  53  74 104 138 173 214 259 307
#     4   9  17  29  45  70 104 136 164 201 252 303
#
# _framework density 17.628806999999998
#
# number of rings (size 3 to 8) (size 9 to 14) (size 15 to 20)
#    0.000    2.143    1.429    4.714    0.000    3.429 
#    0.000    1.429    0.000    3.857    0.000    6.000 
#    0.000    0.000    0.000    0.000    0.000    0.000 
#
# Total GULP energy -347231.274888 kJ/mol
# GULP energy per Si atom -12401.116960 kJ/mol
# Density = 1.758868 g / cm^3
# Si number density = 17.628807 Si / 1000 Ang^3
#
#
#
# Elastic Constant Matrix: (Units=GPa)
#
#
# Indices 1 2 3 4 5 6 
#
# 1 133.2129 24.5767 54.8443 0.0000 -12.4046 0.0000
# 2 24.5767 33.7830 18.3823 0.0000 -8.9745 0.0000
# 3 54.8443 18.3823 90.8517 0.0000 -12.7600 0.0000
# 4 0.0000 0.0000 0.0000 27.9026 0.0000 -0.7813
# 5 -12.4046 -8.9745 -12.7600 0.0000 25.8139 0.0000
# 6 0.0000 0.0000 0.0000 -0.7813 0.0000 22.7659
#
#
#
# Elastic Compliance Matrix: (Units=1/GPa)
#
#
# Indices 1 2 3 4 5 6 
#
# 1 0.010648 -0.004591 -0.005378 0.000000 0.000862 0.000000
# 2 -0.004591 0.037237 -0.003497 0.000000 0.009011 0.000000
# 3 -0.005378 -0.003497 0.015504 0.000000 0.003863 0.000000
# 4 0.000000 0.000000 0.000000 0.035873 0.000000 0.001231
# 5 0.000862 0.009011 0.003863 0.000000 0.044196 0.000000
# 6 0.000000 0.000000 0.000000 0.001231 0.000000 0.043968
#
#
# Mechanical properties :
#
#
# Convention : Reuss Voigt Hill
#
# Bulk Modulus (GPa) = 27.42975 50.38378 38.90677
# Shear Modulus (GPa) = 22.07400 25.96612 24.02006
#
# Velocity S-wave (km/s) = 3.54242 3.84205 3.69527
# Velocity P-wave (km/s) = 5.68551 6.95156 6.35017
#
# Compressibility (1/GPa) = 0.03645677
#
# Stress axis : x y z
#
# Youngs Moduli (GPa) = 93.91242 26.85470 64.50080
#
# Poissons Ratio (x) = 0.12329 0.34688
# Poissons Ratio (y) = 0.43116 0.22558
# Poissons Ratio (z) = 0.50506 0.09392
#
# Static dielectric constant tensor:
#      x y z
#    x 3.457360 0.000000 -0.153350 
#    y 0.000000 3.049360 0.000000 
#    z -0.153350 0.000000 3.212000 
# 
# 
# High freq. dielectric constant tensor:
#      x y z
#    x 1.679070 0.000000 -0.014200 
#    y 0.000000 1.671040 0.000000 
#    z -0.014200 0.000000 1.669740 
# 
# From -- ./inp_files/54671.got.cif
#   From: 2010.06.25/outbox.cif.g09.slc.cpg/sg10_28_cif.got.tgz:54671.got - 2010.06.27 22:07:45.
