data_PCOD8060609
_publ_section_title
;
Structure prediction by ZEFSAII (Michael W. Deem and Ramdas Pophale) SiO2 
 PCOD8060609
Probable space group: P 2/M
;
_chemical_formula_sum "Si O2"
_cell_formula_units_Z 32
_cell_length_a 25.682506
_cell_length_b 9.201618
_cell_length_c 14.967034
_cell_angle_alpha 90.000000
_cell_angle_beta 28.797880
_cell_angle_gamma 90.000000
_cell_volume 1703.857018
_symmetry_space_group_name_H-M "P 2/M"
_symmetry_group_IT_number 10
_symmetry_cell_setting 'monoclinic'
loop_
_space_group_symop_operation_xyz
x,y,z
-x,y,-z
-x,-y,-z
x,-y,z
loop_
_atom_site_type_symbol
_atom_site_label
_atom_site_fract_x
_atom_site_fract_y
_atom_site_fract_z
Si Si1 0.838583 0.167880 0.361080
Si Si2 0.769306 0.832682 0.279288
Si Si3 0.476013 0.832762 0.301950
Si Si4 0.987091 0.834973 0.289882
Si Si5 0.248789 0.168403 0.328148
Si Si6 0.810462 0.669787 0.038311
Si Si7 0.582322 0.329891 0.298550
Si Si8 0.452763 0.329424 0.974272
O O1 0.823255 0.241376 0.287279
O O2 0.746789 0.212216 0.572474
O O3 0.955959 0.192714 0.230989
O O4 0.819054 0.000000 0.369939
O O5 0.641066 0.816838 0.478924
O O6 0.811139 0.741733 0.133798
O O7 0.803206 0.000000 0.213514
O O8 0.561241 0.759365 0.240587
O O9 0.476683 0.750903 0.206336
O O10 0.508418 0.000000 0.238683
O O11 0.877167 0.808184 0.513490
O O12 0.026582 0.000000 0.243441
O O13 0.084083 0.728942 0.173318
O O14 0.281681 0.000000 0.264714
O O15 0.329252 0.271780 0.152968
O O16 0.821174 0.500000 0.035224
O O17 0.703462 0.710755 0.145036
O O18 0.500000 0.281201 0.500000
O O19 0.568426 0.500000 0.298878
O O20 0.453795 0.500000 0.953974
O O21 0.500000 0.289574 0.000000
#
# Coordination Sequence:
#
# PCOD8060609 Si02
#       8
#     4   4   4   4   4   4   4   4
#     4   7  14  30  51  73 102 141 179 218 272 323
#     4  10  19  32  51  76 107 142 185 231 272 325
#     4  11  23  36  58  87 112 145 191 240 280 325
#     4   8  17  34  55  77 104 144 186 231 279 326
#     4   8  16  34  56  76 104 142 184 227 272 320
#     4  11  22  34  53  78 106 146 186 226 282 338
#     4  10  21  40  59  76 111 154 186 230 290 343
#     4  11  23  36  55  85 120 155 185 221 279 343
#
# _framework density 18.780918
#
# number of rings (size 3 to 8) (size 9 to 14) (size 15 to 20)
#    0.750    1.750    1.250    1.875    0.000    4.750 
#    0.000    3.750    0.000    0.750    0.000    5.250 
#    0.000    0.000    0.000    0.000    0.000    0.000 
#
# Total GULP energy -396501.292697 kJ/mol
# GULP energy per Si atom -12390.665397 kJ/mol
# Density = 1.873817 g / cm^3
# Si number density = 18.780918 Si / 1000 Ang^3
#
#
#
# Elastic Constant Matrix: (Units=GPa)
#
#
# Indices 1 2 3 4 5 6 
#
# 1 45.0853 22.4089 7.8644 0.0000 -4.3389 0.0000
# 2 22.4089 63.9527 25.7786 0.0000 -4.9973 0.0000
# 3 7.8644 25.7786 60.0723 0.0000 -11.5571 0.0000
# 4 0.0000 0.0000 0.0000 30.8170 0.0000 -1.0966
# 5 -4.3389 -4.9973 -11.5571 0.0000 25.9053 0.0000
# 6 0.0000 0.0000 0.0000 -1.0966 0.0000 26.5656
#
#
#
# Elastic Compliance Matrix: (Units=1/GPa)
#
#
# Indices 1 2 3 4 5 6 
#
# 1 0.027121 -0.009758 0.001256 0.000000 0.003221 0.000000
# 2 -0.009758 0.022418 -0.008560 0.000000 -0.001128 0.000000
# 3 0.001256 -0.008560 0.021744 0.000000 0.008260 0.000000
# 4 0.000000 0.000000 0.000000 0.032497 0.000000 0.001341
# 5 0.003221 -0.001128 0.008260 0.000000 0.042609 0.000000
# 6 0.000000 0.000000 0.000000 0.001341 0.000000 0.037698
#
#
# Mechanical properties :
#
#
# Convention : Reuss Voigt Hill
#
# Bulk Modulus (GPa) = 26.91009 31.24601 29.07805
# Shear Modulus (GPa) = 21.68286 24.19482 22.93884
#
# Velocity S-wave (km/s) = 3.40150 3.59314 3.49863
# Velocity P-wave (km/s) = 5.45770 5.82129 5.64242
#
# Compressibility (1/GPa) = 0.03716079
#
# Stress axis : x y z
#
# Youngs Moduli (GPa) = 36.87180 44.60726 45.98885
#
# Poissons Ratio (x) = 0.43528 -0.05778
# Poissons Ratio (y) = 0.35979 0.39365
# Poissons Ratio (z) = -0.04633 0.38183
#
# Static dielectric constant tensor:
#      x y z
#    x 3.331690 0.000000 -0.117610 
#    y 0.000000 3.246970 0.000000 
#    z -0.117610 0.000000 3.327640 
# 
# 
# High freq. dielectric constant tensor:
#      x y z
#    x 1.710490 0.000000 -0.012490 
#    y 0.000000 1.713450 0.000000 
#    z -0.012490 0.000000 1.725260 
# 
# From -- ./inp_files/72206.got.cif
#   From: 2010.06.25/outbox.cif.g09.slc.cpg/sg10_37_cif.got.tgz:72206.got - 2010.06.27 22:07:45.
