data_PCOD8060262
_publ_section_title
;
Structure prediction by ZEFSAII (Michael W. Deem and Ramdas Pophale) SiO2 
 PCOD8060262
Probable space group: P 2/M
;
_chemical_formula_sum "Si O2"
_cell_formula_units_Z 28
_cell_length_a 13.308832
_cell_length_b 9.201969
_cell_length_c 13.260245
_cell_angle_alpha 90.000000
_cell_angle_beta 115.727375
_cell_angle_gamma 90.000000
_cell_volume 1462.966051
_symmetry_space_group_name_H-M "P 2/M"
_symmetry_group_IT_number 10
_symmetry_cell_setting 'monoclinic'
loop_
_space_group_symop_operation_xyz
x,y,z
-x,y,-z
-x,-y,-z
x,-y,z
loop_
_atom_site_type_symbol
_atom_site_label
_atom_site_fract_x
_atom_site_fract_y
_atom_site_fract_z
Si Si1 0.116847 0.336291 0.660154
Si Si2 0.319520 0.333207 0.888323
Si Si3 0.112434 0.667818 0.330942
Si Si4 0.563644 0.165844 0.231988
Si Si5 0.900489 0.830028 0.881075
Si Si6 0.316839 0.166478 0.094302
Si Si7 0.763391 0.170210 0.455979
O O1 0.132632 0.500000 0.623801
O O2 0.195942 0.312393 0.790610
O O3 0.145783 0.221689 0.586259
O O4 0.991127 0.310976 0.639328
O O5 0.353157 0.500000 0.914830
O O6 0.410678 0.261814 0.854752
O O7 0.320468 0.261362 0.996789
O O8 0.141262 0.500000 0.325232
O O9 0.081756 0.740358 0.212265
O O10 0.217665 0.746796 0.429935
O O11 0.433925 0.185262 0.205025
O O12 0.639817 0.210802 0.360889
O O13 0.590938 0.000000 0.214104
O O14 0.782777 0.781082 0.877367
O O15 0.901817 0.000000 0.855277
O O16 0.000000 0.789011 0.000000
O O17 0.297076 0.000000 0.053352
O O18 0.777880 0.000000 0.481508
#
# Coordination Sequence:
#
# PCOD8060262 Si02
#       7
#     4   4   4   4   4   4   4
#     4   9  19  34  51  76 110 142 170 205 257 316
#     4  10  19  31  51  80 110 138 170 211 257 306
#     4  11  22  36  55  77 105 141 174 209 259 313
#     4   9  19  35  53  75 105 140 174 209 256 311
#     4  10  22  39  58  80 104 132 172 219 258 298
#     4  10  20  35  54  75 103 139 175 213 259 308
#     4  10  20  34  54  79 105 135 174 217 256 300
#
# _framework density 19.139201
#
# number of rings (size 3 to 8) (size 9 to 14) (size 15 to 20)
#    0.000    2.143    0.000    3.000    0.000    7.143 
#    0.000    0.714    0.000    4.286    0.000    0.000 
#    0.000    0.000    0.000    0.000    0.000    0.000 
#
# Total GULP energy -347261.791775 kJ/mol
# GULP energy per Si atom -12402.206849 kJ/mol
# Density = 1.909564 g / cm^3
# Si number density = 19.139201 Si / 1000 Ang^3
#
#
#
# Elastic Constant Matrix: (Units=GPa)
#
#
# Indices 1 2 3 4 5 6 
#
# 1 73.3673 33.4782 31.5971 0.0000 18.5351 0.0000
# 2 33.4782 91.1745 58.9357 0.0000 3.1857 0.0000
# 3 31.5971 58.9357 117.5428 0.0000 8.8709 0.0000
# 4 0.0000 0.0000 0.0000 12.1012 0.0000 7.0851
# 5 18.5351 3.1857 8.8709 0.0000 17.8437 0.0000
# 6 0.0000 0.0000 0.0000 7.0851 0.0000 16.6100
#
#
#
# Elastic Compliance Matrix: (Units=1/GPa)
#
#
# Indices 1 2 3 4 5 6 
#
# 1 0.022764 -0.006964 -0.000974 0.000000 -0.021919 0.000000
# 2 -0.006964 0.018382 -0.007941 0.000000 0.007899 0.000000
# 3 -0.000974 -0.007941 0.013057 0.000000 -0.004062 0.000000
# 4 0.000000 0.000000 0.000000 0.110145 0.000000 -0.046983
# 5 -0.021919 0.007899 -0.004062 0.000000 0.079420 0.000000
# 6 0.000000 0.000000 0.000000 -0.046983 0.000000 0.080246
#
#
# Mechanical properties :
#
#
# Convention : Reuss Voigt Hill
#
# Bulk Modulus (GPa) = 44.54832 58.90073 51.72453
# Shear Modulus (GPa) = 13.76448 19.84921 16.80685
#
# Velocity S-wave (km/s) = 2.68466 3.22389 2.96655
# Velocity P-wave (km/s) = 5.73902 6.68578 6.23041
#
# Compressibility (1/GPa) = 0.02244754
#
# Stress axis : x y z
#
# Youngs Moduli (GPa) = 43.92808 54.40109 76.58482
#
# Poissons Ratio (x) = 0.37883 0.07457
# Poissons Ratio (y) = 0.30590 0.60816
# Poissons Ratio (z) = 0.04277 0.43200
#
# Static dielectric constant tensor:
#      x y z
#    x 3.503790 0.000000 0.306500 
#    y 0.000000 3.549830 0.000000 
#    z 0.306500 0.000000 3.548940 
# 
# 
# High freq. dielectric constant tensor:
#      x y z
#    x 1.728680 0.000000 0.021800 
#    y 0.000000 1.747670 0.000000 
#    z 0.021800 0.000000 1.750410 
# 
# From -- ./inp_files/49308.got.cif
#   From: 2010.06.25/outbox.cif.g09.slc.cpg/sg10_25_cif.got.tgz:49308.got - 2010.06.27 22:07:45.
