data_PCOD8060383
_publ_section_title
;
Structure prediction by ZEFSAII (Michael W. Deem and Ramdas Pophale) SiO2 
 PCOD8060383
Probable space group: P 2/M
;
_chemical_formula_sum "Si O2"
_cell_formula_units_Z 32
_cell_length_a 20.595567
_cell_length_b 9.130347
_cell_length_c 14.064168
_cell_angle_alpha 90.000000
_cell_angle_beta 133.408937
_cell_angle_gamma 90.000000
_cell_volume 1921.282671
_symmetry_space_group_name_H-M "P 2/M"
_symmetry_group_IT_number 10
_symmetry_cell_setting 'monoclinic'
loop_
_space_group_symop_operation_xyz
x,y,z
-x,y,-z
-x,-y,-z
x,-y,z
loop_
_atom_site_type_symbol
_atom_site_label
_atom_site_fract_x
_atom_site_fract_y
_atom_site_fract_z
Si Si1 0.671981 0.172549 0.492644
Si Si2 0.638770 0.829354 0.864263
Si Si3 0.241926 0.830877 0.851693
Si Si4 0.626568 0.838678 0.171404
Si Si5 0.102165 0.671489 0.587549
Si Si6 0.197979 0.161021 0.526319
Si Si7 0.472912 0.673422 0.780793
Si Si8 0.400567 0.827729 0.383668
O O1 0.771574 0.209694 0.550342
O O2 0.595958 0.265826 0.365440
O O3 0.666882 0.216118 0.598959
O O4 0.651049 0.000000 0.457092
O O5 0.569926 0.729806 0.851564
O O6 0.643128 0.773673 0.759570
O O7 0.609891 0.000000 0.841558
O O8 0.735664 0.807948 0.013734
O O9 0.332325 0.782194 0.886740
O O10 0.157480 0.738201 0.731345
O O11 0.220354 0.000000 0.805757
O O12 0.708272 0.845353 0.326376
O O13 0.550969 0.730775 0.136771
O O14 0.583887 0.000000 0.117156
O O15 0.117979 0.500000 0.604530
O O16 0.131507 0.728714 0.512808
O O17 0.000000 0.715276 0.500000
O O18 0.152571 0.000000 0.479081
O O19 0.469945 0.500000 0.778141
O O20 0.500000 0.759309 0.500000
O O21 0.411687 0.000000 0.389915
#
# Coordination Sequence:
#
# PCOD8060383 Si02
#       8
#     4   4   4   4   4   4   4   4
#     4   9  16  29  46  65  90 121 158 195 231 268
#     4  10  19  32  47  63  87 120 159 194 229 271
#     4   9  19  33  49  68  89 117 151 189 226 267
#     4   8  15  29  44  59  84 118 154 187 224 266
#     4  10  20  33  51  74  98 121 143 174 222 281
#     4   8  15  27  46  70  94 119 149 187 225 266
#     4  11  20  27  39  62  88 120 159 196 232 262
#     4   9  15  26  48  69  85 118 162 199 233 266
#
# _framework density 16.655540999999999
#
# number of rings (size 3 to 8) (size 9 to 14) (size 15 to 20)
#    0.000    2.750    1.250    3.000    0.000    6.500 
#    0.000    3.750    0.000    0.000    0.000    0.875 
#    0.000    7.000    0.000    0.000    0.000    0.000 
#
# Total GULP energy -396486.596689 kJ/mol
# GULP energy per Si atom -12390.206147 kJ/mol
# Density = 1.661763 g / cm^3
# Si number density = 16.655541 Si / 1000 Ang^3
#
#
#
# Elastic Constant Matrix: (Units=GPa)
#
#
# Indices 1 2 3 4 5 6 
#
# 1 113.8197 39.0125 63.6320 0.0000 -8.8018 0.0000
# 2 39.0125 67.7912 36.8679 0.0000 2.8152 0.0000
# 3 63.6320 36.8679 79.3517 0.0000 -12.8138 0.0000
# 4 0.0000 0.0000 0.0000 9.9810 0.0000 8.4868
# 5 -8.8018 2.8152 -12.8138 0.0000 23.2656 0.0000
# 6 0.0000 0.0000 0.0000 8.4868 0.0000 8.8565
#
#
#
# Elastic Compliance Matrix: (Units=1/GPa)
#
#
# Indices 1 2 3 4 5 6 
#
# 1 0.016385 -0.003079 -0.011687 0.000000 0.000135 0.000000
# 2 -0.003079 0.021840 -0.009102 0.000000 -0.008821 0.000000
# 3 -0.011687 -0.009102 0.028172 0.000000 0.012196 0.000000
# 4 0.000000 0.000000 0.000000 0.540992 0.000000 -0.518410
# 5 0.000135 -0.008821 0.012196 0.000000 0.050817 0.000000
# 6 0.000000 0.000000 0.000000 -0.518410 0.000000 0.609682
#
#
# Mechanical properties :
#
#
# Convention : Reuss Voigt Hill
#
# Bulk Modulus (GPa) = 53.58872 59.99861 56.79367
# Shear Modulus (GPa) = 3.78259 16.51730 10.14995
#
# Velocity S-wave (km/s) = 1.50864 3.15254 2.47129
# Velocity P-wave (km/s) = 5.93963 7.02515 6.50508
#
# Compressibility (1/GPa) = 0.01866064
#
# Stress axis : x y z
#
# Youngs Moduli (GPa) = 61.02996 45.78826 35.49566
#
# Poissons Ratio (x) = 0.14099 0.41484
# Poissons Ratio (y) = 0.18792 0.32309
# Poissons Ratio (z) = 0.71326 0.41678
#
# Static dielectric constant tensor:
#      x y z
#    x 3.589340 0.000000 -0.444470 
#    y 0.000000 2.941940 0.000000 
#    z -0.444470 0.000000 3.031780 
# 
# 
# High freq. dielectric constant tensor:
#      x y z
#    x 1.635580 0.000000 -0.021500 
#    y 0.000000 1.621950 0.000000 
#    z -0.021500 0.000000 1.607680 
# 
# From -- ./inp_files/66203.got.cif
#   From: 2010.06.25/outbox.cif.g09.slc.cpg/sg10_34_cif.got.tgz:66203.got - 2010.06.27 22:07:45.
