data_PCOD8060693
_publ_section_title
;
Structure prediction by ZEFSAII (Michael W. Deem and Ramdas Pophale) SiO2 
 PCOD8060693
Probable space group: P 2/M
;
_chemical_formula_sum "Si O2"
_cell_formula_units_Z 32
_cell_length_a 11.014866
_cell_length_b 9.368428
_cell_length_c 24.123807
_cell_angle_alpha 90.000000
_cell_angle_beta 46.701904
_cell_angle_gamma 90.000000
_cell_volume 1811.762145
_symmetry_space_group_name_H-M "P 2/M"
_symmetry_group_IT_number 10
_symmetry_cell_setting 'monoclinic'
loop_
_space_group_symop_operation_xyz
x,y,z
-x,y,-z
-x,-y,-z
x,-y,z
loop_
_atom_site_type_symbol
_atom_site_label
_atom_site_fract_x
_atom_site_fract_y
_atom_site_fract_z
Si Si1 0.002930 0.752458 0.830310
Si Si2 0.294192 0.170013 0.223477
Si Si3 0.358666 0.161825 0.082171
Si Si4 0.898246 0.663042 0.082137
Si Si5 0.366372 0.839571 0.700161
Si Si6 0.539372 0.671287 0.225392
Si Si7 0.992936 0.654926 0.291609
Si Si8 0.383078 0.663015 0.587244
O O1 0.010883 0.672703 0.886834
O O2 0.166367 0.851725 0.773075
O O3 0.826791 0.835109 0.885716
O O4 0.006756 0.648884 0.775942
O O5 0.365589 0.225621 0.142007
O O6 0.386973 0.255396 0.242060
O O7 0.100769 0.217361 0.284217
O O8 0.306091 0.000000 0.228402
O O9 0.414617 0.000000 0.070975
O O10 0.500000 0.240536 0.000000
O O11 0.880473 0.500000 0.071264
O O12 0.710698 0.724605 0.142659
O O13 0.000000 0.740772 0.000000
O O14 0.457885 0.733199 0.713735
O O15 0.415261 0.775581 0.625673
O O16 0.437983 0.000000 0.682680
O O17 0.521046 0.500000 0.232964
O O18 0.061912 0.500000 0.289148
O O19 0.807689 0.677093 0.372848
O O20 0.500000 0.707550 0.500000
O O21 0.419372 0.500000 0.595462
#
# Coordination Sequence:
#
# PCOD8060693 Si02
#       8
#     4   4   4   4   4   4   4   4
#     4   9  17  29  48  66  95 129 166 208 251 298
#     4  10  20  33  50  71  98 131 172 216 254 300
#     4   9  18  30  44  63  90 126 164 207 256 301
#     4   9  18  30  45  66  92 124 163 213 264 305
#     4  10  19  32  52  77 104 134 170 207 250 300
#     4  10  20  34  52  71  97 133 174 214 256 307
#     4   9  17  31  52  75 100 133 168 201 244 299
#     4   9  18  33  55  84 113 137 164 200 244 296
#
# _framework density 17.662362000000002
#
# number of rings (size 3 to 8) (size 9 to 14) (size 15 to 20)
#    0.000    2.625    0.000    1.875    1.750    6.250 
#    0.000    0.000    0.000    5.250    0.000    5.250 
#    0.000    0.000    0.000    0.000    0.000    0.000 
#
# Total GULP energy -396502.960251 kJ/mol
# GULP energy per Si atom -12390.717508 kJ/mol
# Density = 1.762216 g / cm^3
# Si number density = 17.662362 Si / 1000 Ang^3
#
#
#
# Elastic Constant Matrix: (Units=GPa)
#
#
# Indices 1 2 3 4 5 6 
#
# 1 104.6044 39.5425 46.7845 0.0000 4.1252 0.0000
# 2 39.5425 92.2119 36.2950 0.0000 2.9517 0.0000
# 3 46.7845 36.2950 115.5243 0.0000 -2.4900 0.0000
# 4 0.0000 0.0000 0.0000 15.5202 0.0000 2.0010
# 5 4.1252 2.9517 -2.4900 0.0000 14.9471 0.0000
# 6 0.0000 0.0000 0.0000 2.0010 0.0000 29.2679
#
#
#
# Elastic Compliance Matrix: (Units=1/GPa)
#
#
# Indices 1 2 3 4 5 6 
#
# 1 0.012997 -0.003833 -0.004135 0.000000 -0.003519 0.000000
# 2 -0.003833 0.013650 -0.002782 0.000000 -0.002101 0.000000
# 3 -0.004135 -0.002782 0.011282 0.000000 0.003570 0.000000
# 4 0.000000 0.000000 0.000000 0.065005 0.000000 -0.004444
# 5 -0.003519 -0.002101 0.003570 0.000000 0.068883 0.000000
# 6 0.000000 0.000000 0.000000 -0.004444 0.000000 0.034471
#
#
# Mechanical properties :
#
#
# Convention : Reuss Voigt Hill
#
# Bulk Modulus (GPa) = 60.86621 61.95385 61.41003
# Shear Modulus (GPa) = 21.43490 24.59497 23.01494
#
# Velocity S-wave (km/s) = 3.48744 3.73568 3.61369
# Velocity P-wave (km/s) = 7.12405 7.33212 7.22884
#
# Compressibility (1/GPa) = 0.01642948
#
# Stress axis : x y z
#
# Youngs Moduli (GPa) = 76.94073 73.25770 88.63978
#
# Poissons Ratio (x) = 0.28081 0.36653
# Poissons Ratio (y) = 0.29493 0.24656
# Poissons Ratio (z) = 0.31815 0.20377
#
# Static dielectric constant tensor:
#      x y z
#    x 3.184780 0.000000 -0.039490 
#    y 0.000000 3.091400 0.000000 
#    z -0.039490 0.000000 3.333260 
# 
# 
# High freq. dielectric constant tensor:
#      x y z
#    x 1.675000 0.000000 0.000040 
#    y 0.000000 1.670780 0.000000 
#    z 0.000040 0.000000 1.668890 
# 
# From -- ./inp_files/88527.got.cif
#   From: 2010.06.25/outbox.cif.g09.slc.cpg/sg10_45_cif.got.tgz:88527.got - 2010.06.27 22:07:45.
