data_PCOD8060294
_publ_section_title
;
Structure prediction by ZEFSAII (Michael W. Deem and Ramdas Pophale) SiO2 
 PCOD8060294
Probable space group: P 2/M
;
_chemical_formula_sum "Si O2"
_cell_formula_units_Z 32
_cell_length_a 31.551273
_cell_length_b 9.570578
_cell_length_c 11.122387
_cell_angle_alpha 90.000000
_cell_angle_beta 150.750741
_cell_angle_gamma 90.000000
_cell_volume 1641.025649
_symmetry_space_group_name_H-M "P 2/M"
_symmetry_group_IT_number 10
_symmetry_cell_setting 'monoclinic'
loop_
_space_group_symop_operation_xyz
x,y,z
-x,y,-z
-x,-y,-z
x,-y,z
loop_
_atom_site_type_symbol
_atom_site_label
_atom_site_fract_x
_atom_site_fract_y
_atom_site_fract_z
Si Si1 0.293842 0.238794 0.959212
Si Si2 0.609324 0.158067 0.566024
Si Si3 0.160945 0.848245 0.446499
Si Si4 0.461794 0.651685 0.273737
Si Si5 0.017782 0.162543 0.281151
Si Si6 0.743135 0.342102 0.765548
Si Si7 0.142935 0.654248 0.734466
Si Si8 0.851205 0.337596 0.804950
O O1 0.235892 0.138750 0.732587
O O2 0.228963 0.346977 0.863499
O O3 0.346150 0.155836 0.192042
O O4 0.360213 0.313726 0.032758
O O5 0.515283 0.232076 0.332989
O O6 0.667480 0.234662 0.610500
O O7 0.595043 0.000000 0.488407
O O8 0.069253 0.819036 0.283851
O O9 0.179298 0.724912 0.397989
O O10 0.156353 0.000000 0.370025
O O11 0.500000 0.641644 0.500000
O O12 0.471454 0.500000 0.234014
O O13 0.073326 0.228632 0.527310
O O14 0.000175 0.000000 0.267232
O O15 0.929644 0.247292 0.050914
O O16 0.709611 0.500000 0.706515
O O17 0.770151 0.322390 0.694265
O O18 0.828106 0.313645 0.057593
O O19 0.100688 0.500000 0.619421
O O20 0.878119 0.500000 0.856155
#
# Coordination Sequence:
#
# PCOD8060294 Si02
#       8
#     4   4   4   4   4   4   4   4
#     4   9  18  31  52  79 107 135 168 206 249 300
#     4  10  19  31  52  80 107 136 168 204 250 304
#     4  10  21  36  53  74 104 137 166 206 257 300
#     4   9  17  29  48  76 109 140 168 202 248 300
#     4  10  21  36  53  76 105 132 162 206 260 307
#     4   9  20  37  53  72 101 135 170 210 255 300
#     4   9  17  32  54  76 101 133 168 207 251 300
#     4  11  23  37  54  74  97 132 177 216 249 295
#
# _framework density 19.5
#
# number of rings (size 3 to 8) (size 9 to 14) (size 15 to 20)
#    0.000    2.375    0.000    2.250    0.000   14.750 
#    0.000    2.500    0.000    0.750    0.000    4.375 
#    0.000    0.000    0.000    0.000    0.000    0.000 
#
# Total GULP energy -396695.737773 kJ/mol
# GULP energy per Si atom -12396.741805 kJ/mol
# Density = 1.945562 g / cm^3
# Si number density = 19.500000 Si / 1000 Ang^3
#
#
#
# Elastic Constant Matrix: (Units=GPa)
#
#
# Indices 1 2 3 4 5 6 
#
# 1 64.1243 38.3613 3.8386 0.0000 7.5325 0.0000
# 2 38.3613 137.6741 11.0152 0.0000 13.0246 0.0000
# 3 3.8386 11.0152 31.8688 0.0000 16.7240 0.0000
# 4 0.0000 0.0000 0.0000 16.4057 0.0000 0.5903
# 5 7.5325 13.0246 16.7240 0.0000 21.4545 0.0000
# 6 0.0000 0.0000 0.0000 0.5903 0.0000 24.2160
#
#
#
# Elastic Compliance Matrix: (Units=1/GPa)
#
#
# Indices 1 2 3 4 5 6 
#
# 1 0.019080 -0.004983 0.002288 0.000000 -0.005457 0.000000
# 2 -0.004983 0.009010 -0.000951 0.000000 -0.002979 0.000000
# 3 0.002288 -0.000951 0.053391 0.000000 -0.041845 0.000000
# 4 0.000000 0.000000 0.000000 0.061008 0.000000 -0.001487
# 5 -0.005457 -0.002979 -0.041845 0.000000 0.082954 0.000000
# 6 0.000000 0.000000 0.000000 -0.001487 0.000000 0.041331
#
#
# Mechanical properties :
#
#
# Convention : Reuss Voigt Hill
#
# Bulk Modulus (GPa) = 13.47901 37.78859 25.63380
# Shear Modulus (GPa) = 16.73388 24.44537 20.58963
#
# Velocity S-wave (km/s) = 2.93259 3.54448 3.25295
# Velocity P-wave (km/s) = 4.28884 6.01431 5.22331
#
# Compressibility (1/GPa) = 0.07418942
#
# Stress axis : x y z
#
# Youngs Moduli (GPa) = 52.41118 110.98852 18.72973
#
# Poissons Ratio (x) = 0.55308 -0.04285
# Poissons Ratio (y) = 0.26117 0.01780
# Poissons Ratio (z) = -0.11992 0.10550
#
# Static dielectric constant tensor:
#      x y z
#    x 3.411050 0.000000 0.135780 
#    y 0.000000 3.600210 0.000000 
#    z 0.135780 0.000000 3.425130 
# 
# 
# High freq. dielectric constant tensor:
#      x y z
#    x 1.737480 0.000000 0.014770 
#    y 0.000000 1.766980 0.000000 
#    z 0.014770 0.000000 1.739170 
# 
# From -- ./inp_files/58272.got.cif
#   From: 2010.06.25/outbox.cif.g09.slc.cpg/sg10_30_cif.got.tgz:58272.got - 2010.06.27 22:07:45.
