data_PCOD8060152
_publ_section_title
;
Structure prediction by ZEFSAII (Michael W. Deem and Ramdas Pophale) SiO2 
 PCOD8060152
Probable space group: P 2/M
;
_chemical_formula_sum "Si O2"
_cell_formula_units_Z 32
_cell_length_a 20.646936
_cell_length_b 9.132908
_cell_length_c 9.373497
_cell_angle_alpha 90.000000
_cell_angle_beta 90.220292
_cell_angle_gamma 90.000000
_cell_volume 1767.515085
_symmetry_space_group_name_H-M "P 2/M"
_symmetry_group_IT_number 10
_symmetry_cell_setting 'monoclinic'
loop_
_space_group_symop_operation_xyz
x,y,z
-x,y,-z
-x,-y,-z
x,-y,z
loop_
_atom_site_type_symbol
_atom_site_label
_atom_site_fract_x
_atom_site_fract_y
_atom_site_fract_z
Si Si1 0.628329 0.171039 0.844785
Si Si2 0.435005 0.665832 0.908744
Si Si3 0.500122 0.170198 0.664780
Si Si4 0.847519 0.168230 0.557248
Si Si5 0.894535 0.829974 0.248141
Si Si6 0.958538 0.169468 0.774799
Si Si7 0.243991 0.670941 0.246111
Si Si8 0.132630 0.670226 0.024266
O O1 0.569977 0.199933 0.734366
O O2 0.690380 0.241096 0.772470
O O3 0.639084 0.000000 0.871275
O O4 0.617542 0.244898 0.999546
O O5 0.410391 0.500000 0.884267
O O6 0.446272 0.740704 0.754535
O O7 0.500000 0.667834 0.000000
O O8 0.500000 0.223693 0.500000
O O9 0.481254 0.000000 0.673580
O O10 0.857693 0.204387 0.393108
O O11 0.915062 0.202649 0.636342
O O12 0.790200 0.272715 0.610433
O O13 0.827245 0.000000 0.582664
O O14 0.969072 0.778459 0.260208
O O15 0.890920 0.000000 0.208648
O O16 0.855987 0.737592 0.130755
O O17 0.931414 0.257664 0.909259
O O18 0.956626 0.000000 0.817187
O O19 0.259474 0.500000 0.260597
O O20 0.196668 0.706145 0.114451
O O21 0.119358 0.500000 0.013146
#
# Coordination Sequence:
#
# PCOD8060152 Si02
#       8
#     4   4   4   4   4   4   4   4
#     4  10  19  33  56  79  99 131 172 207 242 288
#     4   9  17  30  50  77 107 136 166 200 238 281
#     4   9  18  33  53  80 112 138 162 199 245 290
#     4   9  18  33  52  73  98 128 164 205 249 299
#     4  10  19  31  50  75  99 125 160 204 253 302
#     4   9  17  31  51  73  97 126 161 202 249 301
#     4  10  21  37  53  70  96 131 171 209 247 293
#     4  10  21  34  48  69  98 130 163 204 251 297
#
# _framework density 18.104513000000001
#
# number of rings (size 3 to 8) (size 9 to 14) (size 15 to 20)
#    0.000    2.500    0.000    2.250    0.000    7.750 
#    0.000    1.250    0.000    5.250    0.000    0.000 
#    0.000    0.000    0.000    0.000    0.000    0.000 
#
# Total GULP energy -396862.080768 kJ/mol
# GULP energy per Si atom -12401.940024 kJ/mol
# Density = 1.806331 g / cm^3
# Si number density = 18.104513 Si / 1000 Ang^3
#
#
#
# Elastic Constant Matrix: (Units=GPa)
#
#
# Indices 1 2 3 4 5 6 
#
# 1 78.0384 48.8637 35.1015 0.0000 -18.0019 0.0000
# 2 48.8637 92.1208 56.6086 0.0000 -10.3453 0.0000
# 3 35.1015 56.6086 118.7877 0.0000 -14.6490 0.0000
# 4 0.0000 0.0000 0.0000 20.1837 0.0000 4.1857
# 5 -18.0019 -10.3453 -14.6490 0.0000 16.3555 0.0000
# 6 0.0000 0.0000 0.0000 4.1857 0.0000 20.5195
#
#
#
# Elastic Compliance Matrix: (Units=1/GPa)
#
#
# Indices 1 2 3 4 5 6 
#
# 1 0.023939 -0.010776 0.000529 0.000000 0.020006 0.000000
# 2 -0.010776 0.020387 -0.007199 0.000000 -0.005413 0.000000
# 3 0.000529 -0.007199 0.012594 0.000000 0.007309 0.000000
# 4 0.000000 0.000000 0.000000 0.051733 0.000000 -0.010553
# 5 0.020006 -0.005413 0.007309 0.000000 0.086283 0.000000
# 6 0.000000 0.000000 0.000000 -0.010553 0.000000 0.050887
#
#
# Mechanical properties :
#
#
# Convention : Reuss Voigt Hill
#
# Bulk Modulus (GPa) = 45.39771 63.34383 54.37077
# Shear Modulus (GPa) = 17.35762 21.30328 19.33045
#
# Velocity S-wave (km/s) = 3.09972 3.43400 3.27114
# Velocity P-wave (km/s) = 6.15961 7.12650 6.66062
#
# Compressibility (1/GPa) = 0.02202754
#
# Stress axis : x y z
#
# Youngs Moduli (GPa) = 41.77321 49.05083 79.40264
#
# Poissons Ratio (x) = 0.52857 -0.04198
# Poissons Ratio (y) = 0.45015 0.57160
# Poissons Ratio (z) = -0.02208 0.35310
#
# Static dielectric constant tensor:
#      x y z
#    x 3.162290 0.000000 -0.098310 
#    y 0.000000 3.395460 0.000000 
#    z -0.098310 0.000000 3.440920 
# 
# 
# High freq. dielectric constant tensor:
#      x y z
#    x 1.681570 0.000000 -0.012100 
#    y 0.000000 1.704220 0.000000 
#    z -0.012100 0.000000 1.702200 
# 
# From -- ./inp_files/35688.got.cif
#   From: 2010.06.25/outbox.cif.g09.slc.cpg/sg10_18_cif.got.tgz:35688.got - 2010.06.27 22:07:45.
