data_PCOD8060037
_publ_section_title
;
Structure prediction by ZEFSAII (Michael W. Deem and Ramdas Pophale) SiO2 
 PCOD8060037
Probable space group: P 2/M
;
_chemical_formula_sum "Si O2"
_cell_formula_units_Z 24
_cell_length_a 12.309393
_cell_length_b 9.039634
_cell_length_c 28.341703
_cell_angle_alpha 90.000000
_cell_angle_beta 25.988848
_cell_angle_gamma 90.000000
_cell_volume 1381.917232
_symmetry_space_group_name_H-M "P 2/M"
_symmetry_group_IT_number 10
_symmetry_cell_setting 'monoclinic'
loop_
_space_group_symop_operation_xyz
x,y,z
-x,y,-z
-x,-y,-z
x,-y,z
loop_
_atom_site_type_symbol
_atom_site_label
_atom_site_fract_x
_atom_site_fract_y
_atom_site_fract_z
Si Si1 0.320038 0.166512 0.025866
Si Si2 0.715320 0.670979 0.817671
Si Si3 0.071593 0.326706 0.764377
Si Si4 0.431571 0.175324 0.408616
Si Si5 0.729790 0.837252 0.627557
Si Si6 0.070966 0.673078 0.367017
O O1 0.534942 0.237076 0.074898
O O2 0.075690 0.260745 0.133292
O O3 0.239423 0.000000 0.044488
O O4 0.500000 0.170012 0.000000
O O5 0.642531 0.500000 0.849814
O O6 0.929331 0.709536 0.771551
O O7 0.812234 0.714519 0.728585
O O8 0.107315 0.500000 0.758485
O O9 0.336597 0.249026 0.656047
O O10 0.447067 0.214616 0.346489
O O11 0.184448 0.239179 0.528727
O O12 0.432942 0.000000 0.415929
O O13 0.000000 0.848354 0.500000
O O14 0.730129 0.721859 0.670609
O O15 0.650064 0.000000 0.677316
O O16 0.016986 0.500000 0.393206
#
# Coordination Sequence:
#
# PCOD8060037 Si02
#       6
#     4   4   4   4   4   4
#     4   9  17  30  49  71  93 121 160 198 230 273
#     4   9  19  33  48  70  99 128 156 191 235 280
#     4  10  19  32  50  70  96 128 159 192 234 281
#     4  10  20  33  48  69  98 127 158 196 237 280
#     4   8  16  31  48  66  91 123 157 195 236 277
#     4  10  19  31  49  72  97 125 159 195 232 279
#
# _framework density 17.367176000000001
#
# number of rings (size 3 to 8) (size 9 to 14) (size 15 to 20)
#    0.000    2.667    0.000    3.000    0.000    8.333 
#    0.000    3.333    0.000    1.000    0.000    7.000 
#    0.000    0.000    0.000    0.000    0.000    0.000 
#
# Total GULP energy -297557.405316 kJ/mol
# GULP energy per Si atom -12398.225222 kJ/mol
# Density = 1.732765 g / cm^3
# Si number density = 17.367176 Si / 1000 Ang^3
#
#
#
# Elastic Constant Matrix: (Units=GPa)
#
#
# Indices 1 2 3 4 5 6 
#
# 1 55.0761 31.0145 26.4266 0.0000 23.0821 0.0000
# 2 31.0145 93.0050 39.5591 0.0000 19.7484 0.0000
# 3 26.4266 39.5591 64.5217 0.0000 26.3090 0.0000
# 4 0.0000 0.0000 0.0000 18.7544 0.0000 -0.3299
# 5 23.0821 19.7484 26.3090 0.0000 18.2533 0.0000
# 6 0.0000 0.0000 0.0000 -0.3299 0.0000 27.3337
#
#
#
# Elastic Compliance Matrix: (Units=1/GPa)
#
#
# Indices 1 2 3 4 5 6 
#
# 1 0.043579 -0.005785 0.013622 0.000000 -0.068482 0.000000
# 2 -0.005785 0.015691 -0.008032 0.000000 0.001917 0.000000
# 3 0.013622 -0.008032 0.044446 0.000000 -0.072596 0.000000
# 4 0.000000 0.000000 0.000000 0.053332 0.000000 0.000644
# 5 -0.068482 0.001917 -0.072596 0.000000 0.243945 0.000000
# 6 0.000000 0.000000 0.000000 0.000644 0.000000 0.036593
#
#
# Mechanical properties :
#
#
# Convention : Reuss Voigt Hill
#
# Bulk Modulus (GPa) = 9.67826 45.17813 27.42819
# Shear Modulus (GPa) = 10.58388 20.57510 15.57949
#
# Velocity S-wave (km/s) = 2.47132 3.44570 2.99835
# Velocity P-wave (km/s) = 3.70514 6.47305 5.27392
#
# Compressibility (1/GPa) = 0.10332437
#
# Stress axis : x y z
#
# Youngs Moduli (GPa) = 22.94696 63.73168 22.49944
#
# Poissons Ratio (x) = 0.36869 -0.30649
# Poissons Ratio (y) = 0.13275 0.18072
# Poissons Ratio (z) = -0.31258 0.51191
#
# Static dielectric constant tensor:
#      x y z
#    x 3.341110 0.000000 0.023890 
#    y 0.000000 3.348420 0.000000 
#    z 0.023890 0.000000 3.086260 
# 
# 
# High freq. dielectric constant tensor:
#      x y z
#    x 1.652030 0.000000 0.004450 
#    y 0.000000 1.683400 0.000000 
#    z 0.004450 0.000000 1.652650 
# 
# From -- ./inp_files/92491.got.cif
#   From: 2010.06.25/outbox.cif.g09.slc.cpg/sg10_47_cif.got.tgz:92491.got - 2010.06.27 22:07:45.
