data_PCOD8060141
_publ_section_title
;
Structure prediction by ZEFSAII (Michael W. Deem and Ramdas Pophale) SiO2 
 PCOD8060141
Probable space group: P 2/M
;
_chemical_formula_sum "Si O2"
_cell_formula_units_Z 28
_cell_length_a 11.764272
_cell_length_b 9.253270
_cell_length_c 15.017755
_cell_angle_alpha 90.000000
_cell_angle_beta 70.901524
_cell_angle_gamma 90.000000
_cell_volume 1544.819120
_symmetry_space_group_name_H-M "P 2/M"
_symmetry_group_IT_number 10
_symmetry_cell_setting 'monoclinic'
loop_
_space_group_symop_operation_xyz
x,y,z
-x,y,-z
-x,-y,-z
x,-y,z
loop_
_atom_site_type_symbol
_atom_site_label
_atom_site_fract_x
_atom_site_fract_y
_atom_site_fract_z
Si Si1 0.291966 0.333464 0.038821
Si Si2 0.115181 0.829021 0.578091
Si Si3 0.015100 0.334355 0.095946
Si Si4 0.641546 0.832525 0.807796
Si Si5 0.184143 0.830559 0.748956
Si Si6 0.153471 0.828265 0.374421
Si Si7 0.628137 0.166102 0.154415
O O1 0.331429 0.500000 0.027490
O O2 0.151032 0.315990 0.093749
O O3 0.363871 0.252746 0.098066
O O4 0.323734 0.266265 0.935995
O O5 0.194667 0.779697 0.642828
O O6 0.172901 0.770294 0.471048
O O7 0.977339 0.774249 0.625124
O O8 0.109550 0.000000 0.571744
O O9 0.972063 0.500000 0.110443
O O10 0.933543 0.241827 0.181248
O O11 0.000000 0.274086 0.000000
O O12 0.742862 0.765109 0.716534
O O13 0.513295 0.812102 0.792634
O O14 0.666906 0.000000 0.823186
O O15 0.304446 0.787639 0.771637
O O16 0.160523 0.000000 0.759126
O O17 0.163861 0.000000 0.369658
O O18 0.657228 0.000000 0.122250
#
# Coordination Sequence:
#
# PCOD8060141 Si02
#       7
#     4   4   4   4   4   4   4
#     4  11  22  35  52  72  95 128 168 206 246 292
#     4   8  14  26  47  75  99 121 156 202 244 288
#     4  10  20  34  49  69  99 128 157 199 248 293
#     4  10  20  34  51  71  98 132 167 202 244 287
#     4  10  19  31  50  75 101 130 166 201 238 287
#     4   8  14  27  48  72  98 125 156 198 248 290
#     4  10  21  34  47  69 102 134 165 204 241 282
#
# _framework density 18.125098999999999
#
# number of rings (size 3 to 8) (size 9 to 14) (size 15 to 20)
#    0.000    2.429    1.429    2.571    0.000    4.857 
#    0.000    0.714    0.000    5.143    0.000    4.000 
#    0.000    3.429    0.000    0.000    0.000    0.000 
#
# Total GULP energy -347126.929825 kJ/mol
# GULP energy per Si atom -12397.390351 kJ/mol
# Density = 1.808385 g / cm^3
# Si number density = 18.125099 Si / 1000 Ang^3
#
#
#
# Elastic Constant Matrix: (Units=GPa)
#
#
# Indices 1 2 3 4 5 6 
#
# 1 99.7112 30.9848 55.0390 0.0000 18.9914 0.0000
# 2 30.9848 41.4114 32.9382 0.0000 6.0824 0.0000
# 3 55.0390 32.9382 111.5594 0.0000 25.2442 0.0000
# 4 0.0000 0.0000 0.0000 -0.9182 0.0000 -0.6318
# 5 18.9914 6.0824 25.2442 0.0000 29.8947 0.0000
# 6 0.0000 0.0000 0.0000 -0.6318 0.0000 15.3893
#
#
#
# Elastic Compliance Matrix: (Units=1/GPa)
#
#
# Indices 1 2 3 4 5 6 
#
# 1 0.015730 -0.007517 -0.004483 0.000000 -0.004678 0.000000
# 2 -0.007517 0.035229 -0.007605 0.000000 0.004029 0.000000
# 3 -0.004483 -0.007605 0.015361 0.000000 -0.008577 0.000000
# 4 0.000000 0.000000 0.000000 -1.059182 0.000000 -0.043487
# 5 -0.004678 0.004029 -0.008577 0.000000 0.042846 0.000000
# 6 0.000000 0.000000 0.000000 -0.043487 0.000000 0.063195
#
#
# Mechanical properties :
#
#
# Convention : Reuss Voigt Hill
#
# Bulk Modulus (GPa) = 36.88369 54.51177 45.69773
# Shear Modulus (GPa) = -5.96250 17.78783 5.91267
#
# Velocity S-wave (km/s) = -1.81570 3.13612 1.80810
# Velocity P-wave (km/s) = 3.99975 6.57679 5.44299
#
# Compressibility (1/GPa) = 0.02711226
#
# Stress axis : x y z
#
# Youngs Moduli (GPa) = 63.57180 28.38553 65.09798
#
# Poissons Ratio (x) = 0.21338 0.29181
# Poissons Ratio (y) = 0.47788 0.49505
# Poissons Ratio (z) = 0.28497 0.21586
#
# Static dielectric constant tensor:
#      x y z
#    x 3.488590 0.000000 0.164820 
#    y 0.000000 3.040430 0.000000 
#    z 0.164820 0.000000 3.556170 
# 
# 
# High freq. dielectric constant tensor:
#      x y z
#    x 1.704590 0.000000 0.010920 
#    y 0.000000 1.665790 0.000000 
#    z 0.010920 0.000000 1.701080 
# 
# From -- ./inp_files/49120.got.cif
#   From: 2010.06.25/outbox.cif.g09.slc.cpg/sg10_25_cif.got.tgz:49120.got - 2010.06.27 22:07:45.
