data_PCOD8060663
_publ_section_title
;
Structure prediction by ZEFSAII (Michael W. Deem and Ramdas Pophale) SiO2 
 PCOD8060663
Probable space group: P 2/M
;
_chemical_formula_sum "Si O2"
_cell_formula_units_Z 28
_cell_length_a 19.180924
_cell_length_b 9.158486
_cell_length_c 15.360726
_cell_angle_alpha 90.000000
_cell_angle_beta 142.670844
_cell_angle_gamma 90.000000
_cell_volume 1636.285994
_symmetry_space_group_name_H-M "P 2/M"
_symmetry_group_IT_number 10
_symmetry_cell_setting 'monoclinic'
loop_
_space_group_symop_operation_xyz
x,y,z
-x,y,-z
-x,-y,-z
x,-y,z
loop_
_atom_site_type_symbol
_atom_site_label
_atom_site_fract_x
_atom_site_fract_y
_atom_site_fract_z
Si Si1 0.616909 0.826489 0.301835
Si Si2 0.621232 0.668280 0.950324
Si Si3 0.363603 0.839192 0.868617
Si Si4 0.011862 0.171670 0.911139
Si Si5 0.237310 0.668652 0.078732
Si Si6 0.633807 0.831994 0.647804
Si Si7 0.236046 0.827462 0.391523
O O1 0.493029 0.753284 0.192050
O O2 0.674895 0.785879 0.266079
O O3 0.703699 0.765681 0.461648
O O4 0.597419 0.000000 0.289063
O O5 0.588111 0.500000 0.929916
O O6 0.720206 0.690257 0.977484
O O7 0.674628 0.728030 0.094025
O O8 0.312425 0.000000 0.838552
O O9 0.500000 0.848839 0.000000
O O10 0.897209 0.218319 0.745082
O O11 0.035716 0.000000 0.928572
O O12 0.115002 0.254812 0.967461
O O13 0.000000 0.218650 0.000000
O O14 0.224278 0.500000 0.090225
O O15 0.332421 0.739289 0.235134
O O16 0.500000 0.815144 0.500000
O O17 0.699599 0.766150 0.629695
O O18 0.669274 0.000000 0.699297
O O19 0.248950 0.000000 0.403917
#
# Coordination Sequence:
#
# PCOD8060663 Si02
#       7
#     4   4   4   4   4   4   4
#     4   9  17  31  52  77 103 128 158 199 249 298
#     4  10  20  32  47  71 103 135 165 199 241 292
#     4   8  15  28  48  74 100 127 160 199 242 293
#     4  10  19  35  56  73  93 125 172 215 245 288
#     4  11  23  35  48  70 102 134 167 207 247 290
#     4  10  19  32  52  75  99 130 164 198 244 298
#     4   9  17  31  51  75  99 124 159 205 247 289
#
# _framework density 17.111923999999998
#
# number of rings (size 3 to 8) (size 9 to 14) (size 15 to 20)
#    0.000    2.429    1.429    2.571    0.000    6.571 
#    0.000    1.429    0.000    0.857    0.000    6.000 
#    0.000    0.000    0.000    0.000    0.000    0.000 
#
# Total GULP energy -347147.132079 kJ/mol
# GULP energy per Si atom -12398.111860 kJ/mol
# Density = 1.707298 g / cm^3
# Si number density = 17.111924 Si / 1000 Ang^3
#
#
#
# Elastic Constant Matrix: (Units=GPa)
#
#
# Indices 1 2 3 4 5 6 
#
# 1 105.9322 54.1107 53.8238 0.0000 -7.8586 0.0000
# 2 54.1107 67.8614 35.3676 0.0000 -1.2701 0.0000
# 3 53.8238 35.3676 73.6130 0.0000 -3.4112 0.0000
# 4 0.0000 0.0000 0.0000 7.6268 0.0000 -1.8551
# 5 -7.8586 -1.2701 -3.4112 0.0000 26.8939 0.0000
# 6 0.0000 0.0000 0.0000 -1.8551 0.0000 26.5210
#
#
#
# Elastic Compliance Matrix: (Units=1/GPa)
#
#
# Indices 1 2 3 4 5 6 
#
# 1 0.020109 -0.011198 -0.009129 0.000000 0.004189 0.000000
# 2 -0.011198 0.025896 -0.004375 0.000000 -0.002604 0.000000
# 3 -0.009129 -0.004375 0.022359 0.000000 -0.000038 0.000000
# 4 0.000000 0.000000 0.000000 0.133387 0.000000 0.009330
# 5 0.004189 -0.002604 -0.000038 0.000000 0.038279 0.000000
# 6 0.000000 0.000000 0.000000 0.009330 0.000000 0.038359
#
#
# Mechanical properties :
#
#
# Convention : Reuss Voigt Hill
#
# Bulk Modulus (GPa) = 52.73963 59.33452 56.03708
# Shear Modulus (GPa) = 14.96492 19.14864 17.05678
#
# Velocity S-wave (km/s) = 2.96046 3.34881 3.16060
# Velocity P-wave (km/s) = 6.52480 7.04999 6.79247
#
# Compressibility (1/GPa) = 0.01896107
#
# Stress axis : x y z
#
# Youngs Moduli (GPa) = 49.72803 38.61529 44.72377
#
# Poissons Ratio (x) = 0.43243 0.40828
# Poissons Ratio (y) = 0.55688 0.19565
# Poissons Ratio (z) = 0.45396 0.16893
#
# Static dielectric constant tensor:
#      x y z
#    x 3.279050 0.000000 -0.314720 
#    y 0.000000 3.088310 0.000000 
#    z -0.314720 0.000000 3.384440 
# 
# 
# High freq. dielectric constant tensor:
#      x y z
#    x 1.656520 0.000000 -0.015590 
#    y 0.000000 1.644390 0.000000 
#    z -0.015590 0.000000 1.651350 
# 
# From -- ./inp_files/68672.got.cif
#   From: 2010.06.25/outbox.cif.g09.slc.cpg/sg10_35_cif.got.tgz:68672.got - 2010.06.27 22:07:45.
