data_PCOD8060126
_publ_section_title
;
Structure prediction by ZEFSAII (Michael W. Deem and Ramdas Pophale) SiO2 
 PCOD8060126
Probable space group: P 2/M
;
_chemical_formula_sum "Si O2"
_cell_formula_units_Z 24
_cell_length_a 20.717793
_cell_length_b 9.144271
_cell_length_c 9.636170
_cell_angle_alpha 90.000000
_cell_angle_beta 131.782132
_cell_angle_gamma 90.000000
_cell_volume 1361.293447
_symmetry_space_group_name_H-M "P 2/M"
_symmetry_group_IT_number 10
_symmetry_cell_setting 'monoclinic'
loop_
_space_group_symop_operation_xyz
x,y,z
-x,y,-z
-x,-y,-z
x,-y,z
loop_
_atom_site_type_symbol
_atom_site_label
_atom_site_fract_x
_atom_site_fract_y
_atom_site_fract_z
Si Si1 0.532251 0.329407 0.400414
Si Si2 0.775041 0.329330 0.384512
Si Si3 0.902361 0.170985 0.372465
Si Si4 0.770135 0.828460 0.946382
Si Si5 0.277480 0.325849 0.387544
Si Si6 0.645240 0.331235 0.964085
O O1 0.500000 0.260287 0.500000
O O2 0.547837 0.500000 0.445009
O O3 0.624081 0.263852 0.483286
O O4 0.457958 0.299985 0.177904
O O5 0.795282 0.500000 0.409342
O O6 0.857365 0.248462 0.438162
O O7 0.760112 0.273744 0.518925
O O8 0.687793 0.292714 0.172755
O O9 0.853855 0.208640 0.159498
O O10 0.000000 0.229578 0.500000
O O11 0.900044 0.000000 0.400855
O O12 0.684986 0.767198 0.899516
O O13 0.759251 0.000000 0.906938
O O14 0.781459 0.748203 0.815194
O O15 0.272918 0.500000 0.367051
O O16 0.662734 0.500000 0.948667
#
# Coordination Sequence:
#
# PCOD8060126 Si02
#       6
#     4   4   4   4   4   4
#     4   9  15  25  46  71  95 131 173 202 230 274
#     4   9  19  32  50  76 102 128 159 200 248 288
#     4   9  19  37  58  75  93 122 160 200 242 296
#     4  10  19  31  50  74  96 124 163 200 243 291
#     4  10  19  32  48  71 104 135 163 198 240 284
#     4   9  16  30  49  69  96 131 169 204 238 277
#
# _framework density 17.630291
#
# number of rings (size 3 to 8) (size 9 to 14) (size 15 to 20)
#    0.000    2.667    1.667    0.500    0.000    2.333 
#    0.000    5.833    0.000    5.000    0.000    5.833 
#    0.000    0.000    0.000    0.000    0.000    0.000 
#
# Total GULP energy -297544.574553 kJ/mol
# GULP energy per Si atom -12397.690606 kJ/mol
# Density = 1.759016 g / cm^3
# Si number density = 17.630291 Si / 1000 Ang^3
#
#
#
# Elastic Constant Matrix: (Units=GPa)
#
#
# Indices 1 2 3 4 5 6 
#
# 1 136.4691 41.0914 83.1332 0.0000 -6.2382 0.0000
# 2 41.0914 39.0827 38.3983 0.0000 -7.0026 0.0000
# 3 83.1332 38.3983 111.2428 0.0000 -9.8626 0.0000
# 4 0.0000 0.0000 0.0000 23.9707 0.0000 0.6535
# 5 -6.2382 -7.0026 -9.8626 0.0000 35.6235 0.0000
# 6 0.0000 0.0000 0.0000 0.6535 0.0000 12.3243
#
#
#
# Elastic Compliance Matrix: (Units=1/GPa)
#
#
# Indices 1 2 3 4 5 6 
#
# 1 0.014672 -0.007212 -0.008584 0.000000 -0.001225 0.000000
# 2 -0.007212 0.042829 -0.008980 0.000000 0.004670 0.000000
# 3 -0.008584 -0.008980 0.018672 0.000000 0.001901 0.000000
# 4 0.000000 0.000000 0.000000 0.041778 0.000000 -0.002215
# 5 -0.001225 0.004670 0.001901 0.000000 0.029301 0.000000
# 6 0.000000 0.000000 0.000000 -0.002215 0.000000 0.081258
#
#
# Mechanical properties :
#
#
# Convention : Reuss Voigt Hill
#
# Bulk Modulus (GPa) = 37.56308 68.00450 52.78379
# Shear Modulus (GPa) = 17.42542 22.66180 20.04361
#
# Velocity S-wave (km/s) = 3.14726 3.58912 3.37543
# Velocity P-wave (km/s) = 5.87871 7.47208 6.72277
#
# Compressibility (1/GPa) = 0.02662189
#
# Stress axis : x y z
#
# Youngs Moduli (GPa) = 68.15474 23.34867 53.55505
#
# Poissons Ratio (x) = 0.16840 0.45972
# Poissons Ratio (y) = 0.49156 0.48090
# Poissons Ratio (z) = 0.58504 0.20966
#
# Static dielectric constant tensor:
#      x y z
#    x 3.215130 0.000000 0.008940 
#    y 0.000000 3.047800 0.000000 
#    z 0.008940 0.000000 3.430110 
# 
# 
# High freq. dielectric constant tensor:
#      x y z
#    x 1.663930 0.000000 0.000030 
#    y 0.000000 1.657300 0.000000 
#    z 0.000030 0.000000 1.688290 
# 
# From -- ./inp_files/28008.got.cif
#   From: 2010.06.25/outbox.cif.g09.slc.cpg/sg10_15_cif.got.tgz:28008.got - 2010.06.27 22:07:45.
