data_PCOD8060503
_publ_section_title
;
Structure prediction by ZEFSAII (Michael W. Deem and Ramdas Pophale) SiO2 
 PCOD8060503
Probable space group: P 2/M
;
_chemical_formula_sum "Si O2"
_cell_formula_units_Z 24
_cell_length_a 10.075161
_cell_length_b 8.800060
_cell_length_c 19.285617
_cell_angle_alpha 90.000000
_cell_angle_beta 120.520167
_cell_angle_gamma 90.000000
_cell_volume 1472.995685
_symmetry_space_group_name_H-M "P 2/M"
_symmetry_group_IT_number 10
_symmetry_cell_setting 'monoclinic'
loop_
_space_group_symop_operation_xyz
x,y,z
-x,y,-z
-x,-y,-z
x,-y,z
loop_
_atom_site_type_symbol
_atom_site_label
_atom_site_fract_x
_atom_site_fract_y
_atom_site_fract_z
Si Si1 0.862030 0.671902 0.256676
Si Si2 0.296253 0.677922 0.172053
Si Si3 0.617502 0.821008 0.274956
Si Si4 0.997331 0.179011 0.836290
Si Si5 0.168033 0.167164 0.012154
Si Si6 0.879022 0.672425 0.413353
O O1 0.842747 0.500000 0.223578
O O2 0.958532 0.772210 0.229011
O O3 0.692493 0.745302 0.225357
O O4 0.951981 0.673732 0.354737
O O5 0.318506 0.500000 0.185734
O O6 0.446133 0.761278 0.240863
O O7 0.154355 0.731480 0.181109
O O8 0.271816 0.717307 0.083998
O O9 0.721027 0.771299 0.369419
O O10 0.617100 0.000000 0.266439
O O11 0.141699 0.220404 0.925544
O O12 0.962238 0.000000 0.830288
O O13 0.246317 0.000000 0.035721
O O14 0.000000 0.156661 0.000000
O O15 0.837925 0.500000 0.424827
O O16 0.000000 0.744102 0.500000
#
# Coordination Sequence:
#
# PCOD8060503 Si02
#       6
#     4   4   4   4   4   4
#     4   9  18  32  50  74 100 127 161 198 241 290
#     4  11  20  31  49  72  98 130 167 205 243 284
#     4  10  19  32  50  73 100 128 162 201 242 287
#     4  10  19  32  50  72  99 131 164 202 245 286
#     4   8  16  30  46  66  94 128 165 201 241 287
#     4   8  16  32  53  75  99 126 157 194 238 291
#
# _framework density 16.293326
#
# number of rings (size 3 to 8) (size 9 to 14) (size 15 to 20)
#    1.000    1.667    0.000    4.500    0.000    4.000 
#    0.000    0.833    0.000    6.000    0.000    7.000 
#    0.000    0.000    0.000    0.000    0.000    0.000 
#
# Total GULP energy -297355.171418 kJ/mol
# GULP energy per Si atom -12389.798809 kJ/mol
# Density = 1.625624 g / cm^3
# Si number density = 16.293326 Si / 1000 Ang^3
#
#
#
# Elastic Constant Matrix: (Units=GPa)
#
#
# Indices 1 2 3 4 5 6 
#
# 1 44.5686 15.5604 18.5613 0.0000 5.0541 0.0000
# 2 15.5604 87.4647 23.5864 0.0000 8.0250 0.0000
# 3 18.5613 23.5864 67.3035 0.0000 11.6376 0.0000
# 4 0.0000 0.0000 0.0000 24.3689 0.0000 -0.0876
# 5 5.0541 8.0250 11.6376 0.0000 23.1104 0.0000
# 6 0.0000 0.0000 0.0000 -0.0876 0.0000 26.1595
#
#
#
# Elastic Compliance Matrix: (Units=1/GPa)
#
#
# Indices 1 2 3 4 5 6 
#
# 1 0.026095 -0.002897 -0.005881 0.000000 -0.001740 0.000000
# 2 -0.002897 0.013067 -0.003401 0.000000 -0.002191 0.000000
# 3 -0.005881 -0.003401 0.018890 0.000000 -0.007045 0.000000
# 4 0.000000 0.000000 0.000000 0.041036 0.000000 0.000137
# 5 -0.001740 -0.002191 -0.007045 0.000000 0.047960 0.000000
# 6 0.000000 0.000000 0.000000 0.000137 0.000000 0.038227
#
#
# Mechanical properties :
#
#
# Convention : Reuss Voigt Hill
#
# Bulk Modulus (GPa) = 29.67894 34.97256 32.32575
# Shear Modulus (GPa) = 22.63828 24.16969 23.40398
#
# Velocity S-wave (km/s) = 3.73154 3.85569 3.79412
# Velocity P-wave (km/s) = 6.06801 6.42905 6.25114
#
# Compressibility (1/GPa) = 0.03369393
#
# Stress axis : x y z
#
# Youngs Moduli (GPa) = 38.32132 76.52951 52.93784
#
# Poissons Ratio (x) = 0.22171 0.31131
# Poissons Ratio (y) = 0.11102 0.18006
# Poissons Ratio (z) = 0.22535 0.26031
#
# Static dielectric constant tensor:
#      x y z
#    x 2.756770 0.000000 -0.034660 
#    y 0.000000 3.096190 0.000000 
#    z -0.034660 0.000000 3.168550 
# 
# 
# High freq. dielectric constant tensor:
#      x y z
#    x 1.592610 0.000000 0.001550 
#    y 0.000000 1.638110 0.000000 
#    z 0.001550 0.000000 1.614400 
# 
# From -- ./inp_files/33509.got.cif
#   From: 2010.06.25/outbox.cif.g09.slc.cpg/sg10_17_cif.got.tgz:33509.got - 2010.06.27 22:07:45.
