data_PCOD8060328
_publ_section_title
;
Structure prediction by ZEFSAII (Michael W. Deem and Ramdas Pophale) SiO2 
 PCOD8060328
Probable space group: P 2/M
;
_chemical_formula_sum "Si O2"
_cell_formula_units_Z 32
_cell_length_a 9.342459
_cell_length_b 19.956871
_cell_length_c 12.189847
_cell_angle_alpha 90.000000
_cell_angle_beta 50.848489
_cell_angle_gamma 90.000000
_cell_volume 1762.471078
_symmetry_space_group_name_H-M "P 2/M"
_symmetry_group_IT_number 10
_symmetry_cell_setting 'monoclinic'
loop_
_space_group_symop_operation_xyz
x,y,z
-x,y,-z
-x,-y,-z
x,-y,z
loop_
_atom_site_type_symbol
_atom_site_label
_atom_site_fract_x
_atom_site_fract_y
_atom_site_fract_z
Si Si1 0.542097 0.799984 0.301585
Si Si2 0.202937 0.298770 0.938748
Si Si3 0.787682 0.189517 0.381568
Si Si4 0.241095 0.574415 0.211554
Si Si5 0.625798 0.836569 0.832641
Si Si6 0.132272 0.717656 0.219812
Si Si7 0.967544 0.923816 0.643790
Si Si8 0.633421 0.571540 0.097397
O O1 0.634301 0.733840 0.208888
O O2 0.356437 0.784284 0.458196
O O3 0.691821 0.830756 0.312877
O O4 0.495521 0.846939 0.219292
O O5 0.238109 0.377048 0.898811
O O6 0.231645 0.283430 0.053227
O O7 0.000000 0.276194 0.000000
O O8 0.929829 0.251022 0.302356
O O9 0.879097 0.119993 0.370659
O O10 0.150917 0.500000 0.285077
O O11 0.113471 0.642158 0.281057
O O12 0.414881 0.588264 0.207563
O O13 0.309065 0.568931 0.055922
O O14 0.740876 0.766527 0.766912
O O15 0.764688 0.898725 0.774577
O O16 0.500000 0.837855 0.000000
O O17 0.000000 0.916331 0.500000
O O18 0.988912 0.000000 0.673365
O O19 0.669373 0.500000 0.136682
#
# Coordination Sequence:
#
# PCOD8060328 Si02
#       8
#     4   4   4   4   4   4   4   4
#     4  11  21  36  54  83 112 146 179 226 270 321
#     4  11  19  30  49  78 109 141 181 229 283 326
#     4  10  22  38  56  80 115 145 184 221 271 326
#     4   8  14  26  45  71 104 137 179 230 278 322
#     4  11  21  34  59  87 113 142 184 226 272 321
#     4  10  19  31  53  82 105 144 185 230 276 323
#     4  10  21  41  63  85 114 145 181 223 264 319
#     4   8  15  26  42  68 103 138 177 229 279 326
#
# _framework density 18.156326
#
# number of rings (size 3 to 8) (size 9 to 14) (size 15 to 20)
#    0.000    2.125    3.750    1.500    1.750    0.500 
#    0.000    1.875    0.000    1.500    0.000    4.375 
#    0.000    0.000    0.000    0.000    0.000    0.000 
#
# Total GULP energy -396446.467865 kJ/mol
# GULP energy per Si atom -12388.952121 kJ/mol
# Density = 1.811500 g / cm^3
# Si number density = 18.156326 Si / 1000 Ang^3
#
#
#
# Elastic Constant Matrix: (Units=GPa)
#
#
# Indices 1 2 3 4 5 6 
#
# 1 90.7438 45.1100 40.7450 0.0000 -6.7357 0.0000
# 2 45.1100 133.1404 41.3005 0.0000 -14.0334 0.0000
# 3 40.7450 41.3005 80.2209 0.0000 -7.5809 0.0000
# 4 0.0000 0.0000 0.0000 -5.4719 0.0000 4.2838
# 5 -6.7357 -14.0334 -7.5809 0.0000 25.2700 0.0000
# 6 0.0000 0.0000 0.0000 4.2838 0.0000 19.8546
#
#
#
# Elastic Compliance Matrix: (Units=1/GPa)
#
#
# Indices 1 2 3 4 5 6 
#
# 1 0.015427 -0.003286 -0.006100 0.000000 0.000457 0.000000
# 2 -0.003286 0.009985 -0.003119 0.000000 0.003734 0.000000
# 3 -0.006100 -0.003119 0.017344 0.000000 0.001845 0.000000
# 4 0.000000 0.000000 0.000000 -0.156344 0.000000 0.033733
# 5 0.000457 0.003734 0.001845 0.000000 0.042321 0.000000
# 6 0.000000 0.000000 0.000000 0.033733 0.000000 0.043088
#
#
# Mechanical properties :
#
#
# Convention : Reuss Voigt Hill
#
# Bulk Modulus (GPa) = 56.35322 62.04623 59.19973
# Shear Modulus (GPa) = 1819.93794 19.72720 919.83257
#
# Velocity S-wave (km/s) = 31.69459 3.29982 22.53260
# Velocity P-wave (km/s) = 37.02029 6.98326 26.63895
#
# Compressibility (1/GPa) = 0.01774521
#
# Stress axis : x y z
#
# Youngs Moduli (GPa) = 64.82259 100.14700 57.65687
#
# Poissons Ratio (x) = 0.32912 0.35172
# Poissons Ratio (y) = 0.21303 0.17982
# Poissons Ratio (z) = 0.39544 0.31234
#
# Static dielectric constant tensor:
#      x y z
#    x 3.452810 0.000000 -0.033390 
#    y 0.000000 3.531790 0.000000 
#    z -0.033390 0.000000 3.162760 
# 
# 
# High freq. dielectric constant tensor:
#      x y z
#    x 1.704220 0.000000 -0.005800 
#    y 0.000000 1.694930 0.000000 
#    z -0.005800 0.000000 1.678920 
# 
# From -- ./inp_files/43604.got.cif
#   From: 2010.06.25/outbox.cif.g09.slc.cpg/sg10_22_cif.got.tgz:43604.got - 2010.06.27 22:07:45.
