data_PCOD8060253
_publ_section_title
;
Structure prediction by ZEFSAII (Michael W. Deem and Ramdas Pophale) SiO2 
 PCOD8060253
Probable space group: P 2/M
;
_chemical_formula_sum "Si O2"
_cell_formula_units_Z 32
_cell_length_a 27.660311
_cell_length_b 9.351943
_cell_length_c 21.361138
_cell_angle_alpha 90.000000
_cell_angle_beta 19.159322
_cell_angle_gamma 90.000000
_cell_volume 1813.496401
_symmetry_space_group_name_H-M "P 2/M"
_symmetry_group_IT_number 10
_symmetry_cell_setting 'monoclinic'
loop_
_space_group_symop_operation_xyz
x,y,z
-x,y,-z
-x,-y,-z
x,-y,z
loop_
_atom_site_type_symbol
_atom_site_label
_atom_site_fract_x
_atom_site_fract_y
_atom_site_fract_z
Si Si1 0.052698 0.336098 0.615073
Si Si2 0.920457 0.665069 0.905163
Si Si3 0.833511 0.162988 0.204082
Si Si4 0.664145 0.333529 0.307769
Si Si5 0.101683 0.832667 0.434981
Si Si6 0.598363 0.334869 0.937699
Si Si7 0.812375 0.836727 0.371478
Si Si8 0.661560 0.661868 0.655627
O O1 0.035290 0.500000 0.614831
O O2 0.023159 0.235270 0.591885
O O3 0.217731 0.306213 0.438266
O O4 0.934388 0.297557 0.814310
O O5 0.965365 0.500000 0.860260
O O6 0.032073 0.759215 0.808983
O O7 0.756292 0.696088 0.131278
O O8 0.734285 0.257118 0.280954
O O9 0.766043 0.174836 0.355971
O O10 0.832520 0.000000 0.180841
O O11 0.000000 0.222109 0.000000
O O12 0.500000 0.272451 0.500000
O O13 0.660281 0.500000 0.328708
O O14 0.258941 0.761763 0.230056
O O15 0.000000 0.801329 0.500000
O O16 0.123970 0.000000 0.419406
O O17 0.646045 0.500000 0.869800
O O18 0.500000 0.282865 0.000000
O O19 0.501838 0.314416 0.118260
O O20 0.683243 0.765606 0.570263
O O21 0.831200 0.000000 0.369712
O O22 0.683053 0.500000 0.605719
#
# Coordination Sequence:
#
# PCOD8060253 Si02
#       8
#     4   4   4   4   4   4   4   4
#     4   9  17  33  55  77 103 138 179 222 265 321
#     4   9  18  33  53  77 106 138 175 221 271 319
#     4  10  20  35  53  77 109 142 179 220 263 318
#     4  10  21  36  55  81 110 141 180 227 274 319
#     4  11  24  38  52  78 114 146 179 222 267 315
#     4  10  19  36  59  81 106 137 176 221 268 319
#     4  10  19  31  51  79 110 141 177 221 265 316
#     4   9  18  33  54  81 110 136 171 223 273 318
#
# _framework density 17.645472000000002
#
# number of rings (size 3 to 8) (size 9 to 14) (size 15 to 20)
#    0.000    2.250    2.500    1.500    0.000    5.250 
#    0.000    1.250    0.000    4.500    0.000    0.000 
#    0.000    0.000    0.000    0.000    0.000    0.000 
#
# Total GULP energy -396830.308660 kJ/mol
# GULP energy per Si atom -12400.947146 kJ/mol
# Density = 1.760531 g / cm^3
# Si number density = 17.645472 Si / 1000 Ang^3
#
#
#
# Elastic Constant Matrix: (Units=GPa)
#
#
# Indices 1 2 3 4 5 6 
#
# 1 105.1203 64.1883 64.3024 0.0000 4.5484 0.0000
# 2 64.1883 91.7171 56.5416 0.0000 2.1518 0.0000
# 3 64.3024 56.5416 122.0439 0.0000 4.9988 0.0000
# 4 0.0000 0.0000 0.0000 24.0585 0.0000 3.7570
# 5 4.5484 2.1518 4.9988 0.0000 26.7801 0.0000
# 6 0.0000 0.0000 0.0000 3.7570 0.0000 34.7284
#
#
#
# Elastic Compliance Matrix: (Units=1/GPa)
#
#
# Indices 1 2 3 4 5 6 
#
# 1 0.018857 -0.009903 -0.005289 0.000000 -0.001420 0.000000
# 2 -0.009903 0.020463 -0.004297 0.000000 0.000840 0.000000
# 3 -0.005289 -0.004297 0.013020 0.000000 -0.001187 0.000000
# 4 0.000000 0.000000 0.000000 0.042280 0.000000 -0.004574
# 5 -0.001420 0.000840 -0.001187 0.000000 0.037736 0.000000
# 6 0.000000 0.000000 0.000000 -0.004574 0.000000 0.029290
#
#
# Mechanical properties :
#
#
# Convention : Reuss Voigt Hill
#
# Bulk Modulus (GPa) = 74.84259 76.54953 75.69606
# Shear Modulus (GPa) = 24.38114 26.03669 25.20892
#
# Velocity S-wave (km/s) = 3.72119 3.84545 3.78383
# Velocity P-wave (km/s) = 7.80831 7.94939 7.87916
#
# Compressibility (1/GPa) = 0.01336138
#
# Stress axis : x y z
#
# Youngs Moduli (GPa) = 53.03204 48.86888 76.80575
#
# Poissons Ratio (x) = 0.48394 0.40623
# Poissons Ratio (y) = 0.52517 0.33004
# Poissons Ratio (z) = 0.28049 0.20999
#
# Static dielectric constant tensor:
#      x y z
#    x 3.123860 0.000000 0.240200 
#    y 0.000000 3.271410 0.000000 
#    z 0.240200 0.000000 3.416970 
# 
# 
# High freq. dielectric constant tensor:
#      x y z
#    x 1.666480 0.000000 0.025290 
#    y 0.000000 1.682410 0.000000 
#    z 0.025290 0.000000 1.680820 
# 
# From -- ./inp_files/86869.got.cif
#   From: 2010.06.25/outbox.cif.g09.slc.cpg/sg10_44_cif.got.tgz:86869.got - 2010.06.27 22:07:45.
