data_PCOD8060813
_publ_section_title
;
Structure prediction by ZEFSAII (Michael W. Deem and Ramdas Pophale) SiO2 
 PCOD8060813
Probable space group: P 2/M
;
_chemical_formula_sum "Si O2"
_cell_formula_units_Z 28
_cell_length_a 15.505430
_cell_length_b 12.595130
_cell_length_c 9.303232
_cell_angle_alpha 90.000000
_cell_angle_beta 61.219322
_cell_angle_gamma 90.000000
_cell_volume 1592.417445
_symmetry_space_group_name_H-M "P 2/M"
_symmetry_group_IT_number 10
_symmetry_cell_setting 'monoclinic'
loop_
_space_group_symop_operation_xyz
x,y,z
-x,y,-z
-x,-y,-z
x,-y,z
loop_
_atom_site_type_symbol
_atom_site_label
_atom_site_fract_x
_atom_site_fract_y
_atom_site_fract_z
Si Si1 0.218595 0.817318 0.742257
Si Si2 0.096111 0.619232 0.506173
Si Si3 0.420225 0.884003 0.681928
Si Si4 0.895116 0.000000 0.007398
Si Si5 0.106423 0.000000 0.340028
Si Si6 0.223617 0.818384 0.404425
Si Si7 0.557826 0.877504 0.808643
Si Si8 0.905474 0.381520 0.161691
O O1 0.332651 0.812134 0.693121
O O2 0.205855 0.851912 0.585388
O O3 0.183356 0.697886 0.798504
O O4 0.161313 0.895815 0.893763
O O5 0.127484 0.500000 0.432545
O O6 0.185662 0.699349 0.404515
O O7 0.065045 0.620289 0.696295
O O8 0.000000 0.659312 0.500000
O O9 0.500000 0.905573 0.500000
O O10 0.479352 0.826002 0.761865
O O11 0.377503 0.000000 0.764999
O O12 0.903446 0.000000 0.826210
O O13 0.000000 0.000000 0.000000
O O14 0.166392 0.102777 0.344150
O O15 0.000000 0.000000 0.500000
O O16 0.339080 0.815865 0.274216
O O17 0.580620 0.000000 0.749470
O O18 0.500000 0.866612 0.000000
O O19 0.873876 0.500000 0.137856
O O20 0.000000 0.340942 0.000000
#
# Coordination Sequence:
#
# PCOD8060813 Si02
#       8
#     4   4   4   2   2   4   4   4
#     4  11  21  35  58  82 111 145 184 226 274 327
#     4   9  19  36  58  82 106 140 187 227 268 327
#     4  10  19  32  53  78 106 145 183 222 265 326
#     4  12  26  38  52  80 114 146 180 222 273 336
#     4  12  26  38  52  78 116 149 176 220 277 337
#     4  11  21  36  58  81 111 148 179 227 279 325
#     4  10  21  34  53  78 111 144 184 226 268 323
#     4   9  19  36  57  81 109 142 181 228 274 322
#
# _framework density 17.583328999999999
#
# number of rings (size 3 to 8) (size 9 to 14) (size 15 to 20)
#    0.000    1.714    2.857    2.143    2.000    3.429 
#    0.000    0.000    0.000    1.714    0.000    0.000 
#    0.000    0.000    0.000    0.000    0.000    0.000 
#
# Total GULP energy -347091.407490 kJ/mol
# GULP energy per Si atom -12396.121696 kJ/mol
# Density = 1.754331 g / cm^3
# Si number density = 17.583329 Si / 1000 Ang^3
#
#
#
# Elastic Constant Matrix: (Units=GPa)
#
#
# Indices 1 2 3 4 5 6 
#
# 1 152.4884 64.2705 51.6522 0.0000 0.9055 0.0000
# 2 64.2705 88.8592 39.4495 0.0000 -5.8309 0.0000
# 3 51.6522 39.4495 84.6402 0.0000 1.4299 0.0000
# 4 0.0000 0.0000 0.0000 19.1820 0.0000 -4.2078
# 5 0.9055 -5.8309 1.4299 0.0000 30.0919 0.0000
# 6 0.0000 0.0000 0.0000 -4.2078 0.0000 27.8148
#
#
#
# Elastic Compliance Matrix: (Units=1/GPa)
#
#
# Indices 1 2 3 4 5 6 
#
# 1 0.010249 -0.005966 -0.003452 0.000000 -0.001300 0.000000
# 2 -0.005966 0.017951 -0.004792 0.000000 0.003886 0.000000
# 3 -0.003452 -0.004792 0.016182 0.000000 -0.001593 0.000000
# 4 0.000000 0.000000 0.000000 0.053922 0.000000 0.008157
# 5 -0.001300 0.003886 -0.001593 0.000000 0.034099 0.000000
# 6 0.000000 0.000000 0.000000 0.008157 0.000000 0.037186
#
#
# Mechanical properties :
#
#
# Convention : Reuss Voigt Hill
#
# Bulk Modulus (GPa) = 62.64612 70.74803 66.69707
# Shear Modulus (GPa) = 24.59062 26.79213 25.69137
#
# Velocity S-wave (km/s) = 3.74373 3.90772 3.82661
# Velocity P-wave (km/s) = 7.37515 7.78997 7.58540
#
# Compressibility (1/GPa) = 0.01596268
#
# Stress axis : x y z
#
# Youngs Moduli (GPa) = 97.56576 55.70680 61.79849
#
# Poissons Ratio (x) = 0.33235 0.21334
# Poissons Ratio (y) = 0.58208 0.29611
# Poissons Ratio (z) = 0.33681 0.26692
#
# Static dielectric constant tensor:
#      x y z
#    x 3.404890 0.000000 0.038690 
#    y 0.000000 3.304890 0.000000 
#    z 0.038690 0.000000 3.355080 
# 
# 
# High freq. dielectric constant tensor:
#      x y z
#    x 1.687770 0.000000 0.006130 
#    y 0.000000 1.656660 0.000000 
#    z 0.006130 0.000000 1.685320 
# 
# From -- ./inp_files/28275.got.cif
#   From: 2010.06.25/outbox.cif.g09.slc.cpg/sg10_15_cif.got.tgz:28275.got - 2010.06.27 22:07:45.
