data_PCOD8060418
_publ_section_title
;
Structure prediction by ZEFSAII (Michael W. Deem and Ramdas Pophale) SiO2 
 PCOD8060418
Probable space group: P 2/M
;
_chemical_formula_sum "Si O2"
_cell_formula_units_Z 28
_cell_length_a 9.171116
_cell_length_b 12.270875
_cell_length_c 20.535814
_cell_angle_alpha 90.000000
_cell_angle_beta 132.058339
_cell_angle_gamma 90.000000
_cell_volume 1715.870591
_symmetry_space_group_name_H-M "P 2/M"
_symmetry_group_IT_number 10
_symmetry_cell_setting 'monoclinic'
loop_
_space_group_symop_operation_xyz
x,y,z
-x,y,-z
-x,-y,-z
x,-y,z
loop_
_atom_site_type_symbol
_atom_site_label
_atom_site_fract_x
_atom_site_fract_y
_atom_site_fract_z
Si Si1 0.217081 0.500000 0.088516
Si Si2 0.269920 0.870476 0.236269
Si Si3 0.938887 0.870476 0.236269
Si Si4 0.691379 0.129473 0.403332
Si Si5 0.561767 0.263690 0.093510
Si Si6 0.981383 0.129473 0.596668
Si Si7 0.548465 0.500000 0.088516
Si Si8 0.781236 0.263690 0.906490
O O1 0.338432 0.500000 0.058954
O O2 0.256300 0.384843 0.137127
O O3 0.000000 0.500000 0.000000
O O4 0.471137 0.825743 0.328892
O O5 0.248194 0.825279 0.157551
O O6 0.090926 0.829334 0.227284
O O7 0.272862 0.000000 0.231892
O O8 0.724460 0.825279 0.157551
O O9 0.015538 0.825743 0.328892
O O10 0.922814 0.000000 0.231892
O O11 0.785795 0.170639 0.500000
O O12 0.825191 0.171783 0.383460
O O13 0.689312 0.000000 0.402404
O O14 0.655081 0.384843 0.137127
O O15 0.372025 0.240172 0.081350
O O16 0.500000 0.253502 0.000000
O O17 0.982101 0.000000 0.597596
O O18 0.500000 0.500000 0.000000
O O19 0.000000 0.253502 0.000000
#
# Coordination Sequence:
#
# PCOD8060418 Si02
#       8
#     2   4   4   4   4   4   2   4
#     4   8  16  30  48  68  85 106 141 186 228 263
#     4  10  20  31  43  64  94 124 153 182 215 260
#     4  10  20  31  43  64  94 124 153 182 215 260
#     4   8  14  26  44  64  86 114 148 184 221 260
#     4  10  19  32  49  67  89 116 148 185 224 265
#     4   8  14  26  44  64  86 114 148 184 221 260
#     4   8  16  30  48  68  85 106 141 186 228 263
#     4  10  19  32  49  67  89 116 148 185 224 265
#
# _framework density 16.318248000000001
#
# number of rings (size 3 to 8) (size 9 to 14) (size 15 to 20)
#    0.000    2.857    0.000    2.571    0.000    4.000 
#    0.000    2.857    0.000    0.000    0.000    1.000 
#    0.000    8.000    0.000    0.000    0.000    0.000 
#
# Total GULP energy -346874.324983 kJ/mol
# GULP energy per Si atom -12388.368749 kJ/mol
# Density = 1.628111 g / cm^3
# Si number density = 16.318248 Si / 1000 Ang^3
#
#
#
# Elastic Constant Matrix: (Units=GPa)
#
#
# Indices 1 2 3 4 5 6 
#
# 1 109.4422 29.5932 60.0858 0.0000 0.0007 0.0000
# 2 29.5932 30.3677 29.1104 0.0000 0.0000 0.0000
# 3 60.0858 29.1104 106.0664 0.0000 -0.0008 0.0000
# 4 0.0000 0.0000 0.0000 0.6568 0.0000 -0.0007
# 5 0.0007 0.0000 -0.0008 0.0000 31.7027 0.0000
# 6 0.0000 0.0000 0.0000 -0.0007 0.0000 16.7251
#
#
#
# Elastic Compliance Matrix: (Units=1/GPa)
#
#
# Indices 1 2 3 4 5 6 
#
# 1 0.014764 -0.008644 -0.005991 0.000000 0.000000 0.000000
# 2 -0.008644 0.049747 -0.008757 0.000000 0.000000 0.000000
# 3 -0.005991 -0.008757 0.015225 0.000000 0.000001 0.000000
# 4 0.000000 0.000000 0.000000 1.522646 0.000000 0.000068
# 5 0.000000 0.000000 0.000001 0.000000 0.031543 0.000000
# 6 0.000000 0.000000 0.000000 0.000068 0.000000 0.059790
#
#
# Mechanical properties :
#
#
# Convention : Reuss Voigt Hill
#
# Bulk Modulus (GPa) = 30.34650 53.71725 42.03188
# Shear Modulus (GPa) = 2.85472 18.28938 10.57205
#
# Velocity S-wave (km/s) = 1.32409 3.35146 2.54808
# Velocity P-wave (km/s) = 4.57981 6.92577 5.87116
#
# Compressibility (1/GPa) = 0.03295273
#
# Stress axis : x y z
#
# Youngs Moduli (GPa) = 67.73260 20.10154 65.68008
#
# Poissons Ratio (x) = 0.17376 0.39350
# Poissons Ratio (y) = 0.58550 0.57513
# Poissons Ratio (z) = 0.40580 0.17602
#
# Static dielectric constant tensor:
#      x y z
#    x 3.291170 0.000000 -0.000010 
#    y 0.000000 3.177710 0.000000 
#    z -0.000010 0.000000 3.114550 
# 
# 
# High freq. dielectric constant tensor:
#      x y z
#    x 1.642350 0.000000 0.000000 
#    y 0.000000 1.592710 0.000000 
#    z 0.000000 0.000000 1.615510 
# 
# From -- ./inp_files/82516.got.cif
#   From: 2010.06.25/outbox.cif.g09.slc.cpg/sg10_42_cif.got.tgz:82516.got - 2010.06.27 22:07:45.
