data_PCOD8060071
_publ_section_title
;
Structure prediction by ZEFSAII (Michael W. Deem and Ramdas Pophale) SiO2 
 PCOD8060071
Probable space group: P 2/M
;
_chemical_formula_sum "Si O2"
_cell_formula_units_Z 32
_cell_length_a 33.492029
_cell_length_b 8.889937
_cell_length_c 12.329860
_cell_angle_alpha 90.000000
_cell_angle_beta 30.589065
_cell_angle_gamma 90.000000
_cell_volume 1868.147756
_symmetry_space_group_name_H-M "P 2/M"
_symmetry_group_IT_number 10
_symmetry_cell_setting 'monoclinic'
loop_
_space_group_symop_operation_xyz
x,y,z
-x,y,-z
-x,-y,-z
x,-y,z
loop_
_atom_site_type_symbol
_atom_site_label
_atom_site_fract_x
_atom_site_fract_y
_atom_site_fract_z
Si Si1 0.415242 0.824015 0.528054
Si Si2 0.416232 0.674707 0.151007
Si Si3 0.000473 0.169809 0.369997
Si Si4 0.311005 0.176810 0.977640
Si Si5 0.688198 0.823290 0.434936
Si Si6 0.842477 0.322725 0.741750
Si Si7 0.158367 0.322785 0.006186
Si Si8 0.578313 0.675199 0.114748
O O1 0.362286 0.778610 0.753600
O O2 0.370008 0.774611 0.525474
O O3 0.494635 0.730926 0.353022
O O4 0.435972 0.000000 0.479292
O O5 0.402267 0.500000 0.210651
O O6 0.349005 0.772846 0.364641
O O7 0.500000 0.728486 0.000000
O O8 0.412614 0.709158 0.032921
O O9 0.923670 0.255429 0.506004
O O10 0.000000 0.174292 0.500000
O O11 0.078364 0.252915 0.145440
O O12 0.999943 0.000000 0.326882
O O13 0.352984 0.234320 0.987330
O O14 0.297665 0.000000 0.015640
O O15 0.227117 0.256106 0.167200
O O16 0.703628 0.000000 0.397340
O O17 0.770591 0.740262 0.230326
O O18 0.845481 0.500000 0.721036
O O19 0.829299 0.275162 0.897576
O O20 0.153344 0.500000 0.004917
O O21 0.586098 0.500000 0.123215
#
# Coordination Sequence:
#
# PCOD8060071 Si02
#       8
#     4   4   4   4   4   4   4   4
#     4  10  21  35  51  73 103 137 171 212 260 309
#     4  10  21  38  55  73  99 132 172 219 268 310
#     4   9  17  29  47  71 103 139 172 207 252 305
#     4  11  22  36  52  73 106 140 174 213 258 309
#     4  11  21  33  53  78 103 134 175 215 258 310
#     4  10  19  31  49  74 104 138 175 209 252 307
#     4  10  19  31  49  74 106 138 171 212 256 305
#     4  11  23  37  54  74  99 133 177 221 261 309
#
# _framework density 17.129266000000001
#
# number of rings (size 3 to 8) (size 9 to 14) (size 15 to 20)
#    0.000    1.750    2.500    2.625    0.000    6.750 
#    0.000    0.000    0.000    0.000    0.000    0.875 
#    0.000    7.000    0.000    0.000    0.000    0.000 
#
# Total GULP energy -396969.785185 kJ/mol
# GULP energy per Si atom -12405.305787 kJ/mol
# Density = 1.709028 g / cm^3
# Si number density = 17.129266 Si / 1000 Ang^3
#
#
#
# Elastic Constant Matrix: (Units=GPa)
#
#
# Indices 1 2 3 4 5 6 
#
# 1 70.4114 33.4331 45.7535 0.0000 -13.6474 0.0000
# 2 33.4331 77.3886 47.2904 0.0000 -12.2552 0.0000
# 3 45.7535 47.2904 110.2973 0.0000 -28.4652 0.0000
# 4 0.0000 0.0000 0.0000 34.8008 0.0000 -5.5031
# 5 -13.6474 -12.2552 -28.4652 0.0000 25.6969 0.0000
# 6 0.0000 0.0000 0.0000 -5.5031 0.0000 26.8606
#
#
#
# Elastic Compliance Matrix: (Units=1/GPa)
#
#
# Indices 1 2 3 4 5 6 
#
# 1 0.020873 -0.005048 -0.005958 0.000000 0.002078 0.000000
# 2 -0.005048 0.018730 -0.006054 0.000000 -0.000454 0.000000
# 3 -0.005958 -0.006054 0.017605 0.000000 0.013450 0.000000
# 4 0.000000 0.000000 0.000000 0.029697 0.000000 0.006084
# 5 0.002078 -0.000454 0.013450 0.000000 0.054701 0.000000
# 6 0.000000 0.000000 0.000000 0.006084 0.000000 0.038476
#
#
# Mechanical properties :
#
#
# Convention : Reuss Voigt Hill
#
# Bulk Modulus (GPa) = 43.31136 56.78349 50.04742
# Shear Modulus (GPa) = 22.53295 26.24636 24.38966
#
# Velocity S-wave (km/s) = 3.63087 3.91865 3.77750
# Velocity P-wave (km/s) = 6.55115 7.32778 6.95032
#
# Compressibility (1/GPa) = 0.02308863
#
# Stress axis : x y z
#
# Youngs Moduli (GPa) = 47.90782 53.39051 56.80325
#
# Poissons Ratio (x) = 0.26950 0.33844
# Poissons Ratio (y) = 0.24182 0.34388
# Poissons Ratio (z) = 0.28544 0.32322
#
# Static dielectric constant tensor:
#      x y z
#    x 3.021680 0.000000 -0.155280 
#    y 0.000000 3.251610 0.000000 
#    z -0.155280 0.000000 3.184300 
# 
# 
# High freq. dielectric constant tensor:
#      x y z
#    x 1.631720 0.000000 -0.018780 
#    y 0.000000 1.674980 0.000000 
#    z -0.018780 0.000000 1.659320 
# 
# From -- ./inp_files/55201.got.cif
#   From: 2010.06.25/outbox.cif.g09.slc.cpg/sg10_28_cif.got.tgz:55201.got - 2010.06.27 22:07:45.
