data_PCOD8060734
_publ_section_title
;
Structure prediction by ZEFSAII (Michael W. Deem and Ramdas Pophale) SiO2 
 PCOD8060734
Probable space group: P 2/M
;
_chemical_formula_sum "Si O2"
_cell_formula_units_Z 28
_cell_length_a 21.704509
_cell_length_b 9.135759
_cell_length_c 14.745517
_cell_angle_alpha 90.000000
_cell_angle_beta 149.043312
_cell_angle_gamma 90.000000
_cell_volume 1503.997417
_symmetry_space_group_name_H-M "P 2/M"
_symmetry_group_IT_number 10
_symmetry_cell_setting 'monoclinic'
loop_
_space_group_symop_operation_xyz
x,y,z
-x,y,-z
-x,-y,-z
x,-y,z
loop_
_atom_site_type_symbol
_atom_site_label
_atom_site_fract_x
_atom_site_fract_y
_atom_site_fract_z
Si Si1 0.802868 0.827730 0.534546
Si Si2 0.022011 0.173411 0.928396
Si Si3 0.878347 0.326832 0.459089
Si Si4 0.709342 0.829354 0.754391
Si Si5 0.854352 0.326747 0.225949
Si Si6 0.631699 0.326018 0.828605
Si Si7 0.397422 0.829617 0.574972
O O1 0.793130 0.750116 0.425022
O O2 0.687581 0.787100 0.448701
O O3 0.921726 0.765144 0.733892
O O4 0.812019 0.000000 0.531264
O O5 0.009442 0.000000 0.919908
O O6 0.152864 0.218349 0.058281
O O7 0.000000 0.241851 0.000000
O O8 0.868354 0.500000 0.458253
O O9 0.832976 0.276126 0.302682
O O10 0.016044 0.272419 0.645700
O O11 0.630038 0.737606 0.724726
O O12 0.670584 0.790576 0.603802
O O13 0.689668 0.000000 0.750110
O O14 0.854219 0.500000 0.223889
O O15 0.748808 0.265238 0.029100
O O16 0.628110 0.500000 0.820454
O O17 0.515942 0.267175 0.735263
O O18 0.431928 0.000000 0.620714
#
# Coordination Sequence:
#
# PCOD8060734 Si02
#       7
#     4   4   4   4   4   4   4
#     4  10  19  32  52  79 107 132 165 210 254 295
#     4   9  15  28  51  76 100 130 166 201 241 295
#     4   9  17  34  59  79  99 130 165 203 255 314
#     4  10  19  33  54  76 100 135 174 207 247 302
#     4   8  17  35  56  77 101 131 166 205 253 308
#     4  11  22  35  52  74 101 132 172 217 253 289
#     4  10  21  36  51  70 103 143 175 202 242 302
#
# _framework density 18.617052000000001
#
# number of rings (size 3 to 8) (size 9 to 14) (size 15 to 20)
#    0.000    2.429    1.429    2.571    0.000    2.857 
#    0.000    4.286    0.000    5.143    0.000    0.000 
#    0.000    0.000    0.000    0.000    0.000    0.000 
#
# Total GULP energy -347198.506115 kJ/mol
# GULP energy per Si atom -12399.946647 kJ/mol
# Density = 1.857468 g / cm^3
# Si number density = 18.617052 Si / 1000 Ang^3
#
#
#
# Elastic Constant Matrix: (Units=GPa)
#
#
# Indices 1 2 3 4 5 6 
#
# 1 146.8659 44.8557 40.5021 0.0000 -0.5692 0.0000
# 2 44.8557 41.6284 30.4546 0.0000 2.9309 0.0000
# 3 40.5021 30.4546 65.6188 0.0000 5.5851 0.0000
# 4 0.0000 0.0000 0.0000 19.6042 0.0000 -4.8216
# 5 -0.5692 2.9309 5.5851 0.0000 25.5476 0.0000
# 6 0.0000 0.0000 0.0000 -4.8216 0.0000 22.0270
#
#
#
# Elastic Compliance Matrix: (Units=1/GPa)
#
#
# Indices 1 2 3 4 5 6 
#
# 1 0.010371 -0.009852 -0.001982 0.000000 0.001795 0.000000
# 2 -0.009852 0.045736 -0.014959 0.000000 -0.002196 0.000000
# 3 -0.001982 -0.014959 0.023704 0.000000 -0.003510 0.000000
# 4 0.000000 0.000000 0.000000 0.053912 0.000000 0.011801
# 5 0.001795 -0.002196 -0.003510 0.000000 0.040202 0.000000
# 6 0.000000 0.000000 0.000000 0.011801 0.000000 0.047982
#
#
# Mechanical properties :
#
#
# Convention : Reuss Voigt Hill
#
# Bulk Modulus (GPa) = 38.12967 53.97087 46.05027
# Shear Modulus (GPa) = 17.59106 22.65579 20.12342
#
# Velocity S-wave (km/s) = 3.07724 3.49225 3.29129
# Velocity P-wave (km/s) = 5.75772 6.73157 6.26360
#
# Compressibility (1/GPa) = 0.02622630
#
# Stress axis : x y z
#
# Youngs Moduli (GPa) = 96.41894 21.86460 42.18654
#
# Poissons Ratio (x) = 0.21541 0.08361
# Poissons Ratio (y) = 0.94991 0.63106
# Poissons Ratio (z) = 0.19110 0.32707
#
# Static dielectric constant tensor:
#      x y z
#    x 3.447460 0.000000 0.003290 
#    y 0.000000 2.998390 0.000000 
#    z 0.003290 0.000000 3.626960 
# 
# 
# High freq. dielectric constant tensor:
#      x y z
#    x 1.731120 0.000000 0.001980 
#    y 0.000000 1.686580 0.000000 
#    z 0.001980 0.000000 1.717660 
# 
# From -- ./inp_files/46130.got.cif
#   From: 2010.06.25/outbox.cif.g09.slc.cpg/sg10_24_cif.got.tgz:46130.got - 2010.06.27 22:07:45.
