data_PCOD8060377
_publ_section_title
;
Structure prediction by ZEFSAII (Michael W. Deem and Ramdas Pophale) SiO2 
 PCOD8060377
Probable space group: P 2/M
;
_chemical_formula_sum "Si O2"
_cell_formula_units_Z 32
_cell_length_a 20.469008
_cell_length_b 14.190798
_cell_length_c 23.847404
_cell_angle_alpha 90.000000
_cell_angle_beta 16.305953
_cell_angle_gamma 90.000000
_cell_volume 1944.866984
_symmetry_space_group_name_H-M "P 2/M"
_symmetry_group_IT_number 10
_symmetry_cell_setting 'monoclinic'
loop_
_space_group_symop_operation_xyz
x,y,z
-x,y,-z
-x,-y,-z
x,-y,z
loop_
_atom_site_type_symbol
_atom_site_label
_atom_site_fract_x
_atom_site_fract_y
_atom_site_fract_z
Si Si1 0.620344 0.896072 0.320722
Si Si2 0.535679 0.295314 0.586873
Si Si3 0.794024 0.612297 0.706897
Si Si4 0.973587 0.612655 0.792688
Si Si5 0.989715 0.896899 0.917929
Si Si6 0.716676 0.388349 0.893765
Si Si7 0.152389 0.293441 0.997424
Si Si8 0.191456 0.604792 0.794281
O O1 0.437348 0.813884 0.455357
O O2 0.743277 0.880815 0.280477
O O3 0.499775 0.000000 0.417878
O O4 0.826871 0.890286 0.106029
O O5 0.779474 0.337876 0.403683
O O6 0.430751 0.352089 0.620588
O O7 0.370135 0.307585 0.777304
O O8 0.799852 0.500000 0.699637
O O9 0.828639 0.645810 0.742749
O O10 0.000000 0.656680 0.500000
O O11 0.548651 0.649293 0.884369
O O12 0.996049 0.500000 0.777327
O O13 0.868350 0.648914 0.820617
O O14 0.799102 0.651015 0.984732
O O15 0.905410 0.816954 0.943817
O O16 0.968644 0.000000 0.906626
O O17 0.710522 0.500000 0.900708
O O18 0.910130 0.334308 0.172695
O O19 0.242915 0.500000 0.729860
O O20 0.000000 0.604337 0.000000
#
# Coordination Sequence:
#
# PCOD8060377 Si02
#       8
#     4   4   4   4   4   4   4   4
#     4   8  13  25  47  68  82 102 139 192 250 293
#     4  10  19  32  46  61  84 115 151 194 237 273
#     4   8  13  25  48  69  83 106 139 175 215 252
#     4  11  23  33  42  61  91 126 158 184 214 259
#     4   8  13  25  47  68  82 102 139 192 250 293
#     4   8  16  29  41  61  90 112 141 182 211 244
#     4  10  19  32  46  61  84 115 151 194 237 273
#     4   9  16  27  42  56  74 108 155 197 224 250
#
# _framework density 16.453568000000001
#
# number of rings (size 3 to 8) (size 9 to 14) (size 15 to 20)
#    0.000    3.000    1.250    2.250    0.000    3.000 
#    0.000    4.375    0.000    1.500    0.000    0.000 
#    0.000    0.000    0.000    9.000    0.000   54.500 
#
# Total GULP energy -396550.349301 kJ/mol
# GULP energy per Si atom -12392.198416 kJ/mol
# Density = 1.641612 g / cm^3
# Si number density = 16.453568 Si / 1000 Ang^3
#
#
#
# Elastic Constant Matrix: (Units=GPa)
#
#
# Indices 1 2 3 4 5 6 
#
# 1 98.6902 34.0843 27.6779 0.0000 -5.8614 0.0000
# 2 34.0843 98.3016 14.8130 0.0000 -4.2271 0.0000
# 3 27.6779 14.8130 47.4195 0.0000 0.1347 0.0000
# 4 0.0000 0.0000 0.0000 10.8927 0.0000 2.1836
# 5 -5.8614 -4.2271 0.1347 0.0000 16.3591 0.0000
# 6 0.0000 0.0000 0.0000 2.1836 0.0000 6.0813
#
#
#
# Elastic Compliance Matrix: (Units=1/GPa)
#
#
# Indices 1 2 3 4 5 6 
#
# 1 0.013475 -0.003478 -0.006790 0.000000 0.003985 0.000000
# 2 -0.003478 0.011701 -0.001631 0.000000 0.001791 0.000000
# 3 -0.006790 -0.001631 0.025570 0.000000 -0.003065 0.000000
# 4 0.000000 0.000000 0.000000 0.098925 0.000000 -0.035520
# 5 0.003985 0.001791 -0.003065 0.000000 0.063044 0.000000
# 6 0.000000 0.000000 0.000000 -0.035520 0.000000 0.177191
#
#
# Mechanical properties :
#
#
# Convention : Reuss Voigt Hill
#
# Bulk Modulus (GPa) = 37.10651 44.17352 40.64001
# Shear Modulus (GPa) = 11.82914 17.85569 14.84241
#
# Velocity S-wave (km/s) = 2.68422 3.29784 3.00672
# Velocity P-wave (km/s) = 5.67520 6.43480 6.06690
#
# Compressibility (1/GPa) = 0.02694945
#
# Stress axis : x y z
#
# Youngs Moduli (GPa) = 74.21314 85.46069 39.10894
#
# Poissons Ratio (x) = 0.29720 0.26555
# Poissons Ratio (y) = 0.25808 0.06377
# Poissons Ratio (z) = 0.50390 0.13935
#
# Static dielectric constant tensor:
#      x y z
#    x 3.128020 0.000000 0.139800 
#    y 0.000000 3.172200 0.000000 
#    z 0.139800 0.000000 3.117600 
# 
# 
# High freq. dielectric constant tensor:
#      x y z
#    x 1.598940 0.000000 0.019180 
#    y 0.000000 1.608600 0.000000 
#    z 0.019180 0.000000 1.637000 
# 
# From -- ./inp_files/79746.got.cif
#   From: 2010.06.25/outbox.cif.g09.slc.cpg/sg10_40_cif.got.tgz:79746.got - 2010.06.27 22:07:45.
