data_PCOD8060379
_publ_section_title
;
Structure prediction by ZEFSAII (Michael W. Deem and Ramdas Pophale) SiO2 
 PCOD8060379
Probable space group: P 2/M
;
_chemical_formula_sum "Si O2"
_cell_formula_units_Z 26
_cell_length_a 17.730553
_cell_length_b 20.026162
_cell_length_c 17.067294
_cell_angle_alpha 90.000000
_cell_angle_beta 163.174113
_cell_angle_gamma 90.000000
_cell_volume 1754.202319
_symmetry_space_group_name_H-M "P 2/M"
_symmetry_group_IT_number 10
_symmetry_cell_setting 'monoclinic'
loop_
_space_group_symop_operation_xyz
x,y,z
-x,y,-z
-x,-y,-z
x,-y,z
loop_
_atom_site_type_symbol
_atom_site_label
_atom_site_fract_x
_atom_site_fract_y
_atom_site_fract_z
Si Si1 0.592256 0.629852 0.239607
Si Si2 0.533104 0.420825 0.351011
Si Si3 0.740809 0.500000 0.294954
Si Si4 0.974783 0.420870 0.062148
Si Si5 0.477028 0.924322 0.883953
Si Si6 0.074997 0.699718 0.664107
Si Si7 0.026044 0.146769 0.617285
O O1 0.501704 0.615510 0.237278
O O2 0.721237 0.564569 0.329631
O O3 0.832263 0.681126 0.478184
O O4 0.340350 0.658692 0.943892
O O5 0.532562 0.500000 0.336754
O O6 0.295569 0.397628 0.169281
O O7 0.792835 0.395123 0.651836
O O8 0.000000 0.500000 0.500000
O O9 0.500000 0.500000 0.000000
O O10 0.990261 0.500000 0.071627
O O11 0.000000 0.390107 0.000000
O O12 0.252337 0.876121 0.624504
O O13 0.421172 0.000000 0.801987
O O14 0.500000 0.918364 0.000000
O O15 0.751643 0.899132 0.122245
O O16 0.000000 0.684718 0.500000
O O17 0.114897 0.777549 0.720604
O O18 0.000000 0.132159 0.500000
#
# Coordination Sequence:
#
# PCOD8060379 Si02
#       7
#     4   4   2   4   4   4   4
#     4  12  22  35  47  62  79 107 140 185 230 263
#     4  10  19  32  46  64  86 104 127 166 216 260
#     4  12  24  36  48  60  75 100 141 190 234 270
#     4   9  17  29  48  68  86 104 122 146 195 268
#     4   9  15  24  40  60  80  98 121 156 208 261
#     4  11  22  34  47  58  79 109 149 185 221 263
#     4   9  17  28  40  57  77 102 130 167 209 252
#
# _framework density 14.821552000000001
#
# number of rings (size 3 to 8) (size 9 to 14) (size 15 to 20)
#    0.000    1.846    0.769    5.538    0.000    6.154 
#    0.000    0.000    0.000    0.000    0.000    0.000 
#    0.000    0.000    0.000    0.000    0.000    0.000 
#
# Total GULP energy -322306.226784 kJ/mol
# GULP energy per Si atom -12396.393338 kJ/mol
# Density = 1.478782 g / cm^3
# Si number density = 14.821552 Si / 1000 Ang^3
#
#
#
# Elastic Constant Matrix: (Units=GPa)
#
#
# Indices 1 2 3 4 5 6 
#
# 1 61.7722 20.4697 22.2393 0.0000 4.2192 0.0000
# 2 20.4697 56.9557 38.8017 0.0000 1.9208 0.0000
# 3 22.2393 38.8017 108.7420 0.0000 14.6670 0.0000
# 4 0.0000 0.0000 0.0000 19.5687 0.0000 6.5880
# 5 4.2192 1.9208 14.6670 0.0000 21.0380 0.0000
# 6 0.0000 0.0000 0.0000 6.5880 0.0000 5.1961
#
#
#
# Elastic Compliance Matrix: (Units=1/GPa)
#
#
# Indices 1 2 3 4 5 6 
#
# 1 0.018752 -0.005619 -0.001536 0.000000 -0.002177 0.000000
# 2 -0.005619 0.025194 -0.008480 0.000000 0.004739 0.000000
# 3 -0.001536 -0.008480 0.013676 0.000000 -0.008452 0.000000
# 4 0.000000 0.000000 0.000000 0.089159 0.000000 -0.113041
# 5 -0.002177 0.004739 -0.008452 0.000000 0.053430 0.000000
# 6 0.000000 0.000000 0.000000 -0.113041 0.000000 0.335773
#
#
# Mechanical properties :
#
#
# Convention : Reuss Voigt Hill
#
# Bulk Modulus (GPa) = 37.94846 43.38791 40.66819
# Shear Modulus (GPa) = 8.67996 18.89117 13.78557
#
# Velocity S-wave (km/s) = 2.42261 3.57399 3.05307
# Velocity P-wave (km/s) = 5.78658 6.80943 6.31873
#
# Compressibility (1/GPa) = 0.02635153
#
# Stress axis : x y z
#
# Youngs Moduli (GPa) = 53.32633 39.69159 73.12025
#
# Poissons Ratio (x) = 0.22305 0.11234
# Poissons Ratio (y) = 0.29967 0.62004
# Poissons Ratio (z) = 0.08193 0.33658
#
# Static dielectric constant tensor:
#      x y z
#    x 2.651480 0.000000 0.154040 
#    y 0.000000 2.688420 0.000000 
#    z 0.154040 0.000000 3.131740 
# 
# 
# High freq. dielectric constant tensor:
#      x y z
#    x 1.523020 0.000000 0.020840 
#    y 0.000000 1.541230 0.000000 
#    z 0.020840 0.000000 1.590820 
# 
# From -- ./inp_files/9506.got.cif
#   From: 2010.06.25/outbox.cif.g09.slc.cpg/sg10_5_cif.got.tgz:9506.got - 2010.06.27 22:07:45.
