data_PCOD8060022
_publ_section_title
;
Structure prediction by ZEFSAII (Michael W. Deem and Ramdas Pophale) SiO2 
 PCOD8060022
Probable space group: P 2/M
;
_chemical_formula_sum "Si O2"
_cell_formula_units_Z 32
_cell_length_a 13.522042
_cell_length_b 9.730384
_cell_length_c 20.564151
_cell_angle_alpha 90.000000
_cell_angle_beta 137.861900
_cell_angle_gamma 90.000000
_cell_volume 1815.322095
_symmetry_space_group_name_H-M "P 2/M"
_symmetry_group_IT_number 10
_symmetry_cell_setting 'monoclinic'
loop_
_space_group_symop_operation_xyz
x,y,z
-x,y,-z
-x,-y,-z
x,-y,z
loop_
_atom_site_type_symbol
_atom_site_label
_atom_site_fract_x
_atom_site_fract_y
_atom_site_fract_z
Si Si1 0.292654 0.841232 0.524878
Si Si2 0.863851 0.663818 0.169231
Si Si3 0.643662 0.336938 0.950446
Si Si4 0.645732 0.347066 0.808524
Si Si5 0.146636 0.841191 0.318776
Si Si6 0.367750 0.842846 0.312639
Si Si7 0.294889 0.346905 0.641641
Si Si8 0.683914 0.336902 0.205438
O O1 0.196843 0.802353 0.415659
O O2 0.462176 0.804176 0.592280
O O3 0.230463 0.753868 0.555294
O O4 0.276082 0.000000 0.535321
O O5 0.888824 0.500000 0.179920
O O6 0.792126 0.715130 0.201818
O O7 0.016897 0.740856 0.234064
O O8 0.758244 0.715680 0.059840
O O9 0.632196 0.500000 0.947443
O O10 0.699521 0.293008 0.905551
O O11 0.480676 0.275354 0.885737
O O12 0.707709 0.500000 0.824753
O O13 0.703208 0.246955 0.780001
O O14 0.470197 0.350447 0.724278
O O15 0.283635 0.812780 0.338277
O O16 0.096158 0.000000 0.289966
O O17 0.351346 0.000000 0.282863
O O18 0.231313 0.500000 0.598159
O O19 0.250469 0.292649 0.692099
O O20 0.671493 0.500000 0.197171
#
# Coordination Sequence:
#
# PCOD8060022 Si02
#       8
#     4   4   4   4   4   4   4   4
#     4   9  17  31  51  70  87 115 156 193 226 272
#     4  10  19  31  49  71  93 122 160 192 218 262
#     4   8  14  27  49  74  96 119 150 188 227 266
#     4   8  14  26  46  72  97 116 140 184 236 273
#     4  10  21  35  47  63  93 126 152 188 236 274
#     4   9  17  31  51  70  87 115 156 193 226 272
#     4   8  14  26  46  72  97 116 140 184 236 273
#     4   8  14  27  49  74  96 119 150 188 227 266
#
# _framework density 17.627725000000002
#
# number of rings (size 3 to 8) (size 9 to 14) (size 15 to 20)
#    0.000    3.250    0.000    2.250    0.000    4.000 
#    0.000    2.500    0.000   14.250    0.000    0.000 
#    0.000    0.000    0.000    0.000    0.000    0.000 
#
# Total GULP energy -396649.148116 kJ/mol
# GULP energy per Si atom -12395.285879 kJ/mol
# Density = 1.758760 g / cm^3
# Si number density = 17.627725 Si / 1000 Ang^3
#
#
#
# Elastic Constant Matrix: (Units=GPa)
#
#
# Indices 1 2 3 4 5 6 
#
# 1 34.2953 21.3173 30.3350 0.0000 -15.0805 0.0000
# 2 21.3173 43.5673 26.4537 0.0000 -8.3679 0.0000
# 3 30.3350 26.4537 56.0285 0.0000 -16.6487 0.0000
# 4 0.0000 0.0000 0.0000 19.3835 0.0000 4.3561
# 5 -15.0805 -8.3679 -16.6487 0.0000 29.4325 0.0000
# 6 0.0000 0.0000 0.0000 4.3561 0.0000 9.9680
#
#
#
# Elastic Compliance Matrix: (Units=1/GPa)
#
#
# Indices 1 2 3 4 5 6 
#
# 1 0.067343 -0.014890 -0.024564 0.000000 0.016376 0.000000
# 2 -0.014890 0.035481 -0.009568 0.000000 -0.002954 0.000000
# 3 -0.024564 -0.009568 0.037404 0.000000 0.005851 0.000000
# 4 0.000000 0.000000 0.000000 0.057209 0.000000 -0.025000
# 5 0.016376 -0.002954 0.005851 0.000000 0.044837 0.000000
# 6 0.000000 0.000000 0.000000 -0.025000 0.000000 0.111246
#
#
# Mechanical properties :
#
#
# Convention : Reuss Voigt Hill
#
# Bulk Modulus (GPa) = 23.70641 32.23367 27.97004
# Shear Modulus (GPa) = 10.73825 15.47581 13.10703
#
# Velocity S-wave (km/s) = 2.47081 2.96619 2.72976
# Velocity P-wave (km/s) = 4.64946 5.48239 5.08301
#
# Compressibility (1/GPa) = 0.04218268
#
# Stress axis : x y z
#
# Youngs Moduli (GPa) = 14.84943 28.18411 26.73498
#
# Poissons Ratio (x) = 0.41966 0.65673
# Poissons Ratio (y) = 0.22110 0.25581
# Poissons Ratio (z) = 0.36477 0.26968
#
# Static dielectric constant tensor:
#      x y z
#    x 3.343370 0.000000 -0.344720 
#    y 0.000000 3.093370 0.000000 
#    z -0.344720 0.000000 3.384320 
# 
# 
# High freq. dielectric constant tensor:
#      x y z
#    x 1.673850 0.000000 -0.023690 
#    y 0.000000 1.649140 0.000000 
#    z -0.023690 0.000000 1.674930 
# 
# From -- ./inp_files/57690.got.cif
#   From: 2010.06.25/outbox.cif.g09.slc.cpg/sg10_29_cif.got.tgz:57690.got - 2010.06.27 22:07:45.
