data_PCOD8060669
_publ_section_title
;
Structure prediction by ZEFSAII (Michael W. Deem and Ramdas Pophale) SiO2 
 PCOD8060669
Probable space group: P 2/M
;
_chemical_formula_sum "Si O2"
_cell_formula_units_Z 28
_cell_length_a 30.602935
_cell_length_b 9.109459
_cell_length_c 9.983167
_cell_angle_alpha 90.000000
_cell_angle_beta 34.673692
_cell_angle_gamma 90.000000
_cell_volume 1583.293529
_symmetry_space_group_name_H-M "P 2/M"
_symmetry_group_IT_number 10
_symmetry_cell_setting 'monoclinic'
loop_
_space_group_symop_operation_xyz
x,y,z
-x,y,-z
-x,-y,-z
x,-y,z
loop_
_atom_site_type_symbol
_atom_site_label
_atom_site_fract_x
_atom_site_fract_y
_atom_site_fract_z
Si Si1 0.353637 0.829567 0.706950
Si Si2 0.495813 0.334770 0.669361
Si Si3 0.945974 0.670059 0.018324
Si Si4 0.231641 0.328442 0.522335
Si Si5 0.055353 0.171973 0.245753
Si Si6 0.230326 0.171091 0.797400
Si Si7 0.656569 0.172872 0.957818
O O1 0.426902 0.739114 0.469043
O O2 0.282172 0.786748 0.793754
O O3 0.332235 0.789610 0.913610
O O4 0.375152 0.000000 0.641610
O O5 0.500000 0.335141 0.500000
O O6 0.488671 0.500000 0.744155
O O7 0.422544 0.240314 0.899966
O O8 0.960180 0.500000 0.954565
O O9 0.857920 0.702105 0.276798
O O10 0.972166 0.755961 0.821596
O O11 0.000000 0.728915 0.000000
O O12 0.251860 0.500000 0.468757
O O13 0.257666 0.263272 0.599808
O O14 0.273668 0.246543 0.295954
O O15 0.000000 0.235526 0.500000
O O16 0.044124 0.000000 0.258495
O O17 0.143435 0.213025 0.056869
O O18 0.237446 0.000000 0.742643
O O19 0.655685 0.000000 0.933581
#
# Coordination Sequence:
#
# PCOD8060669 Si02
#       7
#     4   4   4   4   4   4   4
#     4   9  18  32  51  74  99 129 165 203 244 293
#     4   9  17  30  49  73 101 130 161 201 246 288
#     4   9  19  35  52  71  98 132 167 203 245 292
#     4  10  20  34  51  72 100 132 166 204 245 290
#     4   9  18  32  51  75 101 129 163 204 247 291
#     4   9  18  34  52  71 100 134 164 199 247 297
#     4  10  19  32  52  76 101 130 164 201 244 294
#
# _framework density 17.684656
#
# number of rings (size 3 to 8) (size 9 to 14) (size 15 to 20)
#    0.000    2.714    0.000    1.286    0.000    5.143 
#    0.000    2.143    0.000    4.286    0.000    0.000 
#    0.000    0.000    0.000    0.000    0.000    0.000 
#
# Total GULP energy -347243.078995 kJ/mol
# GULP energy per Si atom -12401.538536 kJ/mol
# Density = 1.764440 g / cm^3
# Si number density = 17.684656 Si / 1000 Ang^3
#
#
#
# Elastic Constant Matrix: (Units=GPa)
#
#
# Indices 1 2 3 4 5 6 
#
# 1 134.8056 51.7116 62.7404 0.0000 -2.3605 0.0000
# 2 51.7116 80.9467 54.5991 0.0000 1.9190 0.0000
# 3 62.7404 54.5991 108.8420 0.0000 3.9052 0.0000
# 4 0.0000 0.0000 0.0000 21.6691 0.0000 -1.7445
# 5 -2.3605 1.9190 3.9052 0.0000 15.2708 0.0000
# 6 0.0000 0.0000 0.0000 -1.7445 0.0000 26.2826
#
#
#
# Elastic Compliance Matrix: (Units=1/GPa)
#
#
# Indices 1 2 3 4 5 6 
#
# 1 0.011161 -0.004215 -0.004441 0.000000 0.003391 0.000000
# 2 -0.004215 0.020263 -0.007691 0.000000 -0.001231 0.000000
# 3 -0.004441 -0.007691 0.015740 0.000000 -0.003745 0.000000
# 4 0.000000 0.000000 0.000000 0.046397 0.000000 0.003080
# 5 0.003391 -0.001231 -0.003745 0.000000 0.067121 0.000000
# 6 0.000000 0.000000 0.000000 0.003080 0.000000 0.038252
#
#
# Mechanical properties :
#
#
# Convention : Reuss Voigt Hill
#
# Bulk Modulus (GPa) = 69.10566 73.63297 71.36932
# Shear Modulus (GPa) = 21.14591 23.01402 22.07997
#
# Velocity S-wave (km/s) = 3.46167 3.61134 3.53730
# Velocity P-wave (km/s) = 7.42556 7.68870 7.55828
#
# Compressibility (1/GPa) = 0.01447059
#
# Stress axis : x y z
#
# Youngs Moduli (GPa) = 89.59545 49.35019 63.53258
#
# Poissons Ratio (x) = 0.20802 0.28214
# Poissons Ratio (y) = 0.37766 0.48862
# Poissons Ratio (z) = 0.39789 0.37955
#
# Static dielectric constant tensor:
#      x y z
#    x 3.274890 0.000000 -0.097090 
#    y 0.000000 3.343840 0.000000 
#    z -0.097090 0.000000 3.280170 
# 
# 
# High freq. dielectric constant tensor:
#      x y z
#    x 1.676320 0.000000 -0.009470 
#    y 0.000000 1.688510 0.000000 
#    z -0.009470 0.000000 1.679510 
# 
# From -- ./inp_files/36988.got.cif
#   From: 2010.06.25/outbox.cif.g09.slc.cpg/sg10_19_cif.got.tgz:36988.got - 2010.06.27 22:07:45.
