data_PCOD8060577
_publ_section_title
;
Structure prediction by ZEFSAII (Michael W. Deem and Ramdas Pophale) SiO2 
 PCOD8060577
Probable space group: P 2/M
;
_chemical_formula_sum "Si O2"
_cell_formula_units_Z 28
_cell_length_a 8.957782
_cell_length_b 9.258003
_cell_length_c 28.663255
_cell_angle_alpha 90.000000
_cell_angle_beta 39.779335
_cell_angle_gamma 90.000000
_cell_volume 1520.931484
_symmetry_space_group_name_H-M "P 2/M"
_symmetry_group_IT_number 10
_symmetry_cell_setting 'monoclinic'
loop_
_space_group_symop_operation_xyz
x,y,z
-x,y,-z
-x,-y,-z
x,-y,z
loop_
_atom_site_type_symbol
_atom_site_label
_atom_site_fract_x
_atom_site_fract_y
_atom_site_fract_z
Si Si1 0.271458 0.831784 0.927581
Si Si2 0.435150 0.333973 0.069036
Si Si3 0.096928 0.668464 0.791990
Si Si4 0.222364 0.837583 0.341349
Si Si5 0.434763 0.838434 0.653085
Si Si6 0.422835 0.670512 0.798849
Si Si7 0.158969 0.171709 0.501944
O O1 0.400435 0.771846 0.941892
O O2 0.358392 0.744570 0.862338
O O3 0.328865 0.000000 0.907216
O O4 0.000000 0.804050 0.000000
O O5 0.470950 0.500000 0.076410
O O6 0.169905 0.283318 0.140342
O O7 0.500000 0.315487 0.000000
O O8 0.123198 0.500000 0.778356
O O9 0.211853 0.741080 0.718823
O O10 0.227168 0.715660 0.808165
O O11 0.379863 0.835015 0.349625
O O12 0.324143 0.728260 0.278464
O O13 0.957508 0.787365 0.419875
O O14 0.218517 0.000000 0.321375
O O15 0.570909 0.781302 0.573307
O O16 0.339846 0.000000 0.668008
O O17 0.437824 0.500000 0.802719
O O18 0.000000 0.243687 0.500000
O O19 0.150489 0.000000 0.498776
#
# Coordination Sequence:
#
# PCOD8060577 Si02
#       7
#     4   4   4   4   4   4   4
#     4  11  24  39  55  77 102 127 160 203 247 290
#     4  10  21  38  58  77  99 130 165 199 241 295
#     4   9  18  31  48  73 102 131 165 204 245 290
#     4   8  13  23  40  63  94 129 165 206 245 281
#     4   8  13  22  39  63  92 129 168 202 241 288
#     4  10  19  32  51  74 102 135 168 201 242 294
#     4   7  10  18  34  58  89 126 165 201 239 284
#
# _framework density 18.409770000000002
#
# number of rings (size 3 to 8) (size 9 to 14) (size 15 to 20)
#    0.000    3.000    0.000    3.429    0.000    3.714 
#    0.000    0.714    0.000    4.286    0.000    1.000 
#    0.000    8.000    0.000    0.000    0.000    0.000 
#
# Total GULP energy -346939.339008 kJ/mol
# GULP energy per Si atom -12390.690679 kJ/mol
# Density = 1.836787 g / cm^3
# Si number density = 18.409770 Si / 1000 Ang^3
#
#
#
# Elastic Constant Matrix: (Units=GPa)
#
#
# Indices 1 2 3 4 5 6 
#
# 1 48.0062 31.6023 39.3339 0.0000 -1.9362 0.0000
# 2 31.6023 66.0497 61.2442 0.0000 3.8321 0.0000
# 3 39.3339 61.2442 170.8351 0.0000 -4.5586 0.0000
# 4 0.0000 0.0000 0.0000 26.9480 0.0000 2.6911
# 5 -1.9362 3.8321 -4.5586 0.0000 18.2882 0.0000
# 6 0.0000 0.0000 0.0000 2.6911 0.0000 17.1614
#
#
#
# Elastic Compliance Matrix: (Units=1/GPa)
#
#
# Indices 1 2 3 4 5 6 
#
# 1 0.031777 -0.013301 -0.002400 0.000000 0.005553 0.000000
# 2 -0.013301 0.029125 -0.007630 0.000000 -0.009413 0.000000
# 3 -0.002400 -0.007630 0.009239 0.000000 0.003648 0.000000
# 4 0.000000 0.000000 0.000000 0.037699 0.000000 -0.005912
# 5 0.005553 -0.009413 0.003648 0.000000 0.058150 0.000000
# 6 0.000000 0.000000 0.000000 -0.005912 0.000000 0.059197
#
#
# Mechanical properties :
#
#
# Convention : Reuss Voigt Hill
#
# Bulk Modulus (GPa) = 42.59101 61.02799 51.80950
# Shear Modulus (GPa) = 17.87791 22.66024 20.26908
#
# Velocity S-wave (km/s) = 3.11964 3.51220 3.32173
# Velocity P-wave (km/s) = 6.01344 7.04763 6.55098
#
# Compressibility (1/GPa) = 0.02347913
#
# Stress axis : x y z
#
# Youngs Moduli (GPa) = 31.46940 34.33463 108.23852
#
# Poissons Ratio (x) = 0.45668 0.25976
# Poissons Ratio (y) = 0.41857 0.82586
# Poissons Ratio (z) = 0.07552 0.26197
#
# Static dielectric constant tensor:
#      x y z
#    x 2.956320 0.000000 -0.090350 
#    y 0.000000 3.284320 0.000000 
#    z -0.090350 0.000000 3.993600 
# 
# 
# High freq. dielectric constant tensor:
#      x y z
#    x 1.659110 0.000000 -0.000550 
#    y 0.000000 1.694920 0.000000 
#    z -0.000550 0.000000 1.743820 
# 
# From -- ./inp_files/94508.got.cif
#   From: 2010.06.25/outbox.cif.g09.slc.cpg/sg10_48_cif.got.tgz:94508.got - 2010.06.27 22:07:45.
