data_PCOD8060046
_publ_section_title
;
Structure prediction by ZEFSAII (Michael W. Deem and Ramdas Pophale) SiO2 
 PCOD8060046
Probable space group: P 2/M
;
_chemical_formula_sum "Si O2"
_cell_formula_units_Z 32
_cell_length_a 19.736894
_cell_length_b 9.272506
_cell_length_c 19.996211
_cell_angle_alpha 90.000000
_cell_angle_beta 149.519733
_cell_angle_gamma 90.000000
_cell_volume 1856.258655
_symmetry_space_group_name_H-M "P 2/M"
_symmetry_group_IT_number 10
_symmetry_cell_setting 'monoclinic'
loop_
_space_group_symop_operation_xyz
x,y,z
-x,y,-z
-x,-y,-z
x,-y,z
loop_
_atom_site_type_symbol
_atom_site_label
_atom_site_fract_x
_atom_site_fract_y
_atom_site_fract_z
Si Si1 0.339678 0.333919 0.170844
Si Si2 0.587197 0.667770 0.910835
Si Si3 0.680027 0.829873 0.345401
Si Si4 0.150831 0.329425 0.612614
Si Si5 0.150059 0.330918 0.124210
Si Si6 0.644034 0.668846 0.103620
Si Si7 0.650216 0.833489 0.611177
Si Si8 0.402057 0.835423 0.580206
O O1 0.375618 0.500000 0.209702
O O2 0.323512 0.294473 0.078443
O O3 0.204936 0.295603 0.096379
O O4 0.461583 0.251962 0.308142
O O5 0.542639 0.500000 0.873140
O O6 0.454935 0.764198 0.800178
O O7 0.674168 0.702861 0.051065
O O8 0.805862 0.752615 0.418041
O O9 0.686462 0.793702 0.430306
O O10 0.683858 0.000000 0.334679
O O11 0.166253 0.500000 0.614416
O O12 0.239894 0.268907 0.750224
O O13 0.000000 0.286207 0.500000
O O14 0.151431 0.500000 0.140758
O O15 0.241084 0.257759 0.257249
O O16 0.000000 0.269033 0.000000
O O17 0.639282 0.500000 0.113081
O O18 0.500000 0.736550 0.000000
O O19 0.500000 0.780880 0.500000
O O20 0.680325 0.808960 0.557884
O O21 0.666129 0.000000 0.645352
O O22 0.448048 0.000000 0.625154
#
# Coordination Sequence:
#
# PCOD8060046 Si02
#       8
#     4   4   4   4   4   4   4   4
#     4   9  17  29  48  72  96 127 164 201 244 296
#     4   9  16  29  50  72  94 123 164 205 243 289
#     4  10  19  31  49  73 102 131 158 198 254 299
#     4  10  20  34  51  72  99 130 166 203 239 288
#     4  10  21  35  49  72 108 140 165 202 256 310
#     4   9  15  27  49  72  93 120 156 201 242 274
#     4  10  19  33  54  77  99 129 174 218 251 295
#     4   9  18  32  50  74 101 126 160 209 254 292
#
# _framework density 17.238976999999998
#
# number of rings (size 3 to 8) (size 9 to 14) (size 15 to 20)
#    0.000    2.500    2.500    0.375    0.000    1.750 
#    0.000    2.500    0.000    3.000    0.000    0.000 
#    0.000    0.000    0.000    0.000    0.000    0.000 
#
# Total GULP energy -396674.297417 kJ/mol
# GULP energy per Si atom -12396.071794 kJ/mol
# Density = 1.719974 g / cm^3
# Si number density = 17.238977 Si / 1000 Ang^3
#
#
#
# Elastic Constant Matrix: (Units=GPa)
#
#
# Indices 1 2 3 4 5 6 
#
# 1 143.8978 44.2676 74.7208 0.0000 2.9902 0.0000
# 2 44.2676 42.9466 32.1294 0.0000 5.2341 0.0000
# 3 74.7208 32.1294 113.8813 0.0000 3.8611 0.0000
# 4 0.0000 0.0000 0.0000 0.0862 0.0000 -10.8066
# 5 2.9902 5.2341 3.8611 0.0000 27.0357 0.0000
# 6 0.0000 0.0000 0.0000 -10.8066 0.0000 20.0224
#
#
#
# Elastic Compliance Matrix: (Units=1/GPa)
#
#
# Indices 1 2 3 4 5 6 
#
# 1 0.012692 -0.008826 -0.005876 0.000000 0.001144 0.000000
# 2 -0.008826 0.036218 -0.004243 0.000000 -0.005430 0.000000
# 3 -0.005876 -0.004243 0.013851 0.000000 -0.000507 0.000000
# 4 0.000000 0.000000 0.000000 -0.174022 0.000000 -0.093924
# 5 0.001144 -0.005430 -0.000507 0.000000 0.037985 0.000000
# 6 0.000000 0.000000 0.000000 -0.093924 0.000000 -0.000749
#
#
# Mechanical properties :
#
#
# Convention : Reuss Voigt Hill
#
# Bulk Modulus (GPa) = 40.20843 66.99572 53.60207
# Shear Modulus (GPa) = -179.57526 19.40274 -80.08626
#
# Velocity S-wave (km/s) = -10.21735 3.35851 -6.82330
# Velocity P-wave (km/s) = 10.76186 7.34757 5.56017
#
# Compressibility (1/GPa) = 0.02487040
#
# Stress axis : x y z
#
# Youngs Moduli (GPa) = 78.78941 27.61053 72.19617
#
# Poissons Ratio (x) = 0.24368 0.42426
# Poissons Ratio (y) = 0.69536 0.30636
# Poissons Ratio (z) = 0.46300 0.11716
#
# Static dielectric constant tensor:
#      x y z
#    x 3.594750 0.000000 -0.173410 
#    y 0.000000 3.084240 0.000000 
#    z -0.173410 0.000000 3.069540 
# 
# 
# High freq. dielectric constant tensor:
#      x y z
#    x 1.679940 0.000000 -0.018010 
#    y 0.000000 1.649980 0.000000 
#    z -0.018010 0.000000 1.637640 
# 
# From -- ./inp_files/86143.got.cif
#   From: 2010.06.25/outbox.cif.g09.slc.cpg/sg10_44_cif.got.tgz:86143.got - 2010.06.27 22:07:45.
