data_PCOD8060800
_publ_section_title
;
Structure prediction by ZEFSAII (Michael W. Deem and Ramdas Pophale) SiO2 
 PCOD8060800
Probable space group: P 2/M
;
_chemical_formula_sum "Si O2"
_cell_formula_units_Z 28
_cell_length_a 9.832372
_cell_length_b 9.142621
_cell_length_c 30.115834
_cell_angle_alpha 90.000000
_cell_angle_beta 144.156158
_cell_angle_gamma 90.000000
_cell_volume 1585.290121
_symmetry_space_group_name_H-M "P 2/M"
_symmetry_group_IT_number 10
_symmetry_cell_setting 'monoclinic'
loop_
_space_group_symop_operation_xyz
x,y,z
-x,y,-z
-x,-y,-z
x,-y,z
loop_
_atom_site_type_symbol
_atom_site_label
_atom_site_fract_x
_atom_site_fract_y
_atom_site_fract_z
Si Si1 0.243786 0.668791 0.443887
Si Si2 0.323479 0.839133 0.993730
Si Si3 0.015692 0.328207 0.152047
Si Si4 0.549530 0.669693 0.282629
Si Si5 0.828366 0.333641 0.270134
Si Si6 0.945375 0.828988 0.435023
Si Si7 0.749601 0.172749 0.159520
O O1 0.500000 0.725311 0.500000
O O2 0.246145 0.500000 0.459455
O O3 0.082664 0.690047 0.358180
O O4 0.151656 0.762359 0.460449
O O5 0.479972 0.786742 0.076988
O O6 0.214670 0.000000 0.973866
O O7 0.500000 0.849600 0.000000
O O8 0.119000 0.726234 0.927874
O O9 0.976527 0.500000 0.146322
O O10 0.282830 0.285743 0.216548
O O11 0.925681 0.251372 0.172604
O O12 0.592577 0.500000 0.304612
O O13 0.633479 0.705142 0.255017
O O14 0.696412 0.760839 0.357035
O O15 0.798822 0.500000 0.245345
O O16 0.801680 0.222640 0.222832
O O17 0.000000 0.791353 0.500000
O O18 0.933580 0.000000 0.422652
O O19 0.789384 0.000000 0.165366
#
# Coordination Sequence:
#
# PCOD8060800 Si02
#       7
#     4   4   4   4   4   4   4
#     4   9  19  36  56  76 100 133 170 207 250 298
#     4   8  16  31  48  69 100 133 165 203 246 294
#     4  10  19  32  53  78 100 127 167 211 251 292
#     4   9  20  37  54  74 101 133 168 205 249 300
#     4   9  18  34  53  73  99 130 167 208 246 291
#     4  10  21  35  52  77 105 132 166 207 249 295
#     4  10  20  33  50  74 103 134 167 203 247 299
#
# _framework density 17.662382000000001
#
# number of rings (size 3 to 8) (size 9 to 14) (size 15 to 20)
#    0.000    2.714    0.000    3.000    0.000    9.143 
#    0.000    5.000    0.000    4.286    0.000    0.000 
#    0.000    0.000    0.000    0.000    0.000    0.000 
#
# Total GULP energy -347181.072017 kJ/mol
# GULP energy per Si atom -12399.324001 kJ/mol
# Density = 1.762218 g / cm^3
# Si number density = 17.662382 Si / 1000 Ang^3
#
#
#
# Elastic Constant Matrix: (Units=GPa)
#
#
# Indices 1 2 3 4 5 6 
#
# 1 90.1968 58.2307 84.8376 0.0000 7.9872 0.0000
# 2 58.2307 88.8334 74.8536 0.0000 4.7460 0.0000
# 3 84.8376 74.8536 136.9873 0.0000 9.4510 0.0000
# 4 0.0000 0.0000 0.0000 28.7626 0.0000 -10.1439
# 5 7.9872 4.7460 9.4510 0.0000 28.5735 0.0000
# 6 0.0000 0.0000 0.0000 -10.1439 0.0000 14.0233
#
#
#
# Elastic Compliance Matrix: (Units=1/GPa)
#
#
# Indices 1 2 3 4 5 6 
#
# 1 0.028956 -0.007193 -0.013842 0.000000 -0.002321 0.000000
# 2 -0.007193 0.022653 -0.007985 0.000000 0.000889 0.000000
# 3 -0.013842 -0.007985 0.020341 0.000000 -0.001533 0.000000
# 4 0.000000 0.000000 0.000000 0.046675 0.000000 0.033762
# 5 -0.002321 0.000889 -0.001533 0.000000 0.036005 0.000000
# 6 0.000000 0.000000 0.000000 0.033762 0.000000 0.095732
#
#
# Mechanical properties :
#
#
# Convention : Reuss Voigt Hill
#
# Bulk Modulus (GPa) = 71.88920 83.54015 77.71467
# Shear Modulus (GPa) = 15.97251 20.81160 18.39205
#
# Velocity S-wave (km/s) = 3.01046 3.43636 3.23044
# Velocity P-wave (km/s) = 7.27145 7.94643 7.61643
#
# Compressibility (1/GPa) = 0.01391030
#
# Stress axis : x y z
#
# Youngs Moduli (GPa) = 34.53556 44.14483 49.16102
#
# Poissons Ratio (x) = 0.31753 0.68049
# Poissons Ratio (y) = 0.24841 0.39254
# Poissons Ratio (z) = 0.47804 0.35249
#
# Static dielectric constant tensor:
#      x y z
#    x 3.121520 0.000000 0.058470 
#    y 0.000000 3.294550 0.000000 
#    z 0.058470 0.000000 3.587210 
# 
# 
# High freq. dielectric constant tensor:
#      x y z
#    x 1.663990 0.000000 0.000800 
#    y 0.000000 1.687570 0.000000 
#    z 0.000800 0.000000 1.691600 
# 
# From -- ./inp_files/94534.got.cif
#   From: 2010.06.25/outbox.cif.g09.slc.cpg/sg10_48_cif.got.tgz:94534.got - 2010.06.27 22:07:45.
