data_PCOD8060989
_publ_section_title
;
Structure prediction by ZEFSAII (Michael W. Deem and Ramdas Pophale) SiO2 
 PCOD8060989
Probable space group: P 2/M
;
_chemical_formula_sum "Si O2"
_cell_formula_units_Z 28
_cell_length_a 13.425884
_cell_length_b 8.787081
_cell_length_c 13.331032
_cell_angle_alpha 90.000000
_cell_angle_beta 64.986893
_cell_angle_gamma 90.000000
_cell_volume 1425.215909
_symmetry_space_group_name_H-M "P 2/M"
_symmetry_group_IT_number 10
_symmetry_cell_setting 'monoclinic'
loop_
_space_group_symop_operation_xyz
x,y,z
-x,y,-z
-x,-y,-z
x,-y,z
loop_
_atom_site_type_symbol
_atom_site_label
_atom_site_fract_x
_atom_site_fract_y
_atom_site_fract_z
Si Si1 0.817450 0.173467 0.117654
Si Si2 0.601857 0.180042 0.891686
Si Si3 0.745531 0.675516 0.441441
Si Si4 0.593448 0.326275 0.682207
Si Si5 0.938333 0.180099 0.260477
Si Si6 0.823597 0.180474 0.894568
Si Si7 0.606869 0.826122 0.329287
O O1 0.893610 0.245158 0.172537
O O2 0.689627 0.187751 0.200407
O O3 0.855386 0.000000 0.091627
O O4 0.833946 0.252331 0.002150
O O5 0.590496 0.222049 0.780821
O O6 0.716386 0.248916 0.885303
O O7 0.602692 0.000000 0.899598
O O8 0.500000 0.246100 0.000000
O O9 0.739466 0.500000 0.411009
O O10 0.707666 0.695600 0.572961
O O11 0.870572 0.737189 0.377931
O O12 0.665547 0.773429 0.405537
O O13 0.577617 0.500000 0.722276
O O14 0.496659 0.279949 0.647804
O O15 0.067071 0.221595 0.215330
O O16 0.916848 0.000000 0.277692
O O17 0.810236 0.000000 0.909765
O O18 0.568223 0.000000 0.359755
#
# Coordination Sequence:
#
# PCOD8060989 Si02
#       7
#     4   4   4   4   4   4   4
#     4   8  14  26  48  79 109 133 161 204 260 316
#     4  10  21  37  57  80 106 137 175 219 263 310
#     4  10  21  36  52  74 107 142 174 213 263 316
#     4  11  23  37  53  74 104 143 180 215 261 314
#     4   9  17  30  52  80 105 134 174 216 259 309
#     4   9  16  29  51  78 106 135 171 217 263 306
#     4  10  19  32  55  84 109 136 172 215 263 314
#
# _framework density 19.646146999999999
#
# number of rings (size 3 to 8) (size 9 to 14) (size 15 to 20)
#    0.000    2.429    0.000    3.857    0.000    8.286 
#    0.000    1.429    0.000   12.857    0.000    0.000 
#    0.000    0.000    0.000    0.000    0.000    0.000 
#
# Total GULP energy -347133.206360 kJ/mol
# GULP energy per Si atom -12397.614513 kJ/mol
# Density = 1.960143 g / cm^3
# Si number density = 19.646147 Si / 1000 Ang^3
#
#
#
# Elastic Constant Matrix: (Units=GPa)
#
#
# Indices 1 2 3 4 5 6 
#
# 1 106.6605 17.6965 47.1972 0.0000 -24.5507 0.0000
# 2 17.6965 30.9741 24.0169 0.0000 -7.9923 0.0000
# 3 47.1972 24.0169 115.8145 0.0000 -17.1595 0.0000
# 4 0.0000 0.0000 0.0000 12.4441 0.0000 5.8054
# 5 -24.5507 -7.9923 -17.1595 0.0000 24.4414 0.0000
# 6 0.0000 0.0000 0.0000 5.8054 0.0000 9.0674
#
#
#
# Elastic Compliance Matrix: (Units=1/GPa)
#
#
# Indices 1 2 3 4 5 6 
#
# 1 0.013775 -0.002390 -0.003553 0.000000 0.010561 0.000000
# 2 -0.002390 0.040262 -0.006451 0.000000 0.006235 0.000000
# 3 -0.003553 -0.006451 0.011807 0.000000 0.002611 0.000000
# 4 0.000000 0.000000 0.000000 0.114584 0.000000 -0.073362
# 5 0.010561 0.006235 0.002611 0.000000 0.055394 0.000000
# 6 0.000000 0.000000 0.000000 -0.073362 0.000000 0.157255
#
#
# Mechanical properties :
#
#
# Convention : Reuss Voigt Hill
#
# Bulk Modulus (GPa) = 24.35780 47.91894 36.13837
# Shear Modulus (GPa) = 11.58612 20.15982 15.87297
#
# Velocity S-wave (km/s) = 2.43109 3.20683 2.84552
# Velocity P-wave (km/s) = 4.50616 6.17702 5.40653
#
# Compressibility (1/GPa) = 0.04105461
#
# Stress axis : x y z
#
# Youngs Moduli (GPa) = 72.59380 24.83748 84.69384
#
# Poissons Ratio (x) = 0.05936 0.30095
# Poissons Ratio (y) = 0.17350 0.54639
# Poissons Ratio (z) = 0.25796 0.16024
#
# Static dielectric constant tensor:
#      x y z
#    x 3.610280 0.000000 -0.236450 
#    y 0.000000 3.230060 0.000000 
#    z -0.236450 0.000000 3.698920 
# 
# 
# High freq. dielectric constant tensor:
#      x y z
#    x 1.754740 0.000000 -0.018860 
#    y 0.000000 1.728290 0.000000 
#    z -0.018860 0.000000 1.770520 
# 
# From -- ./inp_files/49635.got.cif
#   From: 2010.06.25/outbox.cif.g09.slc.cpg/sg10_25_cif.got.tgz:49635.got - 2010.06.27 22:07:45.
