data_PCOD8060591
_publ_section_title
;
Structure prediction by ZEFSAII (Michael W. Deem and Ramdas Pophale) SiO2 
 PCOD8060591
Probable space group: P 2/M
;
_chemical_formula_sum "Si O2"
_cell_formula_units_Z 32
_cell_length_a 11.210760
_cell_length_b 8.393676
_cell_length_c 22.185289
_cell_angle_alpha 90.000000
_cell_angle_beta 49.233631
_cell_angle_gamma 90.000000
_cell_volume 1581.121700
_symmetry_space_group_name_H-M "P 2/M"
_symmetry_group_IT_number 10
_symmetry_cell_setting 'monoclinic'
loop_
_space_group_symop_operation_xyz
x,y,z
-x,y,-z
-x,-y,-z
x,-y,z
loop_
_atom_site_type_symbol
_atom_site_label
_atom_site_fract_x
_atom_site_fract_y
_atom_site_fract_z
Si Si1 0.376889 0.312751 0.991183
Si Si2 0.170221 0.812842 0.467349
Si Si3 0.909543 0.684176 0.836913
Si Si4 0.250924 0.685398 0.693081
Si Si5 0.132943 0.312871 0.604968
Si Si6 0.509404 0.682022 0.170764
Si Si7 0.520364 0.308992 0.688692
Si Si8 0.185619 0.181179 0.254232
O O1 0.410667 0.500000 0.975465
O O2 0.406251 0.234020 0.915104
O O3 0.500000 0.241545 0.000000
O O4 0.195582 0.277328 0.069474
O O5 0.219715 0.727947 0.514039
O O6 0.306358 0.766295 0.375499
O O7 0.000000 0.750980 0.500000
O O8 0.165235 0.000000 0.479300
O O9 0.885219 0.500000 0.825215
O O10 0.850185 0.798826 0.804214
O O11 0.095062 0.718401 0.785463
O O12 0.284327 0.500000 0.677708
O O13 0.229492 0.751756 0.631783
O O14 0.402488 0.760797 0.676326
O O15 0.105622 0.500000 0.621850
O O16 0.965969 0.224292 0.656013
O O17 0.560259 0.500000 0.152864
O O18 0.552523 0.749848 0.222882
O O19 0.322453 0.698282 0.226601
O O20 0.535160 0.500000 0.682409
O O21 0.235734 0.000000 0.251186
#
# Coordination Sequence:
#
# PCOD8060591 Si02
#       8
#     4   4   4   4   4   4   4   4
#     4   9  15  26  49  79 108 136 177 225 266 312
#     4  11  24  40  57  81 113 139 168 215 270 316
#     4   9  16  31  53  74 104 143 178 216 267 318
#     4   8  17  34  55  79 105 138 180 224 261 302
#     4  10  20  36  59  81 105 140 179 215 261 314
#     4  10  19  32  51  75 104 143 183 218 265 322
#     4  10  21  37  56  77 105 141 183 220 258 317
#     4  11  20  30  48  77 111 139 172 220 269 316
#
# _framework density 20.238797999999999
#
# number of rings (size 3 to 8) (size 9 to 14) (size 15 to 20)
#    0.000    2.250    1.250    3.375    0.000    4.000 
#    0.000    7.500    0.000    3.750    0.000    0.000 
#    0.000    6.000    0.000    0.000    0.000    0.000 
#
# Total GULP energy -396564.963508 kJ/mol
# GULP energy per Si atom -12392.655110 kJ/mol
# Density = 2.019273 g / cm^3
# Si number density = 20.238798 Si / 1000 Ang^3
#
#
#
# Elastic Constant Matrix: (Units=GPa)
#
#
# Indices 1 2 3 4 5 6 
#
# 1 99.1871 7.5270 48.3663 0.0000 5.1430 0.0000
# 2 7.5270 29.5617 12.4202 0.0000 2.2842 0.0000
# 3 48.3663 12.4202 135.3959 0.0000 19.1160 0.0000
# 4 0.0000 0.0000 0.0000 11.5806 0.0000 0.8280
# 5 5.1430 2.2842 19.1160 0.0000 28.3071 0.0000
# 6 0.0000 0.0000 0.0000 0.8280 0.0000 10.4379
#
#
#
# Elastic Compliance Matrix: (Units=1/GPa)
#
#
# Indices 1 2 3 4 5 6 
#
# 1 0.012277 -0.001350 -0.004380 0.000000 0.000836 0.000000
# 2 -0.001350 0.035346 -0.002644 0.000000 -0.000821 0.000000
# 3 -0.004380 -0.002644 0.010004 0.000000 -0.005747 0.000000
# 4 0.000000 0.000000 0.000000 0.086844 0.000000 -0.006889
# 5 0.000836 -0.000821 -0.005747 0.000000 0.039122 0.000000
# 6 0.000000 0.000000 0.000000 -0.006889 0.000000 0.096351
#
#
# Mechanical properties :
#
#
# Convention : Reuss Voigt Hill
#
# Bulk Modulus (GPa) = 24.46273 44.53018 34.49645
# Shear Modulus (GPa) = 16.11250 23.12053 19.61652
#
# Velocity S-wave (km/s) = 2.82462 3.38359 3.11666
# Velocity P-wave (km/s) = 4.76983 6.10860 5.48025
#
# Compressibility (1/GPa) = 0.04087851
#
# Stress axis : x y z
#
# Youngs Moduli (GPa) = 81.45491 28.29194 99.95826
#
# Poissons Ratio (x) = 0.03821 0.43779
# Poissons Ratio (y) = 0.11000 0.26429
# Poissons Ratio (z) = 0.35675 0.07480
#
# Static dielectric constant tensor:
#      x y z
#    x 3.781650 0.000000 0.161450 
#    y 0.000000 3.207310 0.000000 
#    z 0.161450 0.000000 3.932710 
# 
# 
# High freq. dielectric constant tensor:
#      x y z
#    x 1.771500 0.000000 0.007260 
#    y 0.000000 1.749130 0.000000 
#    z 0.007260 0.000000 1.801480 
# 
# From -- ./inp_files/83571.got.cif
#   From: 2010.06.25/outbox.cif.g09.slc.cpg/sg10_42_cif.got.tgz:83571.got - 2010.06.27 22:07:45.
