data_PCOD8060393
_publ_section_title
;
Structure prediction by ZEFSAII (Michael W. Deem and Ramdas Pophale) SiO2 
 PCOD8060393
Probable space group: P 2/M
;
_chemical_formula_sum "Si O2"
_cell_formula_units_Z 28
_cell_length_a 20.676336
_cell_length_b 8.899387
_cell_length_c 12.557064
_cell_angle_alpha 90.000000
_cell_angle_beta 132.834954
_cell_angle_gamma 90.000000
_cell_volume 1694.386507
_symmetry_space_group_name_H-M "P 2/M"
_symmetry_group_IT_number 10
_symmetry_cell_setting 'monoclinic'
loop_
_space_group_symop_operation_xyz
x,y,z
-x,y,-z
-x,-y,-z
x,-y,z
loop_
_atom_site_type_symbol
_atom_site_label
_atom_site_fract_x
_atom_site_fract_y
_atom_site_fract_z
Si Si1 0.569785 0.667301 0.434997
Si Si2 0.118356 0.325050 0.435004
Si Si3 0.243072 0.320099 0.384240
Si Si4 0.895917 0.831057 0.369028
Si Si5 0.914454 0.324636 0.177154
Si Si6 0.787984 0.822485 0.876001
Si Si7 0.384065 0.669857 0.266622
O O1 0.556859 0.500000 0.376743
O O2 0.656545 0.738848 0.475425
O O3 0.472577 0.742937 0.309211
O O4 0.595333 0.663556 0.586491
O O5 0.131461 0.500000 0.472347
O O6 0.180125 0.267685 0.408807
O O7 0.148172 0.238710 0.574941
O O8 0.018183 0.289432 0.291067
O O9 0.242955 0.500000 0.368991
O O10 0.208108 0.247179 0.236897
O O11 0.870560 0.732492 0.237913
O O12 0.000000 0.828264 0.500000
O O13 0.860684 0.000000 0.313188
O O14 0.894264 0.500000 0.141987
O O15 0.874236 0.234494 0.033557
O O16 0.701737 0.772116 0.847597
O O17 0.788841 0.000000 0.867766
O O18 0.365160 0.500000 0.204256
#
# Coordination Sequence:
#
# PCOD8060393 Si02
#       7
#     4   4   4   4   4   4   4
#     4   7  11  22  43  64  82 109 145 181 214 253
#     4   9  18  31  49  69  88 115 151 186 217 255
#     4   9  17  31  47  65  91 121 151 180 214 261
#     4   9  17  30  48  68  89 112 142 184 228 263
#     4  10  19  32  48  65  87 117 153 188 219 256
#     4  11  21  30  41  63  93 122 151 183 223 266
#     4   8  13  25  43  61  82 112 147 180 216 257
#
# _framework density 16.525155000000002
#
# number of rings (size 3 to 8) (size 9 to 14) (size 15 to 20)
#    0.000    3.000    0.000    3.857    0.000    3.429 
#    0.000    8.571    0.000    0.000    0.000    1.000 
#    0.000    8.000    0.000    0.000    0.000    0.000 
#
# Total GULP energy -346889.764038 kJ/mol
# GULP energy per Si atom -12388.920144 kJ/mol
# Density = 1.648754 g / cm^3
# Si number density = 16.525155 Si / 1000 Ang^3
#
#
#
# Elastic Constant Matrix: (Units=GPa)
#
#
# Indices 1 2 3 4 5 6 
#
# 1 127.4008 40.2020 48.9984 0.0000 -3.5586 0.0000
# 2 40.2020 63.7728 17.9830 0.0000 -4.0184 0.0000
# 3 48.9984 17.9830 25.7117 0.0000 -6.8489 0.0000
# 4 0.0000 0.0000 0.0000 15.8296 0.0000 -1.9242
# 5 -3.5586 -4.0184 -6.8489 0.0000 16.5838 0.0000
# 6 0.0000 0.0000 0.0000 -1.9242 0.0000 12.7011
#
#
#
# Elastic Compliance Matrix: (Units=1/GPa)
#
#
# Indices 1 2 3 4 5 6 
#
# 1 0.036574 -0.003886 -0.073193 0.000000 -0.023321 0.000000
# 2 -0.003886 0.019961 -0.006167 0.000000 0.001456 0.000000
# 3 -0.073193 -0.006167 0.200122 0.000000 0.065447 0.000000
# 4 0.000000 0.000000 0.000000 0.064358 0.000000 0.009750
# 5 -0.023321 0.001456 0.065447 0.000000 0.082677 0.000000
# 6 0.000000 0.000000 0.000000 0.009750 0.000000 0.080210
#
#
# Mechanical properties :
#
#
# Convention : Reuss Voigt Hill
#
# Bulk Modulus (GPa) = 11.09078 47.91689 29.50384
# Shear Modulus (GPa) = 7.34807 16.33637 11.84222
#
# Velocity S-wave (km/s) = 2.11098 3.14757 2.67988
# Velocity P-wave (km/s) = 3.55917 6.50145 5.24102
#
# Compressibility (1/GPa) = 0.09016494
#
# Stress axis : x y z
#
# Youngs Moduli (GPa) = 27.34163 50.09668 4.99695
#
# Poissons Ratio (x) = 0.19470 0.36574
# Poissons Ratio (y) = 0.10626 0.03082
# Poissons Ratio (z) = 2.00121 0.30894
#
# Static dielectric constant tensor:
#      x y z
#    x 3.513760 0.000000 0.251620 
#    y 0.000000 3.007610 0.000000 
#    z 0.251620 0.000000 2.933070 
# 
# 
# High freq. dielectric constant tensor:
#      x y z
#    x 1.631920 0.000000 0.013400 
#    y 0.000000 1.622150 0.000000 
#    z 0.013400 0.000000 1.602720 
# 
# From -- ./inp_files/54973.got.cif
#   From: 2010.06.25/outbox.cif.g09.slc.cpg/sg10_28_cif.got.tgz:54973.got - 2010.06.27 22:07:45.
