data_PCOD8060933
_publ_section_title
;
Structure prediction by ZEFSAII (Michael W. Deem and Ramdas Pophale) SiO2 
 PCOD8060933
Probable space group: P 2/M
;
_chemical_formula_sum "Si O2"
_cell_formula_units_Z 32
_cell_length_a 14.267573
_cell_length_b 9.433944
_cell_length_c 23.185443
_cell_angle_alpha 90.000000
_cell_angle_beta 147.579625
_cell_angle_gamma 90.000000
_cell_volume 1673.117669
_symmetry_space_group_name_H-M "P 2/M"
_symmetry_group_IT_number 10
_symmetry_cell_setting 'monoclinic'
loop_
_space_group_symop_operation_xyz
x,y,z
-x,y,-z
-x,-y,-z
x,-y,z
loop_
_atom_site_type_symbol
_atom_site_label
_atom_site_fract_x
_atom_site_fract_y
_atom_site_fract_z
Si Si1 0.953709 0.666470 0.264581
Si Si2 0.803182 0.833586 0.412376
Si Si3 0.426637 0.666392 0.900231
Si Si4 0.579759 0.338476 0.598409
Si Si5 0.037794 0.331367 0.182190
Si Si6 0.250776 0.662014 0.502444
Si Si7 0.507025 0.836723 0.831988
Si Si8 0.109313 0.836247 0.000878
O O1 0.978335 0.500000 0.273026
O O2 0.777652 0.707640 0.206678
O O3 0.950677 0.721127 0.197072
O O4 0.116713 0.727340 0.385690
O O5 0.749061 0.756098 0.441622
O O6 0.666004 0.785638 0.292004
O O7 0.000000 0.786510 0.500000
O O8 0.790091 0.000000 0.416380
O O9 0.459069 0.500000 0.907858
O O10 0.524548 0.747045 0.899740
O O11 0.500000 0.715315 0.000000
O O12 0.500000 0.262093 0.500000
O O13 0.621825 0.500000 0.602348
O O14 0.763235 0.272890 0.713537
O O15 0.447028 0.327734 0.581855
O O16 0.022866 0.500000 0.165181
O O17 0.941976 0.256132 0.080345
O O18 0.200071 0.500000 0.491116
O O19 0.680651 0.815236 0.882587
O O20 0.487383 0.000000 0.839770
O O21 0.063932 0.000000 0.965314
O O22 0.000000 0.783310 0.000000
#
# Coordination Sequence:
#
# PCOD8060933 Si02
#       8
#     4   4   4   4   4   4   4   4
#     4   9  17  31  53  81 112 143 171 211 269 327
#     4  10  22  39  57  79 109 144 182 226 272 317
#     4  10  20  34  55  83 111 137 173 222 272 316
#     4   9  16  30  53  83 115 144 173 215 270 326
#     4  10  19  34  58  83 110 142 180 224 268 315
#     4  10  19  32  54  82 109 141 181 216 262 325
#     4  10  22  40  58  77 106 146 185 220 268 326
#     4  10  23  41  57  75 105 146 186 224 270 323
#
# _framework density 19.125971
#
# number of rings (size 3 to 8) (size 9 to 14) (size 15 to 20)
#    0.000    2.250    1.250    1.500    1.750    2.750 
#    0.000    1.250    0.000    0.750    0.000    0.000 
#    0.000    0.000    0.000    0.000    0.000    0.000 
#
# Total GULP energy -396741.283451 kJ/mol
# GULP energy per Si atom -12398.165108 kJ/mol
# Density = 1.908244 g / cm^3
# Si number density = 19.125971 Si / 1000 Ang^3
#
#
#
# Elastic Constant Matrix: (Units=GPa)
#
#
# Indices 1 2 3 4 5 6 
#
# 1 118.9921 33.7051 43.7639 0.0000 -5.7938 0.0000
# 2 33.7051 30.2738 27.2568 0.0000 -7.2101 0.0000
# 3 43.7639 27.2568 107.4630 0.0000 -1.7109 0.0000
# 4 0.0000 0.0000 0.0000 59.0464 0.0000 -86.7297
# 5 -5.7938 -7.2101 -1.7109 0.0000 33.8764 0.0000
# 6 0.0000 0.0000 0.0000 -86.7297 0.0000 212.9076
#
#
#
# Elastic Compliance Matrix: (Units=1/GPa)
#
#
# Indices 1 2 3 4 5 6 
#
# 1 0.012622 -0.012381 -0.002009 0.000000 -0.000578 0.000000
# 2 -0.012381 0.057592 -0.009411 0.000000 0.009665 0.000000
# 3 -0.002009 -0.009411 0.012483 0.000000 -0.001716 0.000000
# 4 0.000000 0.000000 0.000000 0.042165 0.000000 0.017176
# 5 -0.000578 0.009665 -0.001716 0.000000 0.031391 0.000000
# 6 0.000000 0.000000 0.000000 0.017176 0.000000 0.011694
#
#
# Mechanical properties :
#
#
# Convention : Reuss Voigt Hill
#
# Bulk Modulus (GPa) = 28.49520 51.79783 40.14651
# Shear Modulus (GPa) = 22.00250 71.29963 46.65106
#
# Velocity S-wave (km/s) = 3.39543 6.11227 4.94413
# Velocity P-wave (km/s) = 5.50481 8.77237 7.32316
#
# Compressibility (1/GPa) = 0.03509363
#
# Stress axis : x y z
#
# Youngs Moduli (GPa) = 79.22884 17.36366 80.10585
#
# Poissons Ratio (x) = 0.21498 0.16093
# Poissons Ratio (y) = 0.98094 0.75391
# Poissons Ratio (z) = 0.15917 0.16342
#
# Static dielectric constant tensor:
#      x y z
#    x 3.566140 0.000000 0.231610 
#    y 0.000000 3.129600 0.000000 
#    z 0.231610 0.000000 3.900250 
# 
# 
# High freq. dielectric constant tensor:
#      x y z
#    x 1.752340 0.000000 0.009740 
#    y 0.000000 1.702670 0.000000 
#    z 0.009740 0.000000 1.758720 
# 
# From -- ./inp_files/71566.got.cif
#   From: 2010.06.25/outbox.cif.g09.slc.cpg/sg10_36_cif.got.tgz:71566.got - 2010.06.27 22:07:45.
