data_PCOD8060945
_publ_section_title
;
Structure prediction by ZEFSAII (Michael W. Deem and Ramdas Pophale) SiO2 
 PCOD8060945
Probable space group: P 2/M
;
_chemical_formula_sum "Si O2"
_cell_formula_units_Z 32
_cell_length_a 16.262916
_cell_length_b 9.269928
_cell_length_c 24.666953
_cell_angle_alpha 90.000000
_cell_angle_beta 153.520532
_cell_angle_gamma 90.000000
_cell_volume 1658.079837
_symmetry_space_group_name_H-M "P 2/M"
_symmetry_group_IT_number 10
_symmetry_cell_setting 'monoclinic'
loop_
_space_group_symop_operation_xyz
x,y,z
-x,y,-z
-x,-y,-z
x,-y,z
loop_
_atom_site_type_symbol
_atom_site_label
_atom_site_fract_x
_atom_site_fract_y
_atom_site_fract_z
Si Si1 0.613115 0.331327 0.723512
Si Si2 0.766368 0.833189 0.510481
Si Si3 0.020805 0.832377 0.254620
Si Si4 0.727452 0.670521 0.906869
Si Si5 0.571523 0.663015 0.188677
Si Si6 0.342992 0.336466 0.947524
Si Si7 0.921986 0.670056 0.820955
Si Si8 0.939513 0.170214 0.404553
O O1 0.571122 0.500000 0.703339
O O2 0.421139 0.251726 0.606381
O O3 0.724064 0.278486 0.842510
O O4 0.736390 0.295413 0.744247
O O5 0.913258 0.774947 0.552887
O O6 0.836941 0.808005 0.612808
O O7 0.726788 0.000000 0.475534
O O8 0.097167 0.749720 0.247427
O O9 0.996391 0.000000 0.226288
O O10 0.827089 0.769632 0.159987
O O11 0.746771 0.500000 0.922181
O O12 0.533529 0.719479 0.819514
O O13 0.904882 0.734446 0.042971
O O14 0.644870 0.500000 0.239150
O O15 0.414798 0.669941 0.050779
O O16 0.742367 0.762451 0.274146
O O17 0.283746 0.500000 0.897259
O O18 0.500000 0.280047 0.000000
O O19 0.945012 0.500000 0.823555
O O20 0.000000 0.221421 0.500000
O O21 0.915503 0.000000 0.387269
#
# Coordination Sequence:
#
# PCOD8060945 Si02
#       8
#     4   4   4   4   4   4   4   4
#     4  10  21  36  61  89 108 143 193 237 286 344
#     4  10  23  41  56  77 116 156 188 233 286 332
#     4  11  23  38  57  81 113 155 196 231 277 337
#     4   9  17  34  58  86 118 144 177 230 293 348
#     4  10  19  32  54  83 112 144 178 223 281 332
#     4  10  20  35  56  83 113 146 184 230 285 334
#     4  10  20  38  61  85 116 147 183 237 292 340
#     4  10  21  37  56  79 110 151 192 229 276 331
#
# _framework density 19.299431999999999
#
# number of rings (size 3 to 8) (size 9 to 14) (size 15 to 20)
#    0.000    2.000    1.250    2.250    0.000    5.000 
#    0.000    3.125    0.000    1.500    0.000    0.000 
#    0.000    0.000    0.000    0.000    0.000    0.000 
#
# Total GULP energy -396861.932521 kJ/mol
# GULP energy per Si atom -12401.935391 kJ/mol
# Density = 1.925551 g / cm^3
# Si number density = 19.299432 Si / 1000 Ang^3
#
#
#
# Elastic Constant Matrix: (Units=GPa)
#
#
# Indices 1 2 3 4 5 6 
#
# 1 133.9874 43.4472 40.8702 0.0000 0.3022 0.0000
# 2 43.4472 52.1954 40.1407 0.0000 3.5021 0.0000
# 3 40.8702 40.1407 90.9449 0.0000 9.0736 0.0000
# 4 0.0000 0.0000 0.0000 -2.8950 0.0000 -7.0690
# 5 0.3022 3.5021 9.0736 0.0000 28.9602 0.0000
# 6 0.0000 0.0000 0.0000 -7.0690 0.0000 24.2028
#
#
#
# Elastic Compliance Matrix: (Units=1/GPa)
#
#
# Indices 1 2 3 4 5 6 
#
# 1 0.010365 -0.007620 -0.001420 0.000000 0.001258 0.000000
# 2 -0.007620 0.034613 -0.011813 0.000000 -0.000405 0.000000
# 3 -0.001420 -0.011813 0.017243 0.000000 -0.003959 0.000000
# 4 0.000000 0.000000 0.000000 -0.201624 0.000000 -0.058889
# 5 0.001258 -0.000405 -0.003959 0.000000 0.035806 0.000000
# 6 0.000000 0.000000 0.000000 -0.058889 0.000000 0.024117
#
#
# Mechanical properties :
#
#
# Convention : Reuss Voigt Hill
#
# Bulk Modulus (GPa) = 48.74416 58.44933 53.59674
# Shear Modulus (GPa) = -161.61947 20.23156 -70.69396
#
# Velocity S-wave (km/s) = -9.16105 3.24126 -6.05884
# Velocity P-wave (km/s) = 9.30528 6.66025 4.59507
#
# Compressibility (1/GPa) = 0.02051528
#
# Stress axis : x y z
#
# Youngs Moduli (GPa) = 96.48306 28.89099 57.99566
#
# Poissons Ratio (x) = 0.22014 0.08237
# Poissons Ratio (y) = 0.73516 0.68508
# Poissons Ratio (z) = 0.13703 0.34128
#
# Static dielectric constant tensor:
#      x y z
#    x 3.795110 0.000000 -0.075630 
#    y 0.000000 3.303050 0.000000 
#    z -0.075630 0.000000 3.433320 
# 
# 
# High freq. dielectric constant tensor:
#      x y z
#    x 1.771600 0.000000 -0.000840 
#    y 0.000000 1.726290 0.000000 
#    z -0.000840 0.000000 1.750850 
# 
# From -- ./inp_files/89589.got.cif
#   From: 2010.06.25/outbox.cif.g09.slc.cpg/sg10_45_cif.got.tgz:89589.got - 2010.06.27 22:07:45.
