data_PCOD8060330
_publ_section_title
;
Structure prediction by ZEFSAII (Michael W. Deem and Ramdas Pophale) SiO2 
 PCOD8060330
Probable space group: P 2/M
;
_chemical_formula_sum "Si O2"
_cell_formula_units_Z 32
_cell_length_a 23.562338
_cell_length_b 8.728349
_cell_length_c 13.737365
_cell_angle_alpha 90.000000
_cell_angle_beta 34.457726
_cell_angle_gamma 90.000000
_cell_volume 1598.509972
_symmetry_space_group_name_H-M "P 2/M"
_symmetry_group_IT_number 10
_symmetry_cell_setting 'monoclinic'
loop_
_space_group_symop_operation_xyz
x,y,z
-x,y,-z
-x,-y,-z
x,-y,z
loop_
_atom_site_type_symbol
_atom_site_label
_atom_site_fract_x
_atom_site_fract_y
_atom_site_fract_z
Si Si1 0.248328 0.176694 0.750755
Si Si2 0.817935 0.818371 0.502667
Si Si3 0.807973 0.181449 0.957200
Si Si4 0.015657 0.818020 0.585845
Si Si5 0.391209 0.817453 0.119904
Si Si6 0.103332 0.320906 0.807274
Si Si7 0.477510 0.823547 0.427448
Si Si8 0.639825 0.182775 0.052184
O O1 0.190050 0.285328 0.760542
O O2 0.363247 0.194096 0.557977
O O3 0.212790 0.000000 0.791171
O O4 0.232730 0.240552 0.881838
O O5 0.701680 0.763898 0.679306
O O6 0.870284 0.755835 0.332295
O O7 0.882360 0.761787 0.505712
O O8 0.822150 0.000000 0.489807
O O9 0.921623 0.238398 0.783438
O O10 0.800637 0.000000 0.966639
O O11 0.740100 0.243532 0.964087
O O12 0.000000 0.747896 0.500000
O O13 0.017205 0.000000 0.575553
O O14 0.395657 0.000000 0.112706
O O15 0.500000 0.752497 0.000000
O O16 0.367415 0.750982 0.046425
O O17 0.094723 0.500000 0.800714
O O18 0.000000 0.256247 0.000000
O O19 0.500000 0.743857 0.500000
O O20 0.545295 0.751286 0.246605
O O21 0.510352 0.000000 0.390875
O O22 0.639022 0.000000 0.047137
#
# Coordination Sequence:
#
# PCOD8060330 Si02
#       8
#     4   4   4   4   4   4   4   4
#     4  10  19  31  53  82 107 135 178 222 265 318
#     4  10  20  35  56  82 109 139 181 227 267 316
#     4   9  15  24  41  69 102 134 167 209 258 311
#     4   9  16  26  44  72 107 137 164 208 268 316
#     4   9  18  29  44  73 111 145 176 216 265 311
#     4  11  25  42  57  75 105 145 183 224 279 334
#     4   9  15  25  43  76 114 144 172 212 266 320
#     4   9  15  24  40  67 110 148 171 204 258 315
#
# _framework density 20.018643000000001
#
# number of rings (size 3 to 8) (size 9 to 14) (size 15 to 20)
#    0.000    2.500    1.250    1.875    1.750    5.000 
#    0.000    0.000    0.000    1.125    0.000    2.625 
#    0.000    0.000    0.000    0.000    0.000    0.000 
#
# Total GULP energy -396622.446411 kJ/mol
# GULP energy per Si atom -12394.451450 kJ/mol
# Density = 1.997308 g / cm^3
# Si number density = 20.018643 Si / 1000 Ang^3
#
#
#
# Elastic Constant Matrix: (Units=GPa)
#
#
# Indices 1 2 3 4 5 6 
#
# 1 143.3912 15.3247 65.3408 0.0000 -0.1454 0.0000
# 2 15.3247 10.2437 18.0568 0.0000 -0.8972 0.0000
# 3 65.3408 18.0568 155.1741 0.0000 -0.8928 0.0000
# 4 0.0000 0.0000 0.0000 9.4034 0.0000 -1.5980
# 5 -0.1454 -0.8972 -0.8928 0.0000 37.7626 0.0000
# 6 0.0000 0.0000 0.0000 -1.5980 0.0000 0.5730
#
#
#
# Elastic Compliance Matrix: (Units=1/GPa)
#
#
# Indices 1 2 3 4 5 6 
#
# 1 0.009214 -0.008761 -0.002862 0.000000 -0.000240 0.000000
# 2 -0.008761 0.131394 -0.011584 0.000000 0.002814 0.000000
# 3 -0.002862 -0.011584 0.008997 0.000000 -0.000074 0.000000
# 4 0.000000 0.000000 0.000000 0.202148 0.000000 0.563767
# 5 -0.000240 0.002814 -0.000074 0.000000 0.026545 0.000000
# 6 0.000000 0.000000 0.000000 0.563767 0.000000 3.317550
#
#
# Mechanical properties :
#
#
# Convention : Reuss Voigt Hill
#
# Bulk Modulus (GPa) = 9.69077 56.25041 32.97059
# Shear Modulus (GPa) = 1.32392 23.55358 12.43875
#
# Velocity S-wave (km/s) = 0.81411 3.43386 2.49541
# Velocity P-wave (km/s) = 2.39480 6.62434 4.98081
#
# Compressibility (1/GPa) = 0.10319097
#
# Stress axis : x y z
#
# Youngs Moduli (GPa) = 108.52983 7.61069 111.14802
#
# Poissons Ratio (x) = 0.06668 0.31808
# Poissons Ratio (y) = 0.95082 1.28759
# Poissons Ratio (z) = 0.31059 0.08817
#
# Static dielectric constant tensor:
#      x y z
#    x 3.891670 0.000000 0.052950 
#    y 0.000000 2.829440 0.000000 
#    z 0.052950 0.000000 4.006590 
# 
# 
# High freq. dielectric constant tensor:
#      x y z
#    x 1.793310 0.000000 -0.000440 
#    y 0.000000 1.691080 0.000000 
#    z -0.000440 0.000000 1.802450 
# 
# From -- ./inp_files/71493.got.cif
#   From: 2010.06.25/outbox.cif.g09.slc.cpg/sg10_36_cif.got.tgz:71493.got - 2010.06.27 22:07:45.
