data_PCOD8060691
_publ_section_title
;
Structure prediction by ZEFSAII (Michael W. Deem and Ramdas Pophale) SiO2 
 PCOD8060691
Probable space group: P 2/M
;
_chemical_formula_sum "Si O2"
_cell_formula_units_Z 24
_cell_length_a 20.681713
_cell_length_b 8.625965
_cell_length_c 9.137379
_cell_angle_alpha 90.000000
_cell_angle_beta 131.145067
_cell_angle_gamma 90.000000
_cell_volume 1227.544925
_symmetry_space_group_name_H-M "P 2/M"
_symmetry_group_IT_number 10
_symmetry_cell_setting 'monoclinic'
loop_
_space_group_symop_operation_xyz
x,y,z
-x,y,-z
-x,-y,-z
x,-y,z
loop_
_atom_site_type_symbol
_atom_site_label
_atom_site_fract_x
_atom_site_fract_y
_atom_site_fract_z
Si Si1 0.416090 0.181314 0.788587
Si Si2 0.905260 0.684387 0.694579
Si Si3 0.905306 0.684351 0.023337
Si Si4 0.417295 0.319958 0.475260
Si Si5 0.742697 0.684744 0.953245
Si Si6 0.742874 0.683818 0.280750
O O1 0.427425 0.220618 0.635965
O O2 0.334526 0.268858 0.730984
O O3 0.402109 0.000000 0.788907
O O4 0.500000 0.239429 0.000000
O O5 0.901971 0.500000 0.690405
O O6 0.832016 0.751686 0.478850
O O7 0.000009 0.739392 0.782333
O O8 0.888000 0.745602 0.833285
O O9 0.901170 0.500000 0.017456
O O10 0.832050 0.751098 0.021296
O O11 0.500000 0.291780 0.500000
O O12 0.406846 0.500000 0.502041
O O13 0.335253 0.257394 0.263734
O O14 0.743216 0.500000 0.958210
O O15 0.730755 0.751378 0.099255
O O16 0.747171 0.500000 0.282312
#
# Coordination Sequence:
#
# PCOD8060691 Si02
#       6
#     4   4   4   4   4   4
#     4  11  24  39  54  74 101 133 168 206 250 301
#     4   8  14  24  42  69 101 136 168 203 249 297
#     4   8  13  23  39  66 105 138 165 202 249 297
#     4  10  20  35  56  80 104 131 166 208 252 297
#     4   9  17  28  46  75 107 135 166 207 252 299
#     4  10  19  32  52  77 103 133 170 209 251 296
#
# _framework density 19.551221000000002
#
# number of rings (size 3 to 8) (size 9 to 14) (size 15 to 20)
#    0.000    2.667    0.000    3.500    0.000    6.333 
#    0.000    4.167    0.000    0.000    0.000   11.667 
#    0.000    0.000    0.000    0.000    0.000    0.000 
#
# Total GULP energy -297539.972558 kJ/mol
# GULP energy per Si atom -12397.498857 kJ/mol
# Density = 1.950672 g / cm^3
# Si number density = 19.551221 Si / 1000 Ang^3
#
#
#
# Elastic Constant Matrix: (Units=GPa)
#
#
# Indices 1 2 3 4 5 6 
#
# 1 124.7049 6.3493 65.9377 0.0000 10.0404 0.0000
# 2 6.3493 6.9641 14.6527 0.0000 1.1395 0.0000
# 3 65.9377 14.6527 174.0991 0.0000 11.1764 0.0000
# 4 0.0000 0.0000 0.0000 12.5009 0.0000 -1.5938
# 5 10.0404 1.1395 11.1764 0.0000 37.1480 0.0000
# 6 0.0000 0.0000 0.0000 -1.5938 0.0000 2.5930
#
#
#
# Elastic Compliance Matrix: (Units=1/GPa)
#
#
# Indices 1 2 3 4 5 6 
#
# 1 0.010131 -0.001358 -0.003620 0.000000 -0.001608 0.000000
# 2 -0.001358 0.174708 -0.014142 0.000000 -0.000737 0.000000
# 3 -0.003620 -0.014142 0.008376 0.000000 -0.001108 0.000000
# 4 0.000000 0.000000 0.000000 0.086796 0.000000 0.053349
# 5 -0.001608 -0.000737 -0.001108 0.000000 0.027710 0.000000
# 6 0.000000 0.000000 0.000000 0.053349 0.000000 0.418448
#
#
# Mechanical properties :
#
#
# Convention : Reuss Voigt Hill
#
# Bulk Modulus (GPa) = 6.45263 53.29417 29.87340
# Shear Modulus (GPa) = 6.12694 25.03694 15.58194
#
# Velocity S-wave (km/s) = 1.77217 3.58240 2.82615
# Velocity P-wave (km/s) = 2.73770 6.66554 5.09531
#
# Compressibility (1/GPa) = 0.15497567
#
# Stress axis : x y z
#
# Youngs Moduli (GPa) = 98.70315 5.72383 119.38710
#
# Poissons Ratio (x) = 0.00777 0.43214
# Poissons Ratio (y) = 0.13405 1.68840
# Poissons Ratio (z) = 0.35727 0.08095
#
# Static dielectric constant tensor:
#      x y z
#    x 3.765640 0.000000 0.109150 
#    y 0.000000 2.918560 0.000000 
#    z 0.109150 0.000000 3.952960 
# 
# 
# High freq. dielectric constant tensor:
#      x y z
#    x 1.775460 0.000000 0.007410 
#    y 0.000000 1.694660 0.000000 
#    z 0.007410 0.000000 1.776290 
# 
# From -- ./inp_files/27985.got.cif
#   From: 2010.06.25/outbox.cif.g09.slc.cpg/sg10_14_cif.got.tgz:27985.got - 2010.06.27 22:07:45.
