data_PCOD8060648
_publ_section_title
;
Structure prediction by ZEFSAII (Michael W. Deem and Ramdas Pophale) SiO2 
 PCOD8060648
Probable space group: P 2/M
;
_chemical_formula_sum "Si O2"
_cell_formula_units_Z 20
_cell_length_a 11.571654
_cell_length_b 8.492540
_cell_length_c 11.586517
_cell_angle_alpha 90.000000
_cell_angle_beta 108.249807
_cell_angle_gamma 90.000000
_cell_volume 1081.365388
_symmetry_space_group_name_H-M "P 2/M"
_symmetry_group_IT_number 10
_symmetry_cell_setting 'monoclinic'
loop_
_space_group_symop_operation_xyz
x,y,z
-x,y,-z
-x,-y,-z
x,-y,z
loop_
_atom_site_type_symbol
_atom_site_label
_atom_site_fract_x
_atom_site_fract_y
_atom_site_fract_z
Si Si1 0.186077 0.313647 0.616331
Si Si2 0.887959 0.687785 0.889566
Si Si3 0.938437 0.686571 0.651986
Si Si4 0.644010 0.315118 0.934787
Si Si5 0.611613 0.182756 0.170052
O O1 0.205704 0.500000 0.631166
O O2 0.157849 0.260561 0.476033
O O3 0.307671 0.225463 0.693924
O O4 0.074210 0.257024 0.661928
O O5 0.890815 0.500000 0.889447
O O6 0.899615 0.756679 0.763533
O O7 0.762365 0.748695 0.905106
O O8 0.000000 0.753376 0.000000
O O9 0.940349 0.500000 0.656929
O O10 0.626467 0.500000 0.911072
O O11 0.527698 0.226352 0.845589
O O12 0.659292 0.280964 0.075256
O O13 0.620855 0.000000 0.143194
#
# Coordination Sequence:
#
# PCOD8060648 Si02
#       5
#     4   4   4   4   4
#     4   9  16  30  53  75  97 127 163 198 235 284
#     4   9  16  27  48  78 104 121 147 196 249 288
#     4   8  15  28  49  78 103 123 155 201 243 280
#     4  10  19  32  52  74  96 125 162 199 238 289
#     4  11  21  33  49  69  98 130 162 203 243 280
#
# _framework density 18.495135999999999
#
# number of rings (size 3 to 8) (size 9 to 14) (size 15 to 20)
#    0.000    2.600    0.000    6.000    0.000    3.200 
#    0.000    3.000    0.000   19.200    0.000    0.000 
#    0.000    0.000    0.000    0.000    0.000    0.000 
#
# Total GULP energy -247976.505193 kJ/mol
# GULP energy per Si atom -12398.825260 kJ/mol
# Density = 1.845304 g / cm^3
# Si number density = 18.495136 Si / 1000 Ang^3
#
#
#
# Elastic Constant Matrix: (Units=GPa)
#
#
# Indices 1 2 3 4 5 6 
#
# 1 141.3879 15.7689 90.0554 0.0000 -0.2504 0.0000
# 2 15.7689 34.5280 12.4437 0.0000 6.0298 0.0000
# 3 90.0554 12.4437 148.4987 0.0000 10.1893 0.0000
# 4 0.0000 0.0000 0.0000 6.0223 0.0000 -0.6569
# 5 -0.2504 6.0298 10.1893 0.0000 36.1959 0.0000
# 6 0.0000 0.0000 0.0000 -0.6569 0.0000 -0.3599
#
#
#
# Elastic Compliance Matrix: (Units=1/GPa)
#
#
# Indices 1 2 3 4 5 6 
#
# 1 0.012041 -0.003370 -0.007203 0.000000 0.002672 0.000000
# 2 -0.003370 0.031496 -0.000239 0.000000 -0.005203 0.000000
# 3 -0.007203 -0.000239 0.011342 0.000000 -0.003203 0.000000
# 4 0.000000 0.000000 0.000000 0.138478 0.000000 -0.252757
# 5 0.002672 -0.005203 -0.003203 0.000000 0.029414 0.000000
# 6 0.000000 0.000000 0.000000 -0.252757 0.000000 -2.317142
#
#
# Mechanical properties :
#
#
# Convention : Reuss Voigt Hill
#
# Bulk Modulus (GPa) = 30.07017 62.32783 46.19900
# Shear Modulus (GPa) = -2.42523 22.11478 9.84477
#
# Velocity S-wave (km/s) = -1.14635 3.46165 2.30964
# Velocity P-wave (km/s) = 3.81334 7.05338 5.66973
#
# Compressibility (1/GPa) = 0.03325555
#
# Stress axis : x y z
#
# Youngs Moduli (GPa) = 83.04661 31.75042 88.16609
#
# Poissons Ratio (x) = 0.10700 0.63509
# Poissons Ratio (y) = 0.27986 0.02103
# Poissons Ratio (z) = 0.59822 0.00757
#
# Static dielectric constant tensor:
#      x y z
#    x 3.523190 0.000000 -0.041850 
#    y 0.000000 2.948510 0.000000 
#    z -0.041850 0.000000 3.630080 
# 
# 
# High freq. dielectric constant tensor:
#      x y z
#    x 1.713170 0.000000 0.010580 
#    y 0.000000 1.680030 0.000000 
#    z 0.010580 0.000000 1.720240 
# 
# From -- ./inp_files/44189.got.cif
#   From: 2010.06.25/outbox.cif.g09.slc.cpg/sg10_23_cif.got.tgz:44189.got - 2010.06.27 22:07:45.
