data_PCOD8060697
_publ_section_title
;
Structure prediction by ZEFSAII (Michael W. Deem and Ramdas Pophale) SiO2 
 PCOD8060697
Probable space group: P 2/M
;
_chemical_formula_sum "Si O2"
_cell_formula_units_Z 32
_cell_length_a 12.092578
_cell_length_b 9.220419
_cell_length_c 19.871050
_cell_angle_alpha 90.000000
_cell_angle_beta 55.075858
_cell_angle_gamma 90.000000
_cell_volume 1816.590078
_symmetry_space_group_name_H-M "P 2/M"
_symmetry_group_IT_number 10
_symmetry_cell_setting 'monoclinic'
loop_
_space_group_symop_operation_xyz
x,y,z
-x,y,-z
-x,-y,-z
x,-y,z
loop_
_atom_site_type_symbol
_atom_site_label
_atom_site_fract_x
_atom_site_fract_y
_atom_site_fract_z
Si Si1 0.146173 0.169995 0.977683
Si Si2 0.656071 0.168256 0.701334
Si Si3 0.884400 0.670194 0.877315
Si Si4 0.099212 0.665743 0.630871
Si Si5 0.839903 0.830611 0.760488
Si Si6 0.149443 0.333168 0.464395
Si Si7 0.647840 0.170847 0.208263
Si Si8 0.807290 0.665415 0.259583
O O1 0.256699 0.223032 0.885589
O O2 0.158014 0.000000 0.989839
O O3 0.175791 0.259595 0.034649
O O4 0.000000 0.209878 0.000000
O O5 0.714002 0.198176 0.755315
O O6 0.738462 0.247482 0.614783
O O7 0.502918 0.225414 0.754121
O O8 0.662982 0.000000 0.680968
O O9 0.853520 0.500000 0.886969
O O10 0.811334 0.744443 0.839202
O O11 0.043278 0.703794 0.818459
O O12 0.044632 0.500000 0.656465
O O13 0.179087 0.687702 0.533481
O O14 0.200030 0.697790 0.657811
O O15 0.972307 0.772470 0.676606
O O16 0.859188 0.000000 0.769809
O O17 0.158615 0.500000 0.438991
O O18 0.000000 0.273259 0.500000
O O19 0.697725 0.236076 0.261284
O O20 0.655848 0.000000 0.212925
O O21 0.771465 0.500000 0.255807
#
# Coordination Sequence:
#
# PCOD8060697 Si02
#       8
#     4   4   4   4   4   4   4   4
#     4  10  19  33  55  81 105 136 180 224 263 311
#     4  10  22  37  53  77 109 143 176 216 265 316
#     4  10  20  33  53  80 109 136 171 221 268 311
#     4   9  18  33  52  79 109 135 170 219 268 309
#     4  10  19  32  52  77 105 138 176 213 261 316
#     4  10  19  33  56  81 106 138 178 220 263 311
#     4  10  21  37  54  75 108 142 175 217 265 316
#     4   9  18  32  51  76 105 136 171 212 261 315
#
# _framework density 17.615421999999999
#
# number of rings (size 3 to 8) (size 9 to 14) (size 15 to 20)
#    0.000    2.250    2.500    1.500    0.000    4.500 
#    0.000    1.250    0.000    7.500    0.000    0.000 
#    0.000    0.000    0.000    0.000    0.000    0.000 
#
# Total GULP energy -396857.387187 kJ/mol
# GULP energy per Si atom -12401.793350 kJ/mol
# Density = 1.757533 g / cm^3
# Si number density = 17.615422 Si / 1000 Ang^3
#
#
#
# Elastic Constant Matrix: (Units=GPa)
#
#
# Indices 1 2 3 4 5 6 
#
# 1 129.5879 56.2839 75.4277 0.0000 6.8477 0.0000
# 2 56.2839 63.9947 48.5672 0.0000 6.9717 0.0000
# 3 75.4277 48.5672 121.0803 0.0000 7.6103 0.0000
# 4 0.0000 0.0000 0.0000 27.7793 0.0000 7.7814
# 5 6.8477 6.9717 7.6103 0.0000 30.5158 0.0000
# 6 0.0000 0.0000 0.0000 7.7814 0.0000 25.8946
#
#
#
# Elastic Compliance Matrix: (Units=1/GPa)
#
#
# Indices 1 2 3 4 5 6 
#
# 1 0.014841 -0.008686 -0.005767 0.000000 0.000092 0.000000
# 2 -0.008686 0.027810 -0.005554 0.000000 -0.003019 0.000000
# 3 -0.005767 -0.005554 0.014140 0.000000 -0.000963 0.000000
# 4 0.000000 0.000000 0.000000 0.039307 0.000000 -0.011812
# 5 0.000092 -0.003019 -0.000963 0.000000 0.033679 0.000000
# 6 0.000000 0.000000 0.000000 -0.011812 0.000000 0.042168
#
#
# Mechanical properties :
#
#
# Convention : Reuss Voigt Hill
#
# Bulk Modulus (GPa) = 59.60755 75.02448 67.31602
# Shear Modulus (GPa) = 22.98297 25.79688 24.38993
#
# Velocity S-wave (km/s) = 3.61599 3.83096 3.72503
# Velocity P-wave (km/s) = 7.16558 7.88993 7.53647
#
# Compressibility (1/GPa) = 0.01677640
#
# Stress axis : x y z
#
# Youngs Moduli (GPa) = 67.37879 35.95810 70.72140
#
# Poissons Ratio (x) = 0.31235 0.40786
# Poissons Ratio (y) = 0.58528 0.39279
# Poissons Ratio (z) = 0.38858 0.19971
#
# Static dielectric constant tensor:
#      x y z
#    x 3.292780 0.000000 0.173130 
#    y 0.000000 3.232380 0.000000 
#    z 0.173130 0.000000 3.229540 
# 
# 
# High freq. dielectric constant tensor:
#      x y z
#    x 1.674880 0.000000 0.023510 
#    y 0.000000 1.681150 0.000000 
#    z 0.023510 0.000000 1.671280 
# 
# From -- ./inp_files/49778.got.cif
#   From: 2010.06.25/outbox.cif.g09.slc.cpg/sg10_25_cif.got.tgz:49778.got - 2010.06.27 22:07:45.
