data_PCOD8060570
_publ_section_title
;
Structure prediction by ZEFSAII (Michael W. Deem and Ramdas Pophale) SiO2 
 PCOD8060570
Probable space group: P 2/M
;
_chemical_formula_sum "Si O2"
_cell_formula_units_Z 24
_cell_length_a 21.400704
_cell_length_b 9.139237
_cell_length_c 16.197896
_cell_angle_alpha 90.000000
_cell_angle_beta 22.880508
_cell_angle_gamma 90.000000
_cell_volume 1231.784220
_symmetry_space_group_name_H-M "P 2/M"
_symmetry_group_IT_number 10
_symmetry_cell_setting 'monoclinic'
loop_
_space_group_symop_operation_xyz
x,y,z
-x,y,-z
-x,-y,-z
x,-y,z
loop_
_atom_site_type_symbol
_atom_site_label
_atom_site_fract_x
_atom_site_fract_y
_atom_site_fract_z
Si Si1 0.663110 0.661714 0.971553
Si Si2 0.849370 0.835888 0.622225
Si Si3 0.182242 0.832090 0.784336
Si Si4 0.253384 0.830807 0.887345
Si Si5 0.960109 0.335664 0.733992
Si Si6 0.535354 0.327159 0.635748
O O1 0.637246 0.500000 0.965737
O O2 0.510756 0.709409 0.212841
O O3 0.692765 0.771510 0.859538
O O4 0.815334 0.660190 0.846153
O O5 0.000000 0.832608 0.500000
O O6 0.886579 0.741238 0.495316
O O7 0.808761 0.000000 0.643948
O O8 0.247133 0.813630 0.797356
O O9 0.285728 0.731347 0.597050
O O10 0.195298 0.000000 0.738979
O O11 0.000000 0.776699 0.000000
O O12 0.415842 0.753723 0.718692
O O13 0.256492 0.000000 0.911048
O O14 0.095101 0.755680 0.118894
O O15 0.008792 0.500000 0.701394
O O16 0.523005 0.500000 0.634241
#
# Coordination Sequence:
#
# PCOD8060570 Si02
#       6
#     4   4   4   4   4   4
#     4   8  15  26  39  60  92 126 156 190 235 282
#     4   9  15  22  36  61  92 125 159 193 231 279
#     4  10  22  38  53  71  97 129 164 203 248 295
#     4  10  19  32  51  73  98 129 165 204 244 289
#     4   9  16  26  41  63  94 128 159 195 239 285
#     4  10  20  33  51  75 101 129 163 203 245 291
#
# _framework density 19.483931999999999
#
# number of rings (size 3 to 8) (size 9 to 14) (size 15 to 20)
#    0.000    2.667    0.000    3.500    0.000   10.333 
#    0.000    0.000    0.000    0.000    0.000    1.167 
#    0.000    9.333    0.000    0.000    0.000    0.000 
#
# Total GULP energy -297571.640056 kJ/mol
# GULP energy per Si atom -12398.818336 kJ/mol
# Density = 1.943959 g / cm^3
# Si number density = 19.483932 Si / 1000 Ang^3
#
#
#
# Elastic Constant Matrix: (Units=GPa)
#
#
# Indices 1 2 3 4 5 6 
#
# 1 9.1983 21.9183 33.3679 0.0000 6.0473 0.0000
# 2 21.9183 147.6526 85.7347 0.0000 20.5638 0.0000
# 3 33.3679 85.7347 153.4910 0.0000 30.7768 0.0000
# 4 0.0000 0.0000 0.0000 39.4882 0.0000 11.5138
# 5 6.0473 20.5638 30.7768 0.0000 25.1090 0.0000
# 6 0.0000 0.0000 0.0000 11.5138 0.0000 12.0217
#
#
#
# Elastic Compliance Matrix: (Units=1/GPa)
#
#
# Indices 1 2 3 4 5 6 
#
# 1 0.553618 -0.018952 -0.114214 0.000000 0.022182 0.000000
# 2 -0.018952 0.010733 -0.001363 0.000000 -0.002555 0.000000
# 3 -0.114214 -0.001363 0.034958 0.000000 -0.014225 0.000000
# 4 0.000000 0.000000 0.000000 0.035136 0.000000 -0.033652
# 5 0.022182 -0.002555 -0.014225 0.000000 0.054013 0.000000
# 6 0.000000 0.000000 0.000000 -0.033652 0.000000 0.115413
#
#
# Mechanical properties :
#
#
# Convention : Reuss Voigt Hill
#
# Bulk Modulus (GPa) = 3.02800 65.82041 34.42421
# Shear Modulus (GPa) = 4.22650 26.61184 15.41917
#
# Velocity S-wave (km/s) = 1.47443 3.69973 2.81620
# Velocity P-wave (km/s) = 2.11094 7.21844 5.31799
#
# Compressibility (1/GPa) = 0.33025056
#
# Stress axis : x y z
#
# Youngs Moduli (GPa) = 1.80630 93.16904 28.60594
#
# Poissons Ratio (x) = 1.76579 3.26720
# Poissons Ratio (y) = 0.03423 0.03898
# Poissons Ratio (z) = 0.20630 0.12696
#
# Static dielectric constant tensor:
#      x y z
#    x 3.036080 0.000000 0.386300 
#    y 0.000000 3.735150 0.000000 
#    z 0.386300 0.000000 3.716040 
# 
# 
# High freq. dielectric constant tensor:
#      x y z
#    x 1.704980 0.000000 0.035970 
#    y 0.000000 1.769250 0.000000 
#    z 0.035970 0.000000 1.759450 
# 
# From -- ./inp_files/33772.got.cif
#   From: 2010.06.25/outbox.cif.g09.slc.cpg/sg10_17_cif.got.tgz:33772.got - 2010.06.27 22:07:45.
