data_PCOD8060913
_publ_section_title
;
Structure prediction by ZEFSAII (Michael W. Deem and Ramdas Pophale) SiO2 
 PCOD8060913
Probable space group: P 2/M
;
_chemical_formula_sum "Si O2"
_cell_formula_units_Z 32
_cell_length_a 14.585461
_cell_length_b 9.240147
_cell_length_c 12.518084
_cell_angle_alpha 90.000000
_cell_angle_beta 88.246344
_cell_angle_gamma 90.000000
_cell_volume 1686.294597
_symmetry_space_group_name_H-M "P 2/M"
_symmetry_group_IT_number 10
_symmetry_cell_setting 'monoclinic'
loop_
_space_group_symop_operation_xyz
x,y,z
-x,y,-z
-x,-y,-z
x,-y,z
loop_
_atom_site_type_symbol
_atom_site_label
_atom_site_fract_x
_atom_site_fract_y
_atom_site_fract_z
Si Si1 0.713264 0.671616 0.377519
Si Si2 0.984224 0.670084 0.877325
Si Si3 0.149178 0.829112 0.786264
Si Si4 0.221504 0.329748 0.176327
Si Si5 0.512597 0.670609 0.316877
Si Si6 0.730310 0.837923 0.023807
Si Si7 0.464398 0.163816 0.888746
Si Si8 0.683589 0.670471 0.613800
O O1 0.722088 0.500000 0.355390
O O2 0.787641 0.755949 0.305596
O O3 0.609607 0.728373 0.358193
O O4 0.732807 0.711381 0.500851
O O5 0.002933 0.500000 0.863421
O O6 0.049256 0.756331 0.792298
O O7 0.883391 0.714614 0.840862
O O8 0.000000 0.717030 0.000000
O O9 0.143745 0.000000 0.762862
O O10 0.185042 0.795209 0.904240
O O11 0.234322 0.500000 0.171959
O O12 0.281172 0.265562 0.077236
O O13 0.258690 0.265238 0.287899
O O14 0.517520 0.500000 0.311740
O O15 0.493998 0.730951 0.200094
O O16 0.423381 0.722320 0.387432
O O17 0.740213 0.000000 0.978289
O O18 0.645098 0.825875 0.107289
O O19 0.498219 0.000000 0.865696
O O20 0.500000 0.220758 0.000000
O O21 0.682092 0.500000 0.627976
#
# Coordination Sequence:
#
# PCOD8060913 Si02
#       8
#     4   4   4   4   4   4   4   4
#     4  10  20  36  58  80 108 145 182 223 268 314
#     4  10  20  35  56  83 110 137 176 222 269 324
#     4  11  22  36  56  81 109 141 179 223 268 317
#     4  10  20  35  57  81 108 140 176 223 271 321
#     4  10  19  32  54  81 107 138 180 226 266 311
#     4  10  20  33  50  75 109 143 175 215 266 322
#     4  10  20  33  48  71 109 150 181 215 263 318
#     4   9  19  36  56  81 109 140 181 224 269 319
#
# _framework density 18.976519
#
# number of rings (size 3 to 8) (size 9 to 14) (size 15 to 20)
#    0.000    2.000    2.500    1.500    0.000    3.500 
#    0.000    1.875    0.000    5.250    0.000    0.000 
#    0.000    0.000    0.000    0.000    0.000    0.000 
#
# Total GULP energy -396676.315933 kJ/mol
# GULP energy per Si atom -12396.134873 kJ/mol
# Density = 1.893333 g / cm^3
# Si number density = 18.976519 Si / 1000 Ang^3
#
#
#
# Elastic Constant Matrix: (Units=GPa)
#
#
# Indices 1 2 3 4 5 6 
#
# 1 70.1298 25.8236 51.0928 0.0000 -11.4438 0.0000
# 2 25.8236 24.3477 30.2979 0.0000 -8.5277 0.0000
# 3 51.0928 30.2979 102.8355 0.0000 -11.3301 0.0000
# 4 0.0000 0.0000 0.0000 7.3039 0.0000 2.5982
# 5 -11.4438 -8.5277 -11.3301 0.0000 26.5614 0.0000
# 6 0.0000 0.0000 0.0000 2.5982 0.0000 16.6720
#
#
#
# Elastic Compliance Matrix: (Units=1/GPa)
#
#
# Indices 1 2 3 4 5 6 
#
# 1 0.027013 -0.018022 -0.007835 0.000000 0.002510 0.000000
# 2 -0.018022 0.081674 -0.013721 0.000000 0.012605 0.000000
# 3 -0.007835 -0.013721 0.017631 0.000000 -0.000260 0.000000
# 4 0.000000 0.000000 0.000000 0.144949 0.000000 -0.022589
# 5 0.002510 0.012605 -0.000260 0.000000 0.042666 0.000000
# 6 0.000000 0.000000 0.000000 -0.022589 0.000000 0.063501
#
#
# Mechanical properties :
#
#
# Convention : Reuss Voigt Hill
#
# Bulk Modulus (GPa) = 21.20281 45.74908 33.47595
# Shear Modulus (GPa) = 10.58628 16.11405 13.35017
#
# Velocity S-wave (km/s) = 2.36447 2.91719 2.65525
# Velocity P-wave (km/s) = 4.31877 5.95880 5.20380
#
# Compressibility (1/GPa) = 0.04716356
#
# Stress axis : x y z
#
# Youngs Moduli (GPa) = 37.01912 12.24382 56.71903
#
# Poissons Ratio (x) = 0.22065 0.44439
# Poissons Ratio (y) = 0.66714 0.77822
# Poissons Ratio (z) = 0.29005 0.16799
#
# Static dielectric constant tensor:
#      x y z
#    x 3.671190 0.000000 0.097480 
#    y 0.000000 3.226730 0.000000 
#    z 0.097480 0.000000 3.513560 
# 
# 
# High freq. dielectric constant tensor:
#      x y z
#    x 1.741510 0.000000 -0.001300 
#    y 0.000000 1.713720 0.000000 
#    z -0.001300 0.000000 1.733620 
# 
# From -- ./inp_files/49944.got.cif
#   From: 2010.06.25/outbox.cif.g09.slc.cpg/sg10_25_cif.got.tgz:49944.got - 2010.06.27 22:07:45.
