data_PCOD8060085
_publ_section_title
;
Structure prediction by ZEFSAII (Michael W. Deem and Ramdas Pophale) SiO2 
 PCOD8060085
Probable space group: P 2/M
;
_chemical_formula_sum "Si O2"
_cell_formula_units_Z 24
_cell_length_a 12.725634
_cell_length_b 7.824119
_cell_length_c 29.057576
_cell_angle_alpha 90.000000
_cell_angle_beta 27.740930
_cell_angle_gamma 90.000000
_cell_volume 1346.697572
_symmetry_space_group_name_H-M "P 2/M"
_symmetry_group_IT_number 10
_symmetry_cell_setting 'monoclinic'
loop_
_space_group_symop_operation_xyz
x,y,z
-x,y,-z
-x,-y,-z
x,-y,z
loop_
_atom_site_type_symbol
_atom_site_label
_atom_site_fract_x
_atom_site_fract_y
_atom_site_fract_z
Si Si1 0.103832 0.000000 0.887598
Si Si2 0.383696 0.185920 0.713414
Si Si3 0.695950 0.705445 0.744870
Si Si4 0.835907 0.298011 0.392591
Si Si5 0.386354 0.298259 0.612592
Si Si6 0.643905 0.000000 0.113455
Si Si7 0.790809 0.308676 0.606823
O O1 0.170774 0.169270 0.831304
O O2 0.249096 0.000000 0.877625
O O3 0.838958 0.000000 0.999451
O O4 0.297232 0.236117 0.696445
O O5 0.570136 0.316002 0.660079
O O6 0.503887 0.000000 0.664519
O O7 0.641012 0.500000 0.769694
O O8 0.734752 0.773011 0.677781
O O9 0.917012 0.760555 0.687746
O O10 0.493834 0.823935 0.841999
O O11 0.824511 0.500000 0.397059
O O12 0.641417 0.231514 0.503165
O O13 0.782134 0.228856 0.361947
O O14 0.383637 0.500000 0.613295
O O15 0.871025 0.500000 0.586886
O O16 0.000000 0.214423 0.500000
#
# Coordination Sequence:
#
# PCOD8060085 Si02
#       7
#     2   4   4   4   4   2   4
#     4   9  22  38  55  68 105 133 170 230 270 320
#     4  10  19  33  47  73 102 135 166 215 256 309
#     4  10  19  34  55  80 106 135 177 216 258 320
#     4   8  16  31  51  77 108 142 176 207 245 304
#     4   9  16  31  53  74 106 146 175 204 247 301
#     4  11  20  42  57  74 103 139 172 228 286 304
#     4  10  19  31  49  75 107 138 167 204 255 317
#
# _framework density 17.821373000000001
#
# number of rings (size 3 to 8) (size 9 to 14) (size 15 to 20)
#    0.500    2.000    1.667    2.500    0.000    3.000 
#    6.000    4.167    0.000    2.000    0.000    3.500 
#    0.000    0.000    0.000    0.000    0.000    0.000 
#
# Total GULP energy -297320.719983 kJ/mol
# GULP energy per Si atom -12388.363333 kJ/mol
# Density = 1.778081 g / cm^3
# Si number density = 17.821373 Si / 1000 Ang^3
#
#
#
# Elastic Constant Matrix: (Units=GPa)
#
#
# Indices 1 2 3 4 5 6 
#
# 1 120.9858 18.3370 65.3799 0.0000 4.1560 0.0000
# 2 18.3370 45.8269 32.5650 0.0000 -7.6256 0.0000
# 3 65.3799 32.5650 136.3464 0.0000 1.1189 0.0000
# 4 0.0000 0.0000 0.0000 7.2180 0.0000 -3.6134
# 5 4.1560 -7.6256 1.1189 0.0000 24.5740 0.0000
# 6 0.0000 0.0000 0.0000 -3.6134 0.0000 11.9669
#
#
#
# Elastic Compliance Matrix: (Units=1/GPa)
#
#
# Indices 1 2 3 4 5 6 
#
# 1 0.011277 -0.001234 -0.005096 0.000000 -0.002058 0.000000
# 2 -0.001234 0.028294 -0.006242 0.000000 0.009273 0.000000
# 3 -0.005096 -0.006242 0.011282 0.000000 -0.001589 0.000000
# 4 0.000000 0.000000 0.000000 0.163213 0.000000 0.049282
# 5 -0.002058 0.009273 -0.001589 0.000000 0.043991 0.000000
# 6 0.000000 0.000000 0.000000 0.049282 0.000000 0.098444
#
#
# Mechanical properties :
#
#
# Convention : Reuss Voigt Hill
#
# Bulk Modulus (GPa) = 38.89708 59.52476 49.21092
# Shear Modulus (GPa) = 12.81348 21.21026 17.01187
#
# Velocity S-wave (km/s) = 2.68432 3.45361 3.09297
# Velocity P-wave (km/s) = 5.61078 7.02684 6.35836
#
# Compressibility (1/GPa) = 0.02570887
#
# Stress axis : x y z
#
# Youngs Moduli (GPa) = 88.67713 35.34363 88.63868
#
# Poissons Ratio (x) = 0.04360 0.45169
# Poissons Ratio (y) = 0.10939 0.55331
# Poissons Ratio (z) = 0.45189 0.22062
#
# Static dielectric constant tensor:
#      x y z
#    x 3.544890 0.000000 0.103570 
#    y 0.000000 3.049640 0.000000 
#    z 0.103570 0.000000 3.236480 
# 
# 
# High freq. dielectric constant tensor:
#      x y z
#    x 1.693810 0.000000 0.006240 
#    y 0.000000 1.672660 0.000000 
#    z 0.006240 0.000000 1.659510 
# 
# From -- ./inp_files/92502.got.cif
#   From: 2010.06.25/outbox.cif.g09.slc.cpg/sg10_47_cif.got.tgz:92502.got - 2010.06.27 22:07:45.
