data_PCOD8060434
_publ_section_title
;
Structure prediction by ZEFSAII (Michael W. Deem and Ramdas Pophale) SiO2 
 PCOD8060434
Probable space group: P 2/M
;
_chemical_formula_sum "Si O2"
_cell_formula_units_Z 28
_cell_length_a 17.787049
_cell_length_b 8.718461
_cell_length_c 14.398937
_cell_angle_alpha 90.000000
_cell_angle_beta 136.758842
_cell_angle_gamma 90.000000
_cell_volume 1529.711313
_symmetry_space_group_name_H-M "P 2/M"
_symmetry_group_IT_number 10
_symmetry_cell_setting 'monoclinic'
loop_
_space_group_symop_operation_xyz
x,y,z
-x,y,-z
-x,-y,-z
x,-y,z
loop_
_atom_site_type_symbol
_atom_site_label
_atom_site_fract_x
_atom_site_fract_y
_atom_site_fract_z
Si Si1 0.331401 0.817493 0.674949
Si Si2 0.914570 0.319106 0.220504
Si Si3 0.769384 0.820010 0.933191
Si Si4 0.138216 0.817467 0.370778
Si Si5 0.264053 0.181994 0.816745
Si Si6 0.113728 0.180657 0.141825
Si Si7 0.426167 0.180685 0.121766
O O1 0.249351 0.760990 0.520860
O O2 0.289408 0.757298 0.736661
O O3 0.452270 0.746428 0.763077
O O4 0.337029 0.000000 0.682622
O O5 0.919115 0.500000 0.229188
O O6 0.848919 0.256522 0.250375
O O7 0.036714 0.252266 0.335470
O O8 0.859260 0.267511 0.074660
O O9 0.788092 0.778738 0.841803
O O10 0.646251 0.771643 0.853059
O O11 0.788624 0.000000 0.969305
O O12 0.141547 0.751937 0.268274
O O13 0.128448 0.000000 0.364351
O O14 0.250365 0.000000 0.808547
O O15 0.363649 0.236811 0.972881
O O16 0.099836 0.000000 0.139619
O O17 0.000000 0.250667 0.000000
O O18 0.439762 0.000000 0.129679
#
# Coordination Sequence:
#
# PCOD8060434 Si02
#       7
#     4   4   4   4   4   4   4
#     4   9  17  29  48  74  97 124 162 200 230 273
#     4  11  21  32  47  71  99 123 158 203 244 280
#     4   9  16  30  52  74  96 126 158 192 238 284
#     4  10  19  32  49  69  98 130 161 193 233 285
#     4   9  17  31  52  72  94 125 160 195 238 284
#     4   9  15  26  48  73  96 124 159 192 232 282
#     4   8  14  26  48  75  98 119 155 200 236 271
#
# _framework density 18.304106999999998
#
# number of rings (size 3 to 8) (size 9 to 14) (size 15 to 20)
#    0.000    2.714    1.429    2.571    0.000    2.286 
#    0.000    5.714    0.000   14.571    0.000    0.000 
#    0.000    5.714    0.000    0.000    0.000    0.000 
#
# Total GULP energy -347082.361340 kJ/mol
# GULP energy per Si atom -12395.798619 kJ/mol
# Density = 1.826245 g / cm^3
# Si number density = 18.304107 Si / 1000 Ang^3
#
#
#
# Elastic Constant Matrix: (Units=GPa)
#
#
# Indices 1 2 3 4 5 6 
#
# 1 166.5066 19.9786 97.3912 0.0000 0.4119 0.0000
# 2 19.9786 29.0175 19.9905 0.0000 4.8971 0.0000
# 3 97.3912 19.9905 135.7595 0.0000 2.7754 0.0000
# 4 0.0000 0.0000 0.0000 3.4416 0.0000 -1.7889
# 5 0.4119 4.8971 2.7754 0.0000 24.4989 0.0000
# 6 0.0000 0.0000 0.0000 -1.7889 0.0000 3.5120
#
#
#
# Elastic Compliance Matrix: (Units=1/GPa)
#
#
# Indices 1 2 3 4 5 6 
#
# 1 0.010510 -0.002467 -0.007200 0.000000 0.001132 0.000000
# 2 -0.002467 0.040184 -0.003993 0.000000 -0.007539 0.000000
# 3 -0.007200 -0.003993 0.013130 0.000000 -0.000568 0.000000
# 4 0.000000 0.000000 0.000000 0.395206 0.000000 0.201306
# 5 0.001132 -0.007539 -0.000568 0.000000 0.042370 0.000000
# 6 0.000000 0.000000 0.000000 0.201306 0.000000 0.387274
#
#
# Mechanical properties :
#
#
# Convention : Reuss Voigt Hill
#
# Bulk Modulus (GPa) = 27.39381 67.33379 47.36380
# Shear Modulus (GPa) = 5.38699 19.21872 12.30286
#
# Velocity S-wave (km/s) = 1.71739 3.24384 2.59537
# Velocity P-wave (km/s) = 4.35098 7.13414 5.90876
#
# Compressibility (1/GPa) = 0.03650460
#
# Stress axis : x y z
#
# Youngs Moduli (GPa) = 95.14645 24.88564 76.15940
#
# Poissons Ratio (x) = 0.06140 0.54831
# Poissons Ratio (y) = 0.23477 0.30409
# Poissons Ratio (z) = 0.68501 0.09936
#
# Static dielectric constant tensor:
#      x y z
#    x 3.728600 0.000000 0.058830 
#    y 0.000000 2.821840 0.000000 
#    z 0.058830 0.000000 3.461530 
# 
# 
# High freq. dielectric constant tensor:
#      x y z
#    x 1.726770 0.000000 0.003270 
#    y 0.000000 1.653860 0.000000 
#    z 0.003270 0.000000 1.693040 
# 
# From -- ./inp_files/68690.got.cif
#   From: 2010.06.25/outbox.cif.g09.slc.cpg/sg10_35_cif.got.tgz:68690.got - 2010.06.27 22:07:45.
