data_PCOD8060897
_publ_section_title
;
Structure prediction by ZEFSAII (Michael W. Deem and Ramdas Pophale) SiO2 
 PCOD8060897
Probable space group: P 2/M
;
_chemical_formula_sum "Si O2"
_cell_formula_units_Z 32
_cell_length_a 30.263196
_cell_length_b 9.056186
_cell_length_c 11.223225
_cell_angle_alpha 90.000000
_cell_angle_beta 146.229995
_cell_angle_gamma 90.000000
_cell_volume 1709.793316
_symmetry_space_group_name_H-M "P 2/M"
_symmetry_group_IT_number 10
_symmetry_cell_setting 'monoclinic'
loop_
_space_group_symop_operation_xyz
x,y,z
-x,y,-z
-x,-y,-z
x,-y,z
loop_
_atom_site_type_symbol
_atom_site_label
_atom_site_fract_x
_atom_site_fract_y
_atom_site_fract_z
Si Si1 0.282663 0.671915 0.277631
Si Si2 0.399529 0.828394 0.155246
Si Si3 0.140450 0.829233 0.842904
Si Si4 0.804631 0.328117 0.677036
Si Si5 0.254354 0.326751 0.710566
Si Si6 0.101656 0.325076 0.517927
Si Si7 0.579300 0.172191 0.526947
Si Si8 0.947941 0.170468 0.109184
O O1 0.277919 0.500000 0.235884
O O2 0.257855 0.703807 0.357686
O O3 0.371602 0.732150 0.458411
O O4 0.226004 0.757788 0.058974
O O5 0.395305 0.778711 0.283299
O O6 0.486669 0.793343 0.298403
O O7 0.380610 0.000000 0.103298
O O8 0.336401 0.743078 0.935097
O O9 0.098167 0.746015 0.640294
O O10 0.083726 0.808607 0.828290
O O11 0.152638 0.000000 0.837096
O O12 0.828064 0.500000 0.724246
O O13 0.764502 0.273327 0.465418
O O14 0.884994 0.236075 0.875107
O O15 0.265951 0.500000 0.739860
O O16 0.183372 0.277598 0.638198
O O17 0.092035 0.500000 0.505732
O O18 0.029673 0.259957 0.278389
O O19 0.596909 0.000000 0.546684
O O20 0.962606 0.000000 0.111161
#
# Coordination Sequence:
#
# PCOD8060897 Si02
#       8
#     4   4   4   4   4   4   4   4
#     4  10  19  32  54  80 102 133 176 213 252 304
#     4   9  19  35  55  79 107 139 169 202 252 308
#     4  10  20  34  52  76 108 139 167 208 260 309
#     4   9  20  39  56  71 100 139 175 214 257 301
#     4  10  22  38  54  74 102 137 175 214 257 302
#     4  11  22  34  52  78 105 135 172 213 259 310
#     4   9  18  34  55  80 110 138 165 203 254 308
#     4  10  21  36  54  77 103 134 173 214 258 306
#
# _framework density 18.715713000000001
#
# number of rings (size 3 to 8) (size 9 to 14) (size 15 to 20)
#    0.000    2.250    0.000    3.375    0.000    8.500 
#    0.000    4.375    0.000    3.750    0.000    0.000 
#    0.000    0.000    0.000    0.000    0.000    0.000 
#
# Total GULP energy -396922.483239 kJ/mol
# GULP energy per Si atom -12403.827601 kJ/mol
# Density = 1.867312 g / cm^3
# Si number density = 18.715713 Si / 1000 Ang^3
#
#
#
# Elastic Constant Matrix: (Units=GPa)
#
#
# Indices 1 2 3 4 5 6 
#
# 1 44.8655 34.9194 51.4673 0.0000 -3.9249 0.0000
# 2 34.9194 80.9515 57.2291 0.0000 3.1363 0.0000
# 3 51.4673 57.2291 143.9349 0.0000 -2.6056 0.0000
# 4 0.0000 0.0000 0.0000 38.3896 0.0000 5.6521
# 5 -3.9249 3.1363 -2.6056 0.0000 27.7308 0.0000
# 6 0.0000 0.0000 0.0000 5.6521 0.0000 25.4091
#
#
#
# Elastic Compliance Matrix: (Units=1/GPa)
#
#
# Indices 1 2 3 4 5 6 
#
# 1 0.044886 -0.011623 -0.011309 0.000000 0.006605 0.000000
# 2 -0.011623 0.020380 -0.004026 0.000000 -0.004328 0.000000
# 3 -0.011309 -0.004026 0.012593 0.000000 0.000038 0.000000
# 4 0.000000 0.000000 0.000000 0.026931 0.000000 -0.005991
# 5 0.006605 -0.004328 0.000038 0.000000 0.037489 0.000000
# 6 0.000000 0.000000 0.000000 -0.005991 0.000000 0.040689
#
#
# Mechanical properties :
#
#
# Convention : Reuss Voigt Hill
#
# Bulk Modulus (GPa) = 41.76453 61.88706 51.82579
# Shear Modulus (GPa) = 20.41943 26.71495 23.56719
#
# Velocity S-wave (km/s) = 3.30666 3.78220 3.55240
# Velocity P-wave (km/s) = 6.07802 7.22579 6.67662
#
# Compressibility (1/GPa) = 0.02394376
#
# Stress axis : x y z
#
# Youngs Moduli (GPa) = 22.27850 49.06673 79.41082
#
# Poissons Ratio (x) = 0.57030 0.89808
# Poissons Ratio (y) = 0.25894 0.31968
# Poissons Ratio (z) = 0.25195 0.19752
#
# Static dielectric constant tensor:
#      x y z
#    x 3.389060 0.000000 0.053910 
#    y 0.000000 3.400010 0.000000 
#    z 0.053910 0.000000 3.421700 
# 
# 
# High freq. dielectric constant tensor:
#      x y z
#    x 1.720700 0.000000 0.008190 
#    y 0.000000 1.729520 0.000000 
#    z 0.008190 0.000000 1.726880 
# 
# From -- ./inp_files/58356.got.cif
#   From: 2010.06.25/outbox.cif.g09.slc.cpg/sg10_30_cif.got.tgz:58356.got - 2010.06.27 22:07:45.
