data_PCOD8060251
_publ_section_title
;
Structure prediction by ZEFSAII (Michael W. Deem and Ramdas Pophale) SiO2 
 PCOD8060251
Probable space group: P 2/M
;
_chemical_formula_sum "Si O2"
_cell_formula_units_Z 26
_cell_length_a 11.038727
_cell_length_b 9.984043
_cell_length_c 19.863516
_cell_angle_alpha 90.000000
_cell_angle_beta 39.853240
_cell_angle_gamma 90.000000
_cell_volume 1402.877886
_symmetry_space_group_name_H-M "P 2/M"
_symmetry_group_IT_number 10
_symmetry_cell_setting 'monoclinic'
loop_
_space_group_symop_operation_xyz
x,y,z
-x,y,-z
-x,-y,-z
x,-y,z
loop_
_atom_site_type_symbol
_atom_site_label
_atom_site_fract_x
_atom_site_fract_y
_atom_site_fract_z
Si Si1 0.031349 0.651909 0.816997
Si Si2 0.494188 0.151671 0.226211
Si Si3 0.937129 0.844217 0.601140
Si Si4 0.187015 0.346680 0.961525
Si Si5 0.500000 0.262165 0.500000
Si Si6 0.905352 0.351357 0.356721
Si Si7 0.361177 0.148743 0.692685
O O1 0.108421 0.500000 0.789557
O O2 0.979251 0.684095 0.761341
O O3 0.194179 0.747159 0.775208
O O4 0.850345 0.670152 0.942493
O O5 0.283104 0.186244 0.292777
O O6 0.637950 0.252606 0.129916
O O7 0.495166 0.166285 0.306563
O O8 0.548803 0.000000 0.181892
O O9 0.000000 0.799830 0.500000
O O10 0.053482 0.758285 0.604949
O O11 0.984944 0.000000 0.592602
O O12 0.240216 0.500000 0.920962
O O13 0.000000 0.303588 0.000000
O O14 0.683977 0.353621 0.431739
O O15 0.476913 0.168989 0.574998
O O16 0.960240 0.500000 0.359273
O O17 0.272668 0.000000 0.729866
#
# Coordination Sequence:
#
# PCOD8060251 Si02
#       7
#     4   4   4   4   2   4   4
#     4   9  19  35  53  78 113 143 174 224 281 327
#     4  10  21  35  54  82 112 144 184 231 278 321
#     4  10  22  41  60  79 112 152 187 228 274 325
#     4  10  19  34  57  83 111 148 186 225 278 334
#     4  10  20  34  54  80 112 142 176 224 282 334
#     4  10  21  37  57  81 109 143 183 229 277 327
#     4  10  19  31  51  79 108 141 182 222 269 329
#
# _framework density 18.533331
#
# number of rings (size 3 to 8) (size 9 to 14) (size 15 to 20)
#    0.000    2.154    1.538    1.385    0.000    6.769 
#    0.000    2.308    0.000    4.615    0.000    0.000 
#    0.000    0.000    0.000    0.000    0.000    0.000 
#
# Total GULP energy -322371.021662 kJ/mol
# GULP energy per Si atom -12398.885449 kJ/mol
# Density = 1.849115 g / cm^3
# Si number density = 18.533331 Si / 1000 Ang^3
#
#
#
# Elastic Constant Matrix: (Units=GPa)
#
#
# Indices 1 2 3 4 5 6 
#
# 1 84.4021 46.8163 44.6124 0.0000 11.0623 0.0000
# 2 46.8163 92.2638 50.7423 0.0000 4.3084 0.0000
# 3 44.6124 50.7423 115.9424 0.0000 12.0669 0.0000
# 4 0.0000 0.0000 0.0000 32.3967 0.0000 5.3423
# 5 11.0623 4.3084 12.0669 0.0000 27.7022 0.0000
# 6 0.0000 0.0000 0.0000 5.3423 0.0000 26.2887
#
#
#
# Elastic Compliance Matrix: (Units=1/GPa)
#
#
# Indices 1 2 3 4 5 6 
#
# 1 0.018230 -0.007167 -0.003390 0.000000 -0.004688 0.000000
# 2 -0.007167 0.017099 -0.004972 0.000000 0.002368 0.000000
# 3 -0.003390 -0.004972 0.012448 0.000000 -0.003295 0.000000
# 4 0.000000 0.000000 0.000000 0.031938 0.000000 -0.006490
# 5 -0.004688 0.002368 -0.003295 0.000000 0.039038 0.000000
# 6 0.000000 0.000000 0.000000 -0.006490 0.000000 0.039358
#
#
# Mechanical properties :
#
#
# Convention : Reuss Voigt Hill
#
# Bulk Modulus (GPa) = 59.81150 64.10560 61.95855
# Shear Modulus (GPa) = 25.67509 27.30667 26.49088
#
# Velocity S-wave (km/s) = 3.72606 3.84263 3.78479
# Velocity P-wave (km/s) = 7.13119 7.37239 7.25279
#
# Compressibility (1/GPa) = 0.01671919
#
# Stress axis : x y z
#
# Youngs Moduli (GPa) = 54.85584 58.48283 80.33124
#
# Poissons Ratio (x) = 0.41913 0.27232
# Poissons Ratio (y) = 0.39314 0.39943
# Poissons Ratio (z) = 0.18596 0.29079
#
# Static dielectric constant tensor:
#      x y z
#    x 3.244820 0.000000 0.240710 
#    y 0.000000 3.384860 0.000000 
#    z 0.240710 0.000000 3.494470 
# 
# 
# High freq. dielectric constant tensor:
#      x y z
#    x 1.700850 0.000000 0.017710 
#    y 0.000000 1.723810 0.000000 
#    z 0.017710 0.000000 1.720740 
# 
# From -- ./inp_files/55103.got.cif
#   From: 2010.06.25/outbox.cif.g09.slc.cpg/sg10_28_cif.got.tgz:55103.got - 2010.06.27 22:07:45.
