data_PCOD8060718
_publ_section_title
;
Structure prediction by ZEFSAII (Michael W. Deem and Ramdas Pophale) SiO2 
 PCOD8060718
Probable space group: P 2/M
;
_chemical_formula_sum "Si O2"
_cell_formula_units_Z 32
_cell_length_a 14.264503
_cell_length_b 8.935671
_cell_length_c 20.782755
_cell_angle_alpha 90.000000
_cell_angle_beta 43.447890
_cell_angle_gamma 90.000000
_cell_volume 1821.723781
_symmetry_space_group_name_H-M "P 2/M"
_symmetry_group_IT_number 10
_symmetry_cell_setting 'monoclinic'
loop_
_space_group_symop_operation_xyz
x,y,z
-x,y,-z
-x,-y,-z
x,-y,z
loop_
_atom_site_type_symbol
_atom_site_label
_atom_site_fract_x
_atom_site_fract_y
_atom_site_fract_z
Si Si1 0.913690 0.822573 0.105273
Si Si2 0.923869 0.173044 0.475358
Si Si3 0.631557 0.826458 0.669016
Si Si4 0.068693 0.673585 0.286982
Si Si5 0.356812 0.322685 0.800120
Si Si6 0.650661 0.325084 0.793570
Si Si7 0.924317 0.322182 0.861004
Si Si8 0.645257 0.324568 0.052279
O O1 0.763105 0.753272 0.180319
O O2 0.980753 0.763444 0.136777
O O3 0.903646 0.000000 0.112216
O O4 0.000000 0.768291 0.000000
O O5 0.761915 0.199712 0.558606
O O6 0.000000 0.244482 0.500000
O O7 0.973600 0.242667 0.384236
O O8 0.962529 0.000000 0.453792
O O9 0.504048 0.736033 0.702567
O O10 0.675176 0.769030 0.717302
O O11 0.592193 0.000000 0.693273
O O12 0.042658 0.500000 0.310943
O O13 0.228656 0.711069 0.217233
O O14 0.030133 0.721231 0.233741
O O15 0.349834 0.500000 0.794952
O O16 0.339446 0.268374 0.882192
O O17 0.645750 0.500000 0.776513
O O18 0.505311 0.278263 0.898495
O O19 0.934930 0.500000 0.867361
O O20 0.769033 0.260903 0.947983
O O21 0.660082 0.500000 0.043870
#
# Coordination Sequence:
#
# PCOD8060718 Si02
#       8
#     4   4   4   4   4   4   4   4
#     4  11  22  35  54  81 108 139 179 221 261 308
#     4  10  20  35  54  76 104 143 182 216 267 322
#     4  10  19  32  52  78 106 137 174 220 264 314
#     4  10  21  33  51  78 108 141 182 228 266 307
#     4  10  19  33  55  81 106 137 172 216 269 315
#     4   9  17  30  47  74 106 141 179 216 259 306
#     4  10  20  35  52  75 107 145 182 219 267 316
#     4   8  15  28  48  72 102 139 175 207 250 310
#
# _framework density 17.56578
#
# number of rings (size 3 to 8) (size 9 to 14) (size 15 to 20)
#    0.000    2.250    2.500    1.875    0.000    2.750 
#    0.000    2.500    0.000    0.750    0.000    8.750 
#    0.000    0.000    0.000    0.000    0.000    0.000 
#
# Total GULP energy -396695.333888 kJ/mol
# GULP energy per Si atom -12396.729184 kJ/mol
# Density = 1.752580 g / cm^3
# Si number density = 17.565780 Si / 1000 Ang^3
#
#
#
# Elastic Constant Matrix: (Units=GPa)
#
#
# Indices 1 2 3 4 5 6 
#
# 1 111.6685 45.8271 64.1746 0.0000 -5.1807 0.0000
# 2 45.8271 60.1614 47.2885 0.0000 -3.1588 0.0000
# 3 64.1746 47.2885 107.4243 0.0000 -1.2546 0.0000
# 4 0.0000 0.0000 0.0000 22.5280 0.0000 -3.1969
# 5 -5.1807 -3.1588 -1.2546 0.0000 22.2652 0.0000
# 6 0.0000 0.0000 0.0000 -3.1969 0.0000 24.0116
#
#
#
# Elastic Compliance Matrix: (Units=1/GPa)
#
#
# Indices 1 2 3 4 5 6 
#
# 1 0.015386 -0.006723 -0.006205 0.000000 0.002277 0.000000
# 2 -0.006723 0.028553 -0.008529 0.000000 0.002006 0.000000
# 3 -0.006205 -0.008529 0.016751 0.000000 -0.001710 0.000000
# 4 0.000000 0.000000 0.000000 0.045244 0.000000 0.006024
# 5 0.002277 0.002006 -0.001710 0.000000 0.045631 0.000000
# 6 0.000000 0.000000 0.000000 0.006024 0.000000 0.042449
#
#
# Mechanical properties :
#
#
# Convention : Reuss Voigt Hill
#
# Bulk Modulus (GPa) = 56.26219 65.98161 61.12190
# Shear Modulus (GPa) = 20.58865 21.89189 21.24027
#
# Velocity S-wave (km/s) = 3.42729 3.53410 3.48111
# Velocity P-wave (km/s) = 6.91091 7.36867 7.14346
#
# Compressibility (1/GPa) = 0.01777393
#
# Stress axis : x y z
#
# Youngs Moduli (GPa) = 64.99502 35.02314 59.69926
#
# Poissons Ratio (x) = 0.23545 0.37046
# Poissons Ratio (y) = 0.43695 0.50920
# Poissons Ratio (z) = 0.40332 0.29872
#
# Static dielectric constant tensor:
#      x y z
#    x 3.214690 0.000000 -0.227620 
#    y 0.000000 3.143930 0.000000 
#    z -0.227620 0.000000 3.366160 
# 
# 
# High freq. dielectric constant tensor:
#      x y z
#    x 1.668590 0.000000 -0.020340 
#    y 0.000000 1.668470 0.000000 
#    z -0.020340 0.000000 1.670740 
# 
# From -- ./inp_files/70043.got.cif
#   From: 2010.06.25/outbox.cif.g09.slc.cpg/sg10_36_cif.got.tgz:70043.got - 2010.06.27 22:07:45.
