data_PCOD8060971
_publ_section_title
;
Structure prediction by ZEFSAII (Michael W. Deem and Ramdas Pophale) SiO2 
 PCOD8060971
Probable space group: P 2/M
;
_chemical_formula_sum "Si O2"
_cell_formula_units_Z 28
_cell_length_a 9.356959
_cell_length_b 8.828184
_cell_length_c 25.268157
_cell_angle_alpha 90.000000
_cell_angle_beta 135.313073
_cell_angle_gamma 90.000000
_cell_volume 1467.839617
_symmetry_space_group_name_H-M "P 2/M"
_symmetry_group_IT_number 10
_symmetry_cell_setting 'monoclinic'
loop_
_space_group_symop_operation_xyz
x,y,z
-x,y,-z
-x,-y,-z
x,-y,z
loop_
_atom_site_type_symbol
_atom_site_label
_atom_site_fract_x
_atom_site_fract_y
_atom_site_fract_z
Si Si1 0.802632 0.320564 0.072519
Si Si2 0.699704 0.176560 0.662546
Si Si3 0.221560 0.177017 0.196292
Si Si4 0.603081 0.176417 0.225574
Si Si5 0.362613 0.333265 0.515350
Si Si6 0.024559 0.679053 0.351998
Si Si7 0.527183 0.179347 0.085053
O O1 0.777372 0.500000 0.070550
O O2 0.721949 0.241317 0.104714
O O3 0.035382 0.275156 0.125304
O O4 0.676162 0.260189 0.989136
O O5 0.732031 0.223247 0.731488
O O6 0.470342 0.224355 0.586061
O O7 0.874347 0.254976 0.674279
O O8 0.722506 0.000000 0.659412
O O9 0.413808 0.222007 0.211752
O O10 0.168951 0.000000 0.177062
O O11 0.795104 0.267400 0.297785
O O12 0.553846 0.223806 0.152843
O O13 0.654409 0.000000 0.243122
O O14 0.500000 0.346263 0.500000
O O15 0.337549 0.500000 0.534575
O O16 0.145623 0.269162 0.437296
O O17 0.036273 0.500000 0.349826
O O18 0.508634 0.000000 0.071600
#
# Coordination Sequence:
#
# PCOD8060971 Si02
#       7
#     4   4   4   4   4   4   4
#     4  11  22  36  57  84 109 136 172 215 262 311
#     4  10  19  32  55  81 104 136 177 219 261 308
#     4  10  22  39  54  75 109 143 176 215 261 311
#     4  10  22  38  56  77 104 141 181 217 256 308
#     4   8  16  31  50  75 106 137 171 215 265 311
#     4  10  20  34  54  79 108 139 172 217 268 313
#     4  10  20  37  60  82 105 137 175 216 262 308
#
# _framework density 19.075652999999999
#
# number of rings (size 3 to 8) (size 9 to 14) (size 15 to 20)
#    0.000    2.143    0.000    5.143    0.000   10.000 
#    0.000    3.571    0.000    4.286    0.000    0.000 
#    0.000    0.000    0.000    0.000    0.000    0.000 
#
# Total GULP energy -347227.162045 kJ/mol
# GULP energy per Si atom -12400.970073 kJ/mol
# Density = 1.903224 g / cm^3
# Si number density = 19.075653 Si / 1000 Ang^3
#
#
#
# Elastic Constant Matrix: (Units=GPa)
#
#
# Indices 1 2 3 4 5 6 
#
# 1 70.4511 24.7434 52.9648 0.0000 22.7903 0.0000
# 2 24.7434 67.4662 43.6116 0.0000 13.4340 0.0000
# 3 52.9648 43.6116 128.0590 0.0000 27.3609 0.0000
# 4 0.0000 0.0000 0.0000 26.5545 0.0000 11.2654
# 5 22.7903 13.4340 27.3609 0.0000 15.8805 0.0000
# 6 0.0000 0.0000 0.0000 11.2654 0.0000 6.9345
#
#
#
# Elastic Compliance Matrix: (Units=1/GPa)
#
#
# Indices 1 2 3 4 5 6 
#
# 1 0.028291 -0.001111 -0.004509 0.000000 -0.031893 0.000000
# 2 -0.001111 0.019680 -0.004789 0.000000 -0.006803 0.000000
# 3 -0.004509 -0.004789 0.014333 0.000000 -0.014172 0.000000
# 4 0.000000 0.000000 0.000000 0.121164 0.000000 -0.196837
# 5 -0.031893 -0.006803 -0.014172 0.000000 0.138914 0.000000
# 6 0.000000 0.000000 0.000000 -0.196837 0.000000 0.463979
#
#
# Mechanical properties :
#
#
# Convention : Reuss Voigt Hill
#
# Bulk Modulus (GPa) = 24.10416 56.51288 40.30852
# Shear Modulus (GPa) = 6.09008 19.51766 12.80387
#
# Velocity S-wave (km/s) = 1.78872 3.20218 2.59359
# Velocity P-wave (km/s) = 4.11455 6.58497 5.49051
#
# Compressibility (1/GPa) = 0.04148662
#
# Stress axis : x y z
#
# Youngs Moduli (GPa) = 35.34685 50.81271 69.77023
#
# Poissons Ratio (x) = 0.05644 0.31456
# Poissons Ratio (y) = 0.03926 0.33416
# Poissons Ratio (z) = 0.15936 0.24336
#
# Static dielectric constant tensor:
#      x y z
#    x 3.279710 0.000000 0.058810 
#    y 0.000000 3.484470 0.000000 
#    z 0.058810 0.000000 3.916940 
# 
# 
# High freq. dielectric constant tensor:
#      x y z
#    x 1.717170 0.000000 0.004320 
#    y 0.000000 1.743670 0.000000 
#    z 0.004320 0.000000 1.759390 
# 
# From -- ./inp_files/92078.got.cif
#   From: 2010.06.25/outbox.cif.g09.slc.cpg/sg10_47_cif.got.tgz:92078.got - 2010.06.27 22:07:45.
