data_PCOD8060618
_publ_section_title
;
Structure prediction by ZEFSAII (Michael W. Deem and Ramdas Pophale) SiO2 
 PCOD8060618
Probable space group: P 2/M
;
_chemical_formula_sum "Si O2"
_cell_formula_units_Z 28
_cell_length_a 9.091117
_cell_length_b 8.498905
_cell_length_c 25.488970
_cell_angle_alpha 90.000000
_cell_angle_beta 45.246506
_cell_angle_gamma 90.000000
_cell_volume 1398.549935
_symmetry_space_group_name_H-M "P 2/M"
_symmetry_group_IT_number 10
_symmetry_cell_setting 'monoclinic'
loop_
_space_group_symop_operation_xyz
x,y,z
-x,y,-z
-x,-y,-z
x,-y,z
loop_
_atom_site_type_symbol
_atom_site_label
_atom_site_fract_x
_atom_site_fract_y
_atom_site_fract_z
Si Si1 0.572014 0.816467 0.636999
Si Si2 0.674323 0.812738 0.079612
Si Si3 0.333686 0.682975 0.497354
Si Si4 0.227720 0.185267 0.218643
Si Si5 0.110727 0.187635 0.775746
Si Si6 0.997551 0.187035 0.083203
Si Si7 0.124859 0.317367 0.355049
O O1 0.614690 0.789185 0.565351
O O2 0.343323 0.751860 0.707930
O O3 0.737349 0.720435 0.629118
O O4 0.593225 0.000000 0.644998
O O5 0.442838 0.742976 0.142093
O O6 0.807997 0.750087 0.095335
O O7 0.668522 0.000000 0.083275
O O8 0.784412 0.758077 0.997635
O O9 0.500000 0.722275 0.500000
O O10 0.338560 0.500000 0.479958
O O11 0.109861 0.733682 0.574709
O O12 0.207211 0.222233 0.284787
O O13 0.037037 0.256251 0.233009
O O14 0.232028 0.000000 0.210227
O O15 0.026267 0.255214 0.852268
O O16 0.108172 0.000000 0.775816
O O17 0.989859 0.000000 0.087090
O O18 0.138107 0.500000 0.338322
#
# Coordination Sequence:
#
# PCOD8060618 Si02
#       7
#     4   4   4   4   4   4   4
#     4  11  22  36  56  81 107 136 172 214 258 302
#     4   8  14  24  43  70 101 137 172 208 251 301
#     4  10  22  40  59  79 106 138 171 209 254 306
#     4  10  19  32  51  77 106 135 171 215 260 302
#     4   9  18  30  47  75 109 138 167 210 260 307
#     4   8  13  24  41  67 104 139 169 204 252 305
#     4  11  23  38  56  77 102 136 175 211 253 308
#
# _framework density 20.020734999999998
#
# number of rings (size 3 to 8) (size 9 to 14) (size 15 to 20)
#    0.000    2.429    0.000    3.857    0.000    6.000 
#    0.000    3.571    0.000    0.000    0.000   11.000 
#    0.000    0.000    0.000    0.000    0.000    0.000 
#
# Total GULP energy -347182.274422 kJ/mol
# GULP energy per Si atom -12399.366944 kJ/mol
# Density = 1.997517 g / cm^3
# Si number density = 20.020735 Si / 1000 Ang^3
#
#
#
# Elastic Constant Matrix: (Units=GPa)
#
#
# Indices 1 2 3 4 5 6 
#
# 1 127.8475 8.5658 71.7188 0.0000 -13.6490 0.0000
# 2 8.5658 9.8402 15.8827 0.0000 -3.0167 0.0000
# 3 71.7188 15.8827 163.9595 0.0000 -16.1067 0.0000
# 4 0.0000 0.0000 0.0000 5.3622 0.0000 -4.9439
# 5 -13.6490 -3.0167 -16.1067 0.0000 39.0825 0.0000
# 6 0.0000 0.0000 0.0000 -4.9439 0.0000 14.2773
#
#
#
# Elastic Compliance Matrix: (Units=1/GPa)
#
#
# Indices 1 2 3 4 5 6 
#
# 1 0.010517 -0.001737 -0.004257 0.000000 0.001784 0.000000
# 2 -0.001737 0.121572 -0.010583 0.000000 0.004416 0.000000
# 3 -0.004257 -0.010583 0.009129 0.000000 0.001459 0.000000
# 4 0.000000 0.000000 0.000000 0.273955 0.000000 0.094864
# 5 0.001784 0.004416 0.001459 0.000000 0.027152 0.000000
# 6 0.000000 0.000000 0.000000 0.094864 0.000000 0.102891
#
#
# Mechanical properties :
#
#
# Convention : Reuss Voigt Hill
#
# Bulk Modulus (GPa) = 9.25376 54.88688 32.07032
# Shear Modulus (GPa) = 8.13815 25.44306 16.79060
#
# Velocity S-wave (km/s) = 2.01834 3.56875 2.89911
# Velocity P-wave (km/s) = 3.17233 6.66752 5.22109
#
# Compressibility (1/GPa) = 0.10806422
#
# Stress axis : x y z
#
# Youngs Moduli (GPa) = 95.08863 8.22561 109.53566
#
# Poissons Ratio (x) = 0.01429 0.46624
# Poissons Ratio (y) = 0.16518 1.15921
# Poissons Ratio (z) = 0.40475 0.08705
#
# Static dielectric constant tensor:
#      x y z
#    x 3.810770 0.000000 -0.139860 
#    y 0.000000 3.074390 0.000000 
#    z -0.139860 0.000000 3.975380 
# 
# 
# High freq. dielectric constant tensor:
#      x y z
#    x 1.788790 0.000000 -0.002430 
#    y 0.000000 1.727790 0.000000 
#    z -0.002430 0.000000 1.800560 
# 
# From -- ./inp_files/94507.got.cif
#   From: 2010.06.25/outbox.cif.g09.slc.cpg/sg10_48_cif.got.tgz:94507.got - 2010.06.27 22:07:45.
