data_PCOD8060754
_publ_section_title
;
Structure prediction by ZEFSAII (Michael W. Deem and Ramdas Pophale) SiO2 
 PCOD8060754
Probable space group: P 2/M
;
_chemical_formula_sum "Si O2"
_cell_formula_units_Z 32
_cell_length_a 12.037625
_cell_length_b 8.852544
_cell_length_c 29.659035
_cell_angle_alpha 90.000000
_cell_angle_beta 146.382945
_cell_angle_gamma 90.000000
_cell_volume 1749.818301
_symmetry_space_group_name_H-M "P 2/M"
_symmetry_group_IT_number 10
_symmetry_cell_setting 'monoclinic'
loop_
_space_group_symop_operation_xyz
x,y,z
-x,y,-z
-x,-y,-z
x,-y,z
loop_
_atom_site_type_symbol
_atom_site_label
_atom_site_fract_x
_atom_site_fract_y
_atom_site_fract_z
Si Si1 0.473603 0.822173 0.290851
Si Si2 0.852139 0.821886 0.888656
Si Si3 0.092712 0.821839 0.314039
Si Si4 0.280640 0.178498 0.059012
Si Si5 0.423452 0.677910 0.369097
Si Si6 0.685113 0.675630 0.195316
Si Si7 0.205578 0.674652 0.443879
Si Si8 0.772742 0.672414 0.327733
O O1 0.276983 0.762779 0.197231
O O2 0.485997 0.732005 0.341081
O O3 0.671547 0.785364 0.328830
O O4 0.464598 0.000000 0.297249
O O5 0.761100 0.759103 0.904627
O O6 0.834228 0.000000 0.885903
O O7 0.086862 0.777022 0.962981
O O8 0.220076 0.759605 0.315205
O O9 0.196333 0.772204 0.395590
O O10 0.868240 0.758946 0.232754
O O11 0.085342 0.000000 0.309063
O O12 0.475680 0.261567 0.104927
O O13 0.318970 0.000000 0.071422
O O14 0.389876 0.500000 0.357548
O O15 0.600386 0.724816 0.462921
O O16 0.705529 0.500000 0.191644
O O17 0.691990 0.710136 0.250758
O O18 0.214760 0.500000 0.431765
O O19 0.011419 0.701624 0.409658
O O20 0.722486 0.500000 0.324043
#
# Coordination Sequence:
#
# PCOD8060754 Si02
#       8
#     4   4   4   4   4   4   4   4
#     4  11  21  34  52  76 108 143 179 218 258 308
#     4   8  16  29  49  76 109 142 173 212 260 312
#     4  11  22  36  57  82 105 132 173 224 267 308
#     4   9  15  29  52  78 106 140 177 212 258 311
#     4  11  23  39  56  74 102 143 180 215 264 318
#     4  10  19  32  52  80 111 140 172 215 264 314
#     4   9  20  38  58  78 104 137 174 217 267 317
#     4   9  18  33  51  74 104 139 175 210 257 315
#
# _framework density 18.287611999999999
#
# number of rings (size 3 to 8) (size 9 to 14) (size 15 to 20)
#    0.000    2.250    1.250    4.125    0.000    5.000 
#    0.000    5.000    0.000    0.750    0.000    5.250 
#    0.000    0.000    0.000    0.000    0.000    0.000 
#
# Total GULP energy -396816.934687 kJ/mol
# GULP energy per Si atom -12400.529209 kJ/mol
# Density = 1.824599 g / cm^3
# Si number density = 18.287612 Si / 1000 Ang^3
#
#
#
# Elastic Constant Matrix: (Units=GPa)
#
#
# Indices 1 2 3 4 5 6 
#
# 1 70.9323 30.6334 22.3359 0.0000 20.7120 0.0000
# 2 30.6334 74.5721 27.0449 0.0000 10.7889 0.0000
# 3 22.3359 27.0449 57.5992 0.0000 27.6183 0.0000
# 4 0.0000 0.0000 0.0000 24.4421 0.0000 7.5809
# 5 20.7120 10.7889 27.6183 0.0000 25.5931 0.0000
# 6 0.0000 0.0000 0.0000 7.5809 0.0000 28.0842
#
#
#
# Elastic Compliance Matrix: (Units=1/GPa)
#
#
# Indices 1 2 3 4 5 6 
#
# 1 0.021569 -0.007686 0.004271 0.000000 -0.018824 0.000000
# 2 -0.007686 0.019002 -0.010534 0.000000 0.009577 0.000000
# 3 0.004271 -0.010534 0.041816 0.000000 -0.044141 0.000000
# 4 0.000000 0.000000 0.000000 0.044651 0.000000 -0.012053
# 5 -0.018824 0.009577 -0.044141 0.000000 0.097903 0.000000
# 6 0.000000 0.000000 0.000000 -0.012053 0.000000 0.038861
#
#
# Mechanical properties :
#
#
# Convention : Reuss Voigt Hill
#
# Bulk Modulus (GPa) = 18.35218 40.34799 29.35008
# Shear Modulus (GPa) = 16.13620 23.82985 19.98303
#
# Velocity S-wave (km/s) = 2.97367 3.61371 3.30920
# Velocity P-wave (km/s) = 4.67412 6.28671 5.53941
#
# Compressibility (1/GPa) = 0.05448944
#
# Stress axis : x y z
#
# Youngs Moduli (GPa) = 46.36306 52.62693 23.91416
#
# Poissons Ratio (x) = 0.40447 -0.10213
# Poissons Ratio (y) = 0.35633 0.25190
# Poissons Ratio (z) = -0.19799 0.55435
#
# Static dielectric constant tensor:
#      x y z
#    x 3.180860 0.000000 0.181140 
#    y 0.000000 3.212520 0.000000 
#    z 0.181140 0.000000 3.588720 
# 
# 
# High freq. dielectric constant tensor:
#      x y z
#    x 1.688710 0.000000 0.023900 
#    y 0.000000 1.701510 0.000000 
#    z 0.023900 0.000000 1.708870 
# 
# From -- ./inp_files/95083.got.cif
#   From: 2010.06.25/outbox.cif.g09.slc.cpg/sg10_48_cif.got.tgz:95083.got - 2010.06.27 22:07:45.
