data_PCOD8060064
_publ_section_title
;
Structure prediction by ZEFSAII (Michael W. Deem and Ramdas Pophale) SiO2 
 PCOD8060064
Probable space group: P 2/M
;
_chemical_formula_sum "Si O2"
_cell_formula_units_Z 28
_cell_length_a 31.410441
_cell_length_b 8.646331
_cell_length_c 31.410425
_cell_angle_alpha 90.000000
_cell_angle_beta 170.501377
_cell_angle_gamma 90.000000
_cell_volume 1407.753307
_symmetry_space_group_name_H-M "P 2/M"
_symmetry_group_IT_number 10
_symmetry_cell_setting 'monoclinic'
loop_
_space_group_symop_operation_xyz
x,y,z
-x,y,-z
-x,-y,-z
x,-y,z
loop_
_atom_site_type_symbol
_atom_site_label
_atom_site_fract_x
_atom_site_fract_y
_atom_site_fract_z
Si Si1 0.024015 0.683921 0.975994
Si Si2 0.309256 0.680928 0.690750
Si Si3 0.120372 0.816331 0.879611
Si Si4 0.736250 0.821487 0.263758
Si Si5 0.548818 0.316335 0.451192
Si Si6 0.595830 0.183667 0.404153
Si Si7 0.168771 0.816291 0.831223
O O1 0.023284 0.500000 0.976715
O O2 0.287059 0.745811 0.214498
O O3 0.000000 0.751248 0.000000
O O4 0.785522 0.745814 0.712959
O O5 0.313760 0.500000 0.686238
O O6 0.284111 0.711504 0.715904
O O7 0.069754 0.756034 0.430805
O O8 0.569199 0.756032 0.930249
O O9 0.359035 0.752311 0.142537
O O10 0.120461 0.000000 0.879520
O O11 0.144523 0.753648 0.855464
O O12 0.857443 0.752312 0.640944
O O13 0.000000 0.782737 0.500000
O O14 0.728782 0.000000 0.271261
O O15 0.500000 0.782757 0.000000
O O16 0.550289 0.500000 0.449716
O O17 0.572224 0.248336 0.427764
O O18 0.594941 0.000000 0.405049
O O19 0.169549 0.000000 0.830452
#
# Coordination Sequence:
#
# PCOD8060064 Si02
#       7
#     4   4   4   4   4   4   4
#     4   9  17  30  49  71  96 129 170 213 253 302
#     4  12  25  40  60  92 129 157 188 240 306 357
#     4   9  19  35  57  80 102 138 187 229 262 315
#     4  10  21  38  61  87 115 153 202 245 281 335
#     4  10  19  31  49  74 100 128 167 211 259 314
#     4  10  19  34  54  77 105 136 173 218 271 322
#     4  11  22  41  66  87 113 156 207 246 280 338
#
# _framework density 19.889848000000001
#
# number of rings (size 3 to 8) (size 9 to 14) (size 15 to 20)
#    0.000    1.857    0.000    4.714    0.000    5.714 
#    0.000    4.286    0.000    2.571    0.000    0.000 
#    0.000    0.000    0.000    0.000    0.000    0.000 
#
# Total GULP energy -347315.041421 kJ/mol
# GULP energy per Si atom -12404.108622 kJ/mol
# Density = 1.984458 g / cm^3
# Si number density = 19.889848 Si / 1000 Ang^3
#
#
#
# Elastic Constant Matrix: (Units=GPa)
#
#
# Indices 1 2 3 4 5 6 
#
# 1 185.4920 34.1706 104.2106 0.0000 0.1915 0.0000
# 2 34.1706 52.0492 34.1375 0.0000 -0.0029 0.0000
# 3 104.2106 34.1375 219.6980 0.0000 2.8388 0.0000
# 4 0.0000 0.0000 0.0000 15.7490 0.0000 -2.1800
# 5 0.1915 -0.0029 2.8388 0.0000 41.9157 0.0000
# 6 0.0000 0.0000 0.0000 -2.1800 0.0000 40.4538
#
#
#
# Elastic Compliance Matrix: (Units=1/GPa)
#
#
# Indices 1 2 3 4 5 6 
#
# 1 0.007745 -0.002977 -0.003213 0.000000 0.000182 0.000000
# 2 -0.002977 0.022539 -0.002092 0.000000 0.000157 0.000000
# 3 -0.003213 -0.002092 0.006406 0.000000 -0.000419 0.000000
# 4 0.000000 0.000000 0.000000 0.063973 0.000000 0.003447
# 5 0.000182 0.000157 -0.000419 0.000000 0.023885 0.000000
# 6 0.000000 0.000000 0.000000 0.003447 0.000000 0.024905
#
#
# Mechanical properties :
#
#
# Convention : Reuss Voigt Hill
#
# Bulk Modulus (GPa) = 49.68857 89.14185 69.41521
# Shear Modulus (GPa) = 28.94747 38.60508 33.77628
#
# Velocity S-wave (km/s) = 3.81910 4.41039 4.12535
# Velocity P-wave (km/s) = 6.66959 8.41727 7.59388
#
# Compressibility (1/GPa) = 0.02012535
#
# Stress axis : x y z
#
# Youngs Moduli (GPa) = 129.12374 44.36732 156.09377
#
# Poissons Ratio (x) = 0.13207 0.50158
# Poissons Ratio (y) = 0.38438 0.32658
# Poissons Ratio (z) = 0.41491 0.09283
#
# Static dielectric constant tensor:
#      x y z
#    x 3.806350 0.000000 0.019350 
#    y 0.000000 3.276740 0.000000 
#    z 0.019350 0.000000 4.025460 
# 
# 
# High freq. dielectric constant tensor:
#      x y z
#    x 1.795240 0.000000 0.000470 
#    y 0.000000 1.741030 0.000000 
#    z 0.000470 0.000000 1.800600 
# 
# From -- ./inp_files/94289.got.cif
#   From: 2010.06.25/outbox.cif.g09.slc.cpg/sg10_48_cif.got.tgz:94289.got - 2010.06.27 22:07:45.
