data_PCOD8060192
_publ_section_title
;
Structure prediction by ZEFSAII (Michael W. Deem and Ramdas Pophale) SiO2 
 PCOD8060192
Probable space group: P 2/M
;
_chemical_formula_sum "Si O2"
_cell_formula_units_Z 32
_cell_length_a 10.101044
_cell_length_b 13.796573
_cell_length_c 24.384326
_cell_angle_alpha 90.000000
_cell_angle_beta 35.012450
_cell_angle_gamma 90.000000
_cell_volume 1949.729154
_symmetry_space_group_name_H-M "P 2/M"
_symmetry_group_IT_number 10
_symmetry_cell_setting 'monoclinic'
loop_
_space_group_symop_operation_xyz
x,y,z
-x,y,-z
-x,-y,-z
x,-y,z
loop_
_atom_site_type_symbol
_atom_site_label
_atom_site_fract_x
_atom_site_fract_y
_atom_site_fract_z
Si Si1 0.799070 0.108274 0.491223
Si Si2 0.729015 0.301108 0.455483
Si Si3 0.511729 0.699659 0.250654
Si Si4 0.201787 0.615323 0.259197
Si Si5 0.673383 0.107759 0.655451
Si Si6 0.984222 0.607859 0.069610
Si Si7 0.466340 0.384842 0.950134
Si Si8 0.246059 0.612707 0.435777
O O1 0.727842 0.186920 0.470056
O O2 0.662620 0.128763 0.593978
O O3 0.068164 0.117546 0.411146
O O4 0.740158 0.000000 0.489470
O O5 0.500000 0.326648 0.500000
O O6 0.721388 0.367287 0.511646
O O7 0.956878 0.329700 0.343654
O O8 0.360869 0.644013 0.256607
O O9 0.479254 0.815639 0.258834
O O10 0.780798 0.680004 0.153930
O O11 0.441820 0.665349 0.334796
O O12 0.162384 0.500000 0.274554
O O13 0.328723 0.648907 0.160047
O O14 0.577781 0.000000 0.700128
O O15 0.938962 0.500000 0.109716
O O16 0.000000 0.598297 0.000000
O O17 0.220544 0.654056 0.012217
O O18 0.460450 0.500000 0.952113
O O19 0.500000 0.343256 0.000000
O O20 0.260548 0.500000 0.418505
O O21 0.000000 0.655513 0.500000
#
# Coordination Sequence:
#
# PCOD8060192 Si02
#       8
#     4   4   4   4   4   4   4   4
#     4   9  17  34  54  74 101 138 181 223 263 304
#     4  12  24  35  49  78 115 145 178 217 261 316
#     4  12  19  31  56  81 105 132 178 221 263 315
#     4  11  21  34  53  75 106 149 178 211 263 310
#     4   9  17  31  56  80 100 132 177 223 266 310
#     4  10  19  31  50  79 104 129 173 223 260 296
#     4   9  19  36  54  72 100 137 179 221 260 303
#     4  11  21  33  50  72 104 148 182 204 243 316
#
# _framework density 16.412535999999999
#
# number of rings (size 3 to 8) (size 9 to 14) (size 15 to 20)
#    0.000    1.625    5.000    2.250    0.000    2.250 
#    0.000    1.250    0.000    0.375    0.000    0.000 
#    0.000    2.500    0.000    0.000    0.000    0.000 
#
# Total GULP energy -396777.314452 kJ/mol
# GULP energy per Si atom -12399.291077 kJ/mol
# Density = 1.637518 g / cm^3
# Si number density = 16.412536 Si / 1000 Ang^3
#
#
#
# Elastic Constant Matrix: (Units=GPa)
#
#
# Indices 1 2 3 4 5 6 
#
# 1 101.2909 18.1164 41.3749 0.0000 -7.6284 0.0000
# 2 18.1164 77.4505 32.2148 0.0000 -2.3636 0.0000
# 3 41.3749 32.2148 99.3781 0.0000 -6.5706 0.0000
# 4 0.0000 0.0000 0.0000 19.1005 0.0000 -1.7149
# 5 -7.6284 -2.3636 -6.5706 0.0000 24.0047 0.0000
# 6 0.0000 0.0000 0.0000 -1.7149 0.0000 10.8067
#
#
#
# Elastic Compliance Matrix: (Units=1/GPa)
#
#
# Indices 1 2 3 4 5 6 
#
# 1 0.012088 -0.000840 -0.004595 0.000000 0.002501 0.000000
# 2 -0.000840 0.014983 -0.004509 0.000000 -0.000026 0.000000
# 3 -0.004595 -0.004509 0.013557 0.000000 0.001807 0.000000
# 4 0.000000 0.000000 0.000000 0.053111 0.000000 0.008428
# 5 0.002501 -0.000026 0.001807 0.000000 0.042945 0.000000
# 6 0.000000 0.000000 0.000000 0.008428 0.000000 0.093873
#
#
# Mechanical properties :
#
#
# Convention : Reuss Voigt Hill
#
# Bulk Modulus (GPa) = 48.21668 51.28131 49.74899
# Shear Modulus (GPa) = 19.42821 23.20993 21.31907
#
# Velocity S-wave (km/s) = 3.44429 3.76461 3.60801
# Velocity P-wave (km/s) = 6.72750 7.08586 6.90900
#
# Compressibility (1/GPa) = 0.02073971
#
# Stress axis : x y z
#
# Youngs Moduli (GPa) = 82.72579 66.74435 73.76400
#
# Poissons Ratio (x) = 0.05606 0.33896
# Poissons Ratio (y) = 0.06948 0.33259
# Poissons Ratio (z) = 0.38014 0.30094
#
# Static dielectric constant tensor:
#      x y z
#    x 3.015220 0.000000 0.057430 
#    y 0.000000 3.198850 0.000000 
#    z 0.057430 0.000000 3.054520 
# 
# 
# High freq. dielectric constant tensor:
#      x y z
#    x 1.618930 0.000000 0.003010 
#    y 0.000000 1.617530 0.000000 
#    z 0.003010 0.000000 1.623680 
# 
# From -- ./inp_files/61532.got.cif
#   From: 2010.06.25/outbox.cif.g09.slc.cpg/sg10_31_cif.got.tgz:61532.got - 2010.06.27 22:07:45.
