data_PCOD8060490
_publ_section_title
;
Structure prediction by ZEFSAII (Michael W. Deem and Ramdas Pophale) SiO2 
 PCOD8060490
Probable space group: P 2/M
;
_chemical_formula_sum "Si O2"
_cell_formula_units_Z 28
_cell_length_a 9.177717
_cell_length_b 8.887709
_cell_length_c 29.149334
_cell_angle_alpha 90.000000
_cell_angle_beta 38.652203
_cell_angle_gamma 90.000000
_cell_volume 1485.077504
_symmetry_space_group_name_H-M "P 2/M"
_symmetry_group_IT_number 10
_symmetry_cell_setting 'monoclinic'
loop_
_space_group_symop_operation_xyz
x,y,z
-x,y,-z
-x,-y,-z
x,-y,z
loop_
_atom_site_type_symbol
_atom_site_label
_atom_site_fract_x
_atom_site_fract_y
_atom_site_fract_z
Si Si1 0.410296 0.320971 0.070667
Si Si2 0.883506 0.678779 0.215461
Si Si3 0.437014 0.678423 0.788596
Si Si4 0.038503 0.321718 0.347919
Si Si5 0.652648 0.334096 0.507911
Si Si6 0.271215 0.822921 0.653328
Si Si7 0.261617 0.679548 0.928882
O O1 0.418072 0.500000 0.067739
O O2 0.576746 0.258023 0.069880
O O3 0.148372 0.265185 0.144428
O O4 0.500000 0.256458 0.000000
O O5 0.870114 0.500000 0.224904
O O6 0.741326 0.735322 0.206087
O O7 0.767665 0.756417 0.287236
O O8 0.432715 0.500000 0.791736
O O9 0.696792 0.735326 0.712919
O O10 0.359074 0.743777 0.856946
O O11 0.021106 0.500000 0.343441
O O12 0.908246 0.278676 0.427867
O O13 0.922412 0.242426 0.333018
O O14 0.500000 0.344418 0.500000
O O15 0.668741 0.500000 0.526822
O O16 0.534297 0.220449 0.572829
O O17 0.248206 0.000000 0.660117
O O18 0.264251 0.500000 0.928276
O O19 0.000000 0.740296 0.000000
#
# Coordination Sequence:
#
# PCOD8060490 Si02
#       7
#     4   4   4   4   4   4   4
#     4   9  16  26  44  72 102 130 161 200 246 292
#     4  10  19  32  50  71  99 133 168 206 246 290
#     4   9  17  29  47  71  97 129 167 204 244 289
#     4   9  17  32  53  75  98 125 162 207 251 296
#     4   8  15  29  50  73  96 124 160 203 249 295
#     4  11  21  32  49  73 100 130 165 203 246 297
#     4   9  15  23  38  65 102 134 159 195 242 289
#
# _framework density 18.854233000000001
#
# number of rings (size 3 to 8) (size 9 to 14) (size 15 to 20)
#    0.000    2.714    0.000    3.857    0.000    8.286 
#    0.000    1.429    0.000    4.714    0.000    0.000 
#    0.000    5.143    0.000    0.000    0.000    0.000 
#
# Total GULP energy -347122.133397 kJ/mol
# GULP energy per Si atom -12397.219050 kJ/mol
# Density = 1.881132 g / cm^3
# Si number density = 18.854233 Si / 1000 Ang^3
#
#
#
# Elastic Constant Matrix: (Units=GPa)
#
#
# Indices 1 2 3 4 5 6 
#
# 1 150.4821 25.9770 97.2340 0.0000 -2.3737 0.0000
# 2 25.9770 37.4498 31.0360 0.0000 5.1685 0.0000
# 3 97.2340 31.0360 191.0797 0.0000 -5.9826 0.0000
# 4 0.0000 0.0000 0.0000 -0.2830 0.0000 -0.3194
# 5 -2.3737 5.1685 -5.9826 0.0000 35.7933 0.0000
# 6 0.0000 0.0000 0.0000 -0.3194 0.0000 2.8120
#
#
#
# Elastic Compliance Matrix: (Units=1/GPa)
#
#
# Indices 1 2 3 4 5 6 
#
# 1 0.010229 -0.003285 -0.004660 0.000000 0.000374 0.000000
# 2 -0.003285 0.032953 -0.003857 0.000000 -0.005621 0.000000
# 3 -0.004660 -0.003857 0.008282 0.000000 0.001632 0.000000
# 4 0.000000 0.000000 0.000000 -3.132065 0.000000 -0.355760
# 5 0.000374 -0.005621 0.001632 0.000000 0.029047 0.000000
# 6 0.000000 0.000000 0.000000 -0.355760 0.000000 0.315209
#
#
# Mechanical properties :
#
#
# Convention : Reuss Voigt Hill
#
# Bulk Modulus (GPa) = 35.89258 76.38950 56.14104
# Shear Modulus (GPa) = -1.84949 22.64876 10.39963
#
# Velocity S-wave (km/s) = -0.99150 3.46967 2.35112
# Velocity P-wave (km/s) = 4.21515 7.52697 6.10011
#
# Compressibility (1/GPa) = 0.02786091
#
# Stress axis : x y z
#
# Youngs Moduli (GPa) = 97.75690 30.34616 120.73929
#
# Poissons Ratio (x) = 0.09969 0.56266
# Poissons Ratio (y) = 0.32116 0.46564
# Poissons Ratio (z) = 0.45556 0.11703
#
# Static dielectric constant tensor:
#      x y z
#    x 3.493900 0.000000 -0.155530 
#    y 0.000000 2.867140 0.000000 
#    z -0.155530 0.000000 3.962770 
# 
# 
# High freq. dielectric constant tensor:
#      x y z
#    x 1.722040 0.000000 -0.003570 
#    y 0.000000 1.669480 0.000000 
#    z -0.003570 0.000000 1.756120 
# 
# From -- ./inp_files/38058.got.cif
#   From: 2010.06.25/outbox.cif.g09.slc.cpg/sg10_20_cif.got.tgz:38058.got - 2010.06.27 22:07:45.
