data_PCOD8060789
_publ_section_title
;
Structure prediction by ZEFSAII (Michael W. Deem and Ramdas Pophale) SiO2 
 PCOD8060789
Probable space group: P 2/M
;
_chemical_formula_sum "Si O2"
_cell_formula_units_Z 28
_cell_length_a 21.535402
_cell_length_b 8.680639
_cell_length_c 22.881438
_cell_angle_alpha 90.000000
_cell_angle_beta 160.269208
_cell_angle_gamma 90.000000
_cell_volume 1444.082299
_symmetry_space_group_name_H-M "P 2/M"
_symmetry_group_IT_number 10
_symmetry_cell_setting 'monoclinic'
loop_
_space_group_symop_operation_xyz
x,y,z
-x,y,-z
-x,-y,-z
x,-y,z
loop_
_atom_site_type_symbol
_atom_site_label
_atom_site_fract_x
_atom_site_fract_y
_atom_site_fract_z
Si Si1 0.877497 0.683229 0.307989
Si Si2 0.438038 0.320185 0.304766
Si Si3 0.193289 0.317639 0.193204
Si Si4 0.171218 0.679793 0.304345
Si Si5 0.211555 0.820038 0.000175
Si Si6 0.346505 0.316887 0.999850
Si Si7 0.738372 0.316772 0.307908
O O1 0.873042 0.500000 0.302879
O O2 0.787708 0.749998 0.169429
O O3 0.762381 0.741306 0.262398
O O4 0.088741 0.740953 0.500051
O O5 0.393919 0.500000 0.255697
O O6 0.353546 0.261934 0.291556
O O7 0.657004 0.290558 0.500305
O O8 0.348049 0.224975 0.173140
O O9 0.185853 0.500000 0.185661
O O10 0.229970 0.262246 0.291767
O O11 0.000000 0.247876 0.000000
O O12 0.117026 0.500000 0.255156
O O13 0.997764 0.775200 0.172316
O O14 0.223437 0.000000 0.000211
O O15 0.276035 0.734815 0.999634
O O16 0.348604 0.500000 0.999810
O O17 0.550962 0.250022 0.169290
O O18 0.732584 0.500000 0.302784
#
# Coordination Sequence:
#
# PCOD8060789 Si02
#       7
#     4   4   4   4   4   4   4
#     4   8  14  26  48  80 110 130 158 212 276 325
#     4  10  20  37  62  87 109 138 181 230 278 329
#     4   9  15  29  59  91 115 132 163 224 287 334
#     4  10  20  37  62  87 109 138 181 230 278 329
#     4  12  26  40  52  73 113 157 192 227 270 321
#     4  10  19  32  53  77 102 137 183 223 262 312
#     4   8  14  26  48  80 110 130 158 212 276 325
#
# _framework density 19.389476999999999
#
# number of rings (size 3 to 8) (size 9 to 14) (size 15 to 20)
#    0.000    2.429    1.429    3.000    0.000    5.143 
#    0.000    4.286    0.000    3.429    0.000    2.000 
#    0.000    0.000    0.000    0.000    0.000    0.000 
#
# Total GULP energy -347104.745728 kJ/mol
# GULP energy per Si atom -12396.598062 kJ/mol
# Density = 1.934535 g / cm^3
# Si number density = 19.389477 Si / 1000 Ang^3
#
#
#
# Elastic Constant Matrix: (Units=GPa)
#
#
# Indices 1 2 3 4 5 6 
#
# 1 119.3747 -0.9615 66.6135 0.0000 23.9475 0.0000
# 2 -0.9615 11.2735 9.9953 0.0000 0.0026 0.0000
# 3 66.6135 9.9953 126.9997 0.0000 -32.8912 0.0000
# 4 0.0000 0.0000 0.0000 10.5126 0.0000 -1.6163
# 5 23.9475 0.0026 -32.8912 0.0000 -111.4323 0.0000
# 6 0.0000 0.0000 0.0000 -1.6163 0.0000 -6.3872
#
#
#
# Elastic Compliance Matrix: (Units=1/GPa)
#
#
# Indices 1 2 3 4 5 6 
#
# 1 0.010427 0.005256 -0.004926 0.000000 0.003695 0.000000
# 2 0.005256 0.097501 -0.009417 0.000000 0.003911 0.000000
# 3 -0.004926 -0.009417 0.010149 0.000000 -0.004054 0.000000
# 4 0.000000 0.000000 0.000000 0.091562 0.000000 -0.023170
# 5 0.003695 0.003911 -0.004054 0.000000 -0.006983 0.000000
# 6 0.000000 0.000000 0.000000 -0.023170 0.000000 -0.150700
#
#
# Mechanical properties :
#
#
# Convention : Reuss Voigt Hill
#
# Bulk Modulus (GPa) = 10.00986 45.43805 27.72396
# Shear Modulus (GPa) = 48.34187 -9.32801 19.50693
#
# Velocity S-wave (km/s) = 4.99861 -2.19575 3.17528
# Velocity P-wave (km/s) = 6.20392 4.12999 5.26998
#
# Compressibility (1/GPa) = 0.09990149
#
# Stress axis : x y z
#
# Youngs Moduli (GPa) = 95.90705 10.25634 98.53383
#
# Poissons Ratio (x) = -0.05390 0.48535
# Poissons Ratio (y) = -0.50405 0.92792
# Poissons Ratio (z) = 0.47241 0.09659
#
# Static dielectric constant tensor:
#      x y z
#    x 3.647870 0.000000 -0.022530 
#    y 0.000000 2.948910 0.000000 
#    z -0.022530 0.000000 3.870330 
# 
# 
# High freq. dielectric constant tensor:
#      x y z
#    x 1.756960 0.000000 -0.001600 
#    y 0.000000 1.691610 0.000000 
#    z -0.001600 0.000000 1.772530 
# 
# From -- ./inp_files/90408.got.cif
#   From: 2010.06.25/outbox.cif.g09.slc.cpg/sg10_46_cif.got.tgz:90408.got - 2010.06.27 22:07:45.
