data_PCOD8060852
_publ_section_title
;
Structure prediction by ZEFSAII (Michael W. Deem and Ramdas Pophale) SiO2 
 PCOD8060852
Probable space group: P 2/M
;
_chemical_formula_sum "Si O2"
_cell_formula_units_Z 28
_cell_length_a 14.043275
_cell_length_b 9.274619
_cell_length_c 15.132258
_cell_angle_alpha 90.000000
_cell_angle_beta 42.710124
_cell_angle_gamma 90.000000
_cell_volume 1336.851970
_symmetry_space_group_name_H-M "P 2/M"
_symmetry_group_IT_number 10
_symmetry_cell_setting 'monoclinic'
loop_
_space_group_symop_operation_xyz
x,y,z
-x,y,-z
-x,-y,-z
x,-y,z
loop_
_atom_site_type_symbol
_atom_site_label
_atom_site_fract_x
_atom_site_fract_y
_atom_site_fract_z
Si Si1 0.842202 0.840793 0.166272
Si Si2 0.379970 0.328630 0.147245
Si Si3 0.514821 0.339275 0.741701
Si Si4 0.484285 0.840512 0.604681
Si Si5 0.943080 0.670347 0.636463
Si Si6 0.998052 0.828660 0.769884
Si Si7 0.817610 0.336642 0.017717
O O1 0.677843 0.849329 0.263479
O O2 0.893964 0.738190 0.050364
O O3 0.882381 0.787168 0.238126
O O4 0.907473 0.000000 0.108769
O O5 0.393657 0.500000 0.137456
O O6 0.416995 0.267882 0.218699
O O7 0.219751 0.282734 0.237385
O O8 0.500000 0.264237 0.000000
O O9 0.572961 0.500000 0.688289
O O10 0.566797 0.247797 0.622598
O O11 0.348396 0.339972 0.862864
O O12 0.500000 0.761003 0.500000
O O13 0.553198 0.000000 0.553246
O O14 0.962951 0.500000 0.637107
O O15 0.031175 0.756434 0.651708
O O16 0.000000 0.713848 0.500000
O O17 0.981309 0.000000 0.769270
O O18 0.855725 0.755641 0.904494
O O19 0.875308 0.500000 0.970304
#
# Coordination Sequence:
#
# PCOD8060852 Si02
#       7
#     4   4   4   4   4   4   4
#     4   9  19  34  50  73 106 140 172 207 257 320
#     4   9  17  33  57  80 104 137 174 214 266 322
#     4   9  18  32  52  77 102 132 170 213 263 314
#     4   9  18  33  51  71  99 135 171 208 253 307
#     4  10  22  39  57  79 107 139 180 229 272 311
#     4  11  22  35  53  75 104 143 177 209 258 319
#     4  10  19  32  53  81 108 133 169 217 262 309
#
# _framework density 20.944727
#
# number of rings (size 3 to 8) (size 9 to 14) (size 15 to 20)
#    0.000    2.429    0.000    2.143    0.000    7.429 
#    0.000    0.714    0.000    1.714    0.000    0.000 
#    0.000    0.000    0.000    0.000    0.000    0.000 
#
# Total GULP energy -346965.000159 kJ/mol
# GULP energy per Si atom -12391.607149 kJ/mol
# Density = 2.089706 g / cm^3
# Si number density = 20.944727 Si / 1000 Ang^3
#
#
#
# Elastic Constant Matrix: (Units=GPa)
#
#
# Indices 1 2 3 4 5 6 
#
# 1 101.1459 38.3412 28.4291 0.0000 38.2101 0.0000
# 2 38.3412 85.9855 33.6118 0.0000 28.9506 0.0000
# 3 28.4291 33.6118 86.8553 0.0000 35.0684 0.0000
# 4 0.0000 0.0000 0.0000 32.7818 0.0000 28.7536
# 5 38.2101 28.9506 35.0684 0.0000 46.5710 0.0000
# 6 0.0000 0.0000 0.0000 28.7536 0.0000 43.4235
#
#
#
# Elastic Compliance Matrix: (Units=1/GPa)
#
#
# Indices 1 2 3 4 5 6 
#
# 1 0.015032 -0.003354 0.000741 0.000000 -0.010806 0.000000
# 2 -0.003354 0.015974 -0.003140 0.000000 -0.004813 0.000000
# 3 0.000741 -0.003140 0.017161 0.000000 -0.011578 0.000000
# 4 0.000000 0.000000 0.000000 0.072769 0.000000 -0.048185
# 5 -0.010806 -0.004813 -0.011578 0.000000 0.042049 0.000000
# 6 0.000000 0.000000 0.000000 -0.048185 0.000000 0.054936
#
#
# Mechanical properties :
#
#
# Convention : Reuss Voigt Hill
#
# Bulk Modulus (GPa) = 27.27810 52.75010 40.01410
# Shear Modulus (GPa) = 20.69126 36.12889 28.41008
#
# Velocity S-wave (km/s) = 3.14650 4.15777 3.68697
# Velocity P-wave (km/s) = 5.12374 6.94906 6.10501
#
# Compressibility (1/GPa) = 0.03665945
#
# Stress axis : x y z
#
# Youngs Moduli (GPa) = 66.52369 62.60318 58.27214
#
# Poissons Ratio (x) = 0.20998 -0.04317
# Poissons Ratio (y) = 0.22313 0.18299
# Poissons Ratio (z) = -0.04928 0.19659
#
# Static dielectric constant tensor:
#      x y z
#    x 3.921820 0.000000 0.218340 
#    y 0.000000 3.865430 0.000000 
#    z 0.218340 0.000000 3.814520 
# 
# 
# High freq. dielectric constant tensor:
#      x y z
#    x 1.825420 0.000000 0.013060 
#    y 0.000000 1.791950 0.000000 
#    z 0.013060 0.000000 1.818660 
# 
# From -- ./inp_files/66414.got.cif
#   From: 2010.06.25/outbox.cif.g09.slc.cpg/sg10_34_cif.got.tgz:66414.got - 2010.06.27 22:07:45.
