data_PCOD8060620
_publ_section_title
;
Structure prediction by ZEFSAII (Michael W. Deem and Ramdas Pophale) SiO2 
 PCOD8060620
Probable space group: P 2/M
;
_chemical_formula_sum "Si O2"
_cell_formula_units_Z 32
_cell_length_a 14.913792
_cell_length_b 9.393979
_cell_length_c 23.644351
_cell_angle_alpha 90.000000
_cell_angle_beta 149.769149
_cell_angle_gamma 90.000000
_cell_volume 1667.830115
_symmetry_space_group_name_H-M "P 2/M"
_symmetry_group_IT_number 10
_symmetry_cell_setting 'monoclinic'
loop_
_space_group_symop_operation_xyz
x,y,z
-x,y,-z
-x,-y,-z
x,-y,z
loop_
_atom_site_type_symbol
_atom_site_label
_atom_site_fract_x
_atom_site_fract_y
_atom_site_fract_z
Si Si1 0.903040 0.669465 0.269351
Si Si2 0.278930 0.668024 0.519157
Si Si3 0.190400 0.161010 0.122174
Si Si4 0.803119 0.331997 0.088183
Si Si5 0.415720 0.655094 0.394806
Si Si6 0.894883 0.839423 0.795993
Si Si7 0.578329 0.331812 0.165551
Si Si8 0.526269 0.332016 0.263770
O O1 0.902910 0.500000 0.272261
O O2 0.863314 0.717672 0.183517
O O3 0.747167 0.732755 0.224285
O O4 0.090579 0.732457 0.394941
O O5 0.270638 0.500000 0.505635
O O6 0.442123 0.727970 0.570467
O O7 0.317814 0.707146 0.606136
O O8 0.193102 0.163544 0.190718
O O9 0.341952 0.260304 0.180126
O O10 0.216110 0.000000 0.112892
O O11 0.000000 0.222727 0.000000
O O12 0.832006 0.500000 0.095065
O O13 0.919578 0.245352 0.106117
O O14 0.599650 0.287788 0.965298
O O15 0.500000 0.623440 0.500000
O O16 0.352279 0.500000 0.335650
O O17 0.251135 0.757093 0.320432
O O18 0.923781 0.000000 0.789945
O O19 0.594394 0.500000 0.175393
O O20 0.581610 0.275023 0.231938
O O21 0.491762 0.500000 0.244219
#
# Coordination Sequence:
#
# PCOD8060620 Si02
#       8
#     4   4   4   4   4   4   4   4
#     4   9  17  31  52  78 106 135 171 215 263 316
#     4   9  17  29  47  74 106 137 169 208 257 310
#     4  10  21  36  52  72 102 141 179 213 258 315
#     4  10  19  33  54  78 105 137 175 217 262 316
#     4  10  19  33  53  76 105 140 176 212 254 311
#     4  11  22  34  51  77 106 138 175 215 262 311
#     4   9  18  31  51  80 106 132 171 221 271 310
#     4  10  19  32  51  77 107 134 169 218 264 308
#
# _framework density 19.186606000000001
#
# number of rings (size 3 to 8) (size 9 to 14) (size 15 to 20)
#    0.000    2.250    1.250    2.250    0.000    5.000 
#    0.000    2.500    0.000    2.250    0.000    0.875 
#    0.000    0.000    0.000    0.000    0.000    0.000 
#
# Total GULP energy -396663.154019 kJ/mol
# GULP energy per Si atom -12395.723563 kJ/mol
# Density = 1.914294 g / cm^3
# Si number density = 19.186606 Si / 1000 Ang^3
#
#
#
# Elastic Constant Matrix: (Units=GPa)
#
#
# Indices 1 2 3 4 5 6 
#
# 1 92.7625 22.0065 36.4767 0.0000 6.1813 0.0000
# 2 22.0065 44.6843 24.2843 0.0000 8.8416 0.0000
# 3 36.4767 24.2843 122.9015 0.0000 4.6899 0.0000
# 4 0.0000 0.0000 0.0000 -4.0844 0.0000 13.5251
# 5 6.1813 8.8416 4.6899 0.0000 37.6280 0.0000
# 6 0.0000 0.0000 0.0000 13.5251 0.0000 -12.7414
#
#
#
# Elastic Compliance Matrix: (Units=1/GPa)
#
#
# Indices 1 2 3 4 5 6 
#
# 1 0.013098 -0.004725 -0.002928 0.000000 -0.000676 0.000000
# 2 -0.004725 0.027874 -0.003903 0.000000 -0.005287 0.000000
# 3 -0.002928 -0.003903 0.009770 0.000000 0.000180 0.000000
# 4 0.000000 0.000000 0.000000 0.097347 0.000000 0.103334
# 5 -0.000676 -0.005287 0.000180 0.000000 0.027907 0.000000
# 6 0.000000 0.000000 0.000000 0.103334 0.000000 0.031206
#
#
# Mechanical properties :
#
#
# Convention : Reuss Voigt Hill
#
# Bulk Modulus (GPa) = 36.19497 47.32036 41.75767
# Shear Modulus (GPa) = 20.87473 15.99915 18.43694
#
# Velocity S-wave (km/s) = 3.30204 2.89082 3.10325
# Velocity P-wave (km/s) = 5.78305 5.98825 5.88654
#
# Compressibility (1/GPa) = 0.02762815
#
# Stress axis : x y z
#
# Youngs Moduli (GPa) = 76.34970 35.87586 102.35466
#
# Poissons Ratio (x) = 0.16953 0.29967
# Poissons Ratio (y) = 0.36079 0.39953
# Poissons Ratio (z) = 0.22354 0.14004
#
# Static dielectric constant tensor:
#      x y z
#    x 3.705910 0.000000 0.013820 
#    y 0.000000 3.116060 0.000000 
#    z 0.013820 0.000000 3.697550 
# 
# 
# High freq. dielectric constant tensor:
#      x y z
#    x 1.750360 0.000000 -0.002550 
#    y 0.000000 1.693370 0.000000 
#    z -0.002550 0.000000 1.757060 
# 
# From -- ./inp_files/71528.got.cif
#   From: 2010.06.25/outbox.cif.g09.slc.cpg/sg10_36_cif.got.tgz:71528.got - 2010.06.27 22:07:45.
