data_PCOD8060615
_publ_section_title
;
Structure prediction by ZEFSAII (Michael W. Deem and Ramdas Pophale) SiO2 
 PCOD8060615
Probable space group: P 2/M
;
_chemical_formula_sum "Si O2"
_cell_formula_units_Z 32
_cell_length_a 19.469791
_cell_length_b 9.679162
_cell_length_c 24.547625
_cell_angle_alpha 90.000000
_cell_angle_beta 23.810236
_cell_angle_gamma 90.000000
_cell_volume 1867.569145
_symmetry_space_group_name_H-M "P 2/M"
_symmetry_group_IT_number 10
_symmetry_cell_setting 'monoclinic'
loop_
_space_group_symop_operation_xyz
x,y,z
-x,y,-z
-x,-y,-z
x,-y,z
loop_
_atom_site_type_symbol
_atom_site_label
_atom_site_fract_x
_atom_site_fract_y
_atom_site_fract_z
Si Si1 0.942785 0.339495 0.847007
Si Si2 0.965713 0.159024 0.612528
Si Si3 0.946521 0.660880 0.353895
Si Si4 0.465713 0.159024 0.612528
Si Si5 0.442785 0.660505 0.847006
Si Si6 0.774306 0.159045 0.310969
Si Si7 0.446520 0.339120 0.353896
Si Si8 0.725694 0.159045 0.689031
O O1 0.981131 0.500000 0.829374
O O2 0.981231 0.297803 0.757163
O O3 0.060703 0.253656 0.802349
O O4 0.750000 0.300823 0.000000
O O5 0.800769 0.183269 0.694730
O O6 0.946686 0.253840 0.679321
O O7 0.134238 0.202022 0.457200
O O8 0.977371 0.000000 0.622228
O O9 0.971817 0.500000 0.348248
O O10 0.750000 0.704005 0.500000
O O11 0.634237 0.202022 0.457200
O O12 0.300769 0.183269 0.694730
O O13 0.446686 0.253840 0.679321
O O14 0.477371 0.000000 0.622228
O O15 0.481131 0.500000 0.829374
O O16 0.481233 0.702198 0.757162
O O17 0.560702 0.746344 0.802349
O O18 0.826446 0.000000 0.281006
O O19 0.471817 0.500000 0.348248
O O20 0.673554 0.000000 0.718994
#
# Coordination Sequence:
#
# PCOD8060615 Si02
#       8
#     4   4   4   4   4   4   4   4
#     4  10  21  36  52  73 104 137 167 204 252 301
#     4   9  18  32  52  78 104 130 164 210 255 293
#     4  10  19  32  51  77 102 128 170 213 245 291
#     4   9  18  32  52  78 104 130 164 210 255 293
#     4  10  21  36  52  73 104 137 167 204 252 301
#     4   9  18  33  52  76 104 132 167 207 249 299
#     4  10  19  32  51  77 102 128 170 213 245 291
#     4   9  18  33  52  76 104 132 167 207 249 299
#
# _framework density 17.134573
#
# number of rings (size 3 to 8) (size 9 to 14) (size 15 to 20)
#    0.000    2.500    2.500    1.500    0.000    3.000 
#    0.000    3.750    0.000    7.500    0.000    0.000 
#    0.000    0.000    0.000    0.000    0.000    0.000 
#
# Total GULP energy -396887.548107 kJ/mol
# GULP energy per Si atom -12402.735878 kJ/mol
# Density = 1.709557 g / cm^3
# Si number density = 17.134573 Si / 1000 Ang^3
#
#
#
# Elastic Constant Matrix: (Units=GPa)
#
#
# Indices 1 2 3 4 5 6 
#
# 1 108.5276 60.7459 54.1592 0.0000 -7.4567 0.0000
# 2 60.7459 67.0099 44.0065 0.0000 -13.0985 0.0000
# 3 54.1592 44.0065 105.4960 0.0000 -4.0144 0.0000
# 4 0.0000 0.0000 0.0000 19.3418 0.0000 -3.5642
# 5 -7.4567 -13.0985 -4.0144 0.0000 24.8450 0.0000
# 6 0.0000 0.0000 0.0000 -3.5642 0.0000 36.6332
#
#
#
# Elastic Compliance Matrix: (Units=1/GPa)
#
#
# Indices 1 2 3 4 5 6 
#
# 1 0.019910 -0.016370 -0.003515 0.000000 -0.003223 0.000000
# 2 -0.016370 0.036518 -0.006322 0.000000 0.013318 0.000000
# 3 -0.003515 -0.006322 0.013839 0.000000 -0.002152 0.000000
# 4 0.000000 0.000000 0.000000 0.052645 0.000000 0.005122
# 5 -0.003223 0.013318 -0.002152 0.000000 0.045956 0.000000
# 6 0.000000 0.000000 0.000000 0.005122 0.000000 0.027796
#
#
# Mechanical properties :
#
#
# Convention : Reuss Voigt Hill
#
# Bulk Modulus (GPa) = 56.01706 66.53964 61.27835
# Shear Modulus (GPa) = 19.60544 24.30544 21.95544
#
# Velocity S-wave (km/s) = 3.38628 3.77039 3.58348
# Velocity P-wave (km/s) = 6.93200 7.60738 7.27753
#
# Compressibility (1/GPa) = 0.01785170
#
# Stress axis : x y z
#
# Youngs Moduli (GPa) = 50.22631 27.38341 72.25884
#
# Poissons Ratio (x) = 0.44827 0.25401
# Poissons Ratio (y) = 0.82221 0.45685
# Poissons Ratio (z) = 0.17656 0.17313
#
# Static dielectric constant tensor:
#      x y z
#    x 3.147740 0.000000 0.001800 
#    y 0.000000 3.104850 0.000000 
#    z 0.001800 0.000000 3.013700 
# 
# 
# High freq. dielectric constant tensor:
#      x y z
#    x 1.665040 0.000000 -0.003940 
#    y 0.000000 1.660920 0.000000 
#    z -0.003940 0.000000 1.639020 
# 
# From -- ./inp_files/49869.got.cif
#   From: 2010.06.25/outbox.cif.g09.slc.cpg/sg10_25_cif.got.tgz:49869.got - 2010.06.27 22:07:45.
