data_PCOD8060687
_publ_section_title
;
Structure prediction by ZEFSAII (Michael W. Deem and Ramdas Pophale) SiO2 
 PCOD8060687
Probable space group: P 2/M
;
_chemical_formula_sum "Si O2"
_cell_formula_units_Z 32
_cell_length_a 11.218759
_cell_length_b 13.445084
_cell_length_c 22.788778
_cell_angle_alpha 90.000000
_cell_angle_beta 150.540724
_cell_angle_gamma 90.000000
_cell_volume 1690.527160
_symmetry_space_group_name_H-M "P 2/M"
_symmetry_group_IT_number 10
_symmetry_cell_setting 'monoclinic'
loop_
_space_group_symop_operation_xyz
x,y,z
-x,y,-z
-x,-y,-z
x,-y,z
loop_
_atom_site_type_symbol
_atom_site_label
_atom_site_fract_x
_atom_site_fract_y
_atom_site_fract_z
Si Si1 0.139296 0.390529 0.721067
Si Si2 0.006497 0.243679 0.570793
Si Si3 0.466926 0.886136 0.761412
Si Si4 0.546817 0.113278 0.378099
Si Si5 0.655233 0.776207 0.120139
Si Si6 0.719414 0.609566 0.633391
Si Si7 0.092331 0.793022 0.227486
Si Si8 0.742465 0.113466 0.990594
O O1 0.251312 0.500000 0.755269
O O2 0.338756 0.312198 0.829411
O O3 0.014770 0.347451 0.609036
O O4 0.947582 0.402321 0.689901
O O5 0.771743 0.182824 0.491272
O O6 0.000000 0.270138 0.500000
O O7 0.242203 0.179114 0.686892
O O8 0.539950 0.862769 0.725720
O O9 0.701151 0.866055 0.903454
O O10 0.383236 0.000000 0.731889
O O11 0.320504 0.132160 0.324462
O O12 0.633133 0.000000 0.421337
O O13 0.517140 0.870884 0.088487
O O14 0.921333 0.811993 0.211236
O O15 0.500000 0.731727 0.000000
O O16 0.500000 0.653525 0.500000
O O17 0.648608 0.500000 0.628392
O O18 0.791743 0.682113 0.718439
O O19 0.938185 0.809755 0.101574
O O20 0.828858 0.000000 0.038795
#
# Coordination Sequence:
#
# PCOD8060687 Si02
#       8
#     4   4   4   4   4   4   4   4
#     4  10  19  32  52  77 102 128 171 225 265 300
#     4  10  19  33  54  76 106 139 174 213 266 318
#     4   9  18  33  54  75  99 140 184 213 251 312
#     4  10  20  33  51  78 108 137 174 221 263 301
#     4   9  19  34  52  74 104 139 175 208 258 314
#     4   9  18  34  55  75 100 138 177 211 257 316
#     4  10  20  32  51  79 108 132 168 218 262 304
#     4  10  19  33  54  75 103 143 178 210 256 317
#
# _framework density 18.929006999999999
#
# number of rings (size 3 to 8) (size 9 to 14) (size 15 to 20)
#    0.000    2.375    1.250    1.500    0.000    5.250 
#    0.000    3.750    0.000    5.250    0.000    0.875 
#    0.000    0.000    0.000    0.000    0.000    0.000 
#
# Total GULP energy -396578.717953 kJ/mol
# GULP energy per Si atom -12393.084936 kJ/mol
# Density = 1.888592 g / cm^3
# Si number density = 18.929007 Si / 1000 Ang^3
#
#
#
# Elastic Constant Matrix: (Units=GPa)
#
#
# Indices 1 2 3 4 5 6 
#
# 1 42.6624 31.8937 23.4419 0.0000 4.0910 0.0000
# 2 31.8937 100.0531 52.4403 0.0000 -16.2376 0.0000
# 3 23.4419 52.4403 92.1517 0.0000 -14.1135 0.0000
# 4 0.0000 0.0000 0.0000 23.6163 0.0000 17.2343
# 5 4.0910 -16.2376 -14.1135 0.0000 30.1610 0.0000
# 6 0.0000 0.0000 0.0000 17.2343 0.0000 -40.8683
#
#
#
# Elastic Compliance Matrix: (Units=1/GPa)
#
#
# Indices 1 2 3 4 5 6 
#
# 1 0.035451 -0.010877 -0.004806 0.000000 -0.012913 0.000000
# 2 -0.010877 0.018085 -0.006256 0.000000 0.008285 0.000000
# 3 -0.004806 -0.006256 0.016393 0.000000 0.004955 0.000000
# 4 0.000000 0.000000 0.000000 0.032379 0.000000 0.013654
# 5 -0.012913 0.008285 0.004955 0.000000 0.041686 0.000000
# 6 0.000000 0.000000 0.000000 0.013654 0.000000 -0.018711
#
#
# Mechanical properties :
#
#
# Convention : Reuss Voigt Hill
#
# Bulk Modulus (GPa) = 38.38653 50.04656 44.21654
# Shear Modulus (GPa) = 28.11434 11.05456 19.58445
#
# Velocity S-wave (km/s) = 3.85808 2.41923 3.22005
# Velocity P-wave (km/s) = 6.33795 5.85663 6.10203
#
# Compressibility (1/GPa) = 0.02605080
#
# Stress axis : x y z
#
# Youngs Moduli (GPa) = 28.20825 55.29316 61.00121
#
# Poissons Ratio (x) = 0.60144 0.29317
# Poissons Ratio (y) = 0.30683 0.38162
# Poissons Ratio (z) = 0.13557 0.34591
#
# Static dielectric constant tensor:
#      x y z
#    x 3.374030 0.000000 -0.073280 
#    y 0.000000 3.748770 0.000000 
#    z -0.073280 0.000000 3.592420 
# 
# 
# High freq. dielectric constant tensor:
#      x y z
#    x 1.717480 0.000000 -0.002310 
#    y 0.000000 1.720680 0.000000 
#    z -0.002310 0.000000 1.738970 
# 
# From -- ./inp_files/56951.got.cif
#   From: 2010.06.25/outbox.cif.g09.slc.cpg/sg10_29_cif.got.tgz:56951.got - 2010.06.27 22:07:45.
