data_PCOD8060825
_publ_section_title
;
Structure prediction by ZEFSAII (Michael W. Deem and Ramdas Pophale) SiO2 
 PCOD8060825
Probable space group: P 2/M
;
_chemical_formula_sum "Si O2"
_cell_formula_units_Z 32
_cell_length_a 10.960191
_cell_length_b 9.191512
_cell_length_c 16.411537
_cell_angle_alpha 90.000000
_cell_angle_beta 93.298448
_cell_angle_gamma 90.000000
_cell_volume 1650.571256
_symmetry_space_group_name_H-M "P 2/M"
_symmetry_group_IT_number 10
_symmetry_cell_setting 'monoclinic'
loop_
_space_group_symop_operation_xyz
x,y,z
-x,y,-z
-x,-y,-z
x,-y,z
loop_
_atom_site_type_symbol
_atom_site_label
_atom_site_fract_x
_atom_site_fract_y
_atom_site_fract_z
Si Si1 0.268602 0.829639 0.868446
Si Si2 0.541170 0.171067 0.858891
Si Si3 0.116954 0.328170 0.733049
Si Si4 0.367664 0.327407 0.463748
Si Si5 0.903236 0.162699 0.804693
Si Si6 0.875303 0.327188 0.452543
Si Si7 0.227228 0.171818 0.042375
Si Si8 0.350370 0.836914 0.298429
O O1 0.409639 0.789661 0.889102
O O2 0.225936 0.741528 0.788463
O O3 0.250037 0.000000 0.850071
O O4 0.198681 0.776941 0.948465
O O5 0.645319 0.242266 0.920369
O O6 0.552785 0.222024 0.764856
O O7 0.565111 0.000000 0.857934
O O8 0.127532 0.500000 0.737672
O O9 0.125055 0.272601 0.640561
O O10 0.990040 0.279521 0.767100
O O11 0.500000 0.268996 0.500000
O O12 0.367171 0.500000 0.465238
O O13 0.250694 0.268323 0.511087
O O14 0.349808 0.275126 0.371654
O O15 0.880557 0.210811 0.898163
O O16 0.779526 0.161514 0.750176
O O17 0.961932 0.000000 0.805767
O O18 0.877242 0.500000 0.457752
O O19 0.000000 0.266325 0.500000
O O20 0.245141 0.000000 0.039071
O O21 0.382161 0.000000 0.330996
#
# Coordination Sequence:
#
# PCOD8060825 Si02
#       8
#     4   4   4   4   4   4   4   4
#     4  10  19  32  53  79 107 139 175 214 256 308
#     4   8  15  29  52  80 107 136 173 214 256 308
#     4  11  23  36  53  76 105 138 172 216 268 315
#     4  10  21  35  54  79 105 138 181 222 260 318
#     4   9  18  35  56  77 103 134 176 220 257 306
#     4   9  19  37  57  74  98 137 182 222 262 314
#     4   8  15  30  54  80 103 135 178 218 254 300
#     4   9  18  33  54  80 107 134 165 214 272 314
#
# _framework density 19.387228
#
# number of rings (size 3 to 8) (size 9 to 14) (size 15 to 20)
#    0.000    2.750    0.000    3.000    1.750    3.750 
#    0.000    4.375    0.000    6.375    0.000    0.000 
#    0.000    0.000    0.000    0.000    0.000    0.000 
#
# Total GULP energy -396559.593506 kJ/mol
# GULP energy per Si atom -12392.487297 kJ/mol
# Density = 1.934310 g / cm^3
# Si number density = 19.387228 Si / 1000 Ang^3
#
#
#
# Elastic Constant Matrix: (Units=GPa)
#
#
# Indices 1 2 3 4 5 6 
#
# 1 89.5850 17.4369 46.8686 0.0000 -8.0892 0.0000
# 2 17.4369 26.5440 24.8438 0.0000 -1.8030 0.0000
# 3 46.8686 24.8438 144.3326 0.0000 -9.4512 0.0000
# 4 0.0000 0.0000 0.0000 24.9899 0.0000 -1.3245
# 5 -8.0892 -1.8030 -9.4512 0.0000 24.3981 0.0000
# 6 0.0000 0.0000 0.0000 -1.3245 0.0000 2.7536
#
#
#
# Elastic Compliance Matrix: (Units=1/GPa)
#
#
# Indices 1 2 3 4 5 6 
#
# 1 0.014410 -0.006040 -0.003444 0.000000 0.002997 0.000000
# 2 -0.006040 0.047442 -0.006265 0.000000 -0.000924 0.000000
# 3 -0.003444 -0.006265 0.009255 0.000000 0.001980 0.000000
# 4 0.000000 0.000000 0.000000 0.041063 0.000000 0.019752
# 5 0.002997 -0.000924 0.001980 0.000000 0.042679 0.000000
# 6 0.000000 0.000000 0.000000 0.019752 0.000000 0.372661
#
#
# Mechanical properties :
#
#
# Convention : Reuss Voigt Hill
#
# Bulk Modulus (GPa) = 25.24607 48.75113 36.99860
# Shear Modulus (GPa) = 8.73802 21.84914 15.29358
#
# Velocity S-wave (km/s) = 2.12530 3.36070 2.81169
# Velocity P-wave (km/s) = 4.36724 6.34505 5.44667
#
# Compressibility (1/GPa) = 0.03961013
#
# Stress axis : x y z
#
# Youngs Moduli (GPa) = 69.39437 21.07828 108.05225
#
# Poissons Ratio (x) = 0.12731 0.37208
# Poissons Ratio (y) = 0.41912 0.67699
# Poissons Ratio (z) = 0.23896 0.13206
#
# Static dielectric constant tensor:
#      x y z
#    x 3.718770 0.000000 -0.140290 
#    y 0.000000 3.060940 0.000000 
#    z -0.140290 0.000000 3.866610 
# 
# 
# High freq. dielectric constant tensor:
#      x y z
#    x 1.761040 0.000000 -0.005910 
#    y 0.000000 1.698510 0.000000 
#    z -0.005910 0.000000 1.770410 
# 
# From -- ./inp_files/63776.got.cif
#   From: 2010.06.25/outbox.cif.g09.slc.cpg/sg10_32_cif.got.tgz:63776.got - 2010.06.27 22:07:45.
