data_PCOD8060438
_publ_section_title
;
Structure prediction by ZEFSAII (Michael W. Deem and Ramdas Pophale) SiO2 
 PCOD8060438
Probable space group: P 2/M
;
_chemical_formula_sum "Si O2"
_cell_formula_units_Z 28
_cell_length_a 17.674541
_cell_length_b 8.865050
_cell_length_c 18.995680
_cell_angle_alpha 90.000000
_cell_angle_beta 148.210606
_cell_angle_gamma 90.000000
_cell_volume 1567.937250
_symmetry_space_group_name_H-M "P 2/M"
_symmetry_group_IT_number 10
_symmetry_cell_setting 'monoclinic'
loop_
_space_group_symop_operation_xyz
x,y,z
-x,y,-z
-x,-y,-z
x,-y,z
loop_
_atom_site_type_symbol
_atom_site_label
_atom_site_fract_x
_atom_site_fract_y
_atom_site_fract_z
Si Si1 0.585196 0.676426 0.638241
Si Si2 0.841157 0.168439 0.342749
Si Si3 0.732982 0.668419 0.384355
Si Si4 0.115069 0.826257 0.151875
Si Si5 0.949481 0.667050 0.302706
Si Si6 0.366071 0.821846 0.560801
Si Si7 0.911139 0.320358 0.726249
O O1 0.500000 0.714988 0.500000
O O2 0.578012 0.500000 0.650648
O O3 0.748515 0.725992 0.759152
O O4 0.518550 0.772262 0.649602
O O5 0.732766 0.265555 0.305037
O O6 0.843566 0.227847 0.264176
O O7 0.000000 0.174834 0.500000
O O8 0.780911 0.000000 0.293589
O O9 0.668044 0.500000 0.331235
O O10 0.637881 0.772428 0.360526
O O11 0.894158 0.664838 0.539569
O O12 0.042711 0.761157 0.165568
O O13 0.160290 0.000000 0.198624
O O14 0.000000 0.808422 0.000000
O O15 0.882831 0.500000 0.251340
O O16 0.968792 0.723514 0.237465
O O17 0.245162 0.736886 0.420214
O O18 0.343539 0.000000 0.537507
O O19 0.901219 0.500000 0.728012
#
# Coordination Sequence:
#
# PCOD8060438 Si02
#       7
#     4   4   4   4   4   4   4
#     4  11  22  36  56  78 101 132 173 213 252 307
#     4   9  15  22  34  55  84 119 159 197 241 293
#     4   9  16  26  39  57  88 125 161 199 243 295
#     4  11  24  39  55  77 104 134 169 212 262 309
#     4   8  15  25  38  57  84 120 160 199 240 290
#     4  11  20  30  48  72  99 128 164 210 256 298
#     4  10  19  32  49  70  96 129 169 208 250 303
#
# _framework density 17.857858
#
# number of rings (size 3 to 8) (size 9 to 14) (size 15 to 20)
#    0.000    2.143    1.429    4.286    0.000    7.429 
#    0.000    0.000    0.000    0.000    0.000    0.000 
#    0.000    1.143    0.000   12.000    0.000    9.286 
#
# Total GULP energy -347163.406683 kJ/mol
# GULP energy per Si atom -12398.693096 kJ/mol
# Density = 1.781721 g / cm^3
# Si number density = 17.857858 Si / 1000 Ang^3
#
#
#
# Elastic Constant Matrix: (Units=GPa)
#
#
# Indices 1 2 3 4 5 6 
#
# 1 150.5789 54.9626 23.7898 0.0000 -13.4617 0.0000
# 2 54.9626 101.3931 18.3108 0.0000 -5.7322 0.0000
# 3 23.7898 18.3108 30.8706 0.0000 -2.9663 0.0000
# 4 0.0000 0.0000 0.0000 10.9924 0.0000 1.3201
# 5 -13.4617 -5.7322 -2.9663 0.0000 12.1718 0.0000
# 6 0.0000 0.0000 0.0000 1.3201 0.0000 35.1256
#
#
#
# Elastic Compliance Matrix: (Units=1/GPa)
#
#
# Indices 1 2 3 4 5 6 
#
# 1 0.009408 -0.003914 -0.004204 0.000000 0.007537 0.000000
# 2 -0.003914 0.012839 -0.004540 0.000000 0.000611 0.000000
# 3 -0.004204 -0.004540 0.038577 0.000000 0.002614 0.000000
# 4 0.000000 0.000000 0.000000 0.091384 0.000000 -0.003434
# 5 0.007537 0.000611 0.002614 0.000000 0.091417 0.000000
# 6 0.000000 0.000000 0.000000 -0.003434 0.000000 0.028598
#
#
# Mechanical properties :
#
#
# Convention : Reuss Voigt Hill
#
# Bulk Modulus (GPa) = 28.16357 52.99653 40.58005
# Shear Modulus (GPa) = 16.16158 24.04327 20.10243
#
# Velocity S-wave (km/s) = 3.01161 3.67327 3.35877
# Velocity P-wave (km/s) = 5.28188 6.90882 6.14939
#
# Compressibility (1/GPa) = 0.03550687
#
# Stress axis : x y z
#
# Youngs Moduli (GPa) = 106.29481 77.88793 25.92220
#
# Poissons Ratio (x) = 0.30489 0.10897
# Poissons Ratio (y) = 0.41609 0.11769
# Poissons Ratio (z) = 0.44685 0.35362
#
# Static dielectric constant tensor:
#      x y z
#    x 3.761590 0.000000 -0.131240 
#    y 0.000000 3.482460 0.000000 
#    z -0.131240 0.000000 2.684660 
# 
# 
# High freq. dielectric constant tensor:
#      x y z
#    x 1.715520 0.000000 -0.005150 
#    y 0.000000 1.707570 0.000000 
#    z -0.005150 0.000000 1.604800 
# 
# From -- ./inp_files/79215.got.cif
#   From: 2010.06.25/outbox.cif.g09.slc.cpg/sg10_40_cif.got.tgz:79215.got - 2010.06.27 22:07:45.
