data_PCOD8060502
_publ_section_title
;
Structure prediction by ZEFSAII (Michael W. Deem and Ramdas Pophale) SiO2 
 PCOD8060502
Probable space group: P 2/M
;
_chemical_formula_sum "Si O2"
_cell_formula_units_Z 30
_cell_length_a 34.147214
_cell_length_b 8.173305
_cell_length_c 5.181301
_cell_angle_alpha 90.000000
_cell_angle_beta 67.288297
_cell_angle_gamma 90.000000
_cell_volume 1333.948285
_symmetry_space_group_name_H-M "P 2/M"
_symmetry_group_IT_number 10
_symmetry_cell_setting 'monoclinic'
loop_
_space_group_symop_operation_xyz
x,y,z
-x,y,-z
-x,-y,-z
x,-y,z
loop_
_atom_site_type_symbol
_atom_site_label
_atom_site_fract_x
_atom_site_fract_y
_atom_site_fract_z
Si Si1 0.692802 0.804175 0.510619
Si Si2 0.049590 0.177903 0.823454
Si Si3 0.832416 0.312038 0.639377
Si Si4 0.114958 0.311089 0.010557
Si Si5 0.452086 0.195177 0.622060
Si Si6 0.261013 0.809973 0.107038
Si Si7 0.970875 0.500000 0.327352
Si Si8 0.403288 0.194974 0.246244
O O1 0.717497 0.731491 0.200552
O O2 0.644715 0.738432 0.631720
O O3 0.693759 0.000000 0.508873
O O4 0.717151 0.730983 0.696914
O O5 0.073129 0.208718 0.037012
O O6 0.058720 0.334343 0.606825
O O7 0.063800 0.000000 0.673312
O O8 0.000000 0.172040 0.000000
O O9 0.822629 0.500000 0.728554
O O10 0.851854 0.288446 0.307870
O O11 0.864168 0.241685 0.779782
O O12 0.789172 0.213211 0.763942
O O13 0.100941 0.500000 0.080179
O O14 0.500000 0.263356 0.500000
O O15 0.427617 0.262851 0.434492
O O16 0.452508 0.000000 0.620938
O O17 0.427667 0.262822 0.934211
O O18 0.271431 0.000000 0.080588
O O19 0.000000 0.500000 0.500000
O O20 0.000000 0.500000 0.000000
O O21 0.403176 0.000000 0.246557
#
# Coordination Sequence:
#
# PCOD8060502 Si02
#       8
#     4   4   4   4   4   4   2   4
#     4   9  17  28  44  66  91 123 163 211 261 311
#     4  10  22  41  65  94 124 158 200 242 288 342
#     4  10  22  38  58  81 109 142 179 218 267 329
#     4  10  21  39  59  82 111 146 182 222 270 324
#     4   9  15  21  30  46  72 111 159 206 247 294
#     4  10  19  32  50  72  98 127 166 211 257 310
#     4  10  22  40  62  86 120 158 192 238 288 334
#     4   9  15  23  34  50  76 110 154 204 250 298
#
# _framework density 22.489628
#
# number of rings (size 3 to 8) (size 9 to 14) (size 15 to 20)
#    0.000    2.400    0.667    2.000    0.000    8.267 
#    0.000    2.667    0.000    0.000    0.000    0.000 
#    0.000    0.000    0.000    0.000    0.000   46.667 
#
# Total GULP energy -371942.934129 kJ/mol
# GULP energy per Si atom -12398.097804 kJ/mol
# Density = 2.243844 g / cm^3
# Si number density = 22.489628 Si / 1000 Ang^3
#
#
#
# Elastic Constant Matrix: (Units=GPa)
#
#
# Indices 1 2 3 4 5 6 
#
# 1 174.7968 14.8118 42.4512 0.0000 16.2765 0.0000
# 2 14.8118 71.5383 4.6965 0.0000 10.3694 0.0000
# 3 42.4512 4.6965 83.8256 0.0000 22.2401 0.0000
# 4 0.0000 0.0000 0.0000 -65.8210 0.0000 162.5205
# 5 16.2765 10.3694 22.2401 0.0000 47.1604 0.0000
# 6 0.0000 0.0000 0.0000 162.5205 0.0000 -340.9840
#
#
#
# Elastic Compliance Matrix: (Units=1/GPa)
#
#
# Indices 1 2 3 4 5 6 
#
# 1 0.006630 -0.001084 -0.003147 0.000000 -0.000566 0.000000
# 2 -0.001084 0.014616 0.000553 0.000000 -0.003100 0.000000
# 3 -0.003147 0.000553 0.015129 0.000000 -0.006170 0.000000
# 4 0.000000 0.000000 0.000000 0.085912 0.000000 0.040947
# 5 -0.000566 -0.003100 -0.006170 0.000000 0.024991 0.000000
# 6 0.000000 0.000000 0.000000 0.040947 0.000000 0.016584
#
#
# Mechanical properties :
#
#
# Convention : Reuss Voigt Hill
#
# Bulk Modulus (GPa) = 34.46034 50.45328 42.45681
# Shear Modulus (GPa) = 27.64112 -54.04884 -13.20386
#
# Velocity S-wave (km/s) = 3.50960 -4.90764 -2.42566
# Velocity P-wave (km/s) = 5.63729 3.10331 3.32780
#
# Compressibility (1/GPa) = 0.02901887
#
# Stress axis : x y z
#
# Youngs Moduli (GPa) = 150.83755 68.41786 66.09787
#
# Poissons Ratio (x) = 0.07417 0.20798
# Poissons Ratio (y) = 0.16352 -0.03653
# Poissons Ratio (z) = 0.47462 -0.03781
#
# Static dielectric constant tensor:
#      x y z
#    x 4.201120 0.000000 0.201160 
#    y 0.000000 4.357570 0.000000 
#    z 0.201160 0.000000 4.448410 
# 
# 
# High freq. dielectric constant tensor:
#      x y z
#    x 1.901690 0.000000 0.004710 
#    y 0.000000 1.833140 0.000000 
#    z 0.004710 0.000000 1.893630 
# 
# From -- ./inp_files/13622.got.cif
#   From: 2010.06.25/outbox.cif.g09.slc.cpg/sg10_7_cif.got.tgz:13622.got - 2010.06.27 22:07:45.
