data_PCOD8060101
_publ_section_title
;
Structure prediction by ZEFSAII (Michael W. Deem and Ramdas Pophale) SiO2 
 PCOD8060101
Probable space group: P 2/M
;
_chemical_formula_sum "Si O2"
_cell_formula_units_Z 24
_cell_length_a 14.361588
_cell_length_b 12.503422
_cell_length_c 13.780322
_cell_angle_alpha 90.000000
_cell_angle_beta 30.095148
_cell_angle_gamma 90.000000
_cell_volume 1240.816338
_symmetry_space_group_name_H-M "P 2/M"
_symmetry_group_IT_number 10
_symmetry_cell_setting 'monoclinic'
loop_
_space_group_symop_operation_xyz
x,y,z
-x,y,-z
-x,-y,-z
x,-y,z
loop_
_atom_site_type_symbol
_atom_site_label
_atom_site_fract_x
_atom_site_fract_y
_atom_site_fract_z
Si Si1 0.099798 0.618392 0.077700
Si Si2 0.459090 0.374992 0.648027
Si Si3 0.213718 0.726624 0.540839
Si Si4 0.318061 0.380102 0.267253
Si Si5 0.716598 0.306715 0.903153
Si Si6 0.983305 0.123381 0.630681
O O1 0.019831 0.500000 0.128940
O O2 0.215867 0.617043 0.072004
O O3 0.927110 0.699798 0.243608
O O4 0.241909 0.651253 0.863380
O O5 0.500000 0.351443 0.500000
O O6 0.502493 0.500000 0.635614
O O7 0.579044 0.290887 0.604505
O O8 0.182755 0.642175 0.480138
O O9 0.164942 0.839391 0.531292
O O10 0.395134 0.500000 0.201830
O O11 0.213059 0.359648 0.260941
O O12 0.493763 0.298928 0.111759
O O13 0.805818 0.188505 0.830923
O O14 0.000000 0.142553 0.500000
O O15 0.950016 0.000000 0.683883
#
# Coordination Sequence:
#
# PCOD8060101 Si02
#       6
#     4   4   4   4   4   4
#     4  10  19  31  51  79 114 149 183 222 270 336
#     4  10  21  37  56  81 116 152 187 230 279 338
#     4  11  21  35  56  81 112 151 190 226 281 332
#     4  11  19  30  50  79 119 152 180 220 269 341
#     4  10  19  31  49  77 109 151 186 222 273 327
#     4  10  21  39  55  75 111 151 194 241 280 323
#
# _framework density 19.342105
#
# number of rings (size 3 to 8) (size 9 to 14) (size 15 to 20)
#    0.000    1.667    3.333    3.500    0.000    0.667 
#    0.000    7.500    0.000    0.500    0.000    4.667 
#    0.000    0.000    0.000    0.000    0.000    0.000 
#
# Total GULP energy -297352.900822 kJ/mol
# GULP energy per Si atom -12389.704201 kJ/mol
# Density = 1.929808 g / cm^3
# Si number density = 19.342105 Si / 1000 Ang^3
#
#
#
# Elastic Constant Matrix: (Units=GPa)
#
#
# Indices 1 2 3 4 5 6 
#
# 1 37.0731 14.4679 1.6767 0.0000 15.4759 0.0000
# 2 14.4679 101.2693 26.7327 0.0000 -0.6580 0.0000
# 3 1.6767 26.7327 79.5801 0.0000 19.6832 0.0000
# 4 0.0000 0.0000 0.0000 21.8768 0.0000 -3.9169
# 5 15.4759 -0.6580 19.6832 0.0000 29.5337 0.0000
# 6 0.0000 0.0000 0.0000 -3.9169 0.0000 17.3905
#
#
#
# Elastic Compliance Matrix: (Units=1/GPa)
#
#
# Indices 1 2 3 4 5 6 
#
# 1 0.041480 -0.008441 0.008842 0.000000 -0.027816 0.000000
# 2 -0.008441 0.012811 -0.006334 0.000000 0.008930 0.000000
# 3 0.008842 -0.006334 0.018785 0.000000 -0.017294 0.000000
# 4 0.000000 0.000000 0.000000 0.047631 0.000000 0.010728
# 5 -0.027816 0.008930 -0.017294 0.000000 0.060160 0.000000
# 6 0.000000 0.000000 0.000000 0.010728 0.000000 0.059919
#
#
# Mechanical properties :
#
#
# Convention : Reuss Voigt Hill
#
# Bulk Modulus (GPa) = 16.33763 33.74190 25.03976
# Shear Modulus (GPa) = 18.31129 25.42988 21.87058
#
# Velocity S-wave (km/s) = 3.08020 3.62987 3.36627
# Velocity P-wave (km/s) = 4.59512 5.92036 5.29933
#
# Compressibility (1/GPa) = 0.06120840
#
# Stress axis : x y z
#
# Youngs Moduli (GPa) = 24.10817 78.05992 53.23422
#
# Poissons Ratio (x) = 0.65888 -0.47067
# Poissons Ratio (y) = 0.20349 0.33720
# Poissons Ratio (z) = -0.21315 0.49445
#
# Static dielectric constant tensor:
#      x y z
#    x 3.478700 0.000000 0.140990 
#    y 0.000000 3.157790 0.000000 
#    z 0.140990 0.000000 3.678230 
# 
# 
# High freq. dielectric constant tensor:
#      x y z
#    x 1.744300 0.000000 0.007750 
#    y 0.000000 1.697620 0.000000 
#    z 0.007750 0.000000 1.764490 
# 
# From -- ./inp_files/67248.got.cif
#   From: 2010.06.25/outbox.cif.g09.slc.cpg/sg10_34_cif.got.tgz:67248.got - 2010.06.27 22:07:45.
