data_PCOD8060466
_publ_section_title
;
Structure prediction by ZEFSAII (Michael W. Deem and Ramdas Pophale) SiO2 
 PCOD8060466
Probable space group: P 2/M
;
_chemical_formula_sum "Si O2"
_cell_formula_units_Z 32
_cell_length_a 12.867931
_cell_length_b 8.676869
_cell_length_c 26.409958
_cell_angle_alpha 90.000000
_cell_angle_beta 145.665065
_cell_angle_gamma 90.000000
_cell_volume 1663.188230
_symmetry_space_group_name_H-M "P 2/M"
_symmetry_group_IT_number 10
_symmetry_cell_setting 'monoclinic'
loop_
_space_group_symop_operation_xyz
x,y,z
-x,y,-z
-x,-y,-z
x,-y,z
loop_
_atom_site_type_symbol
_atom_site_label
_atom_site_fract_x
_atom_site_fract_y
_atom_site_fract_z
Si Si1 0.833782 0.182309 0.397177
Si Si2 0.795291 0.817434 0.921286
Si Si3 0.547173 0.180929 0.913618
Si Si4 0.032449 0.824003 0.746881
Si Si5 0.564521 0.182713 0.734428
Si Si6 0.858713 0.178258 0.775576
Si Si7 0.775782 0.680259 0.088660
Si Si8 0.814315 0.320534 0.280175
O O1 0.645733 0.242389 0.348185
O O2 0.863049 0.264224 0.355509
O O3 0.000000 0.232890 0.500000
O O4 0.829974 0.000000 0.386317
O O5 0.705248 0.768666 0.937789
O O6 0.672818 0.749201 0.826208
O O7 0.801845 0.000000 0.918151
O O8 0.000000 0.746983 0.000000
O O9 0.355004 0.227873 0.811687
O O10 0.547491 0.000000 0.924014
O O11 0.593963 0.268672 0.984817
O O12 0.212252 0.768796 0.852197
O O13 0.015036 0.720418 0.689096
O O14 0.852119 0.804223 0.711108
O O15 0.060671 0.000000 0.741842
O O16 0.670076 0.238559 0.725650
O O17 0.559797 0.000000 0.734282
O O18 0.037078 0.273654 0.867362
O O19 0.893010 0.000000 0.804471
O O20 0.767287 0.500000 0.095857
O O21 0.771949 0.500000 0.263888
#
# Coordination Sequence:
#
# PCOD8060466 Si02
#       8
#     4   4   4   4   4   4   4   4
#     4  10  21  39  64  90 114 145 187 234 283 339
#     4   9  16  25  47  78 107 142 184 230 274 320
#     4  11  20  33  52  75 109 151 197 236 275 329
#     4   9  19  36  57  80 106 146 196 236 275 331
#     4   9  15  30  55  84 112 142 187 236 279 327
#     4   8  16  31  54  79 107 146 189 227 269 325
#     4  10  19  32  49  77 114 149 187 231 282 330
#     4  12  24  38  57  81 113 148 184 232 291 342
#
# _framework density 19.240155000000001
#
# number of rings (size 3 to 8) (size 9 to 14) (size 15 to 20)
#    0.750    1.500    1.250    3.375    0.000    2.750 
#    0.000    3.125    0.000    2.250    0.000    5.250 
#    0.000    0.000    0.000    0.000    0.000    0.000 
#
# Total GULP energy -396526.491428 kJ/mol
# GULP energy per Si atom -12391.452857 kJ/mol
# Density = 1.919636 g / cm^3
# Si number density = 19.240155 Si / 1000 Ang^3
#
#
#
# Elastic Constant Matrix: (Units=GPa)
#
#
# Indices 1 2 3 4 5 6 
#
# 1 57.3844 14.5603 41.6190 0.0000 -14.6320 0.0000
# 2 14.5603 55.8366 14.1220 0.0000 -8.8589 0.0000
# 3 41.6190 14.1220 85.4126 0.0000 -1.0820 0.0000
# 4 0.0000 0.0000 0.0000 15.6871 0.0000 -5.0871
# 5 -14.6320 -8.8589 -1.0820 0.0000 27.5705 0.0000
# 6 0.0000 0.0000 0.0000 -5.0871 0.0000 11.5158
#
#
#
# Elastic Compliance Matrix: (Units=1/GPa)
#
#
# Indices 1 2 3 4 5 6 
#
# 1 0.033694 -0.002148 -0.015853 0.000000 0.016569 0.000000
# 2 -0.002148 0.019835 -0.002168 0.000000 0.005148 0.000000
# 3 -0.015853 -0.002168 0.019685 0.000000 -0.008337 0.000000
# 4 0.000000 0.000000 0.000000 0.074405 0.000000 0.032868
# 5 0.016569 0.005148 -0.008337 0.000000 0.046391 0.000000
# 6 0.000000 0.000000 0.000000 0.032868 0.000000 0.101357
#
#
# Mechanical properties :
#
#
# Convention : Reuss Voigt Hill
#
# Bulk Modulus (GPa) = 30.41660 37.69290 34.05475
# Shear Modulus (GPa) = 14.42325 19.51018 16.96671
#
# Velocity S-wave (km/s) = 2.74093 3.18785 2.97280
# Velocity P-wave (km/s) = 5.08529 5.76048 5.43338
#
# Compressibility (1/GPa) = 0.03287678
#
# Stress axis : x y z
#
# Youngs Moduli (GPa) = 29.67903 50.41715 50.79926
#
# Poissons Ratio (x) = 0.10829 0.80532
# Poissons Ratio (y) = 0.06375 0.11011
# Poissons Ratio (z) = 0.47050 0.10928
#
# Static dielectric constant tensor:
#      x y z
#    x 3.965050 0.000000 -0.057150 
#    y 0.000000 3.154200 0.000000 
#    z -0.057150 0.000000 3.228920 
# 
# 
# High freq. dielectric constant tensor:
#      x y z
#    x 1.766020 0.000000 -0.012980 
#    y 0.000000 1.719870 0.000000 
#    z -0.012980 0.000000 1.706080 
# 
# From -- ./inp_files/89628.got.cif
#   From: 2010.06.25/outbox.cif.g09.slc.cpg/sg10_45_cif.got.tgz:89628.got - 2010.06.27 22:07:45.
