data_PCOD8060614
_publ_section_title
;
Structure prediction by ZEFSAII (Michael W. Deem and Ramdas Pophale) SiO2 
 PCOD8060614
Probable space group: P 2/M
;
_chemical_formula_sum "Si O2"
_cell_formula_units_Z 28
_cell_length_a 14.853351
_cell_length_b 13.634097
_cell_length_c 9.150743
_cell_angle_alpha 90.000000
_cell_angle_beta 51.859875
_cell_angle_gamma 90.000000
_cell_volume 1457.496114
_symmetry_space_group_name_H-M "P 2/M"
_symmetry_group_IT_number 10
_symmetry_cell_setting 'monoclinic'
loop_
_space_group_symop_operation_xyz
x,y,z
-x,y,-z
-x,-y,-z
x,-y,z
loop_
_atom_site_type_symbol
_atom_site_label
_atom_site_fract_x
_atom_site_fract_y
_atom_site_fract_z
Si Si1 0.561200 0.390033 0.180623
Si Si2 0.245383 0.345166 0.232809
Si Si3 0.276836 0.296751 0.751823
Si Si4 0.620730 0.109618 0.457813
Si Si5 0.829777 0.394239 0.390084
Si Si6 0.413120 0.782850 0.209898
Si Si7 0.912568 0.381431 0.859270
O O1 0.513778 0.500000 0.257865
O O2 0.615882 0.346459 0.274578
O O3 0.460084 0.319940 0.228675
O O4 0.657395 0.398583 0.959518
O O5 0.207150 0.410972 0.406437
O O6 0.293509 0.241011 0.246192
O O7 0.134106 0.332524 0.242876
O O8 0.295152 0.179711 0.720927
O O9 0.267832 0.330683 0.592226
O O10 0.156729 0.329784 0.940806
O O11 0.500000 0.113579 0.500000
O O12 0.606193 0.139557 0.642165
O O13 0.672149 0.000000 0.402053
O O14 0.835218 0.500000 0.306912
O O15 0.956647 0.347770 0.254448
O O16 0.500000 0.826050 0.000000
O O17 0.897222 0.500000 0.873973
#
# Coordination Sequence:
#
# PCOD8060614 Si02
#       7
#     4   4   4   4   4   4   4
#     4  10  20  33  50  78 122 154 177 213 260 328
#     4  10  19  32  51  76 113 152 186 217 255 310
#     4  11  20  36  55  78 109 147 182 222 280 323
#     4  11  23  42  62  82 106 135 181 240 288 330
#     4  11  20  31  53  83 114 151 193 225 258 312
#     4  10  21  37  56  83 111 143 182 220 274 336
#     4  10  21  35  52  80 120 155 186 222 259 313
#
# _framework density 19.211030000000001
#
# number of rings (size 3 to 8) (size 9 to 14) (size 15 to 20)
#    0.000    1.571    2.857    4.286    0.000    6.286 
#    0.000    0.714    0.000    1.714    0.000    1.000 
#    0.000    0.000    0.000    0.000    0.000    0.000 
#
# Total GULP energy -347040.471482 kJ/mol
# GULP energy per Si atom -12394.302553 kJ/mol
# Density = 1.916730 g / cm^3
# Si number density = 19.211030 Si / 1000 Ang^3
#
#
#
# Elastic Constant Matrix: (Units=GPa)
#
#
# Indices 1 2 3 4 5 6 
#
# 1 85.1231 37.5607 28.3233 0.0000 16.7830 0.0000
# 2 37.5607 107.3948 38.0675 0.0000 5.3540 0.0000
# 3 28.3233 38.0675 75.4029 0.0000 10.8833 0.0000
# 4 0.0000 0.0000 0.0000 19.3483 0.0000 0.0125
# 5 16.7830 5.3540 10.8833 0.0000 29.2518 0.0000
# 6 0.0000 0.0000 0.0000 0.0125 0.0000 17.7168
#
#
#
# Elastic Compliance Matrix: (Units=1/GPa)
#
#
# Indices 1 2 3 4 5 6 
#
# 1 0.016002 -0.004233 -0.002811 0.000000 -0.007360 0.000000
# 2 -0.004233 0.012461 -0.004990 0.000000 0.002005 0.000000
# 3 -0.002811 -0.004990 0.017408 0.000000 -0.003950 0.000000
# 4 0.000000 0.000000 0.000000 0.051684 0.000000 -0.000036
# 5 -0.007360 0.002005 -0.003950 0.000000 0.039512 0.000000
# 6 0.000000 0.000000 0.000000 -0.000036 0.000000 0.056444
#
#
# Mechanical properties :
#
#
# Convention : Reuss Voigt Hill
#
# Bulk Modulus (GPa) = 45.86900 52.86933 49.36916
# Shear Modulus (GPa) = 22.23740 24.19468 23.21604
#
# Velocity S-wave (km/s) = 3.40594 3.55268 3.48008
# Velocity P-wave (km/s) = 6.27658 6.66399 6.47318
#
# Compressibility (1/GPa) = 0.02180122
#
# Stress axis : x y z
#
# Youngs Moduli (GPa) = 62.49136 80.25116 57.44626
#
# Poissons Ratio (x) = 0.33972 0.16150
# Poissons Ratio (y) = 0.26454 0.28667
# Poissons Ratio (z) = 0.17568 0.40047
#
# Static dielectric constant tensor:
#      x y z
#    x 3.691960 0.000000 0.206200 
#    y 0.000000 3.246580 0.000000 
#    z 0.206200 0.000000 3.597260 
# 
# 
# High freq. dielectric constant tensor:
#      x y z
#    x 1.757310 0.000000 0.017340 
#    y 0.000000 1.696180 0.000000 
#    z 0.017340 0.000000 1.758330 
# 
# From -- ./inp_files/28466.got.cif
#   From: 2010.06.25/outbox.cif.g09.slc.cpg/sg10_15_cif.got.tgz:28466.got - 2010.06.27 22:07:45.
