data_PCOD8060809
_publ_section_title
;
Structure prediction by ZEFSAII (Michael W. Deem and Ramdas Pophale) SiO2 
 PCOD8060809
Probable space group: P 2/M
;
_chemical_formula_sum "Si O2"
_cell_formula_units_Z 32
_cell_length_a 24.415438
_cell_length_b 9.251598
_cell_length_c 19.734344
_cell_angle_alpha 90.000000
_cell_angle_beta 23.647346
_cell_angle_gamma 90.000000
_cell_volume 1787.982496
_symmetry_space_group_name_H-M "P 2/M"
_symmetry_group_IT_number 10
_symmetry_cell_setting 'monoclinic'
loop_
_space_group_symop_operation_xyz
x,y,z
-x,y,-z
-x,-y,-z
x,-y,z
loop_
_atom_site_type_symbol
_atom_site_label
_atom_site_fract_x
_atom_site_fract_y
_atom_site_fract_z
Si Si1 0.987444 0.833200 0.302939
Si Si2 0.527302 0.671196 0.392641
Si Si3 0.704751 0.334284 0.446343
Si Si4 0.028826 0.831448 0.892688
Si Si5 0.203852 0.166396 0.949105
Si Si6 0.715955 0.333158 0.585139
Si Si7 0.079142 0.832600 0.473350
Si Si8 0.629617 0.171368 0.809088
O O1 0.867675 0.732716 0.410702
O O2 0.008878 0.806868 0.358821
O O3 0.945520 0.000000 0.336176
O O4 0.128496 0.796254 0.105286
O O5 0.500000 0.727273 0.500000
O O6 0.541233 0.500000 0.375420
O O7 0.405671 0.725695 0.481910
O O8 0.665003 0.734833 0.206246
O O9 0.738514 0.500000 0.391420
O O10 0.842417 0.245659 0.285043
O O11 0.649097 0.317802 0.586309
O O12 0.062604 0.000000 0.855675
O O13 0.000000 0.770545 0.000000
O O14 0.896685 0.796273 0.998284
O O15 0.249632 0.000000 0.895054
O O16 0.726337 0.500000 0.595351
O O17 0.620080 0.247896 0.746765
O O18 0.232869 0.771807 0.309257
O O19 0.000000 0.756437 0.500000
O O20 0.095236 0.000000 0.437919
O O21 0.634435 0.000000 0.791457
O O22 0.500000 0.218589 0.000000
#
# Coordination Sequence:
#
# PCOD8060809 Si02
#       8
#     4   4   4   4   4   4   4   4
#     4   9  17  32  53  76 104 134 168 210 255 302
#     4  10  22  39  55  72 101 141 179 216 261 313
#     4  10  21  36  53  76 104 137 179 216 254 312
#     4  10  20  33  53  80 105 130 166 215 264 309
#     4  10  20  34  52  78 106 132 170 215 261 313
#     4  10  19  32  53  78 104 136 173 211 256 304
#     4   8  14  27  49  73  98 128 161 200 243 289
#     4   9  18  33  52  76 103 133 170 210 252 301
#
# _framework density 17.897266999999999
#
# number of rings (size 3 to 8) (size 9 to 14) (size 15 to 20)
#    0.000    2.500    1.250    1.875    0.000    2.750 
#    2.250    0.000    0.000    6.000    0.000    0.000 
#    0.000    0.000    0.000    0.000    0.000    0.000 
#
# Total GULP energy -396763.314575 kJ/mol
# GULP energy per Si atom -12398.853580 kJ/mol
# Density = 1.785653 g / cm^3
# Si number density = 17.897267 Si / 1000 Ang^3
#
#
#
# Elastic Constant Matrix: (Units=GPa)
#
#
# Indices 1 2 3 4 5 6 
#
# 1 100.6347 22.5704 26.9659 0.0000 16.2199 0.0000
# 2 22.5704 41.9297 27.4665 0.0000 2.3215 0.0000
# 3 26.9659 27.4665 97.3833 0.0000 16.9997 0.0000
# 4 0.0000 0.0000 0.0000 37.6136 0.0000 2.0254
# 5 16.2199 2.3215 16.9997 0.0000 22.7380 0.0000
# 6 0.0000 0.0000 0.0000 2.0254 0.0000 18.9121
#
#
#
# Elastic Compliance Matrix: (Units=1/GPa)
#
#
# Indices 1 2 3 4 5 6 
#
# 1 0.012736 -0.006168 -0.000358 0.000000 -0.008188 0.000000
# 2 -0.006168 0.032509 -0.008798 0.000000 0.007658 0.000000
# 3 -0.000358 -0.008798 0.014546 0.000000 -0.009722 0.000000
# 4 0.000000 0.000000 0.000000 0.026740 0.000000 -0.002864
# 5 -0.008188 0.007658 -0.009722 0.000000 0.056306 0.000000
# 6 0.000000 0.000000 0.000000 -0.002864 0.000000 0.053183
#
#
# Mechanical properties :
#
#
# Convention : Reuss Voigt Hill
#
# Bulk Modulus (GPa) = 34.31263 43.77258 39.04260
# Shear Modulus (GPa) = 21.15225 26.71575 23.93400
#
# Velocity S-wave (km/s) = 3.44156 3.86778 3.66088
# Velocity P-wave (km/s) = 5.91659 6.66761 6.30330
#
# Compressibility (1/GPa) = 0.02914379
#
# Stress axis : x y z
#
# Youngs Moduli (GPa) = 78.51884 30.76103 68.74643
#
# Poissons Ratio (x) = 0.18973 0.02459
# Poissons Ratio (y) = 0.48430 0.60482
# Poissons Ratio (z) = 0.02808 0.27063
#
# Static dielectric constant tensor:
#      x y z
#    x 3.636570 0.000000 0.165380 
#    y 0.000000 3.128150 0.000000 
#    z 0.165380 0.000000 3.265440 
# 
# 
# High freq. dielectric constant tensor:
#      x y z
#    x 1.699070 0.000000 0.014290 
#    y 0.000000 1.673920 0.000000 
#    z 0.014290 0.000000 1.687230 
# 
# From -- ./inp_files/86858.got.cif
#   From: 2010.06.25/outbox.cif.g09.slc.cpg/sg10_44_cif.got.tgz:86858.got - 2010.06.27 22:07:45.
