data_PCOD8060574
_publ_section_title
;
Structure prediction by ZEFSAII (Michael W. Deem and Ramdas Pophale) SiO2 
 PCOD8060574
Probable space group: P 2/M
;
_chemical_formula_sum "Si O2"
_cell_formula_units_Z 32
_cell_length_a 21.857059
_cell_length_b 8.677361
_cell_length_c 28.759236
_cell_angle_alpha 90.000000
_cell_angle_beta 17.754117
_cell_angle_gamma 90.000000
_cell_volume 1663.262442
_symmetry_space_group_name_H-M "P 2/M"
_symmetry_group_IT_number 10
_symmetry_cell_setting 'monoclinic'
loop_
_space_group_symop_operation_xyz
x,y,z
-x,y,-z
-x,-y,-z
x,-y,z
loop_
_atom_site_type_symbol
_atom_site_label
_atom_site_fract_x
_atom_site_fract_y
_atom_site_fract_z
Si Si1 0.553722 0.818978 0.100437
Si Si2 0.074077 0.178890 0.108551
Si Si3 0.634533 0.182409 0.446367
Si Si4 0.925487 0.682202 0.391907
Si Si5 0.347629 0.179371 0.830994
Si Si6 0.677086 0.321765 0.655155
Si Si7 0.547831 0.682269 0.606174
Si Si8 0.633770 0.682924 0.945614
O O1 0.355755 0.776814 0.274134
O O2 0.563533 0.000000 0.086640
O O3 0.752126 0.753814 0.983402
O O4 0.533268 0.739115 0.065710
O O5 0.857712 0.252310 0.276058
O O6 0.058120 0.000000 0.130854
O O7 0.131527 0.205045 0.012366
O O8 0.500000 0.227621 0.500000
O O9 0.538532 0.265569 0.559932
O O10 0.636888 0.000000 0.452850
O O11 0.930763 0.500000 0.383246
O O12 0.876750 0.725363 0.481316
O O13 0.755580 0.743968 0.479199
O O14 0.141375 0.752715 0.222122
O O15 0.498484 0.290676 0.748714
O O16 0.358580 0.235810 0.769564
O O17 0.410446 0.000000 0.790339
O O18 0.681232 0.500000 0.666428
O O19 0.524689 0.500000 0.626709
O O20 0.640152 0.500000 0.940645
O O21 0.500000 0.745564 0.000000
#
# Coordination Sequence:
#
# PCOD8060574 Si02
#       8
#     4   4   4   4   4   4   4   4
#     4  10  19  32  51  74 100 128 161 200 240 287
#     4   8  16  31  51  75  98 123 159 200 241 285
#     4  10  20  34  51  71  97 129 164 201 242 288
#     4   8  16  31  51  75  98 123 159 200 241 285
#     4   9  16  29  50  75 101 125 156 200 244 286
#     4   9  16  29  50  75 101 125 156 200 244 286
#     4  10  19  32  51  74 100 128 161 200 240 287
#     4  10  20  34  51  71  97 129 164 201 242 288
#
# _framework density 19.239294999999998
#
# number of rings (size 3 to 8) (size 9 to 14) (size 15 to 20)
#    0.000    2.750    0.000    3.750    0.000    0.500 
#    0.000    7.500    0.000    7.500    0.000    0.000 
#    0.000    0.000    0.000    0.000    0.000    0.000 
#
# Total GULP energy -396568.115757 kJ/mol
# GULP energy per Si atom -12392.753617 kJ/mol
# Density = 1.919551 g / cm^3
# Si number density = 19.239295 Si / 1000 Ang^3
#
#
#
# Elastic Constant Matrix: (Units=GPa)
#
#
# Indices 1 2 3 4 5 6 
#
# 1 113.1518 22.4885 49.0372 0.0000 27.6277 0.0000
# 2 22.4885 26.7548 15.1894 0.0000 2.7887 0.0000
# 3 49.0372 15.1894 58.8656 0.0000 31.8629 0.0000
# 4 0.0000 0.0000 0.0000 20.2427 0.0000 9.1097
# 5 27.6277 2.7887 31.8629 0.0000 31.7553 0.0000
# 6 0.0000 0.0000 0.0000 9.1097 0.0000 24.6494
#
#
#
# Elastic Compliance Matrix: (Units=1/GPa)
#
#
# Indices 1 2 3 4 5 6 
#
# 1 0.014886 -0.007329 -0.008421 0.000000 -0.003857 0.000000
# 2 -0.007329 0.051683 -0.018003 0.000000 0.019902 0.000000
# 3 -0.008421 -0.018003 0.052151 0.000000 -0.043420 0.000000
# 4 0.000000 0.000000 0.000000 0.059256 0.000000 -0.021899
# 5 -0.003857 0.019902 -0.043420 0.000000 0.076666 0.000000
# 6 0.000000 0.000000 0.000000 -0.021899 0.000000 0.048662
#
#
# Mechanical properties :
#
#
# Convention : Reuss Voigt Hill
#
# Bulk Modulus (GPa) = 19.52626 41.35580 30.44103
# Shear Modulus (GPa) = 12.89050 22.79996 17.84523
#
# Velocity S-wave (km/s) = 2.59126 3.44622 3.04886
# Velocity P-wave (km/s) = 4.37310 6.11371 5.31514
#
# Compressibility (1/GPa) = 0.05121308
#
# Stress axis : x y z
#
# Youngs Moduli (GPa) = 67.17858 19.34860 19.17504
#
# Poissons Ratio (x) = 0.14181 0.16148
# Poissons Ratio (y) = 0.49235 0.34521
# Poissons Ratio (z) = 0.56573 0.34834
#
# Static dielectric constant tensor:
#      x y z
#    x 3.416500 0.000000 0.269970 
#    y 0.000000 3.224860 0.000000 
#    z 0.269970 0.000000 3.935330 
# 
# 
# High freq. dielectric constant tensor:
#      x y z
#    x 1.726850 0.000000 0.034740 
#    y 0.000000 1.726200 0.000000 
#    z 0.034740 0.000000 1.749460 
# 
# From -- ./inp_files/93618.got.cif
#   From: 2010.06.25/outbox.cif.g09.slc.cpg/sg10_47_cif.got.tgz:93618.got - 2010.06.27 22:07:45.
