data_PCOD8060405
_publ_section_title
;
Structure prediction by ZEFSAII (Michael W. Deem and Ramdas Pophale) SiO2 
 PCOD8060405
Probable space group: P 2/M
;
_chemical_formula_sum "Si O2"
_cell_formula_units_Z 28
_cell_length_a 25.352017
_cell_length_b 8.796064
_cell_length_c 19.801800
_cell_angle_alpha 90.000000
_cell_angle_beta 20.398227
_cell_angle_gamma 90.000000
_cell_volume 1539.082807
_symmetry_space_group_name_H-M "P 2/M"
_symmetry_group_IT_number 10
_symmetry_cell_setting 'monoclinic'
loop_
_space_group_symop_operation_xyz
x,y,z
-x,y,-z
-x,-y,-z
x,-y,z
loop_
_atom_site_type_symbol
_atom_site_label
_atom_site_fract_x
_atom_site_fract_y
_atom_site_fract_z
Si Si1 0.361646 0.318818 0.624644
Si Si2 0.168665 0.330078 0.971283
Si Si3 0.699004 0.818261 0.712450
Si Si4 0.703761 0.821719 0.979793
Si Si5 0.467278 0.329076 0.703729
Si Si6 0.392433 0.680507 0.040243
Si Si7 0.988458 0.178336 0.725221
O O1 0.500000 0.244688 0.500000
O O2 0.370434 0.500000 0.619668
O O3 0.205564 0.267749 0.850331
O O4 0.384144 0.274082 0.518238
O O5 0.103562 0.500000 0.045660
O O6 0.325357 0.326242 0.823888
O O7 0.041754 0.232151 0.161833
O O8 0.699869 0.748517 0.786175
O O9 0.850705 0.760657 0.493561
O O10 0.688115 0.000000 0.730060
O O11 0.559174 0.753610 0.837429
O O12 0.696731 0.726583 0.919758
O O13 0.856964 0.765112 0.832462
O O14 0.703461 0.000000 0.964019
O O15 0.560309 0.782439 0.199949
O O16 0.491924 0.500000 0.702099
O O17 0.404431 0.500000 0.032952
O O18 0.988582 0.000000 0.725958
#
# Coordination Sequence:
#
# PCOD8060405 Si02
#       7
#     4   4   4   4   4   4   4
#     4   7  10  18  34  57  86 121 157 190 227 270
#     4   8  13  22  39  62  90 124 158 192 231 272
#     4  10  20  37  56  72  93 124 157 191 235 283
#     4  10  19  32  48  70 100 130 158 191 234 281
#     4   8  13  23  39  61  90 123 159 196 230 268
#     4  11  22  36  53  74  95 119 156 198 236 278
#     4   9  19  32  48  71  99 128 158 192 232 280
#
# _framework density 18.192651999999999
#
# number of rings (size 3 to 8) (size 9 to 14) (size 15 to 20)
#    0.000    3.000    0.000    4.714    0.000    2.286 
#    0.000    3.571    0.000    4.286    0.000    1.000 
#    0.000    8.000    0.000    0.000    0.000    0.000 
#
# Total GULP energy -346886.618177 kJ/mol
# GULP energy per Si atom -12388.807792 kJ/mol
# Density = 1.815125 g / cm^3
# Si number density = 18.192652 Si / 1000 Ang^3
#
#
#
# Elastic Constant Matrix: (Units=GPa)
#
#
# Indices 1 2 3 4 5 6 
#
# 1 12.8495 11.0916 31.4971 0.0000 0.9731 0.0000
# 2 11.0916 55.7919 30.6615 0.0000 1.7410 0.0000
# 3 31.4971 30.6615 155.1837 0.0000 17.6312 0.0000
# 4 0.0000 0.0000 0.0000 25.7964 0.0000 5.3751
# 5 0.9731 1.7410 17.6312 0.0000 11.9693 0.0000
# 6 0.0000 0.0000 0.0000 5.3751 0.0000 14.5922
#
#
#
# Elastic Compliance Matrix: (Units=1/GPa)
#
#
# Indices 1 2 3 4 5 6 
#
# 1 0.185822 -0.016589 -0.039628 0.000000 0.045680 0.000000
# 2 -0.016589 0.021712 -0.000861 0.000000 -0.000541 0.000000
# 3 -0.039628 -0.000861 0.017147 0.000000 -0.021911 0.000000
# 4 0.000000 0.000000 0.000000 0.041988 0.000000 -0.015467
# 5 0.045680 -0.000541 -0.021911 0.000000 0.112188 0.000000
# 6 0.000000 0.000000 0.000000 -0.015467 0.000000 0.074227
#
#
# Mechanical properties :
#
#
# Convention : Reuss Voigt Hill
#
# Bulk Modulus (GPa) = 9.04784 41.14726 25.09755
# Shear Modulus (GPa) = 8.27703 20.50989 14.39346
#
# Velocity S-wave (km/s) = 2.13531 3.36128 2.81582
# Velocity P-wave (km/s) = 3.32619 6.14255 4.93935
#
# Compressibility (1/GPa) = 0.11052361
#
# Stress axis : x y z
#
# Youngs Moduli (GPa) = 5.38151 46.05746 58.32032
#
# Poissons Ratio (x) = 0.76406 2.31110
# Poissons Ratio (y) = 0.08927 0.05024
# Poissons Ratio (z) = 0.21326 0.03968
#
# Static dielectric constant tensor:
#      x y z
#    x 3.086130 0.000000 0.365910 
#    y 0.000000 3.198360 0.000000 
#    z 0.365910 0.000000 3.805630 
# 
# 
# High freq. dielectric constant tensor:
#      x y z
#    x 1.661970 0.000000 0.036490 
#    y 0.000000 1.689210 0.000000 
#    z 0.036490 0.000000 1.711300 
# 
# From -- ./inp_files/87139.got.cif
#   From: 2010.06.25/outbox.cif.g09.slc.cpg/sg10_44_cif.got.tgz:87139.got - 2010.06.27 22:07:45.
