data_PCOD8060702
_publ_section_title
;
Structure prediction by ZEFSAII (Michael W. Deem and Ramdas Pophale) SiO2 
 PCOD8060702
Probable space group: P 2/M
;
_chemical_formula_sum "Si O2"
_cell_formula_units_Z 32
_cell_length_a 19.901686
_cell_length_b 9.325900
_cell_length_c 12.009612
_cell_angle_alpha 90.000000
_cell_angle_beta 125.238419
_cell_angle_gamma 90.000000
_cell_volume 1820.552056
_symmetry_space_group_name_H-M "P 2/M"
_symmetry_group_IT_number 10
_symmetry_cell_setting 'monoclinic'
loop_
_space_group_symop_operation_xyz
x,y,z
-x,y,-z
-x,-y,-z
x,-y,z
loop_
_atom_site_type_symbol
_atom_site_label
_atom_site_fract_x
_atom_site_fract_y
_atom_site_fract_z
Si Si1 0.870733 0.335843 0.603051
Si Si2 0.297701 0.830711 0.156703
Si Si3 0.239069 0.336396 0.303850
Si Si4 0.371627 0.336425 0.617059
Si Si5 0.258787 0.166769 0.659033
Si Si6 0.799148 0.165193 0.155484
Si Si7 0.963781 0.334385 0.348527
Si Si8 0.464785 0.333471 0.347464
O O1 0.847417 0.500000 0.550473
O O2 0.843636 0.303884 0.704221
O O3 0.822330 0.235236 0.471863
O O4 0.967911 0.309896 0.682336
O O5 0.240962 0.769267 0.201184
O O6 0.387348 0.761787 0.242603
O O7 0.306248 0.000000 0.179590
O O8 0.255259 0.787099 0.000836
O O9 0.240351 0.500000 0.262095
O O10 0.318456 0.305104 0.455920
O O11 0.358516 0.500000 0.641820
O O12 0.342035 0.236719 0.690141
O O13 0.466579 0.304958 0.681116
O O14 0.255553 0.195347 0.787638
O O15 0.259689 0.000000 0.630326
O O16 0.883399 0.251429 0.235344
O O17 0.824400 0.000000 0.172115
O O18 0.939700 0.500000 0.338605
O O19 0.000000 0.276295 0.500000
O O20 0.500000 0.285200 0.500000
O O21 0.438519 0.500000 0.326778
#
# Coordination Sequence:
#
# PCOD8060702 Si02
#       8
#     4   4   4   4   4   4   4   4
#     4   9  18  33  53  80 110 134 167 222 274 311
#     4  11  23  37  53  77 110 144 182 221 258 311
#     4   9  17  33  54  76 106 142 172 211 270 322
#     4   9  18  33  55  80 107 134 169 221 270 312
#     4  10  19  32  52  77 106 141 179 212 258 318
#     4  10  23  39  52  74 112 151 178 212 266 320
#     4  10  19  33  57  85 106 132 180 230 264 307
#     4  10  19  36  58  80 106 138 176 219 270 319
#
# _framework density 17.577086999999999
#
# number of rings (size 3 to 8) (size 9 to 14) (size 15 to 20)
#    0.000    2.250    2.500    1.500    0.000    5.000 
#    0.000    1.250    0.000    7.500    0.000    0.000 
#    0.000    0.000    0.000    0.000    0.000    0.000 
#
# Total GULP energy -396831.435538 kJ/mol
# GULP energy per Si atom -12400.982361 kJ/mol
# Density = 1.753708 g / cm^3
# Si number density = 17.577087 Si / 1000 Ang^3
#
#
#
# Elastic Constant Matrix: (Units=GPa)
#
#
# Indices 1 2 3 4 5 6 
#
# 1 135.0281 67.6386 70.0511 0.0000 -4.4499 0.0000
# 2 67.6386 91.8225 67.5299 0.0000 -4.5995 0.0000
# 3 70.0511 67.5299 111.6662 0.0000 -3.3617 0.0000
# 4 0.0000 0.0000 0.0000 21.9803 0.0000 1.8800
# 5 -4.4499 -4.5995 -3.3617 0.0000 23.2727 0.0000
# 6 0.0000 0.0000 0.0000 1.8800 0.0000 15.2650
#
#
#
# Elastic Compliance Matrix: (Units=1/GPa)
#
#
# Indices 1 2 3 4 5 6 
#
# 1 0.012738 -0.006285 -0.004172 0.000000 0.000591 0.000000
# 2 -0.006285 0.022825 -0.009804 0.000000 0.001893 0.000000
# 3 -0.004172 -0.009804 0.017495 0.000000 -0.000208 0.000000
# 4 0.000000 0.000000 0.000000 0.045980 0.000000 -0.005663
# 5 0.000591 0.001893 -0.000208 0.000000 0.043426 0.000000
# 6 0.000000 0.000000 0.000000 -0.005663 0.000000 0.066207
#
#
# Mechanical properties :
#
#
# Convention : Reuss Voigt Hill
#
# Bulk Modulus (GPa) = 79.76825 83.21731 81.49278
# Shear Modulus (GPa) = 19.73383 20.99007 20.36195
#
# Velocity S-wave (km/s) = 3.35431 3.45943 3.40727
# Velocity P-wave (km/s) = 7.77704 7.96265 7.87039
#
# Compressibility (1/GPa) = 0.01253632
#
# Stress axis : x y z
#
# Youngs Moduli (GPa) = 78.50339 43.81112 57.15897
#
# Poissons Ratio (x) = 0.27537 0.23848
# Poissons Ratio (y) = 0.49342 0.56036
# Poissons Ratio (z) = 0.32754 0.42951
#
# Static dielectric constant tensor:
#      x y z
#    x 3.533100 0.000000 -0.099040 
#    y 0.000000 3.241220 0.000000 
#    z -0.099040 0.000000 3.014290 
# 
# 
# High freq. dielectric constant tensor:
#      x y z
#    x 1.698250 0.000000 -0.006170 
#    y 0.000000 1.679100 0.000000 
#    z -0.006170 0.000000 1.646310 
# 
# From -- ./inp_files/55336.got.cif
#   From: 2010.06.25/outbox.cif.g09.slc.cpg/sg10_28_cif.got.tgz:55336.got - 2010.06.27 22:07:45.
