data_PCOD8060474
_publ_section_title
;
Structure prediction by ZEFSAII (Michael W. Deem and Ramdas Pophale) SiO2 
 PCOD8060474
Probable space group: P 2/M
;
_chemical_formula_sum "Si O2"
_cell_formula_units_Z 24
_cell_length_a 9.723470
_cell_length_b 9.256396
_cell_length_c 21.901503
_cell_angle_alpha 90.000000
_cell_angle_beta 135.374603
_cell_angle_gamma 90.000000
_cell_volume 1384.726613
_symmetry_space_group_name_H-M "P 2/M"
_symmetry_group_IT_number 10
_symmetry_cell_setting 'monoclinic'
loop_
_space_group_symop_operation_xyz
x,y,z
-x,y,-z
-x,-y,-z
x,-y,z
loop_
_atom_site_type_symbol
_atom_site_label
_atom_site_fract_x
_atom_site_fract_y
_atom_site_fract_z
Si Si1 0.302068 0.165723 0.467610
Si Si2 0.853874 0.330933 0.904560
Si Si3 0.545630 0.166566 0.354038
Si Si4 0.039314 0.666957 0.704526
Si Si5 0.417137 0.329770 0.753696
Si Si6 0.153066 0.332672 0.233695
O O1 0.500000 0.230129 0.500000
O O2 0.308575 0.181594 0.542772
O O3 0.113357 0.248854 0.384989
O O4 0.280189 0.000000 0.440252
O O5 0.852812 0.500000 0.916682
O O6 0.631353 0.273725 0.842783
O O7 0.929183 0.295067 0.859786
O O8 0.000000 0.256298 0.000000
O O9 0.641777 0.249715 0.327479
O O10 0.338897 0.235106 0.308063
O O11 0.511780 0.000000 0.325874
O O12 0.002594 0.500000 0.678942
O O13 0.260110 0.711242 0.756044
O O14 0.012898 0.700419 0.768250
O O15 0.422499 0.500000 0.741723
O O16 0.219463 0.500000 0.256546
#
# Coordination Sequence:
#
# PCOD8060474 Si02
#       6
#     4   4   4   4   4   4
#     4  10  20  33  48  69  97 127 165 206 236 274
#     4   8  14  28  51  73  94 124 158 193 235 284
#     4  10  19  32  50  70  93 127 167 201 238 279
#     4  10  20  32  48  71  99 131 161 196 241 283
#     4   9  19  34  49  70 101 128 157 198 241 285
#     4   9  17  30  49  72  97 125 160 196 236 286
#
# _framework density 17.331939999999999
#
# number of rings (size 3 to 8) (size 9 to 14) (size 15 to 20)
#    0.000    2.667    1.667    1.500    0.000    3.000 
#    0.000    4.167    0.000   13.000    0.000    0.000 
#    0.000   12.000    0.000    0.000    0.000    0.000 
#
# Total GULP energy -297516.337525 kJ/mol
# GULP energy per Si atom -12396.514064 kJ/mol
# Density = 1.729249 g / cm^3
# Si number density = 17.331940 Si / 1000 Ang^3
#
#
#
# Elastic Constant Matrix: (Units=GPa)
#
#
# Indices 1 2 3 4 5 6 
#
# 1 155.6128 37.6585 67.2058 0.0000 -4.3953 0.0000
# 2 37.6585 45.5385 33.4009 0.0000 -2.1068 0.0000
# 3 67.2058 33.4009 120.8191 0.0000 -5.7468 0.0000
# 4 0.0000 0.0000 0.0000 -2.8923 0.0000 -5.8343
# 5 -4.3953 -2.1068 -5.7468 0.0000 18.8192 0.0000
# 6 0.0000 0.0000 0.0000 -5.8343 0.0000 18.1970
#
#
#
# Elastic Compliance Matrix: (Units=1/GPa)
#
#
# Indices 1 2 3 4 5 6 
#
# 1 0.009246 -0.004852 -0.003780 0.000000 0.000462 0.000000
# 2 -0.004852 0.030102 -0.005598 0.000000 0.000527 0.000000
# 3 -0.003780 -0.005598 0.012030 0.000000 0.002164 0.000000
# 4 0.000000 0.000000 0.000000 -0.209957 0.000000 -0.067316
# 5 0.000462 0.000527 0.002164 0.000000 0.053965 0.000000
# 6 0.000000 0.000000 0.000000 -0.067316 0.000000 0.033371
#
#
# Mechanical properties :
#
#
# Convention : Reuss Voigt Hill
#
# Bulk Modulus (GPa) = 43.63285 66.50009 55.06647
# Shear Modulus (GPa) = -142.27186 19.07180 -61.60003
#
# Velocity S-wave (km/s) = -9.06999 3.32080 -5.96812
# Velocity P-wave (km/s) = 9.19004 7.29078 3.95609
#
# Compressibility (1/GPa) = 0.02291851
#
# Stress axis : x y z
#
# Youngs Moduli (GPa) = 108.15657 33.22014 83.12787
#
# Poissons Ratio (x) = 0.16120 0.31419
# Poissons Ratio (y) = 0.52482 0.46532
# Poissons Ratio (z) = 0.40879 0.18595
#
# Static dielectric constant tensor:
#      x y z
#    x 3.418340 0.000000 -0.111880 
#    y 0.000000 3.073730 0.000000 
#    z -0.111880 0.000000 3.264660 
# 
# 
# High freq. dielectric constant tensor:
#      x y z
#    x 1.672240 0.000000 -0.012770 
#    y 0.000000 1.650320 0.000000 
#    z -0.012770 0.000000 1.653390 
# 
# From -- ./inp_files/33747.got.cif
#   From: 2010.06.25/outbox.cif.g09.slc.cpg/sg10_17_cif.got.tgz:33747.got - 2010.06.27 22:07:45.
