data_PCOD8060732
_publ_section_title
;
Structure prediction by ZEFSAII (Michael W. Deem and Ramdas Pophale) SiO2 
 PCOD8060732
Probable space group: P 2/M
;
_chemical_formula_sum "Si O2"
_cell_formula_units_Z 24
_cell_length_a 34.399916
_cell_length_b 7.802373
_cell_length_c 11.195130
_cell_angle_alpha 90.000000
_cell_angle_beta 26.095793
_cell_angle_gamma 90.000000
_cell_volume 1321.723963
_symmetry_space_group_name_H-M "P 2/M"
_symmetry_group_IT_number 10
_symmetry_cell_setting 'monoclinic'
loop_
_space_group_symop_operation_xyz
x,y,z
-x,y,-z
-x,-y,-z
x,-y,z
loop_
_atom_site_type_symbol
_atom_site_label
_atom_site_fract_x
_atom_site_fract_y
_atom_site_fract_z
Si Si1 0.419960 0.500000 0.558999
Si Si2 0.053217 0.197072 0.179644
Si Si3 0.701079 0.806932 0.130879
Si Si4 0.385702 0.500000 0.933261
Si Si5 0.912836 0.304323 0.176164
Si Si6 0.732559 0.809212 0.771596
Si Si7 0.872708 0.697509 0.780092
O O1 0.376027 0.671382 0.625088
O O2 0.408930 0.500000 0.730712
O O3 0.523923 0.500000 0.239450
O O4 0.109797 0.286083 0.127451
O O5 0.949212 0.209632 0.493974
O O6 0.080586 0.000000 0.093154
O O7 0.076599 0.294779 0.994624
O O8 0.662616 0.000000 0.246674
O O9 0.739031 0.768829 0.894399
O O10 0.780265 0.786684 0.005928
O O11 0.330325 0.670420 0.119455
O O12 0.897458 0.500000 0.257960
O O13 0.830050 0.194621 0.448005
O O14 0.000000 0.229278 0.000000
O O15 0.693406 0.000000 0.858126
O O16 0.869756 0.500000 0.750201
#
# Coordination Sequence:
#
# PCOD8060732 Si02
#       7
#     2   4   4   2   4   4   4
#     4   9  18  32  52  76 103 137 164 211 265 308
#     4  11  22  34  49  73 103 138 178 214 254 298
#     4  10  19  32  52  79 106 135 173 211 257 309
#     4   9  18  34  51  73 107 134 170 210 257 316
#     4  11  22  35  52  74 104 141 178 213 250 298
#     4  10  20  33  52  76 105 141 174 210 255 303
#     4  11  20  34  52  72 103 139 175 212 257 302
#
# _framework density 18.158103000000001
#
# number of rings (size 3 to 8) (size 9 to 14) (size 15 to 20)
#    0.000    1.667    1.667    5.500    0.000    4.667 
#    0.000    3.333    0.000    0.000    0.000    2.333 
#    0.000    4.000    0.000    0.000    0.000    0.000 
#
# Total GULP energy -297679.774231 kJ/mol
# GULP energy per Si atom -12403.323926 kJ/mol
# Density = 1.811677 g / cm^3
# Si number density = 18.158103 Si / 1000 Ang^3
#
#
#
# Elastic Constant Matrix: (Units=GPa)
#
#
# Indices 1 2 3 4 5 6 
#
# 1 77.1246 35.4968 47.5841 0.0000 -20.7170 0.0000
# 2 35.4968 122.0432 33.3515 0.0000 -18.7703 0.0000
# 3 47.5841 33.3515 76.0332 0.0000 -20.2329 0.0000
# 4 0.0000 0.0000 0.0000 19.5460 0.0000 0.8061
# 5 -20.7170 -18.7703 -20.2329 0.0000 34.2330 0.0000
# 6 0.0000 0.0000 0.0000 0.8061 0.0000 20.4101
#
#
#
# Elastic Compliance Matrix: (Units=1/GPa)
#
#
# Indices 1 2 3 4 5 6 
#
# 1 0.022861 -0.002607 -0.011703 0.000000 0.005489 0.000000
# 2 -0.002607 0.009911 -0.002005 0.000000 0.002672 0.000000
# 3 -0.011703 -0.002005 0.022758 0.000000 0.005269 0.000000
# 4 0.000000 0.000000 0.000000 0.051245 0.000000 -0.002024
# 5 0.005489 0.002672 0.005269 0.000000 0.037112 0.000000
# 6 0.000000 0.000000 0.000000 -0.002024 0.000000 0.049075
#
#
# Mechanical properties :
#
#
# Convention : Reuss Voigt Hill
#
# Bulk Modulus (GPa) = 43.66848 56.45175 50.06012
# Shear Modulus (GPa) = 21.43861 25.42240 23.43051
#
# Velocity S-wave (km/s) = 3.43981 3.74579 3.59606
# Velocity P-wave (km/s) = 6.31487 7.06148 6.69858
#
# Compressibility (1/GPa) = 0.02289981
#
# Stress axis : x y z
#
# Youngs Moduli (GPa) = 43.74347 100.89978 43.94102
#
# Poissons Ratio (x) = 0.26303 0.51424
# Poissons Ratio (y) = 0.11403 0.08810
# Poissons Ratio (z) = 0.51193 0.20230
#
# Static dielectric constant tensor:
#      x y z
#    x 3.285930 0.000000 -0.155260 
#    y 0.000000 3.521270 0.000000 
#    z -0.155260 0.000000 3.112940 
# 
# 
# High freq. dielectric constant tensor:
#      x y z
#    x 1.685580 0.000000 -0.012200 
#    y 0.000000 1.725050 0.000000 
#    z -0.012200 0.000000 1.669310 
# 
# From -- ./inp_files/37889.got.cif
#   From: 2010.06.25/outbox.cif.g09.slc.cpg/sg10_19_cif.got.tgz:37889.got - 2010.06.27 22:07:45.
