data_PCOD8060417
_publ_section_title
;
Structure prediction by ZEFSAII (Michael W. Deem and Ramdas Pophale) SiO2 
 PCOD8060417
Probable space group: P 2/M
;
_chemical_formula_sum "Si O2"
_cell_formula_units_Z 24
_cell_length_a 20.224741
_cell_length_b 8.460525
_cell_length_c 11.504885
_cell_angle_alpha 90.000000
_cell_angle_beta 136.747040
_cell_angle_gamma 90.000000
_cell_volume 1348.941097
_symmetry_space_group_name_H-M "P 2/M"
_symmetry_group_IT_number 10
_symmetry_cell_setting 'monoclinic'
loop_
_space_group_symop_operation_xyz
x,y,z
-x,y,-z
-x,-y,-z
x,-y,z
loop_
_atom_site_type_symbol
_atom_site_label
_atom_site_fract_x
_atom_site_fract_y
_atom_site_fract_z
Si Si1 0.720164 0.689242 0.689892
Si Si2 0.690303 0.311026 0.912769
Si Si3 0.483407 0.327450 0.614877
Si Si4 0.140155 0.183810 0.726156
Si Si5 0.959832 0.314835 0.617518
Si Si6 0.089278 0.687954 0.189101
O O1 0.714836 0.500000 0.677971
O O2 0.728875 0.742240 0.835383
O O3 0.620892 0.759254 0.503665
O O4 0.811457 0.757296 0.736585
O O5 0.693637 0.500000 0.928446
O O6 0.580029 0.245206 0.790795
O O7 0.755013 0.231254 0.093877
O O8 0.500000 0.348912 0.500000
O O9 0.476082 0.500000 0.664175
O O10 0.120463 0.278508 0.582111
O O11 0.059467 0.225715 0.718265
O O12 0.136037 0.000000 0.692259
O O13 0.982946 0.500000 0.649819
O O14 0.920822 0.254620 0.691380
O O15 0.091584 0.500000 0.184355
O O16 0.000000 0.754688 0.000000
#
# Coordination Sequence:
#
# PCOD8060417 Si02
#       6
#     4   4   4   4   4   4
#     4   8  13  23  42  70  99 119 141 180 225 263
#     4   9  15  26  47  71  92 116 149 183 218 263
#     4   7  11  20  38  66  94 117 142 178 221 259
#     4  11  21  32  46  64  89 118 149 187 227 260
#     4  10  19  32  49  67  88 116 150 182 217 263
#     4   9  16  25  42  70  97 117 139 174 220 266
#
# _framework density 17.791733000000001
#
# number of rings (size 3 to 8) (size 9 to 14) (size 15 to 20)
#    0.000    3.000    0.000    6.000    0.000    2.667 
#    0.000    0.000    0.000   14.500    0.000    7.000 
#    0.000    0.000    0.000    0.000    0.000    0.000 
#
# Total GULP energy -297355.984447 kJ/mol
# GULP energy per Si atom -12389.832685 kJ/mol
# Density = 1.775124 g / cm^3
# Si number density = 17.791733 Si / 1000 Ang^3
#
#
#
# Elastic Constant Matrix: (Units=GPa)
#
#
# Indices 1 2 3 4 5 6 
#
# 1 110.7789 3.7916 65.6509 0.0000 13.6904 0.0000
# 2 3.7916 23.3766 4.9388 0.0000 1.0808 0.0000
# 3 65.6509 4.9388 143.4949 0.0000 24.3179 0.0000
# 4 0.0000 0.0000 0.0000 2.4926 0.0000 2.5535
# 5 13.6904 1.0808 24.3179 0.0000 30.8451 0.0000
# 6 0.0000 0.0000 0.0000 2.5535 0.0000 0.9237
#
#
#
# Elastic Compliance Matrix: (Units=1/GPa)
#
#
# Indices 1 2 3 4 5 6 
#
# 1 0.012438 -0.000809 -0.005462 0.000000 -0.001186 0.000000
# 2 -0.000809 0.043148 -0.001062 0.000000 -0.000316 0.000000
# 3 -0.005462 -0.001062 0.010488 0.000000 -0.005808 0.000000
# 4 0.000000 0.000000 0.000000 -0.218977 0.000000 0.605370
# 5 -0.001186 -0.000316 -0.005808 0.000000 0.037536 0.000000
# 6 0.000000 0.000000 0.000000 0.605370 0.000000 -0.590934
#
#
# Mechanical properties :
#
#
# Convention : Reuss Voigt Hill
#
# Bulk Modulus (GPa) = 19.45125 47.37922 33.41524
# Shear Modulus (GPa) = -7.41290 20.40355 6.49533
#
# Velocity S-wave (km/s) = -2.04341 3.39012 1.91277
# Velocity P-wave (km/s) = 2.32144 6.48163 4.86830
#
# Compressibility (1/GPa) = 0.05141057
#
# Stress axis : x y z
#
# Youngs Moduli (GPa) = 80.39850 23.17612 95.34307
#
# Poissons Ratio (x) = 0.01874 0.52074
# Poissons Ratio (y) = 0.06502 0.10121
# Poissons Ratio (z) = 0.43911 0.02460
#
# Static dielectric constant tensor:
#      x y z
#    x 3.377960 0.000000 0.328330 
#    y 0.000000 2.814930 0.000000 
#    z 0.328330 0.000000 3.574860 
# 
# 
# High freq. dielectric constant tensor:
#      x y z
#    x 1.664480 0.000000 0.021380 
#    y 0.000000 1.639490 0.000000 
#    z 0.021380 0.000000 1.697940 
# 
# From -- ./inp_files/55044.got.cif
#   From: 2010.06.25/outbox.cif.g09.slc.cpg/sg10_28_cif.got.tgz:55044.got - 2010.06.27 22:07:45.
