data_PCOD8060606
_publ_section_title
;
Structure prediction by ZEFSAII (Michael W. Deem and Ramdas Pophale) SiO2 
 PCOD8060606
Probable space group: P 2/M
;
_chemical_formula_sum "Si O2"
_cell_formula_units_Z 24
_cell_length_a 13.062416
_cell_length_b 21.644612
_cell_length_c 15.258423
_cell_angle_alpha 90.000000
_cell_angle_beta 161.305433
_cell_angle_gamma 90.000000
_cell_volume 1382.745956
_symmetry_space_group_name_H-M "P 2/M"
_symmetry_group_IT_number 10
_symmetry_cell_setting 'monoclinic'
loop_
_space_group_symop_operation_xyz
x,y,z
-x,y,-z
-x,-y,-z
x,-y,z
loop_
_atom_site_type_symbol
_atom_site_label
_atom_site_fract_x
_atom_site_fract_y
_atom_site_fract_z
Si Si1 0.375082 0.565093 0.801319
Si Si2 0.123236 0.868887 0.192506
Si Si3 0.130489 0.000000 0.452745
Si Si4 0.379070 0.300780 0.803647
Si Si5 0.116118 0.000000 0.942400
Si Si6 0.716646 0.814744 0.008159
Si Si7 0.066157 0.868414 0.456331
O O1 0.498152 0.500000 0.855248
O O2 0.468190 0.631317 0.834116
O O3 0.000000 0.562462 0.500000
O O4 0.500000 0.565984 0.000000
O O5 0.500000 0.867079 0.500000
O O6 0.003537 0.822200 0.171821
O O7 0.007344 0.939183 0.108899
O O8 0.000000 0.843048 0.000000
O O9 0.987234 0.059170 0.386262
O O10 0.015505 0.000000 0.261200
O O11 0.507265 0.000000 0.755817
O O12 0.000000 0.288413 0.500000
O O13 0.500000 0.294327 0.000000
O O14 0.563765 0.253456 0.889622
O O15 0.840917 0.832913 0.205414
O O16 0.443610 0.859602 0.747116
O O17 0.000000 0.842383 0.500000
#
# Coordination Sequence:
#
# PCOD8060606 Si02
#       7
#     4   4   2   4   2   4   4
#     4   8  14  25  43  69 102 136 168 197 224 266
#     4  12  24  40  58  75  93 123 162 216 271 311
#     4  12  21  39  54  75  98 127 158 203 247 308
#     4  10  19  32  51  76 105 140 169 193 237 288
#     4  12  22  41  59  73  94 117 161 215 270 314
#     4  12  23  38  53  75 103 128 170 208 245 308
#     4  12  23  37  55  74 102 134 161 198 247 299
#
# _framework density 17.356767000000001
#
# number of rings (size 3 to 8) (size 9 to 14) (size 15 to 20)
#    0.000    1.000    3.333    5.750    0.000    0.000 
#    0.000    2.500    0.000    0.000    0.000    0.000 
#    0.000    1.333    0.000    0.000    0.000    1.667 
#
# Total GULP energy -297398.298842 kJ/mol
# GULP energy per Si atom -12391.595785 kJ/mol
# Density = 1.731726 g / cm^3
# Si number density = 17.356767 Si / 1000 Ang^3
#
#
#
# Elastic Constant Matrix: (Units=GPa)
#
#
# Indices 1 2 3 4 5 6 
#
# 1 63.5338 52.8877 20.5919 0.0000 -3.0543 0.0000
# 2 52.8877 135.1976 30.5515 0.0000 6.3924 0.0000
# 3 20.5919 30.5515 107.4104 0.0000 -14.7019 0.0000
# 4 0.0000 0.0000 0.0000 29.2492 0.0000 3.1745
# 5 -3.0543 6.3924 -14.7019 0.0000 34.0875 0.0000
# 6 0.0000 0.0000 0.0000 3.1745 0.0000 13.4899
#
#
#
# Elastic Compliance Matrix: (Units=1/GPa)
#
#
# Indices 1 2 3 4 5 6 
#
# 1 0.024070 -0.009217 -0.001553 0.000000 0.003215 0.000000
# 2 -0.009217 0.011658 -0.002084 0.000000 -0.003911 0.000000
# 3 -0.001553 -0.002084 0.010877 0.000000 0.004943 0.000000
# 4 0.000000 0.000000 0.000000 0.035085 0.000000 -0.008256
# 5 0.003215 -0.003911 0.004943 0.000000 0.032490 0.000000
# 6 0.000000 0.000000 0.000000 -0.008256 0.000000 0.076072
#
#
# Mechanical properties :
#
#
# Convention : Reuss Voigt Hill
#
# Bulk Modulus (GPa) = 47.85334 57.13379 52.49357
# Shear Modulus (GPa) = 22.42892 28.83937 25.63415
#
# Velocity S-wave (km/s) = 3.59866 4.08065 3.84721
# Velocity P-wave (km/s) = 6.70055 7.42907 7.07419
#
# Compressibility (1/GPa) = 0.02089718
#
# Stress axis : x y z
#
# Youngs Moduli (GPa) = 41.54531 85.77713 91.93541
#
# Poissons Ratio (x) = 0.79062 0.14275
# Poissons Ratio (y) = 0.38293 0.19162
# Poissons Ratio (z) = 0.06451 0.17879
#
# Static dielectric constant tensor:
#      x y z
#    x 2.854860 0.000000 -0.164720 
#    y 0.000000 3.958460 0.000000 
#    z -0.164720 0.000000 3.339520 
# 
# 
# High freq. dielectric constant tensor:
#      x y z
#    x 1.629990 0.000000 -0.027230 
#    y 0.000000 1.669910 0.000000 
#    z -0.027230 0.000000 1.696250 
# 
# From -- ./inp_files/52090.got.cif
#   From: 2010.06.25/outbox.cif.g09.slc.cpg/sg10_27_cif.got.tgz:52090.got - 2010.06.27 22:07:45.
