data_PCOD8060829
_publ_section_title
;
Structure prediction by ZEFSAII (Michael W. Deem and Ramdas Pophale) SiO2 
 PCOD8060829
Probable space group: P 2/M
;
_chemical_formula_sum "Si O2"
_cell_formula_units_Z 24
_cell_length_a 15.924529
_cell_length_b 17.204787
_cell_length_c 8.738254
_cell_angle_alpha 90.000000
_cell_angle_beta 148.026570
_cell_angle_gamma 90.000000
_cell_volume 1267.733012
_symmetry_space_group_name_H-M "P 2/M"
_symmetry_group_IT_number 10
_symmetry_cell_setting 'monoclinic'
loop_
_space_group_symop_operation_xyz
x,y,z
-x,y,-z
-x,-y,-z
x,-y,z
loop_
_atom_site_type_symbol
_atom_site_label
_atom_site_fract_x
_atom_site_fract_y
_atom_site_fract_z
Si Si1 0.678060 0.821646 0.806805
Si Si2 0.789304 0.332036 0.829073
Si Si3 0.966376 0.909059 0.122655
Si Si4 0.151089 0.500000 0.430213
Si Si5 0.150677 0.802995 0.633342
Si Si6 0.167993 0.666930 0.449267
Si Si7 0.806114 0.500000 0.863866
O O1 0.500000 0.848494 0.500000
O O2 0.702655 0.731728 0.798191
O O3 0.791653 0.877251 0.885381
O O4 0.713878 0.833558 0.042515
O O5 0.756411 0.314675 0.599326
O O6 0.718316 0.417925 0.765627
O O7 0.977523 0.330360 0.146921
O O8 0.098380 0.870188 0.435143
O O9 0.972930 0.000000 0.164732
O O10 0.000000 0.887324 0.000000
O O11 0.229333 0.581781 0.604968
O O12 0.151517 0.500000 0.248446
O O13 0.970716 0.500000 0.211703
O O14 0.226640 0.731074 0.659333
O O15 0.000000 0.774835 0.500000
#
# Coordination Sequence:
#
# PCOD8060829 Si02
#       7
#     4   4   4   2   4   4   2
#     4  11  23  36  52  80 116 145 170 211 267 315
#     4   9  15  28  50  72 104 139 181 219 261 309
#     4  10  21  40  65  85 101 132 176 213 252 313
#     4   7  12  20  40  74 102 122 172 235 274 288
#     4  10  19  32  53  79 108 139 175 214 259 314
#     4   9  14  27  50  75  99 135 182 230 260 298
#     4   7  12  22  42  71  96 137 178 218 260 304
#
# _framework density 18.931429999999999
#
# number of rings (size 3 to 8) (size 9 to 14) (size 15 to 20)
#    0.000    2.667    3.333    3.000    0.000    3.333 
#    0.000    5.000    0.000    2.000    0.000    3.500 
#    0.000    0.000    0.000    0.000    0.000    0.000 
#
# Total GULP energy -297366.590283 kJ/mol
# GULP energy per Si atom -12390.274595 kJ/mol
# Density = 1.888834 g / cm^3
# Si number density = 18.931430 Si / 1000 Ang^3
#
#
#
# Elastic Constant Matrix: (Units=GPa)
#
#
# Indices 1 2 3 4 5 6 
#
# 1 63.8729 56.8035 47.6669 0.0000 -18.6389 0.0000
# 2 56.8035 124.1596 46.5463 0.0000 -19.2710 0.0000
# 3 47.6669 46.5463 104.2129 0.0000 -10.4599 0.0000
# 4 0.0000 0.0000 0.0000 3.2981 0.0000 1.5880
# 5 -18.6389 -19.2710 -10.4599 0.0000 20.8339 0.0000
# 6 0.0000 0.0000 0.0000 1.5880 0.0000 12.0834
#
#
#
# Elastic Compliance Matrix: (Units=1/GPa)
#
#
# Indices 1 2 3 4 5 6 
#
# 1 0.039276 -0.010727 -0.011208 0.000000 0.019589 0.000000
# 2 -0.010727 0.013729 -0.000963 0.000000 0.002619 0.000000
# 3 -0.011208 -0.000963 0.014802 0.000000 -0.003486 0.000000
# 4 0.000000 0.000000 0.000000 0.323685 0.000000 -0.042540
# 5 0.019589 0.002619 -0.003486 0.000000 0.066197 0.000000
# 6 0.000000 0.000000 0.000000 -0.042540 0.000000 0.088349
#
#
# Mechanical properties :
#
#
# Convention : Reuss Voigt Hill
#
# Bulk Modulus (GPa) = 45.42755 66.03096 55.72926
# Shear Modulus (GPa) = 8.34489 16.65834 12.50161
#
# Velocity S-wave (km/s) = 2.10179 2.96958 2.57254
# Velocity P-wave (km/s) = 5.47156 6.83466 6.19074
#
# Compressibility (1/GPa) = 0.02201307
#
# Stress axis : x y z
#
# Youngs Moduli (GPa) = 25.46089 72.83760 67.55754
#
# Poissons Ratio (x) = 0.78132 0.75715
# Poissons Ratio (y) = 0.27312 0.06504
# Poissons Ratio (z) = 0.28535 0.07012
#
# Static dielectric constant tensor:
#      x y z
#    x 3.275800 0.000000 -0.316170 
#    y 0.000000 3.822500 0.000000 
#    z -0.316170 0.000000 3.176990 
# 
# 
# High freq. dielectric constant tensor:
#      x y z
#    x 1.708610 0.000000 -0.027500 
#    y 0.000000 1.748780 0.000000 
#    z -0.027500 0.000000 1.690990 
# 
# From -- ./inp_files/33025.got.cif
#   From: 2010.06.25/outbox.cif.g09.slc.cpg/sg10_17_cif.got.tgz:33025.got - 2010.06.27 22:07:45.
