data_PCOD8060706
_publ_section_title
;
Structure prediction by ZEFSAII (Michael W. Deem and Ramdas Pophale) SiO2 
 PCOD8060706
Probable space group: P 2/M
;
_chemical_formula_sum "Si O2"
_cell_formula_units_Z 24
_cell_length_a 12.657547
_cell_length_b 7.788996
_cell_length_c 15.725675
_cell_angle_alpha 90.000000
_cell_angle_beta 121.792431
_cell_angle_gamma 90.000000
_cell_volume 1317.771127
_symmetry_space_group_name_H-M "P 2/M"
_symmetry_group_IT_number 10
_symmetry_cell_setting 'monoclinic'
loop_
_space_group_symop_operation_xyz
x,y,z
-x,y,-z
-x,-y,-z
x,-y,z
loop_
_atom_site_type_symbol
_atom_site_label
_atom_site_fract_x
_atom_site_fract_y
_atom_site_fract_z
Si Si1 0.650874 0.306950 0.385816
Si Si2 0.803329 0.500000 0.881547
Si Si3 0.024689 0.197628 0.751283
Si Si4 0.616323 0.308283 0.705335
Si Si5 0.940233 0.500000 0.110315
Si Si6 0.747192 0.192956 0.598884
Si Si7 0.111750 0.295077 0.608553
O O1 0.643527 0.500000 0.349629
O O2 0.512871 0.224092 0.314592
O O3 0.685669 0.307051 0.500079
O O4 0.759631 0.219206 0.376212
O O5 0.721141 0.329185 0.823926
O O6 0.924812 0.500000 0.874627
O O7 0.834103 0.500000 0.993555
O O8 0.082244 0.327026 0.844928
O O9 0.884495 0.263293 0.676460
O O10 0.099996 0.210500 0.695703
O O11 0.029122 0.000000 0.786313
O O12 0.586759 0.500000 0.656303
O O13 0.666275 0.193197 0.650081
O O14 0.754873 0.000000 0.567333
O O15 0.110926 0.500000 0.615975
O O16 0.000000 0.233964 0.500000
#
# Coordination Sequence:
#
# PCOD8060706 Si02
#       7
#     4   2   4   4   2   4   4
#     4  10  20  31  52  76 108 147 181 215 254 319
#     4   9  20  36  61  80 102 138 176 235 281 327
#     4  11  22  35  56  83 114 145 179 224 271 320
#     4   9  18  35  52  75 105 137 182 218 269 319
#     4  11  20  40  61  81 108 137 184 227 286 327
#     4  11  21  31  47  78 115 149 178 212 263 324
#     4  10  19  32  52  77 110 147 183 218 256 311
#
# _framework density 18.212572000000002
#
# number of rings (size 3 to 8) (size 9 to 14) (size 15 to 20)
#    0.500    1.333    4.167    1.000    1.167    3.667 
#    0.000    2.500    0.000    2.000    0.000    1.167 
#    0.000    0.000    0.000    0.000    0.000    0.000 
#
# Total GULP energy -297456.130077 kJ/mol
# GULP energy per Si atom -12394.005420 kJ/mol
# Density = 1.817112 g / cm^3
# Si number density = 18.212572 Si / 1000 Ang^3
#
#
#
# Elastic Constant Matrix: (Units=GPa)
#
#
# Indices 1 2 3 4 5 6 
#
# 1 151.2605 11.8597 58.6198 0.0000 0.4691 0.0000
# 2 11.8597 49.7492 26.9755 0.0000 -3.6691 0.0000
# 3 58.6198 26.9755 108.8428 0.0000 -6.6309 0.0000
# 4 0.0000 0.0000 0.0000 8.4079 0.0000 -4.0656
# 5 0.4691 -3.6691 -6.6309 0.0000 20.1597 0.0000
# 6 0.0000 0.0000 0.0000 -4.0656 0.0000 13.5269
#
#
#
# Elastic Compliance Matrix: (Units=1/GPa)
#
#
# Indices 1 2 3 4 5 6 
#
# 1 0.008421 0.000443 -0.004748 0.000000 -0.001677 0.000000
# 2 0.000443 0.023357 -0.005887 0.000000 0.002304 0.000000
# 3 -0.004748 -0.005887 0.013414 0.000000 0.003451 0.000000
# 4 0.000000 0.000000 0.000000 0.139161 0.000000 0.041826
# 5 -0.001677 0.002304 0.003451 0.000000 0.051197 0.000000
# 6 0.000000 0.000000 0.000000 0.041826 0.000000 0.086498
#
#
# Mechanical properties :
#
#
# Convention : Reuss Voigt Hill
#
# Bulk Modulus (GPa) = 40.30743 56.08476 48.19610
# Shear Modulus (GPa) = 14.25714 22.57874 18.41794
#
# Velocity S-wave (km/s) = 2.80092 3.52480 3.18351
# Velocity P-wave (km/s) = 5.71314 6.88673 6.32720
#
# Compressibility (1/GPa) = 0.02480932
#
# Stress axis : x y z
#
# Youngs Moduli (GPa) = 118.74458 42.81314 74.55051
#
# Poissons Ratio (x) = -0.01897 0.35393
# Poissons Ratio (y) = -0.05260 0.43888
# Poissons Ratio (z) = 0.56374 0.25204
#
# Static dielectric constant tensor:
#      x y z
#    x 3.635640 0.000000 0.086540 
#    y 0.000000 3.080200 0.000000 
#    z 0.086540 0.000000 3.088370 
# 
# 
# High freq. dielectric constant tensor:
#      x y z
#    x 1.716340 0.000000 -0.001260 
#    y 0.000000 1.688780 0.000000 
#    z -0.001260 0.000000 1.667250 
# 
# From -- ./inp_files/63120.got.cif
#   From: 2010.06.25/outbox.cif.g09.slc.cpg/sg10_32_cif.got.tgz:63120.got - 2010.06.27 22:07:45.
