data_PCOD8060437
_publ_section_title
;
Structure prediction by ZEFSAII (Michael W. Deem and Ramdas Pophale) SiO2 
 PCOD8060437
Probable space group: P 2/M
;
_chemical_formula_sum "Si O2"
_cell_formula_units_Z 28
_cell_length_a 23.381338
_cell_length_b 9.326143
_cell_length_c 20.481371
_cell_angle_alpha 90.000000
_cell_angle_beta 160.285796
_cell_angle_gamma 90.000000
_cell_volume 1506.550439
_symmetry_space_group_name_H-M "P 2/M"
_symmetry_group_IT_number 10
_symmetry_cell_setting 'monoclinic'
loop_
_space_group_symop_operation_xyz
x,y,z
-x,y,-z
-x,-y,-z
x,-y,z
loop_
_atom_site_type_symbol
_atom_site_label
_atom_site_fract_x
_atom_site_fract_y
_atom_site_fract_z
Si Si1 0.775276 0.167670 0.414552
Si Si2 0.616833 0.329759 0.476283
Si Si3 0.178984 0.655294 0.663283
Si Si4 0.890579 0.328974 0.664496
Si Si5 0.577883 0.845269 0.011887
Si Si6 0.188251 0.670865 0.188688
Si Si7 0.752791 0.670162 0.892265
O O1 0.838071 0.234272 0.414199
O O2 0.865752 0.252140 0.569289
O O3 0.824328 0.000000 0.469041
O O4 0.571434 0.188983 0.200275
O O5 0.623545 0.500000 0.483827
O O6 0.740406 0.274881 0.551370
O O7 0.687026 0.271195 0.620864
O O8 0.420425 0.276981 0.257313
O O9 0.256872 0.500000 0.725199
O O10 0.284884 0.719569 0.838448
O O11 0.000000 0.623655 0.500000
O O12 0.885077 0.500000 0.649659
O O13 0.075134 0.276398 0.887977
O O14 0.660660 0.000000 0.083456
O O15 0.500000 0.854044 0.000000
O O16 0.186317 0.500000 0.186810
O O17 0.251120 0.728750 0.186182
O O18 0.000000 0.729671 0.000000
O O19 0.756125 0.500000 0.894352
#
# Coordination Sequence:
#
# PCOD8060437 Si02
#       7
#     4   4   4   4   4   4   4
#     4  10  21  37  55  74 101 139 176 208 252 308
#     4   9  16  26  42  67  98 134 171 212 267 316
#     4  10  20  34  55  85 112 131 161 208 257 303
#     4  10  19  32  49  70 103 139 172 216 263 308
#     4   8  16  32  53  74  97 129 167 204 243 293
#     4   9  13  21  39  64  97 134 168 208 264 319
#     4   9  16  26  42  67 100 134 171 215 262 317
#
# _framework density 18.585504
#
# number of rings (size 3 to 8) (size 9 to 14) (size 15 to 20)
#    0.000    2.714    1.429    2.143    0.000    6.000 
#    2.571    0.000    0.000    0.000    0.000    2.000 
#    0.000    2.286    0.000    0.000    0.000    0.000 
#
# Total GULP energy -346909.721503 kJ/mol
# GULP energy per Si atom -12389.632911 kJ/mol
# Density = 1.854320 g / cm^3
# Si number density = 18.585504 Si / 1000 Ang^3
#
#
#
# Elastic Constant Matrix: (Units=GPa)
#
#
# Indices 1 2 3 4 5 6 
#
# 1 63.1369 22.0282 51.6490 0.0000 -2.6129 0.0000
# 2 22.0282 61.4191 35.2288 0.0000 -4.3581 0.0000
# 3 51.6490 35.2288 132.9159 0.0000 3.5273 0.0000
# 4 0.0000 0.0000 0.0000 17.0805 0.0000 0.8378
# 5 -2.6129 -4.3581 3.5273 0.0000 34.8302 0.0000
# 6 0.0000 0.0000 0.0000 0.8378 0.0000 0.2851
#
#
#
# Elastic Compliance Matrix: (Units=1/GPa)
#
#
# Indices 1 2 3 4 5 6 
#
# 1 0.024129 -0.003638 -0.008470 0.000000 0.002213 0.000000
# 2 -0.003638 0.020051 -0.003971 0.000000 0.002638 0.000000
# 3 -0.008470 -0.003971 0.011930 0.000000 -0.002340 0.000000
# 4 0.000000 0.000000 0.000000 0.068406 0.000000 -0.201020
# 5 0.002213 0.002638 -0.002340 0.000000 0.029444 0.000000
# 6 0.000000 0.000000 0.000000 -0.201020 0.000000 4.098485
#
#
# Mechanical properties :
#
#
# Convention : Reuss Voigt Hill
#
# Bulk Modulus (GPa) = 41.75274 52.80932 47.28103
# Shear Modulus (GPa) = 1.16480 20.34354 10.75417
#
# Velocity S-wave (km/s) = 0.79252 3.31205 2.40809
# Velocity P-wave (km/s) = 4.83233 6.56522 5.76427
#
# Compressibility (1/GPa) = 0.02395053
#
# Stress axis : x y z
#
# Youngs Moduli (GPa) = 41.44422 49.87233 83.82542
#
# Poissons Ratio (x) = 0.18146 0.71004
# Poissons Ratio (y) = 0.15079 0.33284
# Poissons Ratio (z) = 0.35105 0.19803
#
# Static dielectric constant tensor:
#      x y z
#    x 3.258140 0.000000 -0.003300 
#    y 0.000000 3.120230 0.000000 
#    z -0.003300 0.000000 3.861730 
# 
# 
# High freq. dielectric constant tensor:
#      x y z
#    x 1.699770 0.000000 -0.000880 
#    y 0.000000 1.672860 0.000000 
#    z -0.000880 0.000000 1.734900 
# 
# From -- ./inp_files/86542.got.cif
#   From: 2010.06.25/outbox.cif.g09.slc.cpg/sg10_44_cif.got.tgz:86542.got - 2010.06.27 22:07:45.
