data_PCOD8060158
_publ_section_title
;
Structure prediction by ZEFSAII (Michael W. Deem and Ramdas Pophale) SiO2 
 PCOD8060158
Probable space group: P 2/M
;
_chemical_formula_sum "Si O2"
_cell_formula_units_Z 32
_cell_length_a 25.700231
_cell_length_b 9.058896
_cell_length_c 20.928301
_cell_angle_alpha 90.000000
_cell_angle_beta 22.007352
_cell_angle_gamma 90.000000
_cell_volume 1825.826873
_symmetry_space_group_name_H-M "P 2/M"
_symmetry_group_IT_number 10
_symmetry_cell_setting 'monoclinic'
loop_
_space_group_symop_operation_xyz
x,y,z
-x,y,-z
-x,-y,-z
x,-y,z
loop_
_atom_site_type_symbol
_atom_site_label
_atom_site_fract_x
_atom_site_fract_y
_atom_site_fract_z
Si Si1 0.359425 0.327819 0.845379
Si Si2 0.340373 0.173340 0.352207
Si Si3 0.057122 0.829136 0.367075
Si Si4 0.087459 0.674981 0.093240
Si Si5 0.333970 0.328271 0.492759
Si Si6 0.648756 0.168419 0.014925
Si Si7 0.052709 0.673476 0.873602
Si Si8 0.088122 0.324827 0.584935
O O1 0.339622 0.500000 0.877101
O O2 0.516935 0.288437 0.645284
O O3 0.247737 0.272641 0.919945
O O4 0.320399 0.261899 0.957700
O O5 0.307356 0.230873 0.460827
O O6 0.242531 0.256081 0.412878
O O7 0.310135 0.000000 0.383644
O O8 0.500819 0.211496 0.151475
O O9 0.987039 0.731338 0.392680
O O10 0.000000 0.775014 0.500000
O O11 0.224178 0.805212 0.178417
O O12 0.019810 0.000000 0.396970
O O13 0.073894 0.500000 0.105223
O O14 0.030842 0.743350 0.091349
O O15 0.996635 0.731264 0.256478
O O16 0.327527 0.500000 0.479162
O O17 0.216449 0.292896 0.678920
O O18 0.640789 0.000000 0.046867
O O19 0.023775 0.500000 0.908711
O O20 0.000000 0.746022 0.000000
O O21 0.099146 0.500000 0.569395
#
# Coordination Sequence:
#
# PCOD8060158 Si02
#       8
#     4   4   4   4   4   4   4   4
#     4   9  16  27  46  70  97 124 157 205 252 291
#     4  10  19  31  50  76 102 129 163 207 252 294
#     4  10  21  37  55  76 104 135 166 204 251 303
#     4   9  16  27  44  70  97 123 159 203 245 284
#     4   9  16  28  46  70  96 127 164 201 248 297
#     4   9  18  32  50  74 101 128 163 202 247 299
#     4   9  16  27  44  67  98 133 165 200 245 295
#     4  11  20  33  53  77 103 131 168 212 250 292
#
# _framework density 17.526306000000002
#
# number of rings (size 3 to 8) (size 9 to 14) (size 15 to 20)
#    0.000    2.500    2.500    0.750    0.000    0.750 
#    0.000    1.250    0.000    7.875    0.000    0.000 
#    0.000    4.000    0.000    0.000    0.000    0.000 
#
# Total GULP energy -396652.572999 kJ/mol
# GULP energy per Si atom -12395.392906 kJ/mol
# Density = 1.748642 g / cm^3
# Si number density = 17.526306 Si / 1000 Ang^3
#
#
#
# Elastic Constant Matrix: (Units=GPa)
#
#
# Indices 1 2 3 4 5 6 
#
# 1 116.5577 31.5938 77.5364 0.0000 -8.3154 0.0000
# 2 31.5938 40.6315 32.3889 0.0000 -3.8073 0.0000
# 3 77.5364 32.3889 139.4229 0.0000 -8.0099 0.0000
# 4 0.0000 0.0000 0.0000 17.1281 0.0000 -5.9984
# 5 -8.3154 -3.8073 -8.0099 0.0000 30.9754 0.0000
# 6 0.0000 0.0000 0.0000 -5.9984 0.0000 13.3141
#
#
#
# Elastic Compliance Matrix: (Units=1/GPa)
#
#
# Indices 1 2 3 4 5 6 
#
# 1 0.014802 -0.005985 -0.006756 0.000000 0.001491 0.000000
# 2 -0.005985 0.032738 -0.004201 0.000000 0.001331 0.000000
# 3 -0.006756 -0.004201 0.011949 0.000000 0.000760 0.000000
# 4 0.000000 0.000000 0.000000 0.069321 0.000000 0.031231
# 5 0.001491 0.001331 0.000760 0.000000 0.033044 0.000000
# 6 0.000000 0.000000 0.000000 0.031231 0.000000 0.089179
#
#
# Mechanical properties :
#
#
# Convention : Reuss Voigt Hill
#
# Bulk Modulus (GPa) = 39.05176 64.40557 51.72867
# Shear Modulus (GPa) = 17.03862 22.62306 19.83084
#
# Velocity S-wave (km/s) = 3.12135 3.59668 3.36741
# Velocity P-wave (km/s) = 5.94312 7.35363 6.68567
#
# Compressibility (1/GPa) = 0.02560704
#
# Stress axis : x y z
#
# Youngs Moduli (GPa) = 67.55790 30.54544 83.68883
#
# Poissons Ratio (x) = 0.18280 0.56539
# Poissons Ratio (y) = 0.40431 0.35155
# Poissons Ratio (z) = 0.45641 0.12831
#
# Static dielectric constant tensor:
#      x y z
#    x 3.346690 0.000000 -0.269820 
#    y 0.000000 3.057980 0.000000 
#    z -0.269820 0.000000 3.547470 
# 
# 
# High freq. dielectric constant tensor:
#      x y z
#    x 1.660440 0.000000 -0.025920 
#    y 0.000000 1.652450 0.000000 
#    z -0.025920 0.000000 1.683330 
# 
# From -- ./inp_files/86886.got.cif
#   From: 2010.06.25/outbox.cif.g09.slc.cpg/sg10_44_cif.got.tgz:86886.got - 2010.06.27 22:07:45.
