data_PCOD8060019
_publ_section_title
;
Structure prediction by ZEFSAII (Michael W. Deem and Ramdas Pophale) SiO2 
 PCOD8060019
Probable space group: P 2/M
;
_chemical_formula_sum "Si O2"
_cell_formula_units_Z 30
_cell_length_a 32.130623
_cell_length_b 10.100544
_cell_length_c 33.766379
_cell_angle_alpha 90.000000
_cell_angle_beta 8.446398
_cell_angle_gamma 90.000000
_cell_volume 1609.619270
_symmetry_space_group_name_H-M "P 2/M"
_symmetry_group_IT_number 10
_symmetry_cell_setting 'monoclinic'
loop_
_space_group_symop_operation_xyz
x,y,z
-x,y,-z
-x,-y,-z
x,-y,z
loop_
_atom_site_type_symbol
_atom_site_label
_atom_site_fract_x
_atom_site_fract_y
_atom_site_fract_z
Si Si1 0.797330 0.648412 0.798111
Si Si2 0.684748 0.841982 0.289845
Si Si3 0.323250 0.000000 0.206387
Si Si4 0.809315 0.730605 0.641148
Si Si5 0.010949 0.652522 0.299063
Si Si6 0.796496 0.157447 0.028319
Si Si7 0.562596 0.155410 0.558707
Si Si8 0.360079 0.344702 0.896403
O O1 0.923357 0.500000 0.677412
O O2 0.972495 0.731300 0.600689
O O3 0.861694 0.714845 0.780359
O O4 0.458404 0.632592 0.110009
O O5 0.500000 0.787387 0.500000
O O6 0.561974 0.781762 0.364425
O O7 0.678830 0.000000 0.294307
O O8 0.000000 0.788404 0.000000
O O9 0.367819 0.131545 0.190173
O O10 0.000000 0.000000 0.500000
O O11 0.500000 0.000000 0.000000
O O12 0.000000 0.697091 0.500000
O O13 0.095052 0.500000 0.220100
O O14 0.159095 0.711455 0.120493
O O15 0.678483 0.677561 0.610979
O O16 0.693704 0.247573 0.089310
O O17 0.114944 0.197423 0.739007
O O18 0.763639 0.000000 0.049559
O O19 0.612670 0.203934 0.238626
O O20 0.532957 0.000000 0.582716
O O21 0.303500 0.500000 0.938767
#
# Coordination Sequence:
#
# PCOD8060019 Si02
#       8
#     4   4   2   4   4   4   4   4
#     4  11  22  36  56  82 111 138 165 206 264 315
#     4   9  15  23  37  58  89 128 167 203 238 285
#     4  10  20  38  58  74  98 140 186 210 238 288
#     4  11  22  36  57  80 107 140 175 212 248 298
#     4   9  19  35  55  75  98 133 167 200 242 298
#     4  10  19  31  49  71 102 132 159 200 260 312
#     4   9  17  28  42  66  98 134 165 198 252 311
#     4  10  19  34  56  76  96 128 175 212 244 299
#
# _framework density 18.637947
#
# number of rings (size 3 to 8) (size 9 to 14) (size 15 to 20)
#    0.000    2.133    0.000    4.800    0.000    6.933 
#    0.000    0.000    8.800    0.000    0.000    0.000 
#    0.000   10.667    0.000    0.000    0.000    0.000 
#
# Total GULP energy -371861.223407 kJ/mol
# GULP energy per Si atom -12395.374114 kJ/mol
# Density = 1.859553 g / cm^3
# Si number density = 18.637947 Si / 1000 Ang^3
#
#
#
# Elastic Constant Matrix: (Units=GPa)
#
#
# Indices 1 2 3 4 5 6 
#
# 1 156.8701 33.6635 57.9746 0.0000 1.5910 0.0000
# 2 33.6635 42.3469 16.5768 0.0000 -4.7041 0.0000
# 3 57.9746 16.5768 121.4514 0.0000 9.7248 0.0000
# 4 0.0000 0.0000 0.0000 11.1440 0.0000 -12.1781
# 5 1.5910 -4.7041 9.7248 0.0000 40.5154 0.0000
# 6 0.0000 0.0000 0.0000 -12.1781 0.0000 -17.7192
#
#
#
# Elastic Compliance Matrix: (Units=1/GPa)
#
#
# Indices 1 2 3 4 5 6 
#
# 1 0.008878 -0.005732 -0.003441 0.000000 -0.000188 0.000000
# 2 -0.005732 0.029231 -0.001574 0.000000 0.003997 0.000000
# 3 -0.003441 -0.001574 0.010293 0.000000 -0.002518 0.000000
# 4 0.000000 0.000000 0.000000 0.051246 0.000000 -0.035220
# 5 -0.000188 0.003997 -0.002518 0.000000 0.025758 0.000000
# 6 0.000000 0.000000 0.000000 -0.035220 0.000000 -0.032230
#
#
# Mechanical properties :
#
#
# Convention : Reuss Voigt Hill
#
# Bulk Modulus (GPa) = 37.16150 59.67759 48.41954
# Shear Modulus (GPa) = 40.44076 20.95159 30.69617
#
# Velocity S-wave (km/s) = 4.66317 3.35645 4.06269
# Velocity P-wave (km/s) = 6.99825 6.86367 6.93128
#
# Compressibility (1/GPa) = 0.02690957
#
# Stress axis : x y z
#
# Youngs Moduli (GPa) = 112.63605 34.21033 97.15801
#
# Poissons Ratio (x) = 0.19609 0.33428
# Poissons Ratio (y) = 0.64560 0.15290
# Poissons Ratio (z) = 0.38753 0.05384
#
# Static dielectric constant tensor:
#      x y z
#    x 3.675800 0.000000 0.071880 
#    y 0.000000 2.586560 0.000000 
#    z 0.071880 0.000000 3.517310 
# 
# 
# High freq. dielectric constant tensor:
#      x y z
#    x 1.736170 0.000000 0.008600 
#    y 0.000000 1.670800 0.000000 
#    z 0.008600 0.000000 1.743380 
# 
# From -- ./inp_files/94248.got.cif
#   From: 2010.06.25/outbox.cif.g09.slc.cpg/sg10_48_cif.got.tgz:94248.got - 2010.06.27 22:07:45.
