data_PCOD8060695
_publ_section_title
;
Structure prediction by ZEFSAII (Michael W. Deem and Ramdas Pophale) SiO2 
 PCOD8060695
Probable space group: P 2/M
;
_chemical_formula_sum "Si O2"
_cell_formula_units_Z 28
_cell_length_a 9.797864
_cell_length_b 9.233109
_cell_length_c 27.827764
_cell_angle_alpha 90.000000
_cell_angle_beta 37.665269
_cell_angle_gamma 90.000000
_cell_volume 1538.269817
_symmetry_space_group_name_H-M "P 2/M"
_symmetry_group_IT_number 10
_symmetry_cell_setting 'monoclinic'
loop_
_space_group_symop_operation_xyz
x,y,z
-x,y,-z
-x,-y,-z
x,-y,z
loop_
_atom_site_type_symbol
_atom_site_label
_atom_site_fract_x
_atom_site_fract_y
_atom_site_fract_z
Si Si1 0.160275 0.327994 0.000042
Si Si2 0.759954 0.329930 0.551864
Si Si3 0.659366 0.832057 0.305137
Si Si4 0.938987 0.831456 0.875081
Si Si5 0.741359 0.330185 0.448246
Si Si6 0.968754 0.168052 0.305017
Si Si7 0.622816 0.168654 0.875082
O O1 0.176225 0.500000 0.999988
O O2 0.065265 0.264564 0.076103
O O3 0.407198 0.264384 0.924088
O O4 0.000000 0.283635 0.000000
O O5 0.730360 0.500000 0.567288
O O6 0.569486 0.255583 0.637191
O O7 0.751451 0.279969 0.499719
O O8 0.000000 0.273260 0.500000
O O9 0.820023 0.801380 0.215377
O O10 0.782386 0.779026 0.319153
O O11 0.601320 0.000000 0.324656
O O12 0.741729 0.788665 0.892511
O O13 0.912306 0.000000 0.896142
O O14 0.500000 0.275252 0.500000
O O15 0.773889 0.500000 0.432336
O O16 0.937329 0.254967 0.363074
O O17 0.211599 0.199379 0.215320
O O18 0.939853 0.000000 0.324129
O O19 0.555488 0.000000 0.895832
#
# Coordination Sequence:
#
# PCOD8060695 Si02
#       7
#     4   4   4   4   4   4   4
#     4  11  24  39  54  80 115 146 178 216 263 320
#     4  10  21  36  51  72 106 146 181 216 263 313
#     4   9  18  34  56  81 107 134 173 222 266 312
#     4   9  19  37  61  85 107 137 179 225 271 320
#     4  10  19  32  52  77 104 139 182 218 256 312
#     4   9  18  33  55  83 108 133 171 222 271 309
#     4   9  19  37  60  84 109 139 179 223 268 322
#
# _framework density 18.202268
#
# number of rings (size 3 to 8) (size 9 to 14) (size 15 to 20)
#    0.000    2.429    1.429    2.571    0.000    5.714 
#    2.571    2.857    0.000    0.000    0.000    0.000 
#    0.000    0.000    0.000    0.000    0.000    0.000 
#
# Total GULP energy -347140.114505 kJ/mol
# GULP energy per Si atom -12397.861232 kJ/mol
# Density = 1.816084 g / cm^3
# Si number density = 18.202268 Si / 1000 Ang^3
#
#
#
# Elastic Constant Matrix: (Units=GPa)
#
#
# Indices 1 2 3 4 5 6 
#
# 1 111.3405 50.9850 62.0880 0.0000 -19.4949 0.0000
# 2 50.9850 62.6596 57.4686 0.0000 1.5741 0.0000
# 3 62.0880 57.4686 132.8054 0.0000 -8.5125 0.0000
# 4 0.0000 0.0000 0.0000 14.2834 0.0000 0.1194
# 5 -19.4949 1.5741 -8.5125 0.0000 7.9532 0.0000
# 6 0.0000 0.0000 0.0000 0.1194 0.0000 29.6930
#
#
#
# Elastic Compliance Matrix: (Units=1/GPa)
#
#
# Indices 1 2 3 4 5 6 
#
# 1 0.073621 -0.075935 0.011779 0.000000 0.208096 0.000000
# 2 -0.075935 0.107682 -0.026190 0.000000 -0.235476 0.000000
# 3 0.011779 -0.026190 0.016684 0.000000 0.051913 0.000000
# 4 0.000000 0.000000 0.000000 0.070014 0.000000 -0.000281
# 5 0.208096 -0.235476 0.051913 0.000000 0.737988 0.000000
# 6 0.000000 0.000000 0.000000 -0.000281 0.000000 0.033679
#
#
# Mechanical properties :
#
#
# Convention : Reuss Voigt Hill
#
# Bulk Modulus (GPa) = 57.82108 71.98764 64.90436
# Shear Modulus (GPa) = 4.07789 19.47019 11.77404
#
# Velocity S-wave (km/s) = 1.49839 3.27411 2.54607
# Velocity P-wave (km/s) = 5.90156 7.34354 6.66168
#
# Compressibility (1/GPa) = 0.01729473
#
# Stress axis : x y z
#
# Youngs Moduli (GPa) = 13.58304 9.28660 59.93887
#
# Poissons Ratio (x) = 0.70518 -0.70602
# Poissons Ratio (y) = 1.03143 1.56980
# Poissons Ratio (z) = -0.15999 0.24322
#
# Static dielectric constant tensor:
#      x y z
#    x 3.294050 0.000000 0.001580 
#    y 0.000000 3.178940 0.000000 
#    z 0.001580 0.000000 3.420300 
# 
# 
# High freq. dielectric constant tensor:
#      x y z
#    x 1.691300 0.000000 0.000940 
#    y 0.000000 1.696030 0.000000 
#    z 0.000940 0.000000 1.720200 
# 
# From -- ./inp_files/36934.got.cif
#   From: 2010.06.25/outbox.cif.g09.slc.cpg/sg10_19_cif.got.tgz:36934.got - 2010.06.27 22:07:45.
