data_PCOD8060023
_publ_section_title
;
Structure prediction by ZEFSAII (Michael W. Deem and Ramdas Pophale) SiO2 
 PCOD8060023
Probable space group: P 2/M
;
_chemical_formula_sum "Si O2"
_cell_formula_units_Z 32
_cell_length_a 23.597961
_cell_length_b 9.115315
_cell_length_c 17.600107
_cell_angle_alpha 90.000000
_cell_angle_beta 31.163022
_cell_angle_gamma 90.000000
_cell_volume 1959.073473
_symmetry_space_group_name_H-M "P 2/M"
_symmetry_group_IT_number 10
_symmetry_cell_setting 'monoclinic'
loop_
_space_group_symop_operation_xyz
x,y,z
-x,y,-z
-x,-y,-z
x,-y,z
loop_
_atom_site_type_symbol
_atom_site_label
_atom_site_fract_x
_atom_site_fract_y
_atom_site_fract_z
Si Si1 0.689500 0.672617 0.116030
Si Si2 0.117235 0.825895 0.390174
Si Si3 0.855322 0.672496 0.057194
Si Si4 0.050392 0.826773 0.622271
Si Si5 0.504169 0.168527 0.582188
Si Si6 0.806403 0.827322 0.853011
Si Si7 0.753030 0.167108 0.313524
Si Si8 0.928607 0.171617 0.234514
O O1 0.679124 0.500000 0.119945
O O2 0.786113 0.718623 0.062676
O O3 0.574436 0.733287 0.276854
O O4 0.714553 0.740671 0.004906
O O5 0.133459 0.770129 0.459219
O O6 0.204131 0.779406 0.224798
O O7 0.000000 0.763268 0.500000
O O8 0.112144 0.000000 0.396108
O O9 0.873104 0.500000 0.041304
O O10 0.789555 0.723241 0.206223
O O11 0.972717 0.749195 0.921812
O O12 0.085243 0.762493 0.664264
O O13 0.925894 0.781205 0.746789
O O14 0.059230 0.000000 0.615645
O O15 0.500000 0.223329 0.500000
O O16 0.625237 0.189447 0.477021
O O17 0.465009 0.000000 0.631377
O O18 0.786321 0.000000 0.886359
O O19 0.816909 0.203663 0.317831
O O20 0.776558 0.000000 0.260041
O O21 0.956996 0.000000 0.204188
#
# Coordination Sequence:
#
# PCOD8060023 Si02
#       8
#     4   4   4   4   4   4   4   4
#     4  11  22  32  46  69  95 122 154 193 231 268
#     4   7  11  20  38  66  93 116 147 181 212 262
#     4  11  22  33  46  66  95 127 156 186 224 272
#     4   8  13  23  42  68  95 121 146 177 222 269
#     4  10  20  35  53  67  84 116 156 197 238 275
#     4   9  15  26  46  68  91 121 154 183 217 269
#     4  10  21  35  50  69  89 115 157 199 230 267
#     4  10  19  31  49  71  95 122 152 187 225 270
#
# _framework density 16.334251999999999
#
# number of rings (size 3 to 8) (size 9 to 14) (size 15 to 20)
#    0.000    2.500    2.500    2.625    0.000    3.750 
#    0.000    0.000    0.000    4.125    0.000    0.875 
#    0.000    7.000    0.000    0.000    0.000    0.000 
#
# Total GULP energy -396561.548377 kJ/mol
# GULP energy per Si atom -12392.548387 kJ/mol
# Density = 1.629707 g / cm^3
# Si number density = 16.334252 Si / 1000 Ang^3
#
#
#
# Elastic Constant Matrix: (Units=GPa)
#
#
# Indices 1 2 3 4 5 6 
#
# 1 53.1417 31.0731 52.0112 0.0000 9.2002 0.0000
# 2 31.0731 40.4666 39.6402 0.0000 5.9188 0.0000
# 3 52.0112 39.6402 110.1717 0.0000 18.2563 0.0000
# 4 0.0000 0.0000 0.0000 2.0024 0.0000 -5.2068
# 5 9.2002 5.9188 18.2563 0.0000 32.8225 0.0000
# 6 0.0000 0.0000 0.0000 -5.2068 0.0000 12.0191
#
#
#
# Elastic Compliance Matrix: (Units=1/GPa)
#
#
# Indices 1 2 3 4 5 6 
#
# 1 0.043991 -0.020781 -0.013073 0.000000 -0.001312 0.000000
# 2 -0.020781 0.048000 -0.007701 0.000000 0.001452 0.000000
# 3 -0.013073 -0.007701 0.018926 0.000000 -0.005474 0.000000
# 4 0.000000 0.000000 0.000000 -3.948431 0.000000 -1.710510
# 5 -0.001312 0.001452 -0.005474 0.000000 0.033617 0.000000
# 6 0.000000 0.000000 0.000000 -1.710510 0.000000 -0.657814
#
#
# Mechanical properties :
#
#
# Convention : Reuss Voigt Hill
#
# Bulk Modulus (GPa) = 35.96206 49.91434 42.93820
# Shear Modulus (GPa) = -1.14434 14.77250 6.81408
#
# Velocity S-wave (km/s) = -0.83791 3.01057 2.04468
# Velocity P-wave (km/s) = 4.59652 6.53522 5.64965
#
# Compressibility (1/GPa) = 0.02780709
#
# Stress axis : x y z
#
# Youngs Moduli (GPa) = 22.73176 20.83334 52.83636
#
# Poissons Ratio (x) = 0.43294 0.69075
# Poissons Ratio (y) = 0.47240 0.40687
# Poissons Ratio (z) = 0.29718 0.16043
#
# Static dielectric constant tensor:
#      x y z
#    x 3.339680 0.000000 0.368290 
#    y 0.000000 2.820950 0.000000 
#    z 0.368290 0.000000 3.120470 
# 
# 
# High freq. dielectric constant tensor:
#      x y z
#    x 1.613670 0.000000 0.025770 
#    y 0.000000 1.603410 0.000000 
#    z 0.025770 0.000000 1.618440 
# 
# From -- ./inp_files/54796.got.cif
#   From: 2010.06.25/outbox.cif.g09.slc.cpg/sg10_28_cif.got.tgz:54796.got - 2010.06.27 22:07:45.
