data_PCOD8060676
_publ_section_title
;
Structure prediction by ZEFSAII (Michael W. Deem and Ramdas Pophale) SiO2 
 PCOD8060676
Probable space group: P 2/M
;
_chemical_formula_sum "Si O2"
_cell_formula_units_Z 32
_cell_length_a 23.748826
_cell_length_b 9.132698
_cell_length_c 11.643552
_cell_angle_alpha 90.000000
_cell_angle_beta 43.528306
_cell_angle_gamma 90.000000
_cell_volume 1739.261629
_symmetry_space_group_name_H-M "P 2/M"
_symmetry_group_IT_number 10
_symmetry_cell_setting 'monoclinic'
loop_
_space_group_symop_operation_xyz
x,y,z
-x,y,-z
-x,-y,-z
x,-y,z
loop_
_atom_site_type_symbol
_atom_site_label
_atom_site_fract_x
_atom_site_fract_y
_atom_site_fract_z
Si Si1 0.867410 0.172432 0.007129
Si Si2 0.822670 0.169864 0.330529
Si Si3 0.335250 0.171096 0.294015
Si Si4 0.024114 0.335238 0.832305
Si Si5 0.731574 0.672275 0.076006
Si Si6 0.533695 0.329053 0.763008
Si Si7 0.579252 0.327033 0.444356
Si Si8 0.345231 0.670378 0.053051
O O1 0.957375 0.241816 0.861429
O O2 0.874624 0.000000 0.978993
O O3 0.827180 0.213133 0.189687
O O4 0.813525 0.240961 0.985317
O O5 0.732908 0.208314 0.509869
O O6 0.887338 0.260732 0.310806
O O7 0.844305 0.000000 0.314928
O O8 0.421673 0.242356 0.201420
O O9 0.307461 0.237675 0.213464
O O10 0.348361 0.000000 0.260305
O O11 0.027807 0.500000 0.777284
O O12 0.000000 0.335898 0.000000
O O13 0.746005 0.500000 0.073058
O O14 0.660890 0.734027 0.264565
O O15 0.707102 0.708305 0.981940
O O16 0.542858 0.500000 0.776007
O O17 0.578489 0.284669 0.578792
O O18 0.439246 0.283810 0.893284
O O19 0.500000 0.257045 0.500000
O O20 0.576280 0.500000 0.430100
O O21 0.339157 0.500000 0.092078
#
# Coordination Sequence:
#
# PCOD8060676 Si02
#       8
#     4   4   4   4   4   4   4   4
#     4  10  19  32  52  78 109 139 165 197 248 311
#     4   9  19  35  52  74 106 139 168 202 251 305
#     4  11  23  36  51  72 101 136 175 216 254 299
#     4   9  17  30  52  81 108 132 163 203 248 299
#     4  10  19  32  52  76 103 133 171 216 256 301
#     4  10  19  33  54  76  99 130 172 218 262 307
#     4   9  15  28  51  76  99 127 165 209 258 304
#     4  10  21  36  52  71  98 135 177 219 260 299
#
# _framework density 18.398610999999999
#
# number of rings (size 3 to 8) (size 9 to 14) (size 15 to 20)
#    0.000    2.250    1.250    2.250    0.000    5.500 
#    0.000    0.000    0.000    1.500    0.000    5.250 
#    0.000    0.000    0.000    0.000    0.000    0.000 
#
# Total GULP energy -396860.484352 kJ/mol
# GULP energy per Si atom -12401.890136 kJ/mol
# Density = 1.835673 g / cm^3
# Si number density = 18.398611 Si / 1000 Ang^3
#
#
#
# Elastic Constant Matrix: (Units=GPa)
#
#
# Indices 1 2 3 4 5 6 
#
# 1 135.0312 61.3393 32.6112 0.0000 -12.4683 0.0000
# 2 61.3393 77.3054 31.8707 0.0000 -5.6771 0.0000
# 3 32.6112 31.8707 36.3534 0.0000 0.3265 0.0000
# 4 0.0000 0.0000 0.0000 24.1803 0.0000 -2.4014
# 5 -12.4683 -5.6771 0.3265 0.0000 26.1813 0.0000
# 6 0.0000 0.0000 0.0000 -2.4014 0.0000 16.5432
#
#
#
# Elastic Compliance Matrix: (Units=1/GPa)
#
#
# Indices 1 2 3 4 5 6 
#
# 1 0.012345 -0.007674 -0.004385 0.000000 0.004270 0.000000
# 2 -0.007674 0.025601 -0.015579 0.000000 0.002091 0.000000
# 3 -0.004385 -0.015579 0.045153 0.000000 -0.006029 0.000000
# 4 0.000000 0.000000 0.000000 0.041961 0.000000 0.006091
# 5 0.004270 0.002091 -0.006029 0.000000 0.040757 0.000000
# 6 0.000000 0.000000 0.000000 0.006091 0.000000 0.061332
#
#
# Mechanical properties :
#
#
# Convention : Reuss Voigt Hill
#
# Bulk Modulus (GPa) = 35.94052 55.59249 45.76650
# Shear Modulus (GPa) = 17.14095 21.57220 19.35658
#
# Velocity S-wave (km/s) = 3.05559 3.42788 3.24708
# Velocity P-wave (km/s) = 5.65912 6.77852 6.24396
#
# Compressibility (1/GPa) = 0.02782375
#
# Stress axis : x y z
#
# Youngs Moduli (GPa) = 81.00511 39.06079 22.14686
#
# Poissons Ratio (x) = 0.29975 0.09711
# Poissons Ratio (y) = 0.62164 0.34503
# Poissons Ratio (z) = 0.35518 0.60853
#
# Static dielectric constant tensor:
#      x y z
#    x 3.364510 0.000000 -0.059770 
#    y 0.000000 3.228730 0.000000 
#    z -0.059770 0.000000 3.281880 
# 
# 
# High freq. dielectric constant tensor:
#      x y z
#    x 1.714620 0.000000 -0.008590 
#    y 0.000000 1.699800 0.000000 
#    z -0.008590 0.000000 1.692970 
# 
# From -- ./inp_files/54770.got.cif
#   From: 2010.06.25/outbox.cif.g09.slc.cpg/sg10_28_cif.got.tgz:54770.got - 2010.06.27 22:07:45.
