data_PCOD8060822
_publ_section_title
;
Structure prediction by ZEFSAII (Michael W. Deem and Ramdas Pophale) SiO2 
 PCOD8060822
Probable space group: P 2/M
;
_chemical_formula_sum "Si O2"
_cell_formula_units_Z 28
_cell_length_a 20.243649
_cell_length_b 8.894209
_cell_length_c 15.624204
_cell_angle_alpha 90.000000
_cell_angle_beta 147.620106
_cell_angle_gamma 90.000000
_cell_volume 1506.531507
_symmetry_space_group_name_H-M "P 2/M"
_symmetry_group_IT_number 10
_symmetry_cell_setting 'monoclinic'
loop_
_space_group_symop_operation_xyz
x,y,z
-x,y,-z
-x,-y,-z
x,-y,z
loop_
_atom_site_type_symbol
_atom_site_label
_atom_site_fract_x
_atom_site_fract_y
_atom_site_fract_z
Si Si1 0.126854 0.330934 0.170587
Si Si2 0.965860 0.168620 0.598794
Si Si3 0.402418 0.679197 0.466364
Si Si4 0.444198 0.325134 0.029268
Si Si5 0.803118 0.169886 0.256866
Si Si6 0.830812 0.332296 0.587961
Si Si7 0.582443 0.823286 0.335512
O O1 0.124404 0.500000 0.131004
O O2 0.261772 0.261518 0.290948
O O3 0.114926 0.326862 0.258654
O O4 0.000000 0.247057 0.000000
O O5 0.875875 0.206631 0.422495
O O6 0.941970 0.285939 0.648004
O O7 0.106917 0.186126 0.725458
O O8 0.941505 0.000000 0.605175
O O9 0.500000 0.728711 0.500000
O O10 0.397916 0.500000 0.472093
O O11 0.447972 0.745963 0.606574
O O12 0.472304 0.500000 0.074749
O O13 0.492097 0.232031 0.162531
O O14 0.500000 0.268742 0.000000
O O15 0.299425 0.295874 0.865905
O O16 0.748701 0.000000 0.200477
O O17 0.783765 0.500000 0.514193
O O18 0.719360 0.216513 0.453989
O O19 0.567682 0.000000 0.331181
#
# Coordination Sequence:
#
# PCOD8060822 Si02
#       7
#     4   4   4   4   4   4   4
#     4   8  15  30  51  75 104 135 172 215 262 320
#     4   9  18  34  54  75 104 141 178 214 262 321
#     4   9  18  35  58  82 109 144 182 228 281 329
#     4  11  23  37  54  79 109 140 180 232 279 320
#     4   9  19  35  53  74 104 143 180 214 259 323
#     4  10  19  32  53  79 105 134 177 223 267 316
#     4  11  22  36  56  79 108 145 184 223 270 333
#
# _framework density 18.585737999999999
#
# number of rings (size 3 to 8) (size 9 to 14) (size 15 to 20)
#    0.000    2.429    0.000    4.714    0.000    4.857 
#    2.571    1.429    0.000   10.714    0.000    0.000 
#    0.000    0.000    0.000    0.000    0.000    0.000 
#
# Total GULP energy -347055.112696 kJ/mol
# GULP energy per Si atom -12394.825453 kJ/mol
# Density = 1.854344 g / cm^3
# Si number density = 18.585738 Si / 1000 Ang^3
#
#
#
# Elastic Constant Matrix: (Units=GPa)
#
#
# Indices 1 2 3 4 5 6 
#
# 1 131.0198 39.7287 49.1290 0.0000 4.7497 0.0000
# 2 39.7287 61.8909 30.5376 0.0000 -2.2809 0.0000
# 3 49.1290 30.5376 97.4309 0.0000 13.5247 0.0000
# 4 0.0000 0.0000 0.0000 21.9143 0.0000 1.6822
# 5 4.7497 -2.2809 13.5247 0.0000 17.6970 0.0000
# 6 0.0000 0.0000 0.0000 1.6822 0.0000 28.8605
#
#
#
# Elastic Compliance Matrix: (Units=1/GPa)
#
#
# Indices 1 2 3 4 5 6 
#
# 1 0.010541 -0.004986 -0.003659 0.000000 -0.000676 0.000000
# 2 -0.004986 0.022507 -0.005737 0.000000 0.008623 0.000000
# 3 -0.003659 -0.005737 0.015519 0.000000 -0.011618 0.000000
# 4 0.000000 0.000000 0.000000 0.045837 0.000000 -0.002672
# 5 -0.000676 0.008623 -0.011618 0.000000 0.066678 0.000000
# 6 0.000000 0.000000 0.000000 -0.002672 0.000000 0.034805
#
#
# Mechanical properties :
#
#
# Convention : Reuss Voigt Hill
#
# Bulk Modulus (GPa) = 50.49634 58.79247 54.64441
# Shear Modulus (GPa) = 21.62144 25.09078 23.35611
#
# Velocity S-wave (km/s) = 3.41447 3.67822 3.54880
# Velocity P-wave (km/s) = 6.54012 7.05272 6.80125
#
# Compressibility (1/GPa) = 0.01980341
#
# Stress axis : x y z
#
# Youngs Moduli (GPa) = 94.87072 44.43150 64.43546
#
# Poissons Ratio (x) = 0.22153 0.23574
# Poissons Ratio (y) = 0.47302 0.36967
# Poissons Ratio (z) = 0.34709 0.25491
#
# Static dielectric constant tensor:
#      x y z
#    x 3.484450 0.000000 0.090580 
#    y 0.000000 3.250080 0.000000 
#    z 0.090580 0.000000 3.401710 
# 
# 
# High freq. dielectric constant tensor:
#      x y z
#    x 1.724440 0.000000 0.003740 
#    y 0.000000 1.704560 0.000000 
#    z 0.003740 0.000000 1.715730 
# 
# From -- ./inp_files/70287.got.cif
#   From: 2010.06.25/outbox.cif.g09.slc.cpg/sg10_36_cif.got.tgz:70287.got - 2010.06.27 22:07:45.
