data_PCOD8060532
_publ_section_title
;
Structure prediction by ZEFSAII (Michael W. Deem and Ramdas Pophale) SiO2 
 PCOD8060532
Probable space group: P 2/M
;
_chemical_formula_sum "Si O2"
_cell_formula_units_Z 32
_cell_length_a 20.272387
_cell_length_b 8.361445
_cell_length_c 26.233211
_cell_angle_alpha 90.000000
_cell_angle_beta 21.201094
_cell_angle_gamma 90.000000
_cell_volume 1608.114570
_symmetry_space_group_name_H-M "P 2/M"
_symmetry_group_IT_number 10
_symmetry_cell_setting 'monoclinic'
loop_
_space_group_symop_operation_xyz
x,y,z
-x,y,-z
-x,-y,-z
x,-y,z
loop_
_atom_site_type_symbol
_atom_site_label
_atom_site_fract_x
_atom_site_fract_y
_atom_site_fract_z
Si Si1 0.875389 0.309128 0.190810
Si Si2 0.197809 0.810663 0.338367
Si Si3 0.299562 0.189473 0.153623
Si Si4 0.863767 0.185772 0.832960
Si Si5 0.581476 0.690994 0.321508
Si Si6 0.212563 0.686473 0.634807
Si Si7 0.716812 0.310192 0.116620
Si Si8 0.443369 0.312850 0.874454
O O1 0.878741 0.500000 0.189926
O O2 0.740018 0.246046 0.244736
O O3 0.809093 0.239689 0.293087
O O4 0.077537 0.242187 0.034191
O O5 0.219101 0.748592 0.265027
O O6 0.345692 0.725165 0.267557
O O7 0.000000 0.756758 0.500000
O O8 0.225161 0.000000 0.322783
O O9 0.167479 0.242160 0.202767
O O10 0.316255 0.000000 0.142433
O O11 0.500000 0.264429 0.000000
O O12 0.030973 0.287186 0.733333
O O13 0.913484 0.000000 0.800414
O O14 0.679586 0.216515 0.997066
O O15 0.579370 0.500000 0.322635
O O16 0.388170 0.761983 0.480035
O O17 0.619309 0.758153 0.237533
O O18 0.247210 0.500000 0.615619
O O19 0.723878 0.500000 0.114274
O O20 0.604257 0.253787 0.148261
O O21 0.402076 0.500000 0.910354
#
# Coordination Sequence:
#
# PCOD8060532 Si02
#       8
#     4   4   4   4   4   4   4   4
#     4   9  15  27  48  74 105 139 175 214 258 307
#     4  10  21  38  59  82 107 139 177 212 252 309
#     4   9  17  33  56  78 101 131 173 218 250 292
#     4  11  21  35  57  78 101 139 181 213 256 313
#     4   9  17  28  47  75 107 141 174 211 259 314
#     4  10  19  32  50  79 110 133 168 221 268 302
#     4   9  17  29  47  75 108 139 172 214 261 308
#     4  11  21  35  55  80 111 138 169 218 269 306
#
# _framework density 19.899079
#
# number of rings (size 3 to 8) (size 9 to 14) (size 15 to 20)
#    0.000    2.250    2.500    1.500    0.000    4.250 
#    0.000    1.875    0.000    2.250    0.000    0.875 
#    0.000    0.000    0.000    0.000    0.000    0.000 
#
# Total GULP energy -396799.433487 kJ/mol
# GULP energy per Si atom -12399.982296 kJ/mol
# Density = 1.985379 g / cm^3
# Si number density = 19.899079 Si / 1000 Ang^3
#
#
#
# Elastic Constant Matrix: (Units=GPa)
#
#
# Indices 1 2 3 4 5 6 
#
# 1 172.1404 5.8082 85.4968 0.0000 7.3294 0.0000
# 2 5.8082 10.7448 1.7637 0.0000 3.2068 0.0000
# 3 85.4968 1.7637 161.6403 0.0000 13.0457 0.0000
# 4 0.0000 0.0000 0.0000 9.2543 0.0000 1.2741
# 5 7.3294 3.2068 13.0457 0.0000 39.3701 0.0000
# 6 0.0000 0.0000 0.0000 1.2741 0.0000 9.4886
#
#
#
# Elastic Compliance Matrix: (Units=1/GPa)
#
#
# Indices 1 2 3 4 5 6 
#
# 1 0.008021 -0.003705 -0.004219 0.000000 0.000206 0.000000
# 2 -0.003705 0.097127 0.001523 0.000000 -0.007726 0.000000
# 3 -0.004219 0.001523 0.008577 0.000000 -0.002181 0.000000
# 4 0.000000 0.000000 0.000000 0.110094 0.000000 -0.014783
# 5 0.000206 -0.007726 -0.002181 0.000000 0.026714 0.000000
# 6 0.000000 0.000000 0.000000 -0.014783 0.000000 0.107375
#
#
# Mechanical properties :
#
#
# Convention : Reuss Voigt Hill
#
# Bulk Modulus (GPa) = 9.90837 58.96254 34.43546
# Shear Modulus (GPa) = 12.36556 28.38637 20.37597
#
# Velocity S-wave (km/s) = 2.49552 3.78102 3.20342
# Velocity P-wave (km/s) = 3.64604 6.98259 5.57002
#
# Compressibility (1/GPa) = 0.10092475
#
# Stress axis : x y z
#
# Youngs Moduli (GPa) = 124.67757 10.29582 116.58619
#
# Poissons Ratio (x) = 0.03814 0.49184
# Poissons Ratio (y) = 0.46190 -0.17760
# Poissons Ratio (z) = 0.52597 -0.01568
#
# Static dielectric constant tensor:
#      x y z
#    x 3.885320 0.000000 0.154540 
#    y 0.000000 3.011190 0.000000 
#    z 0.154540 0.000000 3.785080 
# 
# 
# High freq. dielectric constant tensor:
#      x y z
#    x 1.792870 0.000000 0.001130 
#    y 0.000000 1.719880 0.000000 
#    z 0.001130 0.000000 1.781260 
# 
# From -- ./inp_files/93561.got.cif
#   From: 2010.06.25/outbox.cif.g09.slc.cpg/sg10_47_cif.got.tgz:93561.got - 2010.06.27 22:07:45.
