data_PCOD8060594
_publ_section_title
;
Structure prediction by ZEFSAII (Michael W. Deem and Ramdas Pophale) SiO2 
 PCOD8060594
Probable space group: P 2/M
;
_chemical_formula_sum "Si O2"
_cell_formula_units_Z 28
_cell_length_a 9.578650
_cell_length_b 10.963637
_cell_length_c 16.419369
_cell_angle_alpha 90.000000
_cell_angle_beta 67.137238
_cell_angle_gamma 90.000000
_cell_volume 1588.845203
_symmetry_space_group_name_H-M "P 2/M"
_symmetry_group_IT_number 10
_symmetry_cell_setting 'monoclinic'
loop_
_space_group_symop_operation_xyz
x,y,z
-x,y,-z
-x,-y,-z
x,-y,z
loop_
_atom_site_type_symbol
_atom_site_label
_atom_site_fract_x
_atom_site_fract_y
_atom_site_fract_z
Si Si1 0.824484 0.250216 0.245152
Si Si2 0.686861 0.639833 0.129428
Si Si3 0.867439 0.357580 0.777954
Si Si4 0.551375 0.356805 0.399106
Si Si5 0.144116 0.000000 0.853479
Si Si6 0.207182 0.000000 0.024721
Si Si7 0.322783 0.745637 0.035404
Si Si8 0.387016 0.642534 0.279236
O O1 0.809862 0.344596 0.173292
O O2 0.695350 0.275423 0.341634
O O3 0.809592 0.115119 0.211985
O O4 0.985069 0.273085 0.251647
O O5 0.669244 0.500000 0.110414
O O6 0.528095 0.699093 0.196702
O O7 0.744411 0.709548 0.037121
O O8 0.912295 0.500000 0.762091
O O9 0.760160 0.336653 0.879435
O O10 0.774472 0.311633 0.718597
O O11 0.500000 0.316562 0.500000
O O12 0.595966 0.500000 0.385337
O O13 0.410662 0.329057 0.369708
O O14 0.232183 0.000000 0.920658
O O15 0.967871 0.000000 0.912968
O O16 0.287138 0.112233 0.052264
O O17 0.500000 0.716838 0.000000
O O18 0.395342 0.500000 0.260941
#
# Coordination Sequence:
#
# PCOD8060594 Si02
#       8
#     4   4   4   4   2   2   4   4
#     4  11  21  37  55  78 105 142 184 224 268 322
#     4  10  19  32  51  75 106 141 178 222 270 319
#     4  11  21  32  51  80 112 141 176 225 274 323
#     4   9  18  36  62  88 112 136 166 214 277 342
#     4  11  22  38  57  68 104 152 186 234 269 297
#     4  11  23  40  48  72 104 152 202 233 260 294
#     4  12  22  34  51  73 107 146 191 229 264 312
#     4   8  16  31  50  76 111 142 167 203 266 329
#
# _framework density 17.622862000000001
#
# number of rings (size 3 to 8) (size 9 to 14) (size 15 to 20)
#    0.000    1.714    4.286    2.786    0.000    1.143 
#    0.000    2.500    0.000    3.429    0.000    1.000 
#    0.000    0.000    0.000    0.000    0.000    0.000 
#
# Total GULP energy -347132.703756 kJ/mol
# GULP energy per Si atom -12397.596563 kJ/mol
# Density = 1.758275 g / cm^3
# Si number density = 17.622862 Si / 1000 Ang^3
#
#
#
# Elastic Constant Matrix: (Units=GPa)
#
#
# Indices 1 2 3 4 5 6 
#
# 1 104.0729 11.9798 40.4674 0.0000 7.0714 0.0000
# 2 11.9798 62.4583 25.1703 0.0000 -3.3475 0.0000
# 3 40.4674 25.1703 112.2010 0.0000 8.2472 0.0000
# 4 0.0000 0.0000 0.0000 6.1702 0.0000 -2.1858
# 5 7.0714 -3.3475 8.2472 0.0000 22.9385 0.0000
# 6 0.0000 0.0000 0.0000 -2.1858 0.0000 22.7813
#
#
#
# Elastic Compliance Matrix: (Units=1/GPa)
#
#
# Indices 1 2 3 4 5 6 
#
# 1 0.011305 -0.000784 -0.003736 0.000000 -0.002256 0.000000
# 2 -0.000784 0.018039 -0.004083 0.000000 0.004342 0.000000
# 3 -0.003736 -0.004083 0.011437 0.000000 -0.003556 0.000000
# 4 0.000000 0.000000 0.000000 0.167770 0.000000 0.016097
# 5 -0.002256 0.004342 -0.003556 0.000000 0.046203 0.000000
# 6 0.000000 0.000000 0.000000 0.016097 0.000000 0.045440
#
#
# Mechanical properties :
#
#
# Convention : Reuss Voigt Hill
#
# Bulk Modulus (GPa) = 42.41607 48.21858 45.31733
# Shear Modulus (GPa) = 15.37240 23.78565 19.57902
#
# Velocity S-wave (km/s) = 2.95667 3.67782 3.33678
# Velocity P-wave (km/s) = 5.98138 6.74210 6.37310
#
# Compressibility (1/GPa) = 0.02357597
#
# Stress axis : x y z
#
# Youngs Moduli (GPa) = 88.45871 55.43463 87.43321
#
# Poissons Ratio (x) = 0.04345 0.32661
# Poissons Ratio (y) = 0.06934 0.35701
# Poissons Ratio (z) = 0.33044 0.22635
#
# Static dielectric constant tensor:
#      x y z
#    x 3.473750 0.000000 0.188770 
#    y 0.000000 3.092240 0.000000 
#    z 0.188770 0.000000 3.121030 
# 
# 
# High freq. dielectric constant tensor:
#      x y z
#    x 1.687350 0.000000 0.012800 
#    y 0.000000 1.661120 0.000000 
#    z 0.012800 0.000000 1.659380 
# 
# From -- ./inp_files/28254.got.cif
#   From: 2010.06.25/outbox.cif.g09.slc.cpg/sg10_15_cif.got.tgz:28254.got - 2010.06.27 22:07:45.
