data_PCOD8060041
_publ_section_title
;
Structure prediction by ZEFSAII (Michael W. Deem and Ramdas Pophale) SiO2 
 PCOD8060041
Probable space group: P 2/M
;
_chemical_formula_sum "Si O2"
_cell_formula_units_Z 24
_cell_length_a 11.688315
_cell_length_b 18.875178
_cell_length_c 7.649774
_cell_angle_alpha 90.000000
_cell_angle_beta 130.880355
_cell_angle_gamma 90.000000
_cell_volume 1276.021879
_symmetry_space_group_name_H-M "P 2/M"
_symmetry_group_IT_number 10
_symmetry_cell_setting 'monoclinic'
loop_
_space_group_symop_operation_xyz
x,y,z
-x,y,-z
-x,-y,-z
x,-y,z
loop_
_atom_site_type_symbol
_atom_site_label
_atom_site_fract_x
_atom_site_fract_y
_atom_site_fract_z
Si Si1 0.674407 0.417693 0.974411
Si Si2 0.680213 0.822461 0.680213
Si Si3 0.674406 0.417693 0.374402
Si Si4 0.320070 0.920954 0.014192
Si Si5 0.176696 0.330411 0.176695
Si Si6 0.320069 0.079046 0.625947
O O1 0.709666 0.500000 0.979572
O O2 0.500000 0.401558 0.755042
O O3 0.780419 0.372991 0.954308
O O4 0.709437 0.396377 0.209438
O O5 0.500000 0.820907 0.500000
O O6 0.744200 0.863725 0.913882
O O7 0.738737 0.743536 0.738738
O O8 0.744200 0.863725 0.574518
O O9 0.709665 0.500000 0.439761
O O10 0.780418 0.372991 0.606531
O O11 0.500000 0.920821 0.199979
O O12 0.262391 0.000000 0.005427
O O13 0.263300 0.900078 0.763300
O O14 0.000000 0.316469 0.000000
O O15 0.262391 0.000000 0.519354
#
# Coordination Sequence:
#
# PCOD8060041 Si02
#       6
#     4   4   4   4   4   4
#     4   9  19  38  63  85 103 130 174 225 270 313
#     4  10  19  31  49  72  99 135 175 212 254 306
#     4   9  19  38  63  85 103 130 174 225 270 313
#     4   8  14  26  47  75 100 121 157 215 272 311
#     4  12  25  36  49  76 115 152 179 210 258 314
#     4   8  14  26  47  75 100 121 157 215 272 311
#
# _framework density 18.808454999999999
#
# number of rings (size 3 to 8) (size 9 to 14) (size 15 to 20)
#    0.000    2.667    0.000    4.500    0.000    6.667 
#    0.000    5.000    0.000    2.000    0.000    2.333 
#    0.000    0.000    0.000    0.000    0.000    0.000 
#
# Total GULP energy -297544.355442 kJ/mol
# GULP energy per Si atom -12397.681477 kJ/mol
# Density = 1.876565 g / cm^3
# Si number density = 18.808455 Si / 1000 Ang^3
#
#
#
# Elastic Constant Matrix: (Units=GPa)
#
#
# Indices 1 2 3 4 5 6 
#
# 1 58.8955 39.1885 37.4869 0.0000 -26.4021 0.0000
# 2 39.1885 99.5245 43.3282 0.0000 -28.3900 0.0000
# 3 37.4869 43.3282 66.9420 0.0000 -28.7800 0.0000
# 4 0.0000 0.0000 0.0000 26.4026 0.0000 -30.7125
# 5 -26.4021 -28.3900 -28.7800 0.0000 28.9384 0.0000
# 6 0.0000 0.0000 0.0000 -30.7125 0.0000 21.9259
#
#
#
# Elastic Compliance Matrix: (Units=1/GPa)
#
#
# Indices 1 2 3 4 5 6 
#
# 1 0.032980 -0.004448 -0.007913 0.000000 0.017857 0.000000
# 2 -0.004448 0.015814 -0.004926 0.000000 0.006558 0.000000
# 3 -0.007913 -0.004926 0.030355 0.000000 0.018137 0.000000
# 4 0.000000 0.000000 0.000000 -0.060177 0.000000 -0.084292
# 5 0.017857 0.006558 0.018137 0.000000 0.075320 0.000000
# 6 0.000000 0.000000 0.000000 -0.084292 0.000000 -0.072464
#
#
# Mechanical properties :
#
#
# Convention : Reuss Voigt Hill
#
# Bulk Modulus (GPa) = 22.43282 51.70769 37.07026
# Shear Modulus (GPa) = 70.16559 22.47728 46.32143
#
# Velocity S-wave (km/s) = 6.11444 3.46072 4.96804
# Velocity P-wave (km/s) = 7.86138 6.59698 7.25677
#
# Compressibility (1/GPa) = 0.04457755
#
# Stress axis : x y z
#
# Youngs Moduli (GPa) = 30.32138 63.23451 32.94320
#
# Poissons Ratio (x) = 0.28124 0.26067
# Poissons Ratio (y) = 0.13485 0.16227
# Poissons Ratio (z) = 0.23993 0.31147
#
# Static dielectric constant tensor:
#      x y z
#    x 3.347600 0.000000 -0.427020 
#    y 0.000000 3.476220 0.000000 
#    z -0.427020 0.000000 3.409860 
# 
# 
# High freq. dielectric constant tensor:
#      x y z
#    x 1.711550 0.000000 -0.034980 
#    y 0.000000 1.731710 0.000000 
#    z -0.034980 0.000000 1.716650 
# 
# From -- ./inp_files/29696.got.cif
#   From: 2010.06.25/outbox.cif.g09.slc.cpg/sg10_15_cif.got.tgz:29696.got - 2010.06.27 22:07:45.
