data_PCOD8060712
_publ_section_title
;
Structure prediction by ZEFSAII (Michael W. Deem and Ramdas Pophale) SiO2 
 PCOD8060712
Probable space group: P 2/M
;
_chemical_formula_sum "Si O2"
_cell_formula_units_Z 28
_cell_length_a 9.855875
_cell_length_b 9.371519
_cell_length_c 29.417781
_cell_angle_alpha 90.000000
_cell_angle_beta 33.504119
_cell_angle_gamma 90.000000
_cell_volume 1499.863551
_symmetry_space_group_name_H-M "P 2/M"
_symmetry_group_IT_number 10
_symmetry_cell_setting 'monoclinic'
loop_
_space_group_symop_operation_xyz
x,y,z
-x,y,-z
-x,-y,-z
x,-y,z
loop_
_atom_site_type_symbol
_atom_site_label
_atom_site_fract_x
_atom_site_fract_y
_atom_site_fract_z
Si Si1 0.547305 0.831345 0.881545
Si Si2 0.915790 0.165326 0.936190
Si Si3 0.527055 0.664841 0.350388
Si Si4 0.451872 0.831208 0.806426
Si Si5 0.644824 0.330411 0.504043
Si Si6 0.002936 0.834385 0.809266
Si Si7 0.201650 0.335021 0.357792
O O1 0.548808 0.789028 0.828737
O O2 0.802482 0.772129 0.830275
O O3 0.540712 0.000000 0.891226
O O4 0.311727 0.762603 0.973250
O O5 0.175629 0.230400 0.879628
O O6 0.882763 0.189986 0.892013
O O7 0.920170 0.000000 0.948012
O O8 0.604237 0.500000 0.330834
O O9 0.481635 0.724484 0.414053
O O10 0.745408 0.750150 0.265878
O O11 0.281589 0.683873 0.388243
O O12 0.620193 0.757059 0.722669
O O13 0.458851 0.000000 0.795282
O O14 0.500000 0.270220 0.500000
O O15 0.641191 0.500000 0.504673
O O16 0.926163 0.276866 0.426395
O O17 0.063419 0.000000 0.784088
O O18 0.221650 0.500000 0.337717
#
# Coordination Sequence:
#
# PCOD8060712 Si02
#       7
#     4   4   4   4   4   4   4
#     4   9  18  30  49  76 105 136 172 215 253 291
#     4   9  16  30  51  74 101 136 176 211 247 297
#     4  10  20  35  55  77 103 134 169 208 252 301
#     4  10  19  32  52  78 105 134 171 212 254 299
#     4   9  19  35  56  79 100 130 171 208 244 302
#     4  10  19  32  52  78 105 134 171 212 254 299
#     4  10  20  35  55  77 103 134 169 208 252 301
#
# _framework density 18.668365000000001
#
# number of rings (size 3 to 8) (size 9 to 14) (size 15 to 20)
#    0.000    2.429    1.429    1.286    2.000    5.143 
#    0.000    0.714    0.000    7.714    0.000    0.000 
#    0.000    0.000    0.000    0.000    0.000    0.000 
#
# Total GULP energy -347134.514308 kJ/mol
# GULP energy per Si atom -12397.661225 kJ/mol
# Density = 1.862587 g / cm^3
# Si number density = 18.668365 Si / 1000 Ang^3
#
#
#
# Elastic Constant Matrix: (Units=GPa)
#
#
# Indices 1 2 3 4 5 6 
#
# 1 130.0065 22.8538 38.5839 0.0000 -8.0351 0.0000
# 2 22.8538 27.2321 25.1590 0.0000 2.3543 0.0000
# 3 38.5839 25.1590 92.8620 0.0000 -1.5317 0.0000
# 4 0.0000 0.0000 0.0000 28.7314 0.0000 -0.2451
# 5 -8.0351 2.3543 -1.5317 0.0000 30.5783 0.0000
# 6 0.0000 0.0000 0.0000 -0.2451 0.0000 16.4538
#
#
#
# Elastic Compliance Matrix: (Units=1/GPa)
#
#
# Indices 1 2 3 4 5 6 
#
# 1 0.009642 -0.006250 -0.002265 0.000000 0.002901 0.000000
# 2 -0.006250 0.053643 -0.012042 0.000000 -0.006376 0.000000
# 3 -0.002265 -0.012042 0.014990 0.000000 0.001083 0.000000
# 4 0.000000 0.000000 0.000000 0.034810 0.000000 0.000518
# 5 0.002901 -0.006376 0.001083 0.000000 0.034010 0.000000
# 6 0.000000 0.000000 0.000000 0.000518 0.000000 0.060784
#
#
# Mechanical properties :
#
#
# Convention : Reuss Voigt Hill
#
# Bulk Modulus (GPa) = 26.90967 47.03264 36.97116
# Shear Modulus (GPa) = 19.12925 26.05297 22.59111
#
# Velocity S-wave (km/s) = 3.20455 3.73978 3.48246
# Velocity P-wave (km/s) = 5.30453 6.62544 6.00144
#
# Compressibility (1/GPa) = 0.03716136
#
# Stress axis : x y z
#
# Youngs Moduli (GPa) = 103.71075 18.64184 66.71070
#
# Poissons Ratio (x) = 0.11651 0.15111
# Poissons Ratio (y) = 0.64820 0.80331
# Poissons Ratio (z) = 0.23492 0.22448
#
# Static dielectric constant tensor:
#      x y z
#    x 3.799660 0.000000 -0.067760 
#    y 0.000000 2.909200 0.000000 
#    z -0.067760 0.000000 3.457700 
# 
# 
# High freq. dielectric constant tensor:
#      x y z
#    x 1.746540 0.000000 -0.001350 
#    y 0.000000 1.664310 0.000000 
#    z -0.001350 0.000000 1.732280 
# 
# From -- ./inp_files/28222.got.cif
#   From: 2010.06.25/outbox.cif.g09.slc.cpg/sg10_15_cif.got.tgz:28222.got - 2010.06.27 22:07:45.
