data_PCOD8060883
_publ_section_title
;
Structure prediction by ZEFSAII (Michael W. Deem and Ramdas Pophale) SiO2 
 PCOD8060883
Probable space group: P 2/M
;
_chemical_formula_sum "Si O2"
_cell_formula_units_Z 24
_cell_length_a 8.948508
_cell_length_b 10.421195
_cell_length_c 23.043233
_cell_angle_alpha 90.000000
_cell_angle_beta 36.571778
_cell_angle_gamma 90.000000
_cell_volume 1280.364031
_symmetry_space_group_name_H-M "P 2/M"
_symmetry_group_IT_number 10
_symmetry_cell_setting 'monoclinic'
loop_
_space_group_symop_operation_xyz
x,y,z
-x,y,-z
-x,-y,-z
x,-y,z
loop_
_atom_site_type_symbol
_atom_site_label
_atom_site_fract_x
_atom_site_fract_y
_atom_site_fract_z
Si Si1 0.485327 0.147817 0.122380
Si Si2 0.500000 0.286593 0.000000
Si Si3 0.000000 0.742960 0.000000
Si Si4 0.035098 0.639698 0.865808
Si Si5 0.602684 0.151803 0.292856
Si Si6 0.203916 0.847642 0.320801
Si Si7 0.648882 0.151880 0.508421
O O1 0.303215 0.208624 0.228520
O O2 0.425231 0.000000 0.136844
O O3 0.419085 0.203232 0.080564
O O4 0.772703 0.166171 0.051487
O O5 0.739913 0.369958 0.943144
O O6 0.923062 0.655228 0.078328
O O7 0.150744 0.500000 0.812636
O O8 0.155157 0.759873 0.794186
O O9 0.392126 0.193111 0.312805
O O10 0.498730 0.190286 0.387925
O O11 0.673721 0.000000 0.266272
O O12 0.929887 0.789929 0.420559
O O13 0.191777 0.000000 0.321856
O O14 0.500000 0.209029 0.500000
O O15 0.668721 0.000000 0.497576
#
# Coordination Sequence:
#
# PCOD8060883 Si02
#       7
#     4   2   2   4   4   4   4
#     4  10  19  32  53  85 120 145 179 234 290 332
#     4  10  24  36  52  78 111 158 193 226 277 346
#     4  10  20  36  56  80 107 150 193 230 277 340
#     4  11  23  40  59  81 112 152 192 234 280 338
#     4  10  20  35  58  86 112 143 184 235 285 332
#     4   9  17  31  52  80 114 147 179 223 278 332
#     4   9  18  31  52  82 115 147 182 224 276 338
#
# _framework density 18.744668000000001
#
# number of rings (size 3 to 8) (size 9 to 14) (size 15 to 20)
#    0.000    2.167    1.667    1.500    2.333    5.333 
#    0.000    0.000    0.000    2.500    0.000    0.000 
#    0.000    0.000    0.000    0.000    0.000    0.000 
#
# Total GULP energy -297500.366232 kJ/mol
# GULP energy per Si atom -12395.848593 kJ/mol
# Density = 1.870200 g / cm^3
# Si number density = 18.744668 Si / 1000 Ang^3
#
#
#
# Elastic Constant Matrix: (Units=GPa)
#
#
# Indices 1 2 3 4 5 6 
#
# 1 98.3156 19.9195 45.3201 0.0000 19.1165 0.0000
# 2 19.9195 65.6175 39.9938 0.0000 5.0337 0.0000
# 3 45.3201 39.9938 126.8133 0.0000 16.3201 0.0000
# 4 0.0000 0.0000 0.0000 10.3161 0.0000 -0.1900
# 5 19.1165 5.0337 16.3201 0.0000 39.6761 0.0000
# 6 0.0000 0.0000 0.0000 -0.1900 0.0000 4.0968
#
#
#
# Elastic Compliance Matrix: (Units=1/GPa)
#
#
# Indices 1 2 3 4 5 6 
#
# 1 0.013018 -0.001392 -0.003621 0.000000 -0.004606 0.000000
# 2 -0.001392 0.019015 -0.005570 0.000000 0.000549 0.000000
# 3 -0.003621 -0.005570 0.011214 0.000000 -0.002162 0.000000
# 4 0.000000 0.000000 0.000000 0.097018 0.000000 0.004499
# 5 -0.004606 0.000549 -0.002162 0.000000 0.028243 0.000000
# 6 0.000000 0.000000 0.000000 0.004499 0.000000 0.244299
#
#
# Mechanical properties :
#
#
# Convention : Reuss Voigt Hill
#
# Bulk Modulus (GPa) = 45.28480 55.69036 50.48758
# Shear Modulus (GPa) = 11.32929 23.18536 17.25733
#
# Velocity S-wave (km/s) = 2.46112 3.52078 3.03752
# Velocity P-wave (km/s) = 5.68220 6.80458 6.26856
#
# Compressibility (1/GPa) = 0.02208247
#
# Stress axis : x y z
#
# Youngs Moduli (GPa) = 76.81722 52.58940 89.17080
#
# Poissons Ratio (x) = 0.07319 0.32285
# Poissons Ratio (y) = 0.10691 0.49670
# Poissons Ratio (z) = 0.27812 0.29294
#
# Static dielectric constant tensor:
#      x y z
#    x 3.622900 0.000000 0.110080 
#    y 0.000000 2.922220 0.000000 
#    z 0.110080 0.000000 3.714480 
# 
# 
# High freq. dielectric constant tensor:
#      x y z
#    x 1.742560 0.000000 0.006360 
#    y 0.000000 1.672340 0.000000 
#    z 0.006360 0.000000 1.736190 
# 
# From -- ./inp_files/82428.got.cif
#   From: 2010.06.25/outbox.cif.g09.slc.cpg/sg10_42_cif.got.tgz:82428.got - 2010.06.27 22:07:45.
