data_PCOD8060204
_publ_section_title
;
Structure prediction by ZEFSAII (Michael W. Deem and Ramdas Pophale) SiO2 
 PCOD8060204
Probable space group: P 2/M
;
_chemical_formula_sum "Si O2"
_cell_formula_units_Z 26
_cell_length_a 30.213002
_cell_length_b 8.844178
_cell_length_c 30.212994
_cell_angle_alpha 90.000000
_cell_angle_beta 9.866945
_cell_angle_gamma 90.000000
_cell_volume 1383.427668
_symmetry_space_group_name_H-M "P 2/M"
_symmetry_group_IT_number 10
_symmetry_cell_setting 'monoclinic'
loop_
_space_group_symop_operation_xyz
x,y,z
-x,y,-z
-x,-y,-z
x,-y,z
loop_
_atom_site_type_symbol
_atom_site_label
_atom_site_fract_x
_atom_site_fract_y
_atom_site_fract_z
Si Si1 0.625827 0.824472 0.125824
Si Si2 0.949693 0.320876 0.449767
Si Si3 0.902336 0.825077 0.402342
Si Si4 0.673131 0.321643 0.173101
Si Si5 0.235004 0.000000 0.735006
Si Si6 0.192343 0.167972 0.692306
Si Si7 0.474878 0.680271 0.974950
O O1 0.361593 0.781516 0.361895
O O2 0.647453 0.721885 0.147449
O O3 0.632785 0.000000 0.132759
O O4 0.861875 0.781515 0.861607
O O5 0.950715 0.500000 0.450788
O O6 0.924332 0.272971 0.424374
O O7 0.212538 0.255747 0.211890
O O8 0.711791 0.255748 0.712630
O O9 0.909063 0.000000 0.409074
O O10 0.675467 0.500000 0.175406
O O11 0.435807 0.257320 0.434468
O O12 0.934501 0.257308 0.935769
O O13 0.500000 0.000000 0.500000
O O14 0.219154 0.148770 0.719152
O O15 0.000000 0.000000 0.000000
O O16 0.181073 0.000000 0.680996
O O17 0.474976 0.500000 0.975053
O O18 0.500000 0.743027 0.000000
#
# Coordination Sequence:
#
# PCOD8060204 Si02
#       7
#     4   4   4   4   2   4   4
#     4  10  21  36  56  76 108 148 194 228 269 337
#     4  10  19  31  51  73  98 129 168 215 263 324
#     4  10  21  36  52  75 102 143 181 224 271 325
#     4  12  23  38  59  92 127 156 194 250 309 347
#     4  10  20  38  68  96 116 154 218 258 278 336
#     4  10  22  38  64  89 119 162 202 246 289 352
#     4   9  17  30  49  74  98 125 163 211 264 320
#
# _framework density 18.793899
#
# number of rings (size 3 to 8) (size 9 to 14) (size 15 to 20)
#    0.462    1.385    0.000    5.077    0.000    4.308 
#    0.000    0.000    0.000   12.000    0.000    0.000 
#    0.000    0.000    0.000    0.000    0.000    0.000 
#
# Total GULP energy -322444.644759 kJ/mol
# GULP energy per Si atom -12401.717106 kJ/mol
# Density = 1.875112 g / cm^3
# Si number density = 18.793899 Si / 1000 Ang^3
#
#
#
# Elastic Constant Matrix: (Units=GPa)
#
#
# Indices 1 2 3 4 5 6 
#
# 1 149.6805 47.1013 96.0760 0.0000 -2.5230 0.0000
# 2 47.1013 83.1349 55.5379 0.0000 -0.7359 0.0000
# 3 96.0760 55.5379 216.4274 0.0000 -3.3475 0.0000
# 4 0.0000 0.0000 0.0000 24.6515 0.0000 0.5109
# 5 -2.5230 -0.7359 -3.3475 0.0000 41.2197 0.0000
# 6 0.0000 0.0000 0.0000 0.5109 0.0000 30.4599
#
#
#
# Elastic Compliance Matrix: (Units=1/GPa)
#
#
# Indices 1 2 3 4 5 6 
#
# 1 0.010031 -0.003269 -0.003610 0.000000 0.000262 0.000000
# 2 -0.003269 0.015583 -0.002549 0.000000 -0.000129 0.000000
# 3 -0.003610 -0.002549 0.006882 0.000000 0.000292 0.000000
# 4 0.000000 0.000000 0.000000 0.040580 0.000000 -0.000681
# 5 0.000262 -0.000129 0.000292 0.000000 0.024298 0.000000
# 6 0.000000 0.000000 0.000000 -0.000681 0.000000 0.032841
#
#
# Mechanical properties :
#
#
# Convention : Reuss Voigt Hill
#
# Bulk Modulus (GPa) = 73.32279 94.07479 83.69879
# Shear Modulus (GPa) = 32.54812 35.96807 34.25809
#
# Velocity S-wave (km/s) = 4.16606 4.37946 4.27409
# Velocity P-wave (km/s) = 7.88925 8.70274 8.30596
#
# Compressibility (1/GPa) = 0.01363833
#
# Stress axis : x y z
#
# Youngs Moduli (GPa) = 99.68756 64.17264 145.31087
#
# Poissons Ratio (x) = 0.20981 0.52458
# Poissons Ratio (y) = 0.32592 0.37046
# Poissons Ratio (z) = 0.35988 0.16360
#
# Static dielectric constant tensor:
#      x y z
#    x 3.467810 0.000000 -0.013570 
#    y 0.000000 3.179040 0.000000 
#    z -0.013570 0.000000 3.621890 
# 
# 
# High freq. dielectric constant tensor:
#      x y z
#    x 1.738360 0.000000 -0.001580 
#    y 0.000000 1.700820 0.000000 
#    z -0.001580 0.000000 1.756280 
# 
# From -- ./inp_files/95949.got.cif
#   From: 2010.06.25/outbox.cif.g09.slc.cpg/sg10_48_cif.got.tgz:95949.got - 2010.06.27 22:07:45.
