data_PCOD8060082
_publ_section_title
;
Structure prediction by ZEFSAII (Michael W. Deem and Ramdas Pophale) SiO2 
 PCOD8060082
Probable space group: P 2/M
;
_chemical_formula_sum "Si O2"
_cell_formula_units_Z 28
_cell_length_a 15.317208
_cell_length_b 9.421354
_cell_length_c 18.272766
_cell_angle_alpha 90.000000
_cell_angle_beta 144.129505
_cell_angle_gamma 90.000000
_cell_volume 1545.117792
_symmetry_space_group_name_H-M "P 2/M"
_symmetry_group_IT_number 10
_symmetry_cell_setting 'monoclinic'
loop_
_space_group_symop_operation_xyz
x,y,z
-x,y,-z
-x,-y,-z
x,-y,z
loop_
_atom_site_type_symbol
_atom_site_label
_atom_site_fract_x
_atom_site_fract_y
_atom_site_fract_z
Si Si1 0.670771 0.835531 0.134257
Si Si2 0.771201 0.668540 0.829972
Si Si3 0.827234 0.166202 0.392221
Si Si4 0.470539 0.668593 0.561265
Si Si5 0.214981 0.334332 0.494705
Si Si6 0.091672 0.665558 0.788205
Si Si7 0.031929 0.668772 0.907377
O O1 0.724894 0.794211 0.252759
O O2 0.763055 0.745483 0.139434
O O3 0.704090 0.000000 0.143149
O O4 0.500000 0.798606 0.000000
O O5 0.776514 0.500000 0.830334
O O6 0.604775 0.723858 0.703828
O O7 0.879247 0.727135 0.839233
O O8 0.828778 0.719987 0.948257
O O9 0.752161 0.248940 0.408854
O O10 0.000000 0.214166 0.500000
O O11 0.820701 0.000000 0.405152
O O12 0.500000 0.732451 0.500000
O O13 0.467146 0.500000 0.552252
O O14 0.318914 0.720074 0.497902
O O15 0.245944 0.500000 0.530589
O O16 0.044613 0.305126 0.358488
O O17 0.129467 0.500000 0.818790
O O18 0.050199 0.730718 0.838967
O O19 0.024543 0.500000 0.898491
#
# Coordination Sequence:
#
# PCOD8060082 Si02
#       7
#     4   4   4   4   4   4   4
#     4  10  22  39  56  74  98 129 167 209 254 307
#     4   8  13  23  39  60  92 133 168 197 237 293
#     4  10  20  37  58  75  96 133 175 210 251 310
#     4   9  16  26  41  65 100 135 165 201 247 298
#     4  10  20  31  50  80 106 133 170 213 257 298
#     4  10  19  31  49  75 104 129 162 209 257 300
#     4   8  14  24  40  64  94 128 164 201 242 291
#
# _framework density 18.121596
#
# number of rings (size 3 to 8) (size 9 to 14) (size 15 to 20)
#    0.000    2.714    1.429    1.714    0.000    5.714 
#    0.000    1.429    0.000    0.429    0.000    3.000 
#    0.000    0.000    0.000    0.000    0.000    0.000 
#
# Total GULP energy -347044.980935 kJ/mol
# GULP energy per Si atom -12394.463605 kJ/mol
# Density = 1.808035 g / cm^3
# Si number density = 18.121596 Si / 1000 Ang^3
#
#
#
# Elastic Constant Matrix: (Units=GPa)
#
#
# Indices 1 2 3 4 5 6 
#
# 1 120.0725 35.8523 50.1526 0.0000 -8.3824 0.0000
# 2 35.8523 23.3689 25.4844 0.0000 -1.6982 0.0000
# 3 50.1526 25.4844 107.1074 0.0000 0.8236 0.0000
# 4 0.0000 0.0000 0.0000 15.1874 0.0000 0.7459
# 5 -8.3824 -1.6982 0.8236 0.0000 34.6218 0.0000
# 6 0.0000 0.0000 0.0000 0.7459 0.0000 -2.2079
#
#
#
# Elastic Compliance Matrix: (Units=1/GPa)
#
#
# Indices 1 2 3 4 5 6 
#
# 1 0.016018 -0.021827 -0.002329 0.000000 0.002863 0.000000
# 2 -0.021827 0.087876 -0.010683 0.000000 -0.000720 0.000000
# 3 -0.002329 -0.010683 0.012980 0.000000 -0.001397 0.000000
# 4 0.000000 0.000000 0.000000 0.064769 0.000000 0.021881
# 5 0.002863 -0.000720 -0.001397 0.000000 0.029575 0.000000
# 6 0.000000 0.000000 0.000000 0.021881 0.000000 -0.445536
#
#
# Mechanical properties :
#
#
# Convention : Reuss Voigt Hill
#
# Bulk Modulus (GPa) = 21.18811 52.61415 36.90113
# Shear Modulus (GPa) = -33.57775 18.79091 -7.39342
#
# Velocity S-wave (km/s) = -4.30922 3.22364 -2.02207
# Velocity P-wave (km/s) = 3.61131 6.55384 3.86725
#
# Compressibility (1/GPa) = 0.04719627
#
# Stress axis : x y z
#
# Youngs Moduli (GPa) = 62.42846 11.37965 77.04439
#
# Poissons Ratio (x) = 0.24838 0.17945
# Poissons Ratio (y) = 1.36263 0.82304
# Poissons Ratio (z) = 0.14541 0.12156
#
# Static dielectric constant tensor:
#      x y z
#    x 3.449410 0.000000 -0.048750 
#    y 0.000000 2.805120 0.000000 
#    z -0.048750 0.000000 3.608700 
# 
# 
# High freq. dielectric constant tensor:
#      x y z
#    x 1.707700 0.000000 -0.004960 
#    y 0.000000 1.641290 0.000000 
#    z -0.004960 0.000000 1.714040 
# 
# From -- ./inp_files/77817.got.cif
#   From: 2010.06.25/outbox.cif.g09.slc.cpg/sg10_39_cif.got.tgz:77817.got - 2010.06.27 22:07:45.
