data_PCOD8060279
_publ_section_title
;
Structure prediction by ZEFSAII (Michael W. Deem and Ramdas Pophale) SiO2 
 PCOD8060279
Probable space group: P 2/M
;
_chemical_formula_sum "Si O2"
_cell_formula_units_Z 32
_cell_length_a 12.272133
_cell_length_b 9.325800
_cell_length_c 23.579494
_cell_angle_alpha 90.000000
_cell_angle_beta 134.063160
_cell_angle_gamma 90.000000
_cell_volume 1939.152183
_symmetry_space_group_name_H-M "P 2/M"
_symmetry_group_IT_number 10
_symmetry_cell_setting 'monoclinic'
loop_
_space_group_symop_operation_xyz
x,y,z
-x,y,-z
-x,-y,-z
x,-y,z
loop_
_atom_site_type_symbol
_atom_site_label
_atom_site_fract_x
_atom_site_fract_y
_atom_site_fract_z
Si Si1 0.300080 0.331570 0.575502
Si Si2 0.563126 0.332798 0.583064
Si Si3 0.938705 0.832969 0.581620
Si Si4 0.569951 0.164684 0.148059
Si Si5 0.826995 0.833652 0.151833
Si Si6 0.285372 0.834884 0.681844
Si Si7 0.140138 0.168399 0.320148
Si Si8 0.368482 0.337817 0.998654
O O1 0.270346 0.500000 0.569155
O O2 0.441094 0.295189 0.586492
O O3 0.148842 0.257813 0.497151
O O4 0.338349 0.268127 0.650724
O O5 0.500000 0.278141 0.500000
O O6 0.601546 0.500000 0.594395
O O7 0.716088 0.249267 0.653738
O O8 0.886938 0.782395 0.625028
O O9 0.115255 0.799535 0.639266
O O10 0.903670 0.000000 0.559023
O O11 0.720324 0.201188 0.166724
O O12 0.603225 0.197640 0.225558
O O13 0.427848 0.260924 0.077085
O O14 0.524326 0.000000 0.122048
O O15 0.996403 0.788569 0.230028
O O16 0.816514 0.000000 0.131718
O O17 0.778784 0.742643 0.079305
O O18 0.298442 0.000000 0.667269
O O19 0.169440 0.000000 0.328235
O O20 0.323396 0.500000 0.997247
O O21 0.500000 0.329766 0.000000
#
# Coordination Sequence:
#
# PCOD8060279 Si02
#       8
#     4   4   4   4   4   4   4   4
#     4  11  23  36  49  68  95 130 170 206 243 290
#     4  10  21  37  51  66  94 130 165 204 250 293
#     4  10  19  33  51  72  98 127 161 203 246 288
#     4   9  16  29  48  68  95 131 161 190 236 288
#     4   9  16  29  47  70  98 126 159 196 237 287
#     4  10  20  34  51  72  99 130 164 201 244 291
#     4  10  19  31  52  77  96 122 165 208 243 285
#     4   9  17  27  41  67 100 131 161 192 229 279
#
# _framework density 16.502057000000001
#
# number of rings (size 3 to 8) (size 9 to 14) (size 15 to 20)
#    0.000    2.250    2.500    1.125    0.000    5.750 
#    0.000    0.000    0.000    0.000    0.000    0.875 
#    0.000    7.000    0.000    0.000    0.000    0.000 
#
# Total GULP energy -396887.179950 kJ/mol
# GULP energy per Si atom -12402.724373 kJ/mol
# Density = 1.646450 g / cm^3
# Si number density = 16.502057 Si / 1000 Ang^3
#
#
#
# Elastic Constant Matrix: (Units=GPa)
#
#
# Indices 1 2 3 4 5 6 
#
# 1 52.0966 33.2679 34.6981 0.0000 -4.2804 0.0000
# 2 33.2679 73.2502 60.1628 0.0000 -0.7450 0.0000
# 3 34.6981 60.1628 124.5088 0.0000 1.9055 0.0000
# 4 0.0000 0.0000 0.0000 17.2706 0.0000 -2.2812
# 5 -4.2804 -0.7450 1.9055 0.0000 19.0586 0.0000
# 6 0.0000 0.0000 0.0000 -2.2812 0.0000 24.3546
#
#
#
# Elastic Compliance Matrix: (Units=1/GPa)
#
#
# Indices 1 2 3 4 5 6 
#
# 1 0.028298 -0.010334 -0.002988 0.000000 0.006250 0.000000
# 2 -0.010334 0.026484 -0.009913 0.000000 -0.000295 0.000000
# 3 -0.002988 -0.009913 0.013691 0.000000 -0.002428 0.000000
# 4 0.000000 0.000000 0.000000 0.058627 0.000000 0.005491
# 5 0.006250 -0.000295 -0.002428 0.000000 0.054105 0.000000
# 6 0.000000 0.000000 0.000000 0.005491 0.000000 0.041574
#
#
# Mechanical properties :
#
#
# Convention : Reuss Voigt Hill
#
# Bulk Modulus (GPa) = 45.44803 56.23480 50.84141
# Shear Modulus (GPa) = 18.07769 20.25188 19.16479
#
# Velocity S-wave (km/s) = 3.31340 3.50699 3.41157
# Velocity P-wave (km/s) = 6.49913 7.10986 6.81134
#
# Compressibility (1/GPa) = 0.02200316
#
# Stress axis : x y z
#
# Youngs Moduli (GPa) = 35.33801 37.75889 73.03928
#
# Poissons Ratio (x) = 0.39021 0.21826
# Poissons Ratio (y) = 0.36519 0.72401
# Poissons Ratio (z) = 0.10560 0.37429
#
# Static dielectric constant tensor:
#      x y z
#    x 2.829850 0.000000 -0.015440 
#    y 0.000000 3.097950 0.000000 
#    z -0.015440 0.000000 3.203640 
# 
# 
# High freq. dielectric constant tensor:
#      x y z
#    x 1.598960 0.000000 0.002630 
#    y 0.000000 1.636060 0.000000 
#    z 0.002630 0.000000 1.640770 
# 
# From -- ./inp_files/54795.got.cif
#   From: 2010.06.25/outbox.cif.g09.slc.cpg/sg10_28_cif.got.tgz:54795.got - 2010.06.27 22:07:45.
