data_PCOD8060382
_publ_section_title
;
Structure prediction by ZEFSAII (Michael W. Deem and Ramdas Pophale) SiO2 
 PCOD8060382
Probable space group: P 2/M
;
_chemical_formula_sum "Si O2"
_cell_formula_units_Z 28
_cell_length_a 28.701415
_cell_length_b 8.980120
_cell_length_c 14.139947
_cell_angle_alpha 90.000000
_cell_angle_beta 150.961834
_cell_angle_gamma 90.000000
_cell_volume 1768.992324
_symmetry_space_group_name_H-M "P 2/M"
_symmetry_group_IT_number 10
_symmetry_cell_setting 'monoclinic'
loop_
_space_group_symop_operation_xyz
x,y,z
-x,y,-z
-x,-y,-z
x,-y,z
loop_
_atom_site_type_symbol
_atom_site_label
_atom_site_fract_x
_atom_site_fract_y
_atom_site_fract_z
Si Si1 0.915397 0.823973 0.288897
Si Si2 0.215079 0.829311 0.784462
Si Si3 0.077500 0.326419 0.216379
Si Si4 0.645973 0.674740 0.097736
Si Si5 0.725828 0.823770 0.425853
Si Si6 0.466636 0.164551 0.833192
Si Si7 0.969211 0.829286 0.676446
O O1 0.814422 0.779085 0.159964
O O2 0.934326 0.782193 0.212272
O O3 0.000000 0.748167 0.500000
O O4 0.925390 0.000000 0.316401
O O5 0.302467 0.724227 0.907537
O O6 0.124022 0.808955 0.554270
O O7 0.250411 0.000000 0.845310
O O8 0.101836 0.500000 0.262760
O O9 0.173494 0.237916 0.358780
O O10 0.035962 0.278048 0.243549
O O11 0.000000 0.286754 0.000000
O O12 0.652235 0.500000 0.122445
O O13 0.701587 0.752823 0.281909
O O14 0.533772 0.722422 0.894090
O O15 0.644888 0.783402 0.361252
O O16 0.731562 0.000000 0.420198
O O17 0.475814 0.000000 0.803955
O O18 0.500000 0.158351 0.000000
O O19 0.976489 0.000000 0.724204
#
# Coordination Sequence:
#
# PCOD8060382 Si02
#       7
#     4   4   4   4   4   4   4
#     4   7  12  23  40  62  82 106 142 177 210 250
#     4   9  15  25  42  62  87 116 144 174 209 252
#     4  11  23  34  44  62  88 116 146 182 222 259
#     4  11  19  25  39  64  92 117 142 171 209 258
#     4  10  19  32  47  60  78 110 149 186 218 250
#     4   8  16  29  43  59  80 108 144 178 211 253
#     4   9  16  28  46  62  80 111 148 182 215 251
#
# _framework density 15.82822
#
# number of rings (size 3 to 8) (size 9 to 14) (size 15 to 20)
#    0.000    2.714    1.429    4.714    0.000    4.286 
#    0.000    0.714    0.000    2.571    0.000    0.000 
#    0.000    1.143    0.000   12.857    0.000    6.429 
#
# Total GULP energy -346906.786035 kJ/mol
# GULP energy per Si atom -12389.528073 kJ/mol
# Density = 1.579219 g / cm^3
# Si number density = 15.828220 Si / 1000 Ang^3
#
#
#
# Elastic Constant Matrix: (Units=GPa)
#
#
# Indices 1 2 3 4 5 6 
#
# 1 110.6183 46.1247 48.9118 0.0000 33.4581 0.0000
# 2 46.1247 78.8326 37.5333 0.0000 19.0025 0.0000
# 3 48.9118 37.5333 57.0858 0.0000 19.0545 0.0000
# 4 0.0000 0.0000 0.0000 15.0190 0.0000 -1.5583
# 5 33.4581 19.0025 19.0545 0.0000 21.7315 0.0000
# 6 0.0000 0.0000 0.0000 -1.5583 0.0000 7.5673
#
#
#
# Elastic Compliance Matrix: (Units=1/GPa)
#
#
# Indices 1 2 3 4 5 6 
#
# 1 0.020521 -0.002693 -0.008556 0.000000 -0.021737 0.000000
# 2 -0.002693 0.019798 -0.008928 0.000000 -0.005337 0.000000
# 3 -0.008556 -0.008928 0.033529 0.000000 -0.008418 0.000000
# 4 0.000000 0.000000 0.000000 0.068036 0.000000 0.014010
# 5 -0.021737 -0.005337 -0.008418 0.000000 0.091531 0.000000
# 6 0.000000 0.000000 0.000000 0.014010 0.000000 0.135032
#
#
# Mechanical properties :
#
#
# Convention : Reuss Voigt Hill
#
# Bulk Modulus (GPa) = 29.85726 56.85293 43.35510
# Shear Modulus (GPa) = 11.90569 16.46135 14.18352
#
# Velocity S-wave (km/s) = 2.74557 3.22840 2.99673
# Velocity P-wave (km/s) = 5.38100 7.06353 6.27888
#
# Compressibility (1/GPa) = 0.03349269
#
# Stress axis : x y z
#
# Youngs Moduli (GPa) = 48.72995 50.50969 29.82529
#
# Poissons Ratio (x) = 0.13604 0.25520
# Poissons Ratio (y) = 0.13125 0.26628
# Poissons Ratio (z) = 0.41695 0.45095
#
# Static dielectric constant tensor:
#      x y z
#    x 3.452020 0.000000 0.424720 
#    y 0.000000 2.882940 0.000000 
#    z 0.424720 0.000000 2.731630 
# 
# 
# High freq. dielectric constant tensor:
#      x y z
#    x 1.614290 0.000000 0.037420 
#    y 0.000000 1.598680 0.000000 
#    z 0.037420 0.000000 1.547780 
# 
# From -- ./inp_files/72473.got.cif
#   From: 2010.06.25/outbox.cif.g09.slc.cpg/sg10_37_cif.got.tgz:72473.got - 2010.06.27 22:07:45.
