data_PCOD8060698
_publ_section_title
;
Structure prediction by ZEFSAII (Michael W. Deem and Ramdas Pophale) SiO2 
 PCOD8060698
Probable space group: P 2/M
;
_chemical_formula_sum "Si O2"
_cell_formula_units_Z 28
_cell_length_a 18.238641
_cell_length_b 9.154034
_cell_length_c 14.971474
_cell_angle_alpha 90.000000
_cell_angle_beta 38.842406
_cell_angle_gamma 90.000000
_cell_volume 1567.696781
_symmetry_space_group_name_H-M "P 2/M"
_symmetry_group_IT_number 10
_symmetry_cell_setting 'monoclinic'
loop_
_space_group_symop_operation_xyz
x,y,z
-x,y,-z
-x,-y,-z
x,-y,z
loop_
_atom_site_type_symbol
_atom_site_label
_atom_site_fract_x
_atom_site_fract_y
_atom_site_fract_z
Si Si1 0.161828 0.667431 0.691312
Si Si2 0.862616 0.835260 0.114431
Si Si3 0.127138 0.831214 0.401168
Si Si4 0.894239 0.328593 0.910132
Si Si5 0.748870 0.170211 0.900062
Si Si6 0.516647 0.328572 0.087270
Si Si7 0.725911 0.668670 0.598060
O O1 0.165540 0.500000 0.719460
O O2 0.199198 0.766006 0.740010
O O3 0.255387 0.698835 0.524622
O O4 0.032195 0.704906 0.779003
O O5 0.816536 0.000000 0.144512
O O6 0.832190 0.739665 0.056422
O O7 0.000000 0.832144 0.000000
O O8 0.214294 0.804393 0.236783
O O9 0.175201 0.753578 0.442695
O O10 0.000000 0.764775 0.500000
O O11 0.114269 0.000000 0.437772
O O12 0.867040 0.500000 0.933486
O O13 0.841972 0.251845 0.873113
O O14 0.746365 0.000000 0.927996
O O15 0.621204 0.239050 0.033109
O O16 0.543653 0.500000 0.070399
O O17 0.402887 0.280520 0.251039
O O18 0.500000 0.283720 0.000000
O O19 0.743452 0.500000 0.605091
#
# Coordination Sequence:
#
# PCOD8060698 Si02
#       7
#     4   4   4   4   4   4   4
#     4   9  18  32  51  78 107 135 169 208 254 305
#     4   9  17  30  50  76 106 138 169 203 248 305
#     4  10  21  34  48  71 104 137 166 204 256 307
#     4  10  19  32  52  77 106 137 169 208 254 305
#     4  11  22  34  51  74 102 135 173 215 256 303
#     4  10  20  36  55  73  97 133 178 219 256 299
#     4  10  20  34  53  75 100 133 173 215 252 297
#
# _framework density 17.860596999999999
#
# number of rings (size 3 to 8) (size 9 to 14) (size 15 to 20)
#    0.000    2.143    1.429    2.143    0.000    4.571 
#    0.000    0.000    0.000    0.857    0.000    6.000 
#    0.000    0.000    0.000    0.000    0.000    0.000 
#
# Total GULP energy -347282.013183 kJ/mol
# GULP energy per Si atom -12402.929042 kJ/mol
# Density = 1.781994 g / cm^3
# Si number density = 17.860597 Si / 1000 Ang^3
#
#
#
# Elastic Constant Matrix: (Units=GPa)
#
#
# Indices 1 2 3 4 5 6 
#
# 1 21.1752 20.4528 12.5614 0.0000 2.7005 0.0000
# 2 20.4528 75.7197 29.7695 0.0000 4.6205 0.0000
# 3 12.5614 29.7695 99.3912 0.0000 1.9585 0.0000
# 4 0.0000 0.0000 0.0000 18.2442 0.0000 -1.6746
# 5 2.7005 4.6205 1.9585 0.0000 25.5309 0.0000
# 6 0.0000 0.0000 0.0000 -1.6746 0.0000 30.2051
#
#
#
# Elastic Compliance Matrix: (Units=1/GPa)
#
#
# Indices 1 2 3 4 5 6 
#
# 1 0.065211 -0.016067 -0.003356 0.000000 -0.003732 0.000000
# 2 -0.016067 0.019073 -0.003653 0.000000 -0.001472 0.000000
# 3 -0.003356 -0.003653 0.011577 0.000000 0.000128 0.000000
# 4 0.000000 0.000000 0.000000 0.055092 0.000000 0.003054
# 5 -0.003732 -0.001472 0.000128 0.000000 0.039820 0.000000
# 6 0.000000 0.000000 0.000000 0.003054 0.000000 0.033276
#
#
# Mechanical properties :
#
#
# Convention : Reuss Voigt Hill
#
# Bulk Modulus (GPa) = 20.11719 35.76148 27.93933
# Shear Modulus (GPa) = 17.43564 23.69621 20.56592
#
# Velocity S-wave (km/s) = 3.12782 3.64638 3.39701
# Velocity P-wave (km/s) = 4.93277 6.14770 5.57344
#
# Compressibility (1/GPa) = 0.04970874
#
# Stress axis : x y z
#
# Youngs Moduli (GPa) = 15.33495 52.43145 86.37852
#
# Poissons Ratio (x) = 0.84242 0.28985
# Poissons Ratio (y) = 0.24639 0.31554
# Poissons Ratio (z) = 0.05146 0.19153
#
# Static dielectric constant tensor:
#      x y z
#    x 3.092080 0.000000 0.117440 
#    y 0.000000 3.349510 0.000000 
#    z 0.117440 0.000000 3.345730 
# 
# 
# High freq. dielectric constant tensor:
#      x y z
#    x 1.673030 0.000000 0.015000 
#    y 0.000000 1.696180 0.000000 
#    z 0.015000 0.000000 1.685450 
# 
# From -- ./inp_files/48788.got.cif
#   From: 2010.06.25/outbox.cif.g09.slc.cpg/sg10_25_cif.got.tgz:48788.got - 2010.06.27 22:07:45.
