data_PCOD8060286
_publ_section_title
;
Structure prediction by ZEFSAII (Michael W. Deem and Ramdas Pophale) SiO2 
 PCOD8060286
Probable space group: P 2/M
;
_chemical_formula_sum "Si O2"
_cell_formula_units_Z 26
_cell_length_a 11.585847
_cell_length_b 14.017470
_cell_length_c 8.282437
_cell_angle_alpha 90.000000
_cell_angle_beta 82.516571
_cell_angle_gamma 90.000000
_cell_volume 1333.646254
_symmetry_space_group_name_H-M "P 2/M"
_symmetry_group_IT_number 10
_symmetry_cell_setting 'monoclinic'
loop_
_space_group_symop_operation_xyz
x,y,z
-x,y,-z
-x,-y,-z
x,-y,z
loop_
_atom_site_type_symbol
_atom_site_label
_atom_site_fract_x
_atom_site_fract_y
_atom_site_fract_z
Si Si1 0.113253 0.262169 0.246909
Si Si2 0.947008 0.893357 0.330965
Si Si3 0.806442 0.395468 0.040476
Si Si4 0.247966 0.230285 0.520066
Si Si5 0.454758 0.390655 0.836017
Si Si6 0.088229 0.392569 0.649588
Si Si7 0.500000 0.714622 0.500000
O O1 0.215752 0.217389 0.337311
O O2 0.027646 0.175815 0.206655
O O3 0.036001 0.339795 0.364913
O O4 0.173648 0.309885 0.084803
O O5 0.816608 0.850220 0.360518
O O6 0.000000 0.892080 0.500000
O O7 0.943613 0.000000 0.258943
O O8 0.804657 0.500000 0.954201
O O9 0.683503 0.377411 0.150225
O O10 0.907391 0.395228 0.155996
O O11 0.202228 0.336270 0.570499
O O12 0.385074 0.219374 0.526725
O O13 0.494435 0.500000 0.822892
O O14 0.510548 0.344595 0.664860
O O15 0.500000 0.346740 0.000000
O O16 0.089451 0.500000 0.578251
#
# Coordination Sequence:
#
# PCOD8060286 Si02
#       7
#     4   4   4   4   4   4   2
#     4  10  19  31  52  79 102 135 173 217 269 328
#     4   8  16  34  57  80 106 132 166 217 276 337
#     4  10  19  32  47  72 107 143 178 212 262 315
#     4  10  21  33  51  78 103 134 180 221 267 319
#     4  10  21  35  51  73 106 152 197 229 263 309
#     4  10  19  32  48  71 105 142 174 211 263 316
#     4  12  21  36  55  76 108 144 186 236 270 312
#
# _framework density 19.495424
#
# number of rings (size 3 to 8) (size 9 to 14) (size 15 to 20)
#    0.000    2.154    1.538    3.462    0.000    3.692 
#    0.000    0.385    0.000    7.385    0.000    0.000 
#    0.000    6.769    0.000    0.000    0.000    0.000 
#
# Total GULP energy -322261.396854 kJ/mol
# GULP energy per Si atom -12394.669110 kJ/mol
# Density = 1.945105 g / cm^3
# Si number density = 19.495424 Si / 1000 Ang^3
#
#
#
# Elastic Constant Matrix: (Units=GPa)
#
#
# Indices 1 2 3 4 5 6 
#
# 1 109.3649 31.4495 14.1929 0.0000 4.0671 0.0000
# 2 31.4495 117.2311 16.1232 0.0000 -14.6807 0.0000
# 3 14.1929 16.1232 77.4418 0.0000 -0.6844 0.0000
# 4 0.0000 0.0000 0.0000 9.5227 0.0000 -6.9373
# 5 4.0671 -14.6807 -0.6844 0.0000 25.0360 0.0000
# 6 0.0000 0.0000 0.0000 -6.9373 0.0000 16.2637
#
#
#
# Elastic Compliance Matrix: (Units=1/GPa)
#
#
# Indices 1 2 3 4 5 6 
#
# 1 0.010311 -0.003025 -0.001291 0.000000 -0.003484 0.000000
# 2 -0.003025 0.010372 -0.001547 0.000000 0.006531 0.000000
# 3 -0.001291 -0.001547 0.013469 0.000000 -0.000330 0.000000
# 4 0.000000 0.000000 0.000000 0.152356 0.000000 0.064988
# 5 -0.003484 0.006531 -0.000330 0.000000 0.044329 0.000000
# 6 0.000000 0.000000 0.000000 0.064988 0.000000 0.089207
#
#
# Mechanical properties :
#
#
# Convention : Reuss Voigt Hill
#
# Bulk Modulus (GPa) = 44.59133 47.50767 46.04950
# Shear Modulus (GPa) = 14.73860 26.31596 20.52728
#
# Velocity S-wave (km/s) = 2.75253 3.67802 3.24841
# Velocity P-wave (km/s) = 5.74668 6.51603 6.14341
#
# Compressibility (1/GPa) = 0.02242588
#
# Stress axis : x y z
#
# Youngs Moduli (GPa) = 96.98768 96.41032 74.24603
#
# Poissons Ratio (x) = 0.29162 0.09583
# Poissons Ratio (y) = 0.29337 0.11489
# Poissons Ratio (z) = 0.12518 0.14919
#
# Static dielectric constant tensor:
#      x y z
#    x 3.525870 0.000000 0.131010 
#    y 0.000000 3.471350 0.000000 
#    z 0.131010 0.000000 3.410060 
# 
# 
# High freq. dielectric constant tensor:
#      x y z
#    x 1.757040 0.000000 0.006560 
#    y 0.000000 1.721960 0.000000 
#    z 0.006560 0.000000 1.751970 
# 
# From -- ./inp_files/24618.got.cif
#   From: 2010.06.25/outbox.cif.g09.slc.cpg/sg10_13_cif.got.tgz:24618.got - 2010.06.27 22:07:45.
