data_PCOD8060088
_publ_section_title
;
Structure prediction by ZEFSAII (Michael W. Deem and Ramdas Pophale) SiO2 
 PCOD8060088
Probable space group: P 2/M
;
_chemical_formula_sum "Si O2"
_cell_formula_units_Z 28
_cell_length_a 26.481316
_cell_length_b 11.043065
_cell_length_c 25.970394
_cell_angle_alpha 90.000000
_cell_angle_beta 168.711023
_cell_angle_gamma 90.000000
_cell_volume 1486.709449
_symmetry_space_group_name_H-M "P 2/M"
_symmetry_group_IT_number 10
_symmetry_cell_setting 'monoclinic'
loop_
_space_group_symop_operation_xyz
x,y,z
-x,y,-z
-x,-y,-z
x,-y,z
loop_
_atom_site_type_symbol
_atom_site_label
_atom_site_fract_x
_atom_site_fract_y
_atom_site_fract_z
Si Si1 0.001589 0.222471 0.617626
Si Si2 0.998278 0.641416 0.712779
Si Si3 0.497883 0.140236 0.936902
Si Si4 0.999304 0.000000 0.689817
Si Si5 0.999984 0.644692 0.941505
Si Si6 0.501641 0.733396 0.728564
Si Si7 0.499246 0.000000 0.257838
Si Si8 0.500058 0.359375 0.385719
O O1 0.000511 0.342447 0.652581
O O2 0.999204 0.116575 0.655503
O O3 0.751770 0.213337 0.331684
O O4 0.254439 0.213479 0.835219
O O5 0.998869 0.500000 0.726384
O O6 0.745790 0.703028 0.484342
O O7 0.247528 0.703772 0.986999
O O8 0.497473 0.000000 0.916833
O O9 0.500000 0.141767 0.000000
O O10 0.747341 0.000000 0.471172
O O11 0.250627 0.000000 0.974622
O O12 0.999991 0.500000 0.939738
O O13 0.752391 0.698990 0.664268
O O14 0.247593 0.698990 0.159445
O O15 0.000000 0.691851 0.000000
O O16 0.499656 0.655549 0.675072
O O17 0.500579 0.874887 0.709662
O O18 0.500073 0.500000 0.398713
#
# Coordination Sequence:
#
# PCOD8060088 Si02
#       8
#     4   4   4   2   4   4   2   4
#     4  12  21  36  59  79 112 146 179 226 275 328
#     4  12  25  39  58  83 114 153 191 224 266 334
#     4  11  22  35  56  86 113 137 175 230 285 328
#     4  12  20  36  57  84 112 148 185 226 280 322
#     4   9  17  30  49  74 103 138 183 229 273 322
#     4  12  23  38  57  83 117 150 186 231 276 331
#     4  12  22  38  56  84 114 148 188 230 276 320
#     4  10  19  31  49  75 109 144 176 221 279 328
#
# _framework density 18.833538999999998
#
# number of rings (size 3 to 8) (size 9 to 14) (size 15 to 20)
#    0.000    0.857    4.286    4.714    0.000    4.000 
#    0.000    0.000    0.000    2.571    0.000    3.000 
#    0.000    0.000    0.000    0.000    0.000    0.000 
#
# Total GULP energy -347172.022688 kJ/mol
# GULP energy per Si atom -12399.000810 kJ/mol
# Density = 1.879067 g / cm^3
# Si number density = 18.833539 Si / 1000 Ang^3
#
#
#
# Elastic Constant Matrix: (Units=GPa)
#
#
# Indices 1 2 3 4 5 6 
#
# 1 102.2375 3.2113 58.6933 0.0000 -1.0979 0.0000
# 2 3.2113 68.0410 16.6460 0.0000 2.1851 0.0000
# 3 58.6933 16.6460 179.6276 0.0000 6.2634 0.0000
# 4 0.0000 0.0000 0.0000 -8.0409 0.0000 -2.6095
# 5 -1.0979 2.1851 6.2634 0.0000 25.7409 0.0000
# 6 0.0000 0.0000 0.0000 -2.6095 0.0000 20.0716
#
#
#
# Elastic Compliance Matrix: (Units=1/GPa)
#
#
# Indices 1 2 3 4 5 6 
#
# 1 0.012105 0.000370 -0.004041 0.000000 0.001468 0.000000
# 2 0.000370 0.015072 -0.001486 0.000000 -0.000902 0.000000
# 3 -0.004041 -0.001486 0.007087 0.000000 -0.001771 0.000000
# 4 0.000000 0.000000 0.000000 -0.119330 0.000000 -0.015514
# 5 0.001468 -0.000902 -0.001771 0.000000 0.039419 0.000000
# 6 0.000000 0.000000 0.000000 -0.015514 0.000000 0.047805
#
#
# Mechanical properties :
#
#
# Convention : Reuss Voigt Hill
#
# Bulk Modulus (GPa) = 41.75323 56.33412 49.04368
# Shear Modulus (GPa) = 244.44266 25.64469 135.04367
#
# Velocity S-wave (km/s) = 11.40495 3.69406 8.47700
# Velocity P-wave (km/s) = 13.98743 6.94055 11.04128
#
# Compressibility (1/GPa) = 0.02395024
#
# Stress axis : x y z
#
# Youngs Moduli (GPa) = 82.61004 66.34768 141.10594
#
# Poissons Ratio (x) = -0.02456 0.57018
# Poissons Ratio (y) = -0.03058 0.20971
# Poissons Ratio (z) = 0.33381 0.09861
#
# Static dielectric constant tensor:
#      x y z
#    x 3.419340 0.000000 0.000430 
#    y 0.000000 3.348950 0.000000 
#    z 0.000430 0.000000 3.574520 
# 
# 
# High freq. dielectric constant tensor:
#      x y z
#    x 1.730600 0.000000 0.003990 
#    y 0.000000 1.691080 0.000000 
#    z 0.003990 0.000000 1.760240 
# 
# From -- ./inp_files/94018.got.cif
#   From: 2010.06.25/outbox.cif.g09.slc.cpg/sg10_48_cif.got.tgz:94018.got - 2010.06.27 22:07:45.
