data_PCOD8060560
_publ_section_title
;
Structure prediction by ZEFSAII (Michael W. Deem and Ramdas Pophale) SiO2 
 PCOD8060560
Probable space group: P 2/M
;
_chemical_formula_sum "Si O2"
_cell_formula_units_Z 32
_cell_length_a 24.006174
_cell_length_b 8.754720
_cell_length_c 12.480261
_cell_angle_alpha 90.000000
_cell_angle_beta 134.508623
_cell_angle_gamma 90.000000
_cell_volume 1870.538675
_symmetry_space_group_name_H-M "P 2/M"
_symmetry_group_IT_number 10
_symmetry_cell_setting 'monoclinic'
loop_
_space_group_symop_operation_xyz
x,y,z
-x,y,-z
-x,-y,-z
x,-y,z
loop_
_atom_site_type_symbol
_atom_site_label
_atom_site_fract_x
_atom_site_fract_y
_atom_site_fract_z
Si Si1 0.589410 0.319860 0.946179
Si Si2 0.312524 0.320132 0.712459
Si Si3 0.836675 0.818877 0.401619
Si Si4 0.424758 0.818370 0.694414
Si Si5 0.992471 0.831418 0.362939
Si Si6 0.686199 0.820681 0.884700
Si Si7 0.576660 0.179122 0.547981
Si Si8 0.836930 0.679113 0.168419
O O1 0.578971 0.500000 0.921322
O O2 0.505587 0.243689 0.851069
O O3 0.629927 0.255706 0.895319
O O4 0.641257 0.275321 0.118059
O O5 0.306362 0.500000 0.689055
O O6 0.226072 0.248710 0.601162
O O7 0.353366 0.247413 0.665261
O O8 0.922674 0.776212 0.565152
O O9 0.823526 0.745723 0.267877
O O10 0.828070 0.000000 0.377669
O O11 0.413001 0.755507 0.557586
O O12 0.424596 0.000000 0.700886
O O13 0.000000 0.839332 0.500000
O O14 0.922808 0.717111 0.236522
O O15 0.971963 0.000000 0.290488
O O16 0.652692 0.784165 0.721622
O O17 0.688593 0.000000 0.911604
O O18 0.772700 0.751156 0.003410
O O19 0.500000 0.253283 0.500000
O O20 0.562432 0.000000 0.518732
O O21 0.824798 0.500000 0.157550
#
# Coordination Sequence:
#
# PCOD8060560 Si02
#       8
#     4   4   4   4   4   4   4   4
#     4  11  22  35  50  73 105 136 169 211 258 303
#     4  11  23  36  50  73 108 139 170 212 255 302
#     4  10  19  32  51  73 100 136 176 208 244 299
#     4  11  22  37  56  74  97 133 178 217 255 305
#     4   8  16  30  47  70  99 133 171 207 242 295
#     4  11  20  33  55  75  99 135 174 213 256 302
#     4   9  18  35  55  76  97 125 171 223 261 295
#     4  11  20  30  46  74 108 136 166 206 254 306
#
# _framework density 17.107372000000002
#
# number of rings (size 3 to 8) (size 9 to 14) (size 15 to 20)
#    0.000    1.750    2.500    4.125    0.000    5.750 
#    0.000    3.125    0.000    0.000    0.000    0.875 
#    0.000    7.000    0.000    0.000    0.000    0.000 
#
# Total GULP energy -396808.986766 kJ/mol
# GULP energy per Si atom -12400.280836 kJ/mol
# Density = 1.706843 g / cm^3
# Si number density = 17.107372 Si / 1000 Ang^3
#
#
#
# Elastic Constant Matrix: (Units=GPa)
#
#
# Indices 1 2 3 4 5 6 
#
# 1 128.4353 44.2956 56.2964 0.0000 18.6623 0.0000
# 2 44.2956 82.6645 35.9630 0.0000 6.9919 0.0000
# 3 56.2964 35.9630 62.9111 0.0000 15.6633 0.0000
# 4 0.0000 0.0000 0.0000 10.5220 0.0000 6.4745
# 5 18.6623 6.9919 15.6633 0.0000 30.6701 0.0000
# 6 0.0000 0.0000 0.0000 6.4745 0.0000 23.0667
#
#
#
# Elastic Compliance Matrix: (Units=1/GPa)
#
#
# Indices 1 2 3 4 5 6 
#
# 1 0.013378 -0.002689 -0.009807 0.000000 -0.002519 0.000000
# 2 -0.002689 0.016679 -0.007549 0.000000 0.001689 0.000000
# 3 -0.009807 -0.007549 0.031016 0.000000 -0.008152 0.000000
# 4 0.000000 0.000000 0.000000 0.114880 0.000000 -0.032245
# 5 -0.002519 0.001689 -0.008152 0.000000 0.037916 0.000000
# 6 0.000000 0.000000 0.000000 -0.032245 0.000000 0.052403
#
#
# Mechanical properties :
#
#
# Convention : Reuss Voigt Hill
#
# Bulk Modulus (GPa) = 47.65654 60.79121 54.22388
# Shear Modulus (GPa) = 15.95620 22.01549 18.98584
#
# Velocity S-wave (km/s) = 3.05734 3.59123 3.33499
# Velocity P-wave (km/s) = 6.35460 7.26692 6.82602
#
# Compressibility (1/GPa) = 0.02098348
#
# Stress axis : x y z
#
# Youngs Moduli (GPa) = 74.74849 59.95468 32.24097
#
# Poissons Ratio (x) = 0.16122 0.31620
# Poissons Ratio (y) = 0.20100 0.24338
# Poissons Ratio (z) = 0.73308 0.45259
#
# Static dielectric constant tensor:
#      x y z
#    x 3.334690 0.000000 0.292670 
#    y 0.000000 3.197920 0.000000 
#    z 0.292670 0.000000 3.345170 
# 
# 
# High freq. dielectric constant tensor:
#      x y z
#    x 1.650630 0.000000 0.025400 
#    y 0.000000 1.664170 0.000000 
#    z 0.025400 0.000000 1.641380 
# 
# From -- ./inp_files/56465.got.cif
#   From: 2010.06.25/outbox.cif.g09.slc.cpg/sg10_29_cif.got.tgz:56465.got - 2010.06.27 22:07:45.
