data_PCOD8060896
_publ_section_title
;
Structure prediction by ZEFSAII (Michael W. Deem and Ramdas Pophale) SiO2 
 PCOD8060896
Probable space group: P 2/M
;
_chemical_formula_sum "Si O2"
_cell_formula_units_Z 24
_cell_length_a 20.632365
_cell_length_b 13.879270
_cell_length_c 23.672650
_cell_angle_alpha 90.000000
_cell_angle_beta 169.078143
_cell_angle_gamma 90.000000
_cell_volume 1284.408061
_symmetry_space_group_name_H-M "P 2/M"
_symmetry_group_IT_number 10
_symmetry_cell_setting 'monoclinic'
loop_
_space_group_symop_operation_xyz
x,y,z
-x,y,-z
-x,-y,-z
x,-y,z
loop_
_atom_site_type_symbol
_atom_site_label
_atom_site_fract_x
_atom_site_fract_y
_atom_site_fract_z
Si Si1 0.605719 0.389125 0.653811
Si Si2 0.733361 0.777265 0.072233
Si Si3 0.233342 0.107744 0.572220
Si Si4 0.266647 0.222735 0.427777
Si Si5 0.605718 0.389125 0.153810
Si Si6 0.766664 0.892256 0.927789
O O1 0.500000 0.363243 0.500000
O O2 0.528635 0.500000 0.602425
O O3 0.377681 0.327597 0.501778
O O4 0.000000 0.363227 0.000000
O O5 0.896424 0.836391 0.263542
O O6 0.000006 0.761004 0.250007
O O7 0.400752 0.836360 0.767872
O O8 0.622320 0.672402 0.998223
O O9 0.500003 0.101690 0.750004
O O10 0.130379 0.000000 0.503600
O O11 0.599254 0.163640 0.732136
O O12 0.103582 0.163608 0.236466
O O13 0.528617 0.500000 0.102406
O O14 0.000000 0.363231 0.500000
O O15 0.500000 0.363237 0.000000
O O16 0.869631 0.000000 0.996413
#
# Coordination Sequence:
#
# PCOD8060896 Si02
#       6
#     4   4   4   4   4   4
#     4  10  21  37  55  74 101 138 171 203 255 314
#     4  10  19  32  54  80 102 130 171 215 250 287
#     4   9  17  30  50  77 106 134 166 205 251 301
#     4  10  19  32  54  80 102 130 171 215 250 287
#     4  10  21  37  55  74 101 138 171 203 255 314
#     4   9  17  30  50  77 106 134 166 205 251 301
#
# _framework density 18.685649000000002
#
# number of rings (size 3 to 8) (size 9 to 14) (size 15 to 20)
#    0.000    2.333    0.000    3.000    0.000    4.667 
#    0.000    0.000    0.000   32.000    0.000    0.000 
#    0.000    0.000    0.000    0.000    0.000    0.000 
#
# Total GULP energy -297690.532219 kJ/mol
# GULP energy per Si atom -12403.772176 kJ/mol
# Density = 1.864312 g / cm^3
# Si number density = 18.685649 Si / 1000 Ang^3
#
#
#
# Elastic Constant Matrix: (Units=GPa)
#
#
# Indices 1 2 3 4 5 6 
#
# 1 61.6714 63.7556 61.0456 0.0000 -16.4424 0.0000
# 2 63.7556 152.0905 68.7320 0.0000 -4.3794 0.0000
# 3 61.0456 68.7320 129.2510 0.0000 -42.4402 0.0000
# 4 0.0000 0.0000 0.0000 53.2618 0.0000 -16.5010
# 5 -16.4424 -4.3794 -42.4402 0.0000 32.3806 0.0000
# 6 0.0000 0.0000 0.0000 -16.5010 0.0000 34.3120
#
#
#
# Elastic Compliance Matrix: (Units=1/GPa)
#
#
# Indices 1 2 3 4 5 6 
#
# 1 0.041235 -0.011720 -0.012093 0.000000 0.003504 0.000000
# 2 -0.011720 0.013576 -0.005329 0.000000 -0.011099 0.000000
# 3 -0.012093 -0.005329 0.024628 0.000000 0.025418 0.000000
# 4 0.000000 0.000000 0.000000 0.022062 0.000000 0.010610
# 5 0.003504 -0.011099 0.025418 0.000000 0.064475 0.000000
# 6 0.000000 0.000000 0.000000 0.010610 0.000000 0.034247
#
#
# Mechanical properties :
#
#
# Convention : Reuss Voigt Hill
#
# Bulk Modulus (GPa) = 47.26505 81.11990 64.19248
# Shear Modulus (GPa) = 18.82827 33.95620 26.39223
#
# Velocity S-wave (km/s) = 3.17777 4.26753 3.76231
# Velocity P-wave (km/s) = 6.23009 8.23344 7.30081
#
# Compressibility (1/GPa) = 0.02115728
#
# Stress axis : x y z
#
# Youngs Moduli (GPa) = 24.25133 73.65707 40.60419
#
# Poissons Ratio (x) = 0.86324 0.49101
# Poissons Ratio (y) = 0.28422 0.21637
# Poissons Ratio (z) = 0.29326 0.39250
#
# Static dielectric constant tensor:
#      x y z
#    x 3.152890 0.000000 -0.366040 
#    y 0.000000 3.529670 0.000000 
#    z -0.366040 0.000000 3.573080 
# 
# 
# High freq. dielectric constant tensor:
#      x y z
#    x 1.703350 0.000000 -0.027020 
#    y 0.000000 1.736360 0.000000 
#    z -0.027020 0.000000 1.734360 
# 
# From -- ./inp_files/7221.got.cif
#   From: 2010.06.25/outbox.cif.g09.slc.cpg/sg10_4_cif.got.tgz:7221.got - 2010.06.27 22:07:45.
