data_PCOD8060091
_publ_section_title
;
Structure prediction by ZEFSAII (Michael W. Deem and Ramdas Pophale) SiO2 
 PCOD8060091
Probable space group: P 2/M
;
_chemical_formula_sum "Si O2"
_cell_formula_units_Z 32
_cell_length_a 22.356303
_cell_length_b 9.022453
_cell_length_c 15.049435
_cell_angle_alpha 90.000000
_cell_angle_beta 147.325736
_cell_angle_gamma 90.000000
_cell_volume 1638.806938
_symmetry_space_group_name_H-M "P 2/M"
_symmetry_group_IT_number 10
_symmetry_cell_setting 'monoclinic'
loop_
_space_group_symop_operation_xyz
x,y,z
-x,y,-z
-x,-y,-z
x,-y,z
loop_
_atom_site_type_symbol
_atom_site_label
_atom_site_fract_x
_atom_site_fract_y
_atom_site_fract_z
Si Si1 0.106376 0.171352 0.926046
Si Si2 0.284589 0.175292 0.468710
Si Si3 0.212007 0.327623 0.702823
Si Si4 0.865505 0.829272 0.556050
Si Si5 0.875113 0.326332 0.870312
Si Si6 0.236945 0.670689 0.938611
Si Si7 0.577467 0.841186 0.018720
Si Si8 0.490579 0.328175 0.228025
O O1 0.171533 0.219764 0.919855
O O2 0.976249 0.198610 0.750656
O O3 0.131998 0.000000 0.977354
O O4 0.149151 0.269520 0.060998
O O5 0.236961 0.217288 0.507323
O O6 0.205509 0.241947 0.296076
O O7 0.408003 0.237220 0.602716
O O8 0.287658 0.000000 0.461506
O O9 0.232354 0.500000 0.712887
O O10 0.121922 0.269370 0.518636
O O11 0.191105 0.296963 0.781325
O O12 0.316578 0.232299 0.804044
O O13 0.854979 0.000000 0.513937
O O14 0.850396 0.500000 0.834502
O O15 0.000000 0.287369 0.000000
O O16 0.213287 0.500000 0.933437
O O17 0.368319 0.705104 0.115276
O O18 0.516468 0.720936 0.882326
O O19 0.605137 0.000000 0.004249
O O20 0.500000 0.887026 0.000000
O O21 0.520142 0.500000 0.271950
#
# Coordination Sequence:
#
# PCOD8060091 Si02
#       8
#     4   4   4   4   4   4   4   4
#     4  11  23  40  63  88 116 154 196 242 293 351
#     4  11  22  38  61  89 124 156 190 241 296 350
#     4  10  21  35  54  80 113 155 199 244 289 339
#     4  10  22  37  55  85 122 155 191 241 297 347
#     4  11  23  40  64  92 120 152 190 234 292 355
#     4   9  21  41  59  81 117 158 199 245 291 339
#     4  10  19  31  49  75 110 151 194 240 293 346
#     4  10  21  37  57  83 116 153 196 242 290 344
#
# _framework density 19.526399999999999
#
# number of rings (size 3 to 8) (size 9 to 14) (size 15 to 20)
#    0.000    1.750    1.250    3.750    0.000   10.000 
#    0.000    3.125    0.000    3.750    0.000    0.000 
#    0.000    0.000    0.000    0.000    0.000    0.000 
#
# Total GULP energy -396619.657170 kJ/mol
# GULP energy per Si atom -12394.364287 kJ/mol
# Density = 1.948196 g / cm^3
# Si number density = 19.526400 Si / 1000 Ang^3
#
#
#
# Elastic Constant Matrix: (Units=GPa)
#
#
# Indices 1 2 3 4 5 6 
#
# 1 72.8180 41.0673 22.1136 0.0000 -9.4349 0.0000
# 2 41.0673 91.7567 39.3391 0.0000 -3.5758 0.0000
# 3 22.1136 39.3391 77.9831 0.0000 -11.7936 0.0000
# 4 0.0000 0.0000 0.0000 44.3082 0.0000 -1.3671
# 5 -9.4349 -3.5758 -11.7936 0.0000 23.1504 0.0000
# 6 0.0000 0.0000 0.0000 -1.3671 0.0000 31.1440
#
#
#
# Elastic Compliance Matrix: (Units=1/GPa)
#
#
# Indices 1 2 3 4 5 6 
#
# 1 0.019323 -0.008249 -0.000346 0.000000 0.006424 0.000000
# 2 -0.008249 0.017479 -0.007127 0.000000 -0.004293 0.000000
# 3 -0.000346 -0.007127 0.017692 0.000000 0.007771 0.000000
# 4 0.000000 0.000000 0.000000 0.022600 0.000000 0.000992
# 5 0.006424 -0.004293 0.007771 0.000000 0.049110 0.000000
# 6 0.000000 0.000000 0.000000 0.000992 0.000000 0.032152
#
#
# Mechanical properties :
#
#
# Convention : Reuss Voigt Hill
#
# Bulk Modulus (GPa) = 43.38810 49.73308 46.56059
# Shear Modulus (GPa) = 25.31839 29.05637 27.18738
#
# Velocity S-wave (km/s) = 3.60477 3.86172 3.73545
# Velocity P-wave (km/s) = 6.29240 6.73860 6.51932
#
# Compressibility (1/GPa) = 0.02304779
#
# Stress axis : x y z
#
# Youngs Moduli (GPa) = 51.75213 57.21153 56.52218
#
# Poissons Ratio (x) = 0.47196 0.01957
# Poissons Ratio (y) = 0.42693 0.40286
# Poissons Ratio (z) = 0.01792 0.40777
#
# Static dielectric constant tensor:
#      x y z
#    x 3.763780 0.000000 0.405850 
#    y 0.000000 3.615140 0.000000 
#    z 0.405850 0.000000 3.979990 
# 
# 
# High freq. dielectric constant tensor:
#      x y z
#    x 1.741680 0.000000 0.000390 
#    y 0.000000 1.776440 0.000000 
#    z 0.000390 0.000000 1.762610 
# 
# From -- ./inp_files/71333.got.cif
#   From: 2010.06.25/outbox.cif.g09.slc.cpg/sg10_36_cif.got.tgz:71333.got - 2010.06.27 22:07:45.
