data_PCOD8060149
_publ_section_title
;
Structure prediction by ZEFSAII (Michael W. Deem and Ramdas Pophale) SiO2 
 PCOD8060149
Probable space group: P 2/M
;
_chemical_formula_sum "Si O2"
_cell_formula_units_Z 24
_cell_length_a 23.704391
_cell_length_b 9.319116
_cell_length_c 7.941777
_cell_angle_alpha 90.000000
_cell_angle_beta 48.019702
_cell_angle_gamma 90.000000
_cell_volume 1304.154622
_symmetry_space_group_name_H-M "P 2/M"
_symmetry_group_IT_number 10
_symmetry_cell_setting 'monoclinic'
loop_
_space_group_symop_operation_xyz
x,y,z
-x,y,-z
-x,-y,-z
x,-y,z
loop_
_atom_site_type_symbol
_atom_site_label
_atom_site_fract_x
_atom_site_fract_y
_atom_site_fract_z
Si Si1 0.007293 0.846783 0.294959
Si Si2 0.165515 0.830684 0.833644
Si Si3 0.686109 0.670358 0.378403
Si Si4 0.581113 0.329881 0.278012
Si Si5 0.581305 0.329771 0.897377
Si Si6 0.919437 0.662889 0.254804
O O1 0.000000 0.882011 0.500000
O O2 0.940105 0.733676 0.391461
O O3 0.995483 0.000000 0.220258
O O4 0.092096 0.790962 0.090642
O O5 0.235974 0.756957 0.784345
O O6 0.149668 0.752932 0.686647
O O7 0.179845 0.000000 0.782086
O O8 0.700756 0.500000 0.350683
O O9 0.642346 0.717780 0.295567
O O10 0.642633 0.719576 0.635779
O O11 0.500000 0.267660 0.500000
O O12 0.576306 0.500000 0.281921
O O13 0.600841 0.273191 0.048549
O O14 0.577315 0.500000 0.908580
O O15 0.500000 0.268239 0.000000
O O16 0.892246 0.500000 0.328707
O O17 0.000000 0.678806 0.000000
#
# Coordination Sequence:
#
# PCOD8060149 Si02
#       6
#     4   4   4   4   4   4
#     4   9  18  34  55  76 100 135 175 209 249 309
#     4  10  20  35  53  72 101 138 170 205 257 315
#     4  10  19  31  50  75 106 135 167 218 264 304
#     4   9  15  26  47  75 102 131 168 212 261 308
#     4   9  15  26  47  75 102 130 169 213 259 310
#     4   9  17  31  53  77  99 125 163 209 252 298
#
# _framework density 18.402726000000001
#
# number of rings (size 3 to 8) (size 9 to 14) (size 15 to 20)
#    0.000    2.667    1.667    1.000    0.000    3.000 
#    3.000    0.000    0.000    1.000    0.000    0.000 
#    0.000    0.000    0.000    0.000    0.000    0.000 
#
# Total GULP energy -297326.619815 kJ/mol
# GULP energy per Si atom -12388.609159 kJ/mol
# Density = 1.836084 g / cm^3
# Si number density = 18.402726 Si / 1000 Ang^3
#
#
#
# Elastic Constant Matrix: (Units=GPa)
#
#
# Indices 1 2 3 4 5 6 
#
# 1 163.0889 58.1874 59.6054 0.0000 0.2305 0.0000
# 2 58.1874 71.7181 21.7451 0.0000 -8.6766 0.0000
# 3 59.6054 21.7451 67.2357 0.0000 9.3626 0.0000
# 4 0.0000 0.0000 0.0000 8.4205 0.0000 -0.4264
# 5 0.2305 -8.6766 9.3626 0.0000 33.8488 0.0000
# 6 0.0000 0.0000 0.0000 -0.4264 0.0000 14.8929
#
#
#
# Elastic Compliance Matrix: (Units=1/GPa)
#
#
# Indices 1 2 3 4 5 6 
#
# 1 0.011520 -0.006859 -0.008048 0.000000 0.000390 0.000000
# 2 -0.006859 0.020619 -0.001384 0.000000 0.005715 0.000000
# 3 -0.008048 -0.001384 0.023399 0.000000 -0.006772 0.000000
# 4 0.000000 0.000000 0.000000 0.118930 0.000000 0.003405
# 5 0.000390 0.005715 -0.006772 0.000000 0.032879 0.000000
# 6 0.000000 0.000000 0.000000 0.003405 0.000000 0.067244
#
#
# Mechanical properties :
#
#
# Convention : Reuss Voigt Hill
#
# Bulk Modulus (GPa) = 43.56288 64.56872 54.06580
# Shear Modulus (GPa) = 15.88189 22.26609 19.07399
#
# Velocity S-wave (km/s) = 2.94090 3.48218 3.22293
# Velocity P-wave (km/s) = 5.93761 7.16451 6.57972
#
# Compressibility (1/GPa) = 0.02295532
#
# Stress axis : x y z
#
# Youngs Moduli (GPa) = 86.80762 48.49801 42.73764
#
# Poissons Ratio (x) = 0.33265 0.34397
# Poissons Ratio (y) = 0.59541 0.05914
# Poissons Ratio (z) = 0.69866 0.06712
#
# Static dielectric constant tensor:
#      x y z
#    x 3.578630 0.000000 0.146950 
#    y 0.000000 3.070710 0.000000 
#    z 0.146950 0.000000 3.286720 
# 
# 
# High freq. dielectric constant tensor:
#      x y z
#    x 1.723940 0.000000 0.004570 
#    y 0.000000 1.678730 0.000000 
#    z 0.004570 0.000000 1.693400 
# 
# From -- ./inp_files/33767.got.cif
#   From: 2010.06.25/outbox.cif.g09.slc.cpg/sg10_17_cif.got.tgz:33767.got - 2010.06.27 22:07:45.
