data_PCOD8060898
_publ_section_title
;
Structure prediction by ZEFSAII (Michael W. Deem and Ramdas Pophale) SiO2 
 PCOD8060898
Probable space group: P 2/M
;
_chemical_formula_sum "Si O2"
_cell_formula_units_Z 28
_cell_length_a 16.355406
_cell_length_b 9.203543
_cell_length_c 13.893718
_cell_angle_alpha 90.000000
_cell_angle_beta 48.381130
_cell_angle_gamma 90.000000
_cell_volume 1563.479441
_symmetry_space_group_name_H-M "P 2/M"
_symmetry_group_IT_number 10
_symmetry_cell_setting 'monoclinic'
loop_
_space_group_symop_operation_xyz
x,y,z
-x,y,-z
-x,-y,-z
x,-y,z
loop_
_atom_site_type_symbol
_atom_site_label
_atom_site_fract_x
_atom_site_fract_y
_atom_site_fract_z
Si Si1 0.830924 0.168259 0.441964
Si Si2 0.389705 0.669417 0.708761
Si Si3 0.796880 0.831437 0.689352
Si Si4 0.375384 0.334812 0.068826
Si Si5 0.067596 0.170342 0.237084
Si Si6 0.363350 0.668560 0.508691
Si Si7 0.717993 0.828018 0.035830
O O1 0.838339 0.194905 0.549979
O O2 0.728129 0.247951 0.478020
O O3 0.945952 0.233195 0.310309
O O4 0.815405 0.000000 0.429099
O O5 0.375003 0.500000 0.744995
O O6 0.351537 0.703070 0.630554
O O7 0.516503 0.715381 0.622460
O O8 0.312670 0.765288 0.836592
O O9 0.688670 0.737045 0.792149
O O10 0.888087 0.775623 0.693950
O O11 0.768593 0.000000 0.730914
O O12 0.335717 0.500000 0.083142
O O13 0.500000 0.330056 0.000000
O O14 0.358609 0.244108 0.984458
O O15 0.050921 0.000000 0.257939
O O16 0.154579 0.210988 0.085675
O O17 0.346350 0.500000 0.502443
O O18 0.699031 0.000000 0.048892
#
# Coordination Sequence:
#
# PCOD8060898 Si02
#       7
#     4   4   4   4   4   4   4
#     4  10  19  32  54  80 105 135 174 217 260 302
#     4   9  19  38  58  74 101 139 172 208 261 319
#     4   9  18  32  51  75 103 138 176 214 254 297
#     4  10  21  34  48  71 105 143 175 206 250 308
#     4   8  16  33  52  74 106 141 172 206 254 310
#     4   9  20  37  55  76 103 136 172 211 260 314
#     4  10  20  34  56  79 101 134 173 215 259 302
#
# _framework density 17.908774999999999
#
# number of rings (size 3 to 8) (size 9 to 14) (size 15 to 20)
#    0.000    2.714    0.000    3.000    2.000    4.571 
#    0.000    5.714    0.000    8.571    0.000    0.000 
#    0.000    0.000    0.000    0.000    0.000    0.000 
#
# Total GULP energy -347101.397462 kJ/mol
# GULP energy per Si atom -12396.478481 kJ/mol
# Density = 1.786801 g / cm^3
# Si number density = 17.908775 Si / 1000 Ang^3
#
#
#
# Elastic Constant Matrix: (Units=GPa)
#
#
# Indices 1 2 3 4 5 6 
#
# 1 86.8321 33.1706 40.2597 0.0000 -14.8892 0.0000
# 2 33.1706 63.7516 45.6920 0.0000 -3.6781 0.0000
# 3 40.2597 45.6920 105.5099 0.0000 -8.2616 0.0000
# 4 0.0000 0.0000 0.0000 12.0410 0.0000 27.8049
# 5 -14.8892 -3.6781 -8.2616 0.0000 20.5074 0.0000
# 6 0.0000 0.0000 0.0000 27.8049 0.0000 -6.4073
#
#
#
# Elastic Compliance Matrix: (Units=1/GPa)
#
#
# Indices 1 2 3 4 5 6 
#
# 1 0.016965 -0.006049 -0.003071 0.000000 0.009995 0.000000
# 2 -0.006049 0.024903 -0.008746 0.000000 -0.003449 0.000000
# 3 -0.003071 -0.008746 0.014600 0.000000 0.002084 0.000000
# 4 0.000000 0.000000 0.000000 0.007536 0.000000 0.032701
# 5 0.009995 -0.003449 0.002084 0.000000 0.056241 0.000000
# 6 0.000000 0.000000 0.000000 0.032701 0.000000 -0.014161
#
#
# Mechanical properties :
#
#
# Convention : Reuss Voigt Hill
#
# Bulk Modulus (GPa) = 48.22717 54.92645 51.57681
# Shear Modulus (GPa) = 33.61821 14.35963 23.98892
#
# Velocity S-wave (km/s) = 4.33736 2.83472 3.66390
# Velocity P-wave (km/s) = 7.21605 6.43823 6.83821
#
# Compressibility (1/GPa) = 0.02073520
#
# Stress axis : x y z
#
# Youngs Moduli (GPa) = 58.94417 40.15566 68.49115
#
# Poissons Ratio (x) = 0.24292 0.21034
# Poissons Ratio (y) = 0.35658 0.59904
# Poissons Ratio (z) = 0.18102 0.35121
#
# Static dielectric constant tensor:
#      x y z
#    x 3.278720 0.000000 -0.172100 
#    y 0.000000 3.271240 0.000000 
#    z -0.172100 0.000000 3.458180 
# 
# 
# High freq. dielectric constant tensor:
#      x y z
#    x 1.685620 0.000000 -0.009650 
#    y 0.000000 1.680350 0.000000 
#    z -0.009650 0.000000 1.697980 
# 
# From -- ./inp_files/48969.got.cif
#   From: 2010.06.25/outbox.cif.g09.slc.cpg/sg10_25_cif.got.tgz:48969.got - 2010.06.27 22:07:45.
