data_PCOD8060389
_publ_section_title
;
Structure prediction by ZEFSAII (Michael W. Deem and Ramdas Pophale) SiO2 
 PCOD8060389
Probable space group: P 2/M
;
_chemical_formula_sum "Si O2"
_cell_formula_units_Z 32
_cell_length_a 21.153656
_cell_length_b 8.828259
_cell_length_c 30.555373
_cell_angle_alpha 90.000000
_cell_angle_beta 160.440455
_cell_angle_gamma 90.000000
_cell_volume 1910.362582
_symmetry_space_group_name_H-M "P 2/M"
_symmetry_group_IT_number 10
_symmetry_cell_setting 'monoclinic'
loop_
_space_group_symop_operation_xyz
x,y,z
-x,y,-z
-x,-y,-z
x,-y,z
loop_
_atom_site_type_symbol
_atom_site_label
_atom_site_fract_x
_atom_site_fract_y
_atom_site_fract_z
Si Si1 0.052724 0.320688 0.717123
Si Si2 0.683555 0.324035 0.592578
Si Si3 0.916222 0.676253 0.105791
Si Si4 0.321809 0.179334 0.504703
Si Si5 0.920507 0.179089 0.016632
Si Si6 0.284549 0.821484 0.203165
Si Si7 0.608151 0.332361 0.116146
Si Si8 0.280174 0.822719 0.943758
O O1 0.037680 0.500000 0.711879
O O2 0.847209 0.248930 0.576795
O O3 0.179913 0.275559 0.757657
O O4 0.142189 0.261484 0.820410
O O5 0.500000 0.273792 0.500000
O O6 0.673358 0.500000 0.572730
O O7 0.695379 0.225449 0.556824
O O8 0.866301 0.287784 0.741021
O O9 0.870722 0.500000 0.081866
O O10 0.872412 0.727252 0.028216
O O11 0.774452 0.771477 0.043454
O O12 0.514723 0.246524 0.651093
O O13 0.312399 0.000000 0.502190
O O14 0.121465 0.237804 0.129247
O O15 0.923429 0.000000 0.028496
O O16 0.760637 0.221105 0.876518
O O17 0.287358 0.000000 0.209733
O O18 0.613550 0.500000 0.140983
O O19 0.500000 0.340592 0.000000
O O20 0.500237 0.219402 0.078541
O O21 0.252673 0.000000 0.920004
#
# Coordination Sequence:
#
# PCOD8060389 Si02
#       8
#     4   4   4   4   4   4   4   4
#     4  10  19  32  47  67  98 133 162 193 238 289
#     4  10  21  34  46  63  94 134 165 194 241 293
#     4  11  21  32  47  69 101 131 161 201 244 287
#     4  11  20  30  48  73  98 126 164 203 242 288
#     4   9  17  34  55  70  92 126 167 207 249 292
#     4   8  17  33  52  73  95 124 161 210 255 286
#     4   8  16  30  47  65  92 129 161 191 235 285
#     4  11  20  30  47  71  97 127 163 199 237 285
#
# _framework density 16.750747
#
# number of rings (size 3 to 8) (size 9 to 14) (size 15 to 20)
#    0.000    2.250    1.250    4.500    0.000    3.500 
#    0.000    3.125    0.000    0.000    0.000    0.875 
#    0.000    7.000    0.000    0.000    0.000    0.000 
#
# Total GULP energy -396761.149536 kJ/mol
# GULP energy per Si atom -12398.785923 kJ/mol
# Density = 1.671262 g / cm^3
# Si number density = 16.750747 Si / 1000 Ang^3
#
#
#
# Elastic Constant Matrix: (Units=GPa)
#
#
# Indices 1 2 3 4 5 6 
#
# 1 88.0194 26.8971 40.1366 0.0000 13.3790 0.0000
# 2 26.8971 59.2958 22.4981 0.0000 6.5777 0.0000
# 3 40.1366 22.4981 68.4492 0.0000 9.0053 0.0000
# 4 0.0000 0.0000 0.0000 9.5574 0.0000 6.3089
# 5 13.3790 6.5777 9.0053 0.0000 28.4162 0.0000
# 6 0.0000 0.0000 0.0000 6.3089 0.0000 27.9330
#
#
#
# Elastic Compliance Matrix: (Units=1/GPa)
#
#
# Indices 1 2 3 4 5 6 
#
# 1 0.016957 -0.004165 -0.007983 0.000000 -0.004490 0.000000
# 2 -0.004165 0.020470 -0.004091 0.000000 -0.001481 0.000000
# 3 -0.007983 -0.004091 0.020887 0.000000 -0.001913 0.000000
# 4 0.000000 0.000000 0.000000 0.122964 0.000000 -0.027772
# 5 -0.004490 -0.001481 -0.001913 0.000000 0.038254 0.000000
# 6 0.000000 0.000000 0.000000 -0.027772 0.000000 0.042073
#
#
# Mechanical properties :
#
#
# Convention : Reuss Voigt Hill
#
# Bulk Modulus (GPa) = 38.70671 43.86979 41.28825
# Shear Modulus (GPa) = 16.51828 21.59682 19.05755
#
# Velocity S-wave (km/s) = 3.14366 3.59458 3.37666
# Velocity P-wave (km/s) = 6.02781 6.59353 6.31701
#
# Compressibility (1/GPa) = 0.02583531
#
# Stress axis : x y z
#
# Youngs Moduli (GPa) = 58.97433 48.85109 47.87646
#
# Poissons Ratio (x) = 0.20344 0.38221
# Poissons Ratio (y) = 0.24560 0.19588
# Poissons Ratio (z) = 0.47081 0.19987
#
# Static dielectric constant tensor:
#      x y z
#    x 3.187030 0.000000 0.359680 
#    y 0.000000 3.041100 0.000000 
#    z 0.359680 0.000000 3.408910 
# 
# 
# High freq. dielectric constant tensor:
#      x y z
#    x 1.637050 0.000000 0.023660 
#    y 0.000000 1.641690 0.000000 
#    z 0.023660 0.000000 1.625970 
# 
# From -- ./inp_files/55278.got.cif
#   From: 2010.06.25/outbox.cif.g09.slc.cpg/sg10_28_cif.got.tgz:55278.got - 2010.06.27 22:07:45.
