data_PCOD8060595
_publ_section_title
;
Structure prediction by ZEFSAII (Michael W. Deem and Ramdas Pophale) SiO2 
 PCOD8060595
Probable space group: P 2/M
;
_chemical_formula_sum "Si O2"
_cell_formula_units_Z 28
_cell_length_a 15.476849
_cell_length_b 7.676689
_cell_length_c 16.558125
_cell_angle_alpha 90.000000
_cell_angle_beta 44.337234
_cell_angle_gamma 90.000000
_cell_volume 1374.897769
_symmetry_space_group_name_H-M "P 2/M"
_symmetry_group_IT_number 10
_symmetry_cell_setting 'monoclinic'
loop_
_space_group_symop_operation_xyz
x,y,z
-x,y,-z
-x,-y,-z
x,-y,z
loop_
_atom_site_type_symbol
_atom_site_label
_atom_site_fract_x
_atom_site_fract_y
_atom_site_fract_z
Si Si1 0.046541 0.500000 0.338334
Si Si2 0.081158 0.794100 0.020996
Si Si3 0.390832 0.693741 0.628704
Si Si4 0.261708 0.194114 0.573967
Si Si5 0.799387 0.500000 0.603236
Si Si6 0.983604 0.803813 0.755195
Si Si7 0.620574 0.207807 0.669728
Si Si8 0.648853 0.807068 0.173814
O O1 0.135620 0.500000 0.354443
O O2 0.083416 0.667951 0.259214
O O3 0.902644 0.500000 0.463216
O O4 0.021365 0.748245 0.147223
O O5 0.092286 0.000000 0.999695
O O6 0.220538 0.709224 0.930395
O O7 0.000000 0.716688 0.000000
O O8 0.500000 0.770088 0.500000
O O9 0.418820 0.500000 0.642787
O O10 0.274014 0.687237 0.645616
O O11 0.367557 0.819243 0.718938
O O12 0.354802 0.251773 0.440734
O O13 0.124124 0.205010 0.631810
O O14 0.292552 0.000000 0.581900
O O15 0.714449 0.326061 0.658314
O O16 0.929259 0.000000 0.779972
O O17 0.477689 0.269037 0.781773
O O18 0.641519 0.000000 0.673030
O O19 0.661077 0.000000 0.130286
#
# Coordination Sequence:
#
# PCOD8060595 Si02
#       8
#     2   4   4   4   2   4   4   4
#     4  11  24  40  62  94 115 152 192 237 305 376
#     4   9  18  36  60  86 119 161 202 243 286 329
#     4  11  22  29  43  73 113 154 189 233 281 333
#     4  10  19  32  51  75 107 151 191 230 282 336
#     4  11  24  40  63  87 125 147 181 251 310 361
#     4  10  21  39  62  86 119 156 195 243 289 346
#     4  10  21  36  58  85 115 152 191 236 296 357
#     4  10  20  35  55  80 113 156 204 242 287 347
#
# _framework density 20.365148999999999
#
# number of rings (size 3 to 8) (size 9 to 14) (size 15 to 20)
#    0.000    1.857    2.857    1.286    3.000    3.429 
#    1.286    1.786    0.000    1.714    0.000    4.000 
#    0.000    0.000    0.000    0.000    0.000    0.000 
#
# Total GULP energy -346885.296502 kJ/mol
# GULP energy per Si atom -12388.760589 kJ/mol
# Density = 2.031880 g / cm^3
# Si number density = 20.365149 Si / 1000 Ang^3
#
#
#
# Elastic Constant Matrix: (Units=GPa)
#
#
# Indices 1 2 3 4 5 6 
#
# 1 111.7978 47.1013 41.6757 0.0000 -6.9123 0.0000
# 2 47.1013 77.6319 24.9995 0.0000 4.2588 0.0000
# 3 41.6757 24.9995 85.1762 0.0000 -9.8968 0.0000
# 4 0.0000 0.0000 0.0000 10.9421 0.0000 3.8557
# 5 -6.9123 4.2588 -9.8968 0.0000 36.7539 0.0000
# 6 0.0000 0.0000 0.0000 3.8557 0.0000 26.5717
#
#
#
# Elastic Compliance Matrix: (Units=1/GPa)
#
#
# Indices 1 2 3 4 5 6 
#
# 1 0.013661 -0.007001 -0.004373 0.000000 0.002203 0.000000
# 2 -0.007001 0.018111 -0.002361 0.000000 -0.004051 0.000000
# 3 -0.004373 -0.002361 0.014978 0.000000 0.003484 0.000000
# 4 0.000000 0.000000 0.000000 0.096315 0.000000 -0.013976
# 5 0.002203 -0.004051 0.003484 0.000000 0.029030 0.000000
# 6 0.000000 0.000000 0.000000 -0.013976 0.000000 0.039662
#
#
# Mechanical properties :
#
#
# Convention : Reuss Voigt Hill
#
# Bulk Modulus (GPa) = 51.86785 55.79545 53.83165
# Shear Modulus (GPa) = 20.35384 25.57548 22.96466
#
# Velocity S-wave (km/s) = 3.16483 3.54764 3.36169
# Velocity P-wave (km/s) = 6.23531 6.65116 6.44659
#
# Compressibility (1/GPa) = 0.01927977
#
# Stress axis : x y z
#
# Youngs Moduli (GPa) = 73.20277 55.21376 66.76463
#
# Poissons Ratio (x) = 0.38654 0.29198
# Poissons Ratio (y) = 0.51248 0.15763
# Poissons Ratio (z) = 0.32014 0.13036
#
# Static dielectric constant tensor:
#      x y z
#    x 3.551830 0.000000 -0.295050 
#    y 0.000000 3.641210 0.000000 
#    z -0.295050 0.000000 3.603360 
# 
# 
# High freq. dielectric constant tensor:
#      x y z
#    x 1.774880 0.000000 -0.021240 
#    y 0.000000 1.784850 0.000000 
#    z -0.021240 0.000000 1.776420 
# 
# From -- ./inp_files/66433.got.cif
#   From: 2010.06.25/outbox.cif.g09.slc.cpg/sg10_34_cif.got.tgz:66433.got - 2010.06.27 22:07:45.
