data_PCOD8060197
_publ_section_title
;
Structure prediction by ZEFSAII (Michael W. Deem and Ramdas Pophale) SiO2 
 PCOD8060197
Probable space group: P 2/M
;
_chemical_formula_sum "Si O2"
_cell_formula_units_Z 32
_cell_length_a 12.598835
_cell_length_b 8.541332
_cell_length_c 31.999329
_cell_angle_alpha 90.000000
_cell_angle_beta 152.608237
_cell_angle_gamma 90.000000
_cell_volume 1584.246670
_symmetry_space_group_name_H-M "P 2/M"
_symmetry_group_IT_number 10
_symmetry_cell_setting 'monoclinic'
loop_
_space_group_symop_operation_xyz
x,y,z
-x,y,-z
-x,-y,-z
x,-y,z
loop_
_atom_site_type_symbol
_atom_site_label
_atom_site_fract_x
_atom_site_fract_y
_atom_site_fract_z
Si Si1 0.774958 0.317840 0.696721
Si Si2 0.394625 0.815876 0.508029
Si Si3 0.798490 0.184455 0.201586
Si Si4 0.661972 0.315980 0.982972
Si Si5 0.125979 0.186182 0.678266
Si Si6 0.879941 0.183827 0.821626
Si Si7 0.463949 0.821195 0.229493
Si Si8 0.259073 0.330926 0.082402
O O1 0.791525 0.500000 0.713435
O O2 0.528847 0.278786 0.590444
O O3 0.794495 0.218198 0.745603
O O4 0.972211 0.269772 0.733439
O O5 0.500000 0.776604 0.500000
O O6 0.133073 0.751464 0.417426
O O7 0.410355 0.000000 0.523135
O O8 0.588184 0.235815 0.097483
O O9 0.763645 0.237751 0.238105
O O10 0.838482 0.000000 0.211929
O O11 0.636559 0.500000 0.981095
O O12 0.724225 0.264431 0.958179
O O13 0.864260 0.255228 0.083737
O O14 0.280911 0.249210 0.692923
O O15 0.123556 0.000000 0.676780
O O16 0.687953 0.259223 0.786688
O O17 0.900089 0.000000 0.836718
O O18 0.334472 0.804617 0.140239
O O19 0.492616 0.000000 0.252317
O O20 0.392135 0.500000 0.134198
O O21 0.000000 0.371593 0.000000
#
# Coordination Sequence:
#
# PCOD8060197 Si02
#       8
#     4   4   4   4   4   4   4   4
#     4  12  26  43  62  87 121 157 199 249 304 365
#     4  10  19  38  67  95 120 153 194 242 302 362
#     4  11  21  38  63  91 123 157 198 246 298 357
#     4  11  22  36  56  88 126 162 201 246 300 354
#     4   9  18  34  60  94 125 150 187 246 305 350
#     4  11  24  41  61  84 116 165 215 250 290 351
#     4  10  20  35  58  88 119 155 204 253 293 342
#     4  10  19  31  50  80 119 160 197 237 293 352
#
# _framework density 20.198875000000001
#
# number of rings (size 3 to 8) (size 9 to 14) (size 15 to 20)
#    0.000    1.500    3.750    2.250    0.000    2.000 
#    0.000    3.750    0.000    3.750    0.000    0.000 
#    0.000    0.000    0.000    0.000    0.000    0.000 
#
# Total GULP energy -396574.374257 kJ/mol
# GULP energy per Si atom -12392.949196 kJ/mol
# Density = 2.015290 g / cm^3
# Si number density = 20.198875 Si / 1000 Ang^3
#
#
#
# Elastic Constant Matrix: (Units=GPa)
#
#
# Indices 1 2 3 4 5 6 
#
# 1 63.8989 7.2410 37.8889 0.0000 4.7065 0.0000
# 2 7.2410 41.1627 17.5060 0.0000 5.2442 0.0000
# 3 37.8889 17.5060 133.5988 0.0000 13.6732 0.0000
# 4 0.0000 0.0000 0.0000 24.9885 0.0000 -1.5540
# 5 4.7065 5.2442 13.6732 0.0000 34.7763 0.0000
# 6 0.0000 0.0000 0.0000 -1.5540 0.0000 20.9143
#
#
#
# Elastic Compliance Matrix: (Units=1/GPa)
#
#
# Indices 1 2 3 4 5 6 
#
# 1 0.018865 -0.001073 -0.005173 0.000000 -0.000357 0.000000
# 2 -0.001073 0.026027 -0.002833 0.000000 -0.002666 0.000000
# 3 -0.005173 -0.002833 0.009594 0.000000 -0.002645 0.000000
# 4 0.000000 0.000000 0.000000 0.040204 0.000000 0.002987
# 5 -0.000357 -0.002666 -0.002645 0.000000 0.030245 0.000000
# 6 0.000000 0.000000 0.000000 0.002987 0.000000 0.048036
#
#
# Mechanical properties :
#
#
# Convention : Reuss Voigt Hill
#
# Bulk Modulus (GPa) = 27.52727 40.43692 33.98210
# Shear Modulus (GPa) = 24.60148 27.87079 26.23613
#
# Velocity S-wave (km/s) = 3.49372 3.71862 3.60792
# Velocity P-wave (km/s) = 5.47106 6.20487 5.84948
#
# Compressibility (1/GPa) = 0.03632762
#
# Stress axis : x y z
#
# Youngs Moduli (GPa) = 53.00834 38.42138 104.23059
#
# Poissons Ratio (x) = 0.04123 0.53918
# Poissons Ratio (y) = 0.05688 0.29532
# Poissons Ratio (z) = 0.27421 0.10886
#
# Static dielectric constant tensor:
#      x y z
#    x 3.843270 0.000000 0.303040 
#    y 0.000000 3.475060 0.000000 
#    z 0.303040 0.000000 3.744090 
# 
# 
# High freq. dielectric constant tensor:
#      x y z
#    x 1.789430 0.000000 0.018100 
#    y 0.000000 1.771990 0.000000 
#    z 0.018100 0.000000 1.783840 
# 
# From -- ./inp_files/95102.got.cif
#   From: 2010.06.25/outbox.cif.g09.slc.cpg/sg10_48_cif.got.tgz:95102.got - 2010.06.27 22:07:45.
