data_PCOD8060244
_publ_section_title
;
Structure prediction by ZEFSAII (Michael W. Deem and Ramdas Pophale) SiO2 
 PCOD8060244
Probable space group: P 2/M
;
_chemical_formula_sum "Si O2"
_cell_formula_units_Z 26
_cell_length_a 12.789756
_cell_length_b 22.039631
_cell_length_c 5.253855
_cell_angle_alpha 90.000000
_cell_angle_beta 106.567074
_cell_angle_gamma 90.000000
_cell_volume 1419.484658
_symmetry_space_group_name_H-M "P 2/M"
_symmetry_group_IT_number 10
_symmetry_cell_setting 'monoclinic'
loop_
_space_group_symop_operation_xyz
x,y,z
-x,y,-z
-x,-y,-z
x,-y,z
loop_
_atom_site_type_symbol
_atom_site_label
_atom_site_fract_x
_atom_site_fract_y
_atom_site_fract_z
Si Si1 0.125631 0.813943 0.846624
Si Si2 0.203161 0.681056 0.011845
Si Si3 0.813622 0.500000 0.491066
Si Si4 0.122943 0.865773 0.341970
Si Si5 0.431699 0.369432 0.196955
Si Si6 0.113250 0.628726 0.468969
Si Si7 0.672627 0.500000 0.891701
Si Si8 0.929666 0.000000 0.699630
O O1 0.183247 0.838273 0.630298
O O2 0.000190 0.837920 0.751584
O O3 0.146438 0.742828 0.880014
O O4 0.184640 0.843487 0.131997
O O5 0.331242 0.677963 0.164380
O O6 0.138675 0.661557 0.220711
O O7 0.197886 0.637875 0.759308
O O8 0.891344 0.557418 0.590771
O O9 0.720849 0.500000 0.641156
O O10 0.763416 0.500000 0.174200
O O11 0.138209 0.938176 0.356288
O O12 0.500000 0.363413 0.500000
O O13 0.398480 0.439379 0.131496
O O14 0.500000 0.347789 0.000000
O O15 0.000000 0.654034 0.500000
O O16 0.000000 0.000000 0.500000
O O17 0.000000 0.000000 0.000000
#
# Coordination Sequence:
#
# PCOD8060244 Si02
#       8
#     4   4   2   4   4   4   2   2
#     4  10  20  32  48  73 109 144 189 217 255 309
#     4  12  25  41  57  83 112 144 189 240 270 341
#     4  12  21  43  58  79 114 135 180 227 287 340
#     4  10  19  31  51  78 109 158 188 222 257 303
#     4  12  24  42  64  85 105 136 178 238 315 356
#     4  12  25  39  59  80 109 152 182 223 280 330
#     4  12  22  41  65  83 108 129 171 245 300 368
#     4  12  16  30  48  74 116 150 198 226 256 294
#
# _framework density 18.316504999999999
#
# number of rings (size 3 to 8) (size 9 to 14) (size 15 to 20)
#    0.000    0.615    6.154    3.923    6.462    0.000 
#    0.000    2.308    0.000    0.000    0.000    0.000 
#    0.000    0.000    0.000   23.538    0.000    0.000 
#
# Total GULP energy -322133.605169 kJ/mol
# GULP energy per Si atom -12389.754045 kJ/mol
# Density = 1.827482 g / cm^3
# Si number density = 18.316505 Si / 1000 Ang^3
#
#
#
# Elastic Constant Matrix: (Units=GPa)
#
#
# Indices 1 2 3 4 5 6 
#
# 1 47.6446 47.5494 24.0416 0.0000 -8.7674 0.0000
# 2 47.5494 115.2631 49.0142 0.0000 -8.4865 0.0000
# 3 24.0416 49.0142 148.0250 0.0000 -33.2950 0.0000
# 4 0.0000 0.0000 0.0000 50.2373 0.0000 -12.9261
# 5 -8.7674 -8.4865 -33.2950 0.0000 35.6116 0.0000
# 6 0.0000 0.0000 0.0000 -12.9261 0.0000 9.8245
#
#
#
# Elastic Compliance Matrix: (Units=1/GPa)
#
#
# Indices 1 2 3 4 5 6 
#
# 1 0.036721 -0.014826 0.000233 0.000000 0.005725 0.000000
# 2 -0.014826 0.016107 -0.003651 0.000000 -0.003225 0.000000
# 3 0.000233 -0.003651 0.009806 0.000000 0.008355 0.000000
# 4 0.000000 0.000000 0.000000 0.030093 0.000000 0.039594
# 5 0.005725 -0.003225 0.008355 0.000000 0.036534 0.000000
# 6 0.000000 0.000000 0.000000 0.039594 0.000000 0.153880
#
#
# Mechanical properties :
#
#
# Convention : Reuss Voigt Hill
#
# Bulk Modulus (GPa) = 38.24634 61.34923 49.79778
# Shear Modulus (GPa) = 15.22791 31.82317 23.52554
#
# Velocity S-wave (km/s) = 2.88649 4.17274 3.58773
# Velocity P-wave (km/s) = 5.65997 7.53541 6.66399
#
# Compressibility (1/GPa) = 0.02614629
#
# Stress axis : x y z
#
# Youngs Moduli (GPa) = 27.23224 62.08491 101.97819
#
# Poissons Ratio (x) = 0.92047 -0.02375
# Poissons Ratio (y) = 0.40375 0.37230
# Poissons Ratio (z) = -0.00634 0.22666
#
# Static dielectric constant tensor:
#      x y z
#    x 3.320720 0.000000 -0.409450 
#    y 0.000000 3.596810 0.000000 
#    z -0.409450 0.000000 4.464930 
# 
# 
# High freq. dielectric constant tensor:
#      x y z
#    x 1.657180 0.000000 -0.035560 
#    y 0.000000 1.704200 0.000000 
#    z -0.035560 0.000000 1.744490 
# 
# From -- ./inp_files/7614.got.cif
#   From: 2010.06.25/outbox.cif.g09.slc.cpg/sg10_4_cif.got.tgz:7614.got - 2010.06.27 22:07:45.
