data_PCOD8060164
_publ_section_title
;
Structure prediction by ZEFSAII (Michael W. Deem and Ramdas Pophale) SiO2 
 PCOD8060164
Probable space group: P 2/M
;
_chemical_formula_sum "Si O2"
_cell_formula_units_Z 28
_cell_length_a 20.582006
_cell_length_b 8.951292
_cell_length_c 11.809592
_cell_angle_alpha 90.000000
_cell_angle_beta 54.279509
_cell_angle_gamma 90.000000
_cell_volume 1766.433813
_symmetry_space_group_name_H-M "P 2/M"
_symmetry_group_IT_number 10
_symmetry_cell_setting 'monoclinic'
loop_
_space_group_symop_operation_xyz
x,y,z
-x,y,-z
-x,-y,-z
x,-y,z
loop_
_atom_site_type_symbol
_atom_site_label
_atom_site_fract_x
_atom_site_fract_y
_atom_site_fract_z
Si Si1 0.592210 0.326080 0.415002
Si Si2 0.760757 0.169352 0.840081
Si Si3 0.652126 0.824673 0.574347
Si Si4 0.226824 0.676856 0.394282
Si Si5 0.503821 0.826028 0.127296
Si Si6 0.087217 0.829873 0.436675
Si Si7 0.352570 0.674171 0.889861
O O1 0.500000 0.277595 0.500000
O O2 0.598806 0.500000 0.441174
O O3 0.635486 0.226180 0.463939
O O4 0.635807 0.288814 0.253309
O O5 0.726819 0.255789 0.763160
O O6 0.858199 0.173863 0.733951
O O7 0.728377 0.000000 0.868257
O O8 0.729527 0.247628 0.985659
O O9 0.731167 0.739138 0.536212
O O10 0.578492 0.778862 0.729303
O O11 0.668840 0.000000 0.560030
O O12 0.229896 0.500000 0.389509
O O13 0.133801 0.733310 0.485245
O O14 0.573931 0.732648 0.112084
O O15 0.522044 0.000000 0.127048
O O16 0.500000 0.783365 0.000000
O O17 0.000000 0.760062 0.500000
O O18 0.077945 0.000000 0.490109
O O19 0.344658 0.500000 0.918882
#
# Coordination Sequence:
#
# PCOD8060164 Si02
#       7
#     4   4   4   4   4   4   4
#     4  10  21  37  51  66  93 131 174 220 261 294
#     4   9  18  32  50  73 104 132 160 199 244 293
#     4  11  21  33  50  71  96 132 175 214 251 294
#     4  10  19  31  50  76 106 133 162 200 247 297
#     4  10  21  33  47  66  93 128 165 207 254 298
#     4   8  16  32  53  77 105 135 162 192 239 299
#     4  11  21  33  50  70  94 129 170 211 255 299
#
# _framework density 15.851146999999999
#
# number of rings (size 3 to 8) (size 9 to 14) (size 15 to 20)
#    0.857    1.286    1.429    3.000    0.000    3.714 
#    0.000    0.000    0.000    0.000    0.000    1.000 
#    0.000    8.000    0.000    0.000    0.000    0.000 
#
# Total GULP energy -347081.730051 kJ/mol
# GULP energy per Si atom -12395.776073 kJ/mol
# Density = 1.581507 g / cm^3
# Si number density = 15.851147 Si / 1000 Ang^3
#
#
#
# Elastic Constant Matrix: (Units=GPa)
#
#
# Indices 1 2 3 4 5 6 
#
# 1 102.5122 50.4087 59.8617 0.0000 -3.8548 0.0000
# 2 50.4087 93.6570 50.6852 0.0000 3.4388 0.0000
# 3 59.8617 50.6852 67.4750 0.0000 5.7235 0.0000
# 4 0.0000 0.0000 0.0000 24.1708 0.0000 3.5302
# 5 -3.8548 3.4388 5.7235 0.0000 21.3660 0.0000
# 6 0.0000 0.0000 0.0000 3.5302 0.0000 24.0131
#
#
#
# Elastic Compliance Matrix: (Units=1/GPa)
#
#
# Indices 1 2 3 4 5 6 
#
# 1 0.022163 -0.002025 -0.018939 0.000000 0.009398 0.000000
# 2 -0.002025 0.018187 -0.011856 0.000000 -0.000117 0.000000
# 3 -0.018939 -0.011856 0.041601 0.000000 -0.012653 0.000000
# 4 0.000000 0.000000 0.000000 0.042280 0.000000 -0.006216
# 5 0.009398 -0.000117 -0.012653 0.000000 0.051907 0.000000
# 6 0.000000 0.000000 0.000000 -0.006216 0.000000 0.042558
#
#
# Mechanical properties :
#
#
# Convention : Reuss Voigt Hill
#
# Bulk Modulus (GPa) = 61.29940 65.06172 63.18056
# Shear Modulus (GPa) = 17.25494 20.75589 19.00541
#
# Velocity S-wave (km/s) = 3.30291 3.62252 3.46640
# Velocity P-wave (km/s) = 7.30079 7.65712 7.48107
#
# Compressibility (1/GPa) = 0.01631337
#
# Stress axis : x y z
#
# Youngs Moduli (GPa) = 45.11999 54.98349 24.03787
#
# Poissons Ratio (x) = 0.11132 0.45525
# Poissons Ratio (y) = 0.09135 0.28499
# Poissons Ratio (z) = 0.85452 0.65187
#
# Static dielectric constant tensor:
#      x y z
#    x 2.930360 0.000000 -0.120010 
#    y 0.000000 3.025240 0.000000 
#    z -0.120010 0.000000 3.042870 
# 
# 
# High freq. dielectric constant tensor:
#      x y z
#    x 1.589530 0.000000 -0.000670 
#    y 0.000000 1.619140 0.000000 
#    z -0.000670 0.000000 1.590130 
# 
# From -- ./inp_files/54458.got.cif
#   From: 2010.06.25/outbox.cif.g09.slc.cpg/sg10_28_cif.got.tgz:54458.got - 2010.06.27 22:07:45.
