data_PCOD8060233
_publ_section_title
;
Structure prediction by ZEFSAII (Michael W. Deem and Ramdas Pophale) SiO2 
 PCOD8060233
Probable space group: P 2/M
;
_chemical_formula_sum "Si O2"
_cell_formula_units_Z 30
_cell_length_a 31.501202
_cell_length_b 8.210596
_cell_length_c 5.179344
_cell_angle_alpha 90.000000
_cell_angle_beta 85.648671
_cell_angle_gamma 90.000000
_cell_volume 1335.743076
_symmetry_space_group_name_H-M "P 2/M"
_symmetry_group_IT_number 10
_symmetry_cell_setting 'monoclinic'
loop_
_space_group_symop_operation_xyz
x,y,z
-x,y,-z
-x,-y,-z
x,-y,z
loop_
_atom_site_type_symbol
_atom_site_label
_atom_site_fract_x
_atom_site_fract_y
_atom_site_fract_z
Si Si1 0.668103 0.813016 0.637962
Si Si2 0.238401 0.310330 0.388946
Si Si3 0.952223 0.193653 0.522542
Si Si4 0.615231 0.811997 0.146555
Si Si5 0.193450 0.308495 0.909573
Si Si6 0.097958 0.193330 0.954247
Si Si7 0.529209 0.000000 0.739627
Si Si8 0.450326 0.677687 0.470824
O O1 0.711306 0.713543 0.632824
O O2 0.648675 0.790206 0.364471
O O3 0.678121 0.000000 0.697914
O O4 0.636120 0.743502 0.873545
O O5 0.228212 0.500000 0.393412
O O6 0.216181 0.229135 0.649095
O O7 0.216539 0.229534 0.147888
O O8 0.927391 0.257268 0.283249
O O9 0.000000 0.265510 0.500000
O O10 0.954281 0.000000 0.521280
O O11 0.927585 0.257115 0.785415
O O12 0.573538 0.708498 0.245470
O O13 0.600926 0.000000 0.119904
O O14 0.201136 0.500000 0.905148
O O15 0.143920 0.272185 0.933976
O O16 0.102490 0.000000 0.952086
O O17 0.500000 0.000000 0.500000
O O18 0.558715 0.834391 0.717242
O O19 0.500000 0.000000 0.000000
O O20 0.500000 0.671922 0.500000
O O21 0.436285 0.500000 0.363440
#
# Coordination Sequence:
#
# PCOD8060233 Si02
#       8
#     4   4   4   4   4   4   2   4
#     4  10  22  38  60  86 115 148 187 233 283 340
#     4  10  21  37  56  78 106 142 182 220 273 336
#     4   9  17  30  49  74 105 138 175 222 273 322
#     4  10  21  39  59  85 118 153 188 231 288 342
#     4  10  21  36  54  77 108 144 177 222 279 332
#     4  10  19  31  51  78 102 133 179 224 267 321
#     4  10  22  40  62  86 120 158 192 244 298 340
#     4  10  22  41  65  94 124 161 207 249 296 355
#
# _framework density 22.459412
#
# number of rings (size 3 to 8) (size 9 to 14) (size 15 to 20)
#    0.000    2.133    0.667    2.000    0.000    6.133 
#    0.000    2.667    0.000    2.400    0.000    0.000 
#    0.000    0.000    0.000    0.000    0.000    0.000 
#
# Total GULP energy -371973.431206 kJ/mol
# GULP energy per Si atom -12399.114374 kJ/mol
# Density = 2.240829 g / cm^3
# Si number density = 22.459412 Si / 1000 Ang^3
#
#
#
# Elastic Constant Matrix: (Units=GPa)
#
#
# Indices 1 2 3 4 5 6 
#
# 1 101.2756 0.0541 34.9402 0.0000 -25.4509 0.0000
# 2 0.0541 73.3033 22.5247 0.0000 -5.7390 0.0000
# 3 34.9402 22.5247 159.3377 0.0000 -22.3852 0.0000
# 4 0.0000 0.0000 0.0000 14.4399 0.0000 -14.4611
# 5 -25.4509 -5.7390 -22.3852 0.0000 39.8990 0.0000
# 6 0.0000 0.0000 0.0000 -14.4611 0.0000 55.0812
#
#
#
# Elastic Compliance Matrix: (Units=1/GPa)
#
#
# Indices 1 2 3 4 5 6 
#
# 1 0.012261 0.001109 -0.001872 0.000000 0.006930 0.000000
# 2 0.001109 0.014398 -0.002050 0.000000 0.001628 0.000000
# 3 -0.001872 -0.002050 0.007346 0.000000 0.002633 0.000000
# 4 0.000000 0.000000 0.000000 0.093955 0.000000 0.024667
# 5 0.006930 0.001628 0.002633 0.000000 0.031195 0.000000
# 6 0.000000 0.000000 0.000000 0.024667 0.000000 0.024631
#
#
# Mechanical properties :
#
#
# Convention : Reuss Voigt Hill
#
# Bulk Modulus (GPa) = 35.23646 49.88385 42.56015
# Shear Modulus (GPa) = 25.14170 40.31054 32.72612
#
# Velocity S-wave (km/s) = 3.34942 4.24112 3.82137
# Velocity P-wave (km/s) = 5.53905 6.80013 6.20173
#
# Compressibility (1/GPa) = 0.02837969
#
# Stress axis : x y z
#
# Youngs Moduli (GPa) = 81.56070 69.45178 136.12769
#
# Poissons Ratio (x) = -0.07700 0.25479
# Poissons Ratio (y) = -0.09042 0.27903
# Poissons Ratio (z) = 0.15266 0.14236
#
# Static dielectric constant tensor:
#      x y z
#    x 4.014920 0.000000 0.151200 
#    y 0.000000 4.455390 0.000000 
#    z 0.151200 0.000000 4.749480 
# 
# 
# High freq. dielectric constant tensor:
#      x y z
#    x 1.891400 0.000000 -0.004320 
#    y 0.000000 1.853930 0.000000 
#    z -0.004320 0.000000 1.901690 
# 
# From -- ./inp_files/13619.got.cif
#   From: 2010.06.25/outbox.cif.g09.slc.cpg/sg10_7_cif.got.tgz:13619.got - 2010.06.27 22:07:45.
