data_PCOD8060070
_publ_section_title
;
Structure prediction by ZEFSAII (Michael W. Deem and Ramdas Pophale) SiO2 
 PCOD8060070
Probable space group: P 2/M
;
_chemical_formula_sum "Si O2"
_cell_formula_units_Z 28
_cell_length_a 17.911731
_cell_length_b 8.886308
_cell_length_c 15.644845
_cell_angle_alpha 90.000000
_cell_angle_beta 142.407781
_cell_angle_gamma 90.000000
_cell_volume 1519.101392
_symmetry_space_group_name_H-M "P 2/M"
_symmetry_group_IT_number 10
_symmetry_cell_setting 'monoclinic'
loop_
_space_group_symop_operation_xyz
x,y,z
-x,y,-z
-x,-y,-z
x,-y,z
loop_
_atom_site_type_symbol
_atom_site_label
_atom_site_fract_x
_atom_site_fract_y
_atom_site_fract_z
Si Si1 0.866765 0.323629 0.410634
Si Si2 0.585660 0.167713 0.335078
Si Si3 0.961673 0.677129 0.828903
Si Si4 0.137695 0.168290 0.418872
Si Si5 0.611015 0.178500 0.163400
Si Si6 0.182497 0.322824 0.140588
Si Si7 0.449711 0.321384 0.364417
O O1 0.855120 0.500000 0.382436
O O2 0.867984 0.288210 0.511193
O O3 0.744334 0.247439 0.257347
O O4 0.000000 0.263116 0.500000
O O5 0.725247 0.165077 0.492513
O O6 0.575661 0.229029 0.228111
O O7 0.517893 0.273214 0.340584
O O8 0.529345 0.000000 0.288066
O O9 0.966929 0.500000 0.811950
O O10 0.952742 0.773757 0.735640
O O11 0.848372 0.714579 0.788887
O O12 0.082861 0.740529 0.984589
O O13 0.098897 0.000000 0.413579
O O14 0.628374 0.000000 0.175783
O O15 0.500000 0.231129 0.000000
O O16 0.179842 0.500000 0.127468
O O17 0.313011 0.255717 0.233765
O O18 0.500000 0.256377 0.500000
O O19 0.453240 0.500000 0.370957
#
# Coordination Sequence:
#
# PCOD8060070 Si02
#       7
#     4   4   4   4   4   4   4
#     4  10  21  37  57  83 111 137 176 227 272 320
#     4   9  19  34  51  74 103 134 172 212 254 307
#     4   9  16  31  53  71  96 135 174 211 257 308
#     4  10  20  34  53  76 102 133 172 214 260 315
#     4   9  19  38  61  82 110 148 183 220 271 332
#     4   8  16  30  48  72 101 134 170 212 259 306
#     4  10  19  31  49  74 102 133 173 214 255 305
#
# _framework density 18.431948999999999
#
# number of rings (size 3 to 8) (size 9 to 14) (size 15 to 20)
#    0.000    2.714    0.000    3.429    0.000    5.714 
#    2.571    2.857    0.000    0.000    0.000    0.000 
#    0.000    0.000    0.000    0.000    0.000    0.000 
#
# Total GULP energy -346951.037056 kJ/mol
# GULP energy per Si atom -12391.108466 kJ/mol
# Density = 1.839000 g / cm^3
# Si number density = 18.431949 Si / 1000 Ang^3
#
#
#
# Elastic Constant Matrix: (Units=GPa)
#
#
# Indices 1 2 3 4 5 6 
#
# 1 92.4614 23.3617 49.3368 0.0000 15.5997 0.0000
# 2 23.3617 36.3396 28.1782 0.0000 5.6001 0.0000
# 3 49.3368 28.1782 121.5666 0.0000 0.9621 0.0000
# 4 0.0000 0.0000 0.0000 23.8008 0.0000 -0.0727
# 5 15.5997 5.6001 0.9621 0.0000 27.6310 0.0000
# 6 0.0000 0.0000 0.0000 -0.0727 0.0000 23.2799
#
#
#
# Elastic Compliance Matrix: (Units=1/GPa)
#
#
# Indices 1 2 3 4 5 6 
#
# 1 0.016321 -0.005087 -0.005381 0.000000 -0.007996 0.000000
# 2 -0.005087 0.036355 -0.006328 0.000000 -0.004276 0.000000
# 3 -0.005381 -0.006328 0.011846 0.000000 0.003908 0.000000
# 4 0.000000 0.000000 0.000000 0.042016 0.000000 0.000131
# 5 -0.007996 -0.004276 0.003908 0.000000 0.041436 0.000000
# 6 0.000000 0.000000 0.000000 0.000131 0.000000 0.042956
#
#
# Mechanical properties :
#
#
# Convention : Reuss Voigt Hill
#
# Bulk Modulus (GPa) = 32.33344 50.23567 41.28455
# Shear Modulus (GPa) = 21.29174 24.90839 23.10007
#
# Velocity S-wave (km/s) = 3.40244 3.68009 3.54399
# Velocity P-wave (km/s) = 5.74592 6.73582 6.26047
#
# Compressibility (1/GPa) = 0.03092774
#
# Stress axis : x y z
#
# Youngs Moduli (GPa) = 61.26984 27.50679 84.41805
#
# Poissons Ratio (x) = 0.13994 0.45428
# Poissons Ratio (y) = 0.31171 0.53421
# Poissons Ratio (z) = 0.32971 0.17407
#
# Static dielectric constant tensor:
#      x y z
#    x 3.421690 0.000000 0.258930 
#    y 0.000000 3.149980 0.000000 
#    z 0.258930 0.000000 3.748830 
# 
# 
# High freq. dielectric constant tensor:
#      x y z
#    x 1.705700 0.000000 0.003230 
#    y 0.000000 1.693350 0.000000 
#    z 0.003230 0.000000 1.721390 
# 
# From -- ./inp_files/68708.got.cif
#   From: 2010.06.25/outbox.cif.g09.slc.cpg/sg10_35_cif.got.tgz:68708.got - 2010.06.27 22:07:45.
