data_PCOD8060872
_publ_section_title
;
Structure prediction by ZEFSAII (Michael W. Deem and Ramdas Pophale) SiO2 
 PCOD8060872
Probable space group: P 2/M
;
_chemical_formula_sum "Si O2"
_cell_formula_units_Z 32
_cell_length_a 11.915161
_cell_length_b 9.139226
_cell_length_c 28.891580
_cell_angle_alpha 90.000000
_cell_angle_beta 30.654393
_cell_angle_gamma 90.000000
_cell_volume 1604.095187
_symmetry_space_group_name_H-M "P 2/M"
_symmetry_group_IT_number 10
_symmetry_cell_setting 'monoclinic'
loop_
_space_group_symop_operation_xyz
x,y,z
-x,y,-z
-x,-y,-z
x,-y,z
loop_
_atom_site_type_symbol
_atom_site_label
_atom_site_fract_x
_atom_site_fract_y
_atom_site_fract_z
Si Si1 0.907676 0.827500 0.580451
Si Si2 0.744740 0.827981 0.310922
Si Si3 0.403888 0.173154 0.983828
Si Si4 0.540679 0.174168 0.214853
Si Si5 0.903542 0.172990 0.156748
Si Si6 0.283086 0.170423 0.517402
Si Si7 0.916808 0.333317 0.331891
Si Si8 0.415093 0.331526 0.168296
O O1 0.665142 0.770902 0.680753
O O2 0.000000 0.756607 0.500000
O O3 0.074193 0.783109 0.561496
O O4 0.895271 0.000000 0.577975
O O5 0.782084 0.769469 0.245874
O O6 0.498528 0.784633 0.412668
O O7 0.919656 0.747444 0.281569
O O8 0.788766 0.000000 0.299153
O O9 0.541554 0.255567 0.896062
O O10 0.422439 0.000000 0.969171
O O11 0.500000 0.215772 0.000000
O O12 0.153237 0.230455 0.067395
O O13 0.764488 0.224430 0.161338
O O14 0.543920 0.250169 0.163713
O O15 0.529701 0.000000 0.211145
O O16 0.905119 0.000000 0.157600
O O17 0.268212 0.257346 0.570640
O O18 0.283291 0.000000 0.529768
O O19 0.847742 0.500000 0.348948
O O20 0.155695 0.318655 0.270309
O O21 0.491042 0.500000 0.139411
#
# Coordination Sequence:
#
# PCOD8060872 Si02
#       8
#     4   4   4   4   4   4   4   4
#     4   9  16  28  51  82 112 144 186 233 278 325
#     4  10  20  35  57  84 115 146 183 234 285 336
#     4  10  21  39  64  90 115 146 186 233 288 348
#     4  10  19  35  60  85 114 150 188 233 284 339
#     4   9  19  36  59  89 116 141 182 235 286 337
#     4  10  19  32  53  83 112 144 188 232 278 334
#     4  11  23  37  53  76 112 153 192 234 279 333
#     4  11  24  40  58  82 115 153 194 239 284 336
#
# _framework density 19.948941000000001
#
# number of rings (size 3 to 8) (size 9 to 14) (size 15 to 20)
#    0.000    2.000    1.250    2.625    0.000    8.250 
#    0.000    4.375    0.000    3.000    0.000    0.000 
#    0.000    0.000    0.000    0.000    0.000    0.000 
#
# Total GULP energy -396824.605944 kJ/mol
# GULP energy per Si atom -12400.768936 kJ/mol
# Density = 1.990354 g / cm^3
# Si number density = 19.948941 Si / 1000 Ang^3
#
#
#
# Elastic Constant Matrix: (Units=GPa)
#
#
# Indices 1 2 3 4 5 6 
#
# 1 106.2880 43.4181 49.1965 0.0000 3.7110 0.0000
# 2 43.4181 57.7561 35.6142 0.0000 7.8860 0.0000
# 3 49.1965 35.6142 87.5770 0.0000 5.3773 0.0000
# 4 0.0000 0.0000 0.0000 11.3564 0.0000 -8.9985
# 5 3.7110 7.8860 5.3773 0.0000 41.7778 0.0000
# 6 0.0000 0.0000 0.0000 -8.9985 0.0000 6.5223
#
#
#
# Elastic Compliance Matrix: (Units=1/GPa)
#
#
# Indices 1 2 3 4 5 6 
#
# 1 0.015187 -0.008334 -0.005197 0.000000 0.000893 0.000000
# 2 -0.008334 0.028109 -0.006520 0.000000 -0.003726 0.000000
# 3 -0.005197 -0.006520 0.017020 0.000000 -0.000498 0.000000
# 4 0.000000 0.000000 0.000000 -0.945024 0.000000 -1.303791
# 5 0.000893 -0.003726 -0.000498 0.000000 0.024624 0.000000
# 6 0.000000 0.000000 0.000000 -1.303791 0.000000 -1.645439
#
#
# Mechanical properties :
#
#
# Convention : Reuss Voigt Hill
#
# Bulk Modulus (GPa) = 49.47286 56.45320 52.96303
# Shear Modulus (GPa) = -2.03361 20.15748 9.06193
#
# Velocity S-wave (km/s) = -1.01075 3.18221 2.13364
# Velocity P-wave (km/s) = 4.84679 6.47010 5.71637
#
# Compressibility (1/GPa) = 0.02021310
#
# Stress axis : x y z
#
# Youngs Moduli (GPa) = 65.84477 35.57602 58.75412
#
# Poissons Ratio (x) = 0.29650 0.30535
# Poissons Ratio (y) = 0.54877 0.38309
# Poissons Ratio (z) = 0.34220 0.23196
#
# Static dielectric constant tensor:
#      x y z
#    x 3.828000 0.000000 -0.066230 
#    y 0.000000 3.249960 0.000000 
#    z -0.066230 0.000000 3.719930 
# 
# 
# High freq. dielectric constant tensor:
#      x y z
#    x 1.791580 0.000000 -0.000150 
#    y 0.000000 1.736120 0.000000 
#    z -0.000150 0.000000 1.783620 
# 
# From -- ./inp_files/63781.got.cif
#   From: 2010.06.25/outbox.cif.g09.slc.cpg/sg10_32_cif.got.tgz:63781.got - 2010.06.27 22:07:45.
