data_PCOD8060419
_publ_section_title
;
Structure prediction by ZEFSAII (Michael W. Deem and Ramdas Pophale) SiO2 
 PCOD8060419
Probable space group: P 2/M
;
_chemical_formula_sum "Si O2"
_cell_formula_units_Z 28
_cell_length_a 13.962682
_cell_length_b 8.902520
_cell_length_c 13.675184
_cell_angle_alpha 90.000000
_cell_angle_beta 97.596919
_cell_angle_gamma 90.000000
_cell_volume 1684.946831
_symmetry_space_group_name_H-M "P 2/M"
_symmetry_group_IT_number 10
_symmetry_cell_setting 'monoclinic'
loop_
_space_group_symop_operation_xyz
x,y,z
-x,y,-z
-x,-y,-z
x,-y,z
loop_
_atom_site_type_symbol
_atom_site_label
_atom_site_fract_x
_atom_site_fract_y
_atom_site_fract_z
Si Si1 0.602802 0.334872 0.463005
Si Si2 0.981396 0.334663 0.112024
Si Si3 0.579475 0.673523 0.092367
Si Si4 0.780084 0.323698 0.022366
Si Si5 0.323285 0.677982 0.325657
Si Si6 0.482679 0.824232 0.720847
Si Si7 0.830406 0.176577 0.826854
O O1 0.500000 0.348042 0.500000
O O2 0.633450 0.500000 0.427795
O O3 0.675497 0.279618 0.558395
O O4 0.597271 0.220263 0.371812
O O5 0.996563 0.500000 0.161119
O O6 0.869557 0.281930 0.107164
O O7 0.056484 0.219455 0.170892
O O8 0.000000 0.344011 0.000000
O O9 0.578618 0.500000 0.125700
O O10 0.682708 0.721617 0.063663
O O11 0.559285 0.780247 0.180404
O O12 0.500000 0.704210 0.000000
O O13 0.782972 0.500000 0.996021
O O14 0.785949 0.233208 0.922439
O O15 0.323414 0.500000 0.310539
O O16 0.416359 0.740579 0.281550
O O17 0.226514 0.749156 0.270091
O O18 0.501757 0.000000 0.718040
O O19 0.819183 0.000000 0.819711
#
# Coordination Sequence:
#
# PCOD8060419 Si02
#       7
#     4   4   4   4   4   4   4
#     4   8  16  31  49  66  86 118 156 188 221 267
#     4   8  15  29  46  63  87 120 157 191 224 269
#     4  10  20  33  49  67  90 125 164 194 220 258
#     4   9  18  32  48  65  89 126 165 194 221 262
#     4  10  19  32  49  67  91 123 156 189 225 269
#     4  11  21  31  46  69  97 124 150 187 231 273
#     4  11  20  28  44  71  98 120 146 188 239 282
#
# _framework density 16.617735
#
# number of rings (size 3 to 8) (size 9 to 14) (size 15 to 20)
#    0.000    2.429    0.000    5.571    0.000    7.714 
#    0.000    0.000    0.000    0.000    0.000    1.000 
#    0.000    8.000    0.000    0.000    0.000    0.000 
#
# Total GULP energy -347108.635466 kJ/mol
# GULP energy per Si atom -12396.736981 kJ/mol
# Density = 1.657991 g / cm^3
# Si number density = 16.617735 Si / 1000 Ang^3
#
#
#
# Elastic Constant Matrix: (Units=GPa)
#
#
# Indices 1 2 3 4 5 6 
#
# 1 104.0842 36.5425 42.9107 0.0000 18.9532 0.0000
# 2 36.5425 98.4040 48.3885 0.0000 13.8014 0.0000
# 3 42.9107 48.3885 87.2574 0.0000 21.1177 0.0000
# 4 0.0000 0.0000 0.0000 11.2346 0.0000 -0.0855
# 5 18.9532 13.8014 21.1177 0.0000 23.9856 0.0000
# 6 0.0000 0.0000 0.0000 -0.0855 0.0000 12.8511
#
#
#
# Elastic Compliance Matrix: (Units=1/GPa)
#
#
# Indices 1 2 3 4 5 6 
#
# 1 0.012963 -0.002144 -0.003819 0.000000 -0.005647 0.000000
# 2 -0.002144 0.014372 -0.006766 0.000000 -0.000619 0.000000
# 3 -0.003819 -0.006766 0.019593 0.000000 -0.010339 0.000000
# 4 0.000000 0.000000 0.000000 0.089015 0.000000 0.000592
# 5 -0.005647 -0.000619 -0.010339 0.000000 0.055613 0.000000
# 6 0.000000 0.000000 0.000000 0.000592 0.000000 0.077818
#
#
# Mechanical properties :
#
#
# Convention : Reuss Voigt Hill
#
# Bulk Modulus (GPa) = 46.57698 60.60322 53.59010
# Shear Modulus (GPa) = 16.55685 20.40785 18.48235
#
# Velocity S-wave (km/s) = 3.15990 3.50819 3.33859
# Velocity P-wave (km/s) = 6.43449 7.27723 6.86880
#
# Compressibility (1/GPa) = 0.02146983
#
# Stress axis : x y z
#
# Youngs Moduli (GPa) = 77.14150 69.57892 51.03872
#
# Poissons Ratio (x) = 0.14916 0.19494
# Poissons Ratio (y) = 0.16537 0.34533
# Poissons Ratio (z) = 0.29463 0.47078
#
# Static dielectric constant tensor:
#      x y z
#    x 3.312040 0.000000 0.359400 
#    y 0.000000 3.080300 0.000000 
#    z 0.359400 0.000000 3.223180 
# 
# 
# High freq. dielectric constant tensor:
#      x y z
#    x 1.621660 0.000000 0.026210 
#    y 0.000000 1.639530 0.000000 
#    z 0.026210 0.000000 1.622620 
# 
# From -- ./inp_files/65776.got.cif
#   From: 2010.06.25/outbox.cif.g09.slc.cpg/sg10_33_cif.got.tgz:65776.got - 2010.06.27 22:07:45.
