data_PCOD8060202
_publ_section_title
;
Structure prediction by ZEFSAII (Michael W. Deem and Ramdas Pophale) SiO2 
 PCOD8060202
Probable space group: P 2/M
;
_chemical_formula_sum "Si O2"
_cell_formula_units_Z 32
_cell_length_a 24.750074
_cell_length_b 15.713859
_cell_length_c 8.217753
_cell_angle_alpha 90.000000
_cell_angle_beta 31.019874
_cell_angle_gamma 90.000000
_cell_volume 1647.033322
_symmetry_space_group_name_H-M "P 2/M"
_symmetry_group_IT_number 10
_symmetry_cell_setting 'monoclinic'
loop_
_space_group_symop_operation_xyz
x,y,z
-x,y,-z
-x,-y,-z
x,-y,z
loop_
_atom_site_type_symbol
_atom_site_label
_atom_site_fract_x
_atom_site_fract_y
_atom_site_fract_z
Si Si1 0.253978 0.405447 0.789774
Si Si2 0.809086 0.904777 0.898913
Si Si3 0.561918 0.344304 0.498878
Si Si4 0.611583 0.837148 0.247759
Si Si5 0.851488 0.240761 0.047978
Si Si6 0.752416 0.255570 0.642236
Si Si7 0.946422 0.812162 0.302030
Si Si8 0.630471 0.404339 0.843595
O O1 0.201749 0.500000 0.934589
O O2 0.326019 0.390254 0.763282
O O3 0.166454 0.331438 0.996154
O O4 0.332793 0.400069 0.435777
O O5 0.892199 0.889226 0.538961
O O6 0.827044 0.000000 0.919504
O O7 0.689837 0.898761 0.142253
O O8 0.828677 0.837395 0.989154
O O9 0.500000 0.379260 0.500000
O O10 0.585246 0.244303 0.427224
O O11 0.485545 0.363502 0.848210
O O12 0.500000 0.883907 0.500000
O O13 0.665664 0.808182 0.939170
O O14 0.775055 0.227500 0.398775
O O15 0.972153 0.238024 0.793689
O O16 0.857289 0.255741 0.481041
O O17 0.708832 0.351418 0.758595
O O18 0.000000 0.849897 0.000000
O O19 0.629658 0.500000 0.912430
#
# Coordination Sequence:
#
# PCOD8060202 Si02
#       8
#     4   4   4   4   4   4   4   4
#     4  10  21  35  52  79 116 155 192 230 279 332
#     4  11  23  39  62  89 113 141 183 232 283 336
#     4  11  19  32  50  79 109 147 189 235 272 326
#     4  10  19  37  57  82 110 151 187 226 278 346
#     4  10  20  37  59  83 112 153 185 240 276 330
#     4   9  18  36  55  79 114 151 189 225 284 332
#     4   9  20  38  62  86 111 146 184 223 283 340
#     4  10  19  31  50  81 114 149 193 237 279 326
#
# _framework density 19.428874
#
# number of rings (size 3 to 8) (size 9 to 14) (size 15 to 20)
#    0.000    2.000    3.750    1.125    0.000    3.500 
#    0.000    6.250    0.000    6.000    0.000    0.000 
#    0.000    0.000    0.000    0.000    0.000    0.000 
#
# Total GULP energy -396633.500191 kJ/mol
# GULP energy per Si atom -12394.796881 kJ/mol
# Density = 1.938465 g / cm^3
# Si number density = 19.428874 Si / 1000 Ang^3
#
#
#
# Elastic Constant Matrix: (Units=GPa)
#
#
# Indices 1 2 3 4 5 6 
#
# 1 111.5815 52.5491 38.2020 0.0000 -22.0508 0.0000
# 2 52.5491 126.6069 37.9254 0.0000 -7.3079 0.0000
# 3 38.2020 37.9254 88.7502 0.0000 -19.1223 0.0000
# 4 0.0000 0.0000 0.0000 18.6901 0.0000 1.2690
# 5 -22.0508 -7.3079 -19.1223 0.0000 28.4277 0.0000
# 6 0.0000 0.0000 0.0000 1.2690 0.0000 13.4000
#
#
#
# Elastic Compliance Matrix: (Units=1/GPa)
#
#
# Indices 1 2 3 4 5 6 
#
# 1 0.013321 -0.004431 -0.002175 0.000000 0.007731 0.000000
# 2 -0.004431 0.010535 -0.003218 0.000000 -0.002894 0.000000
# 3 -0.002175 -0.003218 0.015247 0.000000 0.007742 0.000000
# 4 0.000000 0.000000 0.000000 0.053850 0.000000 -0.005100
# 5 0.007731 -0.002894 0.007742 0.000000 0.045638 0.000000
# 6 0.000000 0.000000 0.000000 -0.005100 0.000000 0.075110
#
#
# Mechanical properties :
#
#
# Convention : Reuss Voigt Hill
#
# Bulk Modulus (GPa) = 51.40043 64.92131 58.16087
# Shear Modulus (GPa) = 20.84780 25.32103 23.08442
#
# Velocity S-wave (km/s) = 3.27927 3.61400 3.45069
# Velocity P-wave (km/s) = 6.39150 7.13457 6.77323
#
# Compressibility (1/GPa) = 0.01945509
#
# Stress axis : x y z
#
# Youngs Moduli (GPa) = 75.06701 94.92498 65.58760
#
# Poissons Ratio (x) = 0.42066 0.14263
# Poissons Ratio (y) = 0.33266 0.21104
# Poissons Ratio (z) = 0.16325 0.30544
#
# Static dielectric constant tensor:
#      x y z
#    x 3.691320 0.000000 -0.076060 
#    y 0.000000 3.323150 0.000000 
#    z -0.076060 0.000000 3.763490 
# 
# 
# High freq. dielectric constant tensor:
#      x y z
#    x 1.761610 0.000000 -0.002900 
#    y 0.000000 1.726950 0.000000 
#    z -0.002900 0.000000 1.759360 
# 
# From -- ./inp_files/37712.got.cif
#   From: 2010.06.25/outbox.cif.g09.slc.cpg/sg10_19_cif.got.tgz:37712.got - 2010.06.27 22:07:45.
