data_PCOD8060115
_publ_section_title
;
Structure prediction by ZEFSAII (Michael W. Deem and Ramdas Pophale) SiO2 
 PCOD8060115
Probable space group: P 2/M
;
_chemical_formula_sum "Si O2"
_cell_formula_units_Z 32
_cell_length_a 23.933875
_cell_length_b 9.481073
_cell_length_c 10.969289
_cell_angle_alpha 90.000000
_cell_angle_beta 132.739811
_cell_angle_gamma 90.000000
_cell_volume 1828.130556
_symmetry_space_group_name_H-M "P 2/M"
_symmetry_group_IT_number 10
_symmetry_cell_setting 'monoclinic'
loop_
_space_group_symop_operation_xyz
x,y,z
-x,y,-z
-x,-y,-z
x,-y,z
loop_
_atom_site_type_symbol
_atom_site_label
_atom_site_fract_x
_atom_site_fract_y
_atom_site_fract_z
Si Si1 0.414530 0.658236 0.863355
Si Si2 0.353364 0.658859 0.041078
Si Si3 0.778481 0.161794 0.064551
Si Si4 0.513516 0.157596 0.661723
Si Si5 0.051378 0.168754 0.963567
Si Si6 0.952508 0.166570 0.315596
Si Si7 0.361674 0.832283 0.571926
Si Si8 0.220658 0.837102 0.212692
O O1 0.417492 0.500000 0.812052
O O2 0.363799 0.761027 0.706592
O O3 0.500000 0.719313 0.000000
O O4 0.374816 0.657260 0.933207
O O5 0.346329 0.500000 0.081900
O O6 0.416936 0.739271 0.211765
O O7 0.272726 0.736897 0.929686
O O8 0.865499 0.207849 0.211263
O O9 0.766311 0.000000 0.087032
O O10 0.753781 0.182918 0.888410
O O11 0.500000 0.151924 0.500000
O O12 0.437209 0.215317 0.611990
O O13 0.533382 0.000000 0.739449
O O14 0.023118 0.219784 0.785691
O O15 0.052390 0.000000 0.964682
O O16 0.136895 0.228889 0.112441
O O17 0.000000 0.226233 0.000000
O O18 0.000000 0.233031 0.500000
O O19 0.963091 0.000000 0.331691
O O20 0.286723 0.769849 0.393918
O O21 0.357579 0.000000 0.578202
O O22 0.214603 0.000000 0.236768
#
# Coordination Sequence:
#
# PCOD8060115 Si02
#       8
#     4   4   4   4   4   4   4   4
#     4  10  21  38  52  63  92 134 164 199 252 295
#     4  11  22  35  51  70  95 128 168 207 241 290
#     4   9  17  32  53  73 102 135 159 197 252 296
#     4  10  20  33  51  74  99 126 156 198 250 296
#     4   8  13  23  41  65  98 136 161 186 236 296
#     4   8  14  26  45  71 102 132 162 198 243 294
#     4  10  19  31  50  73  95 122 163 204 235 288
#     4   8  15  29  47  70 101 131 156 192 246 292
#
# _framework density 17.50422
#
# number of rings (size 3 to 8) (size 9 to 14) (size 15 to 20)
#    0.000    2.750    1.250    2.625    0.000    3.500 
#    2.250    1.875    0.000    0.375    0.000    0.000 
#    0.000    3.000    0.000    0.000    0.000    0.000 
#
# Total GULP energy -396609.352252 kJ/mol
# GULP energy per Si atom -12394.042258 kJ/mol
# Density = 1.746438 g / cm^3
# Si number density = 17.504220 Si / 1000 Ang^3
#
#
#
# Elastic Constant Matrix: (Units=GPa)
#
#
# Indices 1 2 3 4 5 6 
#
# 1 102.9307 30.9003 43.6010 0.0000 5.7292 0.0000
# 2 30.9003 44.1508 29.7426 0.0000 4.8686 0.0000
# 3 43.6010 29.7426 129.2592 0.0000 5.1484 0.0000
# 4 0.0000 0.0000 0.0000 13.8027 0.0000 2.3467
# 5 5.7292 4.8686 5.1484 0.0000 20.5916 0.0000
# 6 0.0000 0.0000 0.0000 2.3467 0.0000 18.5275
#
#
#
# Elastic Compliance Matrix: (Units=1/GPa)
#
#
# Indices 1 2 3 4 5 6 
#
# 1 0.013095 -0.007200 -0.002710 0.000000 -0.001263 0.000000
# 2 -0.007200 0.031250 -0.004593 0.000000 -0.004237 0.000000
# 3 -0.002710 -0.004593 0.009731 0.000000 -0.000593 0.000000
# 4 0.000000 0.000000 0.000000 0.074044 0.000000 -0.009378
# 5 -0.001263 -0.004237 -0.000593 0.000000 0.050065 0.000000
# 6 0.000000 0.000000 0.000000 -0.009378 0.000000 0.055162
#
#
# Mechanical properties :
#
#
# Convention : Reuss Voigt Hill
#
# Bulk Modulus (GPa) = 39.88878 53.86986 46.87932
# Shear Modulus (GPa) = 18.46991 22.05748 20.26369
#
# Velocity S-wave (km/s) = 3.25186 3.55367 3.40611
# Velocity P-wave (km/s) = 6.07758 6.90509 6.50451
#
# Compressibility (1/GPa) = 0.02506970
#
# Stress axis : x y z
#
# Youngs Moduli (GPa) = 76.36464 31.99967 102.76335
#
# Poissons Ratio (x) = 0.23040 0.27850
# Poissons Ratio (y) = 0.54982 0.47202
# Poissons Ratio (z) = 0.20696 0.14698
#
# Static dielectric constant tensor:
#      x y z
#    x 3.329300 0.000000 0.033410 
#    y 0.000000 2.991030 0.000000 
#    z 0.033410 0.000000 3.436730 
# 
# 
# High freq. dielectric constant tensor:
#      x y z
#    x 1.678430 0.000000 0.000810 
#    y 0.000000 1.630330 0.000000 
#    z 0.000810 0.000000 1.678460 
# 
# From -- ./inp_files/56451.got.cif
#   From: 2010.06.25/outbox.cif.g09.slc.cpg/sg10_29_cif.got.tgz:56451.got - 2010.06.27 22:07:45.
