data_PCOD8060535
_publ_section_title
;
Structure prediction by ZEFSAII (Michael W. Deem and Ramdas Pophale) SiO2 
 PCOD8060535
Probable space group: P 2/M
;
_chemical_formula_sum "Si O2"
_cell_formula_units_Z 22
_cell_length_a 18.008110
_cell_length_b 14.329550
_cell_length_c 8.166180
_cell_angle_alpha 90.000000
_cell_angle_beta 37.089738
_cell_angle_gamma 90.000000
_cell_volume 1270.819442
_symmetry_space_group_name_H-M "P 2/M"
_symmetry_group_IT_number 10
_symmetry_cell_setting 'monoclinic'
loop_
_space_group_symop_operation_xyz
x,y,z
-x,y,-z
-x,-y,-z
x,-y,z
loop_
_atom_site_type_symbol
_atom_site_label
_atom_site_fract_x
_atom_site_fract_y
_atom_site_fract_z
Si Si1 0.736466 0.241456 0.973989
Si Si2 0.935511 0.606308 0.953731
Si Si3 0.495656 0.746372 0.820446
Si Si4 0.667245 0.392431 0.338802
Si Si5 0.384112 0.103960 0.585192
Si Si6 0.000000 0.703671 0.500000
O O1 0.644928 0.229543 0.981565
O O2 0.701359 0.342782 0.108376
O O3 0.722685 0.159546 0.132737
O O4 0.879093 0.235112 0.670933
O O5 0.978816 0.500000 0.869995
O O6 0.976348 0.646566 0.707171
O O7 0.788436 0.615395 0.240268
O O8 0.000000 0.654263 0.000000
O O9 0.549885 0.658891 0.624265
O O10 0.578803 0.838518 0.642401
O O11 0.500000 0.718495 0.000000
O O12 0.631982 0.500000 0.367324
O O13 0.500000 0.099905 0.500000
O O14 0.339387 0.000000 0.615351
#
# Coordination Sequence:
#
# PCOD8060535 Si02
#       6
#     4   4   4   4   4   2
#     4   9  19  33  49  73  95 126 167 199 238 295
#     4   9  18  31  48  69  95 131 174 209 240 287
#     4  10  20  30  47  75 102 122 159 203 244 294
#     4   9  18  33  48  66  96 132 167 202 243 282
#     4   8  15  32  54  71  93 124 157 199 244 289
#     4  10  19  32  51  70  98 132 166 200 250 288
#
# _framework density 17.311665000000001
#
# number of rings (size 3 to 8) (size 9 to 14) (size 15 to 20)
#    0.000    2.909    0.000    1.909    2.545    2.909 
#    0.000    0.455    0.000    0.000    0.000    1.273 
#    0.000    0.000    0.000    0.000    0.000    0.000 
#
# Total GULP energy -272615.570379 kJ/mol
# GULP energy per Si atom -12391.616835 kJ/mol
# Density = 1.727226 g / cm^3
# Si number density = 17.311665 Si / 1000 Ang^3
#
#
#
# Elastic Constant Matrix: (Units=GPa)
#
#
# Indices 1 2 3 4 5 6 
#
# 1 71.8986 3.1576 31.7134 0.0000 -4.3408 0.0000
# 2 3.1576 102.4404 29.5266 0.0000 -3.3312 0.0000
# 3 31.7134 29.5266 105.4950 0.0000 -13.9623 0.0000
# 4 0.0000 0.0000 0.0000 10.2910 0.0000 -2.9087
# 5 -4.3408 -3.3312 -13.9623 0.0000 26.2567 0.0000
# 6 0.0000 0.0000 0.0000 -2.9087 0.0000 13.2809
#
#
#
# Elastic Compliance Matrix: (Units=1/GPa)
#
#
# Indices 1 2 3 4 5 6 
#
# 1 0.016125 0.000979 -0.005112 0.000000 0.000072 0.000000
# 2 0.000979 0.010679 -0.003316 0.000000 -0.000247 0.000000
# 3 -0.005112 -0.003316 0.012668 0.000000 0.005471 0.000000
# 4 0.000000 0.000000 0.000000 0.103584 0.000000 0.022686
# 5 0.000072 -0.000247 0.005471 0.000000 0.040975 0.000000
# 6 0.000000 0.000000 0.000000 0.022686 0.000000 0.080264
#
#
# Mechanical properties :
#
#
# Convention : Reuss Voigt Hill
#
# Bulk Modulus (GPa) = 40.69344 45.40323 43.04834
# Shear Modulus (GPa) = 17.39829 24.32816 20.86323
#
# Velocity S-wave (km/s) = 3.17362 3.75281 3.47530
# Velocity P-wave (km/s) = 6.08166 6.71282 6.40502
#
# Compressibility (1/GPa) = 0.02457398
#
# Stress axis : x y z
#
# Youngs Moduli (GPa) = 62.01732 93.63895 78.93992
#
# Poissons Ratio (x) = -0.09164 0.40352
# Poissons Ratio (y) = -0.06069 0.26175
# Poissons Ratio (z) = 0.31701 0.31049
#
# Static dielectric constant tensor:
#      x y z
#    x 3.179880 0.000000 -0.174890 
#    y 0.000000 3.327260 0.000000 
#    z -0.174890 0.000000 3.270270 
# 
# 
# High freq. dielectric constant tensor:
#      x y z
#    x 1.657400 0.000000 -0.008600 
#    y 0.000000 1.650570 0.000000 
#    z -0.008600 0.000000 1.661510 
# 
# From -- ./inp_files/24391.got.cif
#   From: 2010.06.25/outbox.cif.g09.slc.cpg/sg10_13_cif.got.tgz:24391.got - 2010.06.27 22:07:45.
