data_PCOD8060297
_publ_section_title
;
Structure prediction by ZEFSAII (Michael W. Deem and Ramdas Pophale) SiO2 
 PCOD8060297
Probable space group: P 2/M
;
_chemical_formula_sum "Si O2"
_cell_formula_units_Z 32
_cell_length_a 16.551314
_cell_length_b 9.148747
_cell_length_c 22.906221
_cell_angle_alpha 90.000000
_cell_angle_beta 148.467005
_cell_angle_gamma 90.000000
_cell_volume 1814.013450
_symmetry_space_group_name_H-M "P 2/M"
_symmetry_group_IT_number 10
_symmetry_cell_setting 'monoclinic'
loop_
_space_group_symop_operation_xyz
x,y,z
-x,y,-z
-x,-y,-z
x,-y,z
loop_
_atom_site_type_symbol
_atom_site_label
_atom_site_fract_x
_atom_site_fract_y
_atom_site_fract_z
Si Si1 0.822707 0.672375 0.652858
Si Si2 0.382590 0.833997 0.555627
Si Si3 0.574136 0.831288 0.782775
Si Si4 0.641312 0.339400 0.131051
Si Si5 0.554087 0.169601 0.904452
Si Si6 0.296561 0.168858 0.309736
Si Si7 0.176822 0.672260 0.864220
Si Si8 0.173446 0.666047 0.127610
O O1 0.801651 0.500000 0.644712
O O2 0.755254 0.727340 0.549319
O O3 0.724113 0.751162 0.641790
O O4 0.001508 0.717881 0.768918
O O5 0.431938 0.792165 0.652092
O O6 0.527792 0.812424 0.602210
O O7 0.322406 0.000000 0.515546
O O8 0.523886 0.800651 0.817816
O O9 0.721122 0.732421 0.858484
O O10 0.621898 0.000000 0.802026
O O11 0.675758 0.500000 0.179081
O O12 0.598687 0.229173 0.156804
O O13 0.784902 0.283918 0.179735
O O14 0.500000 0.350244 0.000000
O O15 0.571410 0.000000 0.929546
O O16 0.712018 0.246841 0.021614
O O17 0.183863 0.241782 0.193202
O O18 0.250850 0.000000 0.288488
O O19 0.204317 0.500000 0.889537
O O20 0.225872 0.500000 0.172279
O O21 0.000000 0.672881 0.000000
#
# Coordination Sequence:
#
# PCOD8060297 Si02
#       8
#     4   4   4   4   4   4   4   4
#     4  11  22  34  52  77 103 129 168 219 256 293
#     4   9  19  37  54  69  96 134 173 209 252 301
#     4   9  20  36  52  73 101 134 168 206 250 301
#     4   8  15  31  51  70  99 138 166 193 247 305
#     4  10  19  31  52  81 105 128 166 208 244 295
#     4  10  21  36  53  72  98 135 173 208 253 305
#     4   9  20  35  49  72 107 138 162 198 254 306
#     4  10  21  34  49  72 102 134 168 210 251 290
#
# _framework density 17.640442
#
# number of rings (size 3 to 8) (size 9 to 14) (size 15 to 20)
#    0.000    2.500    0.000    3.375    1.750    9.250 
#    0.000    0.000    0.000    0.750    0.000    5.250 
#    0.000    0.000    0.000    0.000    0.000    0.000 
#
# Total GULP energy -396774.363241 kJ/mol
# GULP energy per Si atom -12399.198851 kJ/mol
# Density = 1.760029 g / cm^3
# Si number density = 17.640442 Si / 1000 Ang^3
#
#
#
# Elastic Constant Matrix: (Units=GPa)
#
#
# Indices 1 2 3 4 5 6 
#
# 1 89.1400 44.3422 41.1880 0.0000 -19.5219 0.0000
# 2 44.3422 91.7481 44.6134 0.0000 -10.1823 0.0000
# 3 41.1880 44.6134 69.9524 0.0000 -14.1808 0.0000
# 4 0.0000 0.0000 0.0000 23.2334 0.0000 0.1638
# 5 -19.5219 -10.1823 -14.1808 0.0000 17.6600 0.0000
# 6 0.0000 0.0000 0.0000 0.1638 0.0000 19.8262
#
#
#
# Elastic Compliance Matrix: (Units=1/GPa)
#
#
# Indices 1 2 3 4 5 6 
#
# 1 0.019321 -0.005262 -0.005143 0.000000 0.014194 0.000000
# 2 -0.005262 0.017254 -0.008443 0.000000 -0.002648 0.000000
# 3 -0.005143 -0.008443 0.024568 0.000000 0.009175 0.000000
# 4 0.000000 0.000000 0.000000 0.043044 0.000000 -0.000356
# 5 0.014194 -0.002648 0.009175 0.000000 0.078157 0.000000
# 6 0.000000 0.000000 0.000000 -0.000356 0.000000 0.050441
#
#
# Mechanical properties :
#
#
# Convention : Reuss Voigt Hill
#
# Bulk Modulus (GPa) = 42.64724 56.79196 49.71960
# Shear Modulus (GPa) = 17.96658 20.19036 19.07847
#
# Velocity S-wave (km/s) = 3.19484 3.38679 3.29221
# Velocity P-wave (km/s) = 6.15123 6.89622 6.53435
#
# Compressibility (1/GPa) = 0.02344817
#
# Stress axis : x y z
#
# Youngs Moduli (GPa) = 51.75836 57.95797 40.70359
#
# Poissons Ratio (x) = 0.30496 0.20933
# Poissons Ratio (y) = 0.27234 0.34364
# Poissons Ratio (z) = 0.26618 0.48932
#
# Static dielectric constant tensor:
#      x y z
#    x 3.519950 0.000000 -0.045860 
#    y 0.000000 3.395150 0.000000 
#    z -0.045860 0.000000 3.162900 
# 
# 
# High freq. dielectric constant tensor:
#      x y z
#    x 1.675970 0.000000 -0.007940 
#    y 0.000000 1.690190 0.000000 
#    z -0.007940 0.000000 1.662830 
# 
# From -- ./inp_files/89974.got.cif
#   From: 2010.06.25/outbox.cif.g09.slc.cpg/sg10_45_cif.got.tgz:89974.got - 2010.06.27 22:07:45.
