data_PCOD8060224
_publ_section_title
;
Structure prediction by ZEFSAII (Michael W. Deem and Ramdas Pophale) SiO2 
 PCOD8060224
Probable space group: P 2/M
;
_chemical_formula_sum "Si O2"
_cell_formula_units_Z 24
_cell_length_a 22.726081
_cell_length_b 8.697661
_cell_length_c 16.437312
_cell_angle_alpha 90.000000
_cell_angle_beta 157.101297
_cell_angle_gamma 90.000000
_cell_volume 1264.219583
_symmetry_space_group_name_H-M "P 2/M"
_symmetry_group_IT_number 10
_symmetry_cell_setting 'monoclinic'
loop_
_space_group_symop_operation_xyz
x,y,z
-x,y,-z
-x,-y,-z
x,-y,z
loop_
_atom_site_type_symbol
_atom_site_label
_atom_site_fract_x
_atom_site_fract_y
_atom_site_fract_z
Si Si1 0.322592 0.817747 0.567241
Si Si2 0.964613 0.182845 0.700739
Si Si3 0.720711 0.182987 0.831688
Si Si4 0.441752 0.320386 0.013362
Si Si5 0.126213 0.177645 0.593572
Si Si6 0.406200 0.817133 0.498147
O O1 0.169747 0.751638 0.413374
O O2 0.468506 0.769613 0.803523
O O3 0.339018 0.750649 0.496707
O O4 0.315667 0.000000 0.556443
O O5 0.936704 0.237157 0.572982
O O6 0.969606 0.000000 0.711610
O O7 0.123804 0.252857 0.934649
O O8 0.698510 0.239065 0.710144
O O9 0.578766 0.241241 0.704868
O O10 0.727180 0.000000 0.842315
O O11 0.468774 0.500000 0.059756
O O12 0.500000 0.263573 0.000000
O O13 0.266528 0.280440 0.799279
O O14 0.000000 0.202495 0.500000
O O15 0.176601 0.000000 0.651771
O O16 0.407827 0.000000 0.502668
#
# Coordination Sequence:
#
# PCOD8060224 Si02
#       6
#     4   4   4   4   4   4
#     4  10  19  31  51  77 101 131 172 214 255 301
#     4   9  17  28  44  71 104 132 162 206 254 299
#     4   8  14  26  42  68 106 135 160 200 253 309
#     4  11  23  38  54  73 103 142 175 213 260 309
#     4  10  21  35  54  80 106 135 170 214 262 308
#     4   8  15  26  44  71 102 134 163 201 254 306
#
# _framework density 18.984041999999999
#
# number of rings (size 3 to 8) (size 9 to 14) (size 15 to 20)
#    0.000    2.667    1.667    1.500    2.333    1.667 
#    0.000    3.333    0.000    0.000    0.000    5.833 
#    0.000    0.000    0.000    0.000    0.000    0.000 
#
# Total GULP energy -297551.826251 kJ/mol
# GULP energy per Si atom -12397.992760 kJ/mol
# Density = 1.894083 g / cm^3
# Si number density = 18.984042 Si / 1000 Ang^3
#
#
#
# Elastic Constant Matrix: (Units=GPa)
#
#
# Indices 1 2 3 4 5 6 
#
# 1 171.5051 10.9547 71.9224 0.0000 -1.6858 0.0000
# 2 10.9547 5.2489 2.5875 0.0000 2.6129 0.0000
# 3 71.9224 2.5875 157.0613 0.0000 -2.9080 0.0000
# 4 0.0000 0.0000 0.0000 4.2447 0.0000 2.9057
# 5 -1.6858 2.6129 -2.9080 0.0000 25.2519 0.0000
# 6 0.0000 0.0000 0.0000 2.9057 0.0000 6.9698
#
#
#
# Elastic Compliance Matrix: (Units=1/GPa)
#
#
# Indices 1 2 3 4 5 6 
#
# 1 0.008401 -0.016727 -0.003536 0.000000 0.001884 0.000000
# 2 -0.016727 0.236339 0.003300 0.000000 -0.025191 0.000000
# 3 -0.003536 0.003300 0.007938 0.000000 0.000337 0.000000
# 4 0.000000 0.000000 0.000000 0.329668 0.000000 -0.137437
# 5 0.001884 -0.025191 0.000337 0.000000 0.042372 0.000000
# 6 0.000000 0.000000 0.000000 -0.137437 0.000000 0.200773
#
#
# Mechanical properties :
#
#
# Convention : Reuss Voigt Hill
#
# Bulk Modulus (GPa) = 4.57142 56.08273 30.32707
# Shear Modulus (GPa) = 5.36287 23.85000 14.60644
#
# Velocity S-wave (km/s) = 1.68258 3.54830 2.77683
# Velocity P-wave (km/s) = 2.48757 6.81127 5.12745
#
# Compressibility (1/GPa) = 0.21875041
#
# Stress axis : x y z
#
# Youngs Moduli (GPa) = 119.03700 4.23121 125.97251
#
# Poissons Ratio (x) = 0.07078 0.44550
# Poissons Ratio (y) = 1.99119 -0.41571
# Poissons Ratio (z) = 0.42097 -0.01396
#
# Static dielectric constant tensor:
#      x y z
#    x 3.830550 0.000000 0.007050 
#    y 0.000000 2.842240 0.000000 
#    z 0.007050 0.000000 3.680400 
# 
# 
# High freq. dielectric constant tensor:
#      x y z
#    x 1.750670 0.000000 -0.000880 
#    y 0.000000 1.673800 0.000000 
#    z -0.000880 0.000000 1.746930 
# 
# From -- ./inp_files/32249.got.cif
#   From: 2010.06.25/outbox.cif.g09.slc.cpg/sg10_17_cif.got.tgz:32249.got - 2010.06.27 22:07:45.
