data_PCOD8060903
_publ_section_title
;
Structure prediction by ZEFSAII (Michael W. Deem and Ramdas Pophale) SiO2 
 PCOD8060903
Probable space group: P 2/M
;
_chemical_formula_sum "Si O2"
_cell_formula_units_Z 28
_cell_length_a 12.527122
_cell_length_b 9.411501
_cell_length_c 13.588848
_cell_angle_alpha 90.000000
_cell_angle_beta 112.814567
_cell_angle_gamma 90.000000
_cell_volume 1476.770014
_symmetry_space_group_name_H-M "P 2/M"
_symmetry_group_IT_number 10
_symmetry_cell_setting 'monoclinic'
loop_
_space_group_symop_operation_xyz
x,y,z
-x,y,-z
-x,-y,-z
x,-y,z
loop_
_atom_site_type_symbol
_atom_site_label
_atom_site_fract_x
_atom_site_fract_y
_atom_site_fract_z
Si Si1 0.767709 0.334052 0.268230
Si Si2 0.368215 0.841602 0.424994
Si Si3 0.987011 0.663731 0.725517
Si Si4 0.203012 0.663840 0.497216
Si Si5 0.346179 0.833931 0.200870
Si Si6 0.459289 0.831650 0.876658
Si Si7 0.912478 0.166112 0.887163
O O1 0.735809 0.500000 0.250623
O O2 0.878439 0.297794 0.240302
O O3 0.802487 0.289842 0.391257
O O4 0.661249 0.242864 0.190764
O O5 0.500000 0.851234 0.500000
O O6 0.304950 0.750266 0.483589
O O7 0.357719 0.767724 0.314091
O O8 0.312930 0.000000 0.402929
O O9 0.972469 0.500000 0.750663
O O10 0.919624 0.694765 0.599309
O O11 0.931142 0.757903 0.790397
O O12 0.236594 0.500000 0.499962
O O13 0.441388 0.769892 0.160711
O O14 0.216099 0.803507 0.116630
O O15 0.371744 0.000000 0.217281
O O16 0.441624 0.000000 0.859657
O O17 0.500000 0.790578 0.000000
O O18 0.933315 0.000000 0.876235
O O19 0.000000 0.226923 0.000000
#
# Coordination Sequence:
#
# PCOD8060903 Si02
#       7
#     4   4   4   4   4   4   4
#     4  10  22  39  58  82 115 152 187 230 283 335
#     4  10  19  32  54  80 111 147 181 223 277 331
#     4  10  21  38  59  84 115 149 187 231 282 335
#     4  10  20  36  57  82 112 146 187 229 278 335
#     4   9  18  35  54  80 114 143 176 225 281 329
#     4  10  22  39  61  85 111 147 192 235 277 331
#     4  10  21  36  59  85 112 146 186 231 281 334
#
# _framework density 18.960298000000002
#
# number of rings (size 3 to 8) (size 9 to 14) (size 15 to 20)
#    0.000    2.143    1.429    1.286    2.000    4.857 
#    0.000    1.429    0.000    2.571    0.000    0.000 
#    0.000    0.000    0.000    0.000    0.000    0.000 
#
# Total GULP energy -347201.044137 kJ/mol
# GULP energy per Si atom -12400.037291 kJ/mol
# Density = 1.891714 g / cm^3
# Si number density = 18.960298 Si / 1000 Ang^3
#
#
#
# Elastic Constant Matrix: (Units=GPa)
#
#
# Indices 1 2 3 4 5 6 
#
# 1 113.1102 39.1099 34.1326 0.0000 5.5454 0.0000
# 2 39.1099 44.7775 34.8193 0.0000 1.9901 0.0000
# 3 34.1326 34.8193 106.1766 0.0000 10.7096 0.0000
# 4 0.0000 0.0000 0.0000 47.1474 0.0000 32.4590
# 5 5.5454 1.9901 10.7096 0.0000 33.8282 0.0000
# 6 0.0000 0.0000 0.0000 32.4590 0.0000 76.8080
#
#
#
# Elastic Compliance Matrix: (Units=1/GPa)
#
#
# Indices 1 2 3 4 5 6 
#
# 1 0.012751 -0.010731 -0.000447 0.000000 -0.001317 0.000000
# 2 -0.010731 0.039071 -0.009616 0.000000 0.002505 0.000000
# 3 -0.000447 -0.009616 0.013068 0.000000 -0.003498 0.000000
# 4 0.000000 0.000000 0.000000 0.029913 0.000000 -0.012641
# 5 -0.001317 0.002505 -0.003498 0.000000 0.030737 0.000000
# 6 0.000000 0.000000 0.000000 -0.012641 0.000000 0.018362
#
#
# Mechanical properties :
#
#
# Convention : Reuss Voigt Hill
#
# Bulk Modulus (GPa) = 42.91331 53.35421 48.13376
# Shear Modulus (GPa) = 25.87224 41.95689 33.91456
#
# Velocity S-wave (km/s) = 3.69799 4.70923 4.23391
# Velocity P-wave (km/s) = 6.39655 7.60067 7.02446
#
# Compressibility (1/GPa) = 0.02330279
#
# Stress axis : x y z
#
# Youngs Moduli (GPa) = 78.42673 25.59427 76.52095
#
# Poissons Ratio (x) = 0.27464 0.03421
# Poissons Ratio (y) = 0.84157 0.73583
# Poissons Ratio (z) = 0.03507 0.24611
#
# Static dielectric constant tensor:
#      x y z
#    x 3.572670 0.000000 0.003200 
#    y 0.000000 3.292090 0.000000 
#    z 0.003200 0.000000 3.626130 
# 
# 
# High freq. dielectric constant tensor:
#      x y z
#    x 1.746750 0.000000 0.004130 
#    y 0.000000 1.710310 0.000000 
#    z 0.004130 0.000000 1.748260 
# 
# From -- ./inp_files/48968.got.cif
#   From: 2010.06.25/outbox.cif.g09.slc.cpg/sg10_25_cif.got.tgz:48968.got - 2010.06.27 22:07:45.
