data_PCOD8060649
_publ_section_title
;
Structure prediction by ZEFSAII (Michael W. Deem and Ramdas Pophale) SiO2 
 PCOD8060649
Probable space group: P 2/M
;
_chemical_formula_sum "Si O2"
_cell_formula_units_Z 28
_cell_length_a 13.510183
_cell_length_b 18.610804
_cell_length_c 18.661541
_cell_angle_alpha 90.000000
_cell_angle_beta 160.906546
_cell_angle_gamma 90.000000
_cell_volume 1534.855900
_symmetry_space_group_name_H-M "P 2/M"
_symmetry_group_IT_number 10
_symmetry_cell_setting 'monoclinic'
loop_
_space_group_symop_operation_xyz
x,y,z
-x,y,-z
-x,-y,-z
x,-y,z
loop_
_atom_site_type_symbol
_atom_site_label
_atom_site_fract_x
_atom_site_fract_y
_atom_site_fract_z
Si Si1 0.208788 0.838408 0.756750
Si Si2 0.919965 0.919252 0.676298
Si Si3 0.630280 0.321315 0.973185
Si Si4 0.324784 0.916835 0.192628
Si Si5 0.294699 0.420255 0.652148
Si Si6 0.368538 0.834903 0.077641
Si Si7 0.034433 0.690128 0.659523
O O1 0.326614 0.857900 0.757792
O O2 0.955794 0.774578 0.589673
O O3 0.080542 0.908757 0.708406
O O4 0.500000 0.807138 0.000000
O O5 0.562670 0.905067 0.420385
O O6 0.979717 0.000000 0.743364
O O7 0.061995 0.866783 0.832564
O O8 0.595125 0.391764 0.899095
O O9 0.657526 0.251171 0.941205
O O10 0.327795 0.322074 0.812489
O O11 0.914821 0.325898 0.221355
O O12 0.412378 0.865631 0.186666
O O13 0.327707 0.000000 0.169344
O O14 0.000000 0.893766 0.000000
O O15 0.365295 0.500000 0.670294
O O16 0.000000 0.423783 0.500000
O O17 0.233287 0.363449 0.546347
#
# Coordination Sequence:
#
# PCOD8060649 Si02
#       7
#     4   4   4   4   4   4   4
#     4   9  16  30  47  75 100 125 165 197 248 304
#     4  10  20  33  51  73  98 126 161 207 250 294
#     4   9  16  27  44  64  91 125 161 197 238 283
#     4  10  23  39  51  68  95 130 172 209 247 296
#     4   9  18  26  38  63  93 134 175 196 220 271
#     4  10  19  32  52  74  96 130 163 203 250 294
#     4   9  14  28  42  60  94 129 159 194 234 284
#
# _framework density 18.242754999999999
#
# number of rings (size 3 to 8) (size 9 to 14) (size 15 to 20)
#    0.000    2.571    4.286    0.429    2.000    4.857 
#    0.000    6.429    0.000    0.000    0.000    0.000 
#    0.000    0.571    0.000    2.714    0.000    2.571 
#
# Total GULP energy -346949.026760 kJ/mol
# GULP energy per Si atom -12391.036670 kJ/mol
# Density = 1.820123 g / cm^3
# Si number density = 18.242755 Si / 1000 Ang^3
#
#
#
# Elastic Constant Matrix: (Units=GPa)
#
#
# Indices 1 2 3 4 5 6 
#
# 1 28.0017 15.3364 9.3336 0.0000 -10.4262 0.0000
# 2 15.3364 91.1723 32.8616 0.0000 -11.6065 0.0000
# 3 9.3336 32.8616 59.6998 0.0000 -9.0741 0.0000
# 4 0.0000 0.0000 0.0000 23.3934 0.0000 -11.2372
# 5 -10.4262 -11.6065 -9.0741 0.0000 19.6918 0.0000
# 6 0.0000 0.0000 0.0000 -11.2372 0.0000 11.7386
#
#
#
# Elastic Compliance Matrix: (Units=1/GPa)
#
#
# Indices 1 2 3 4 5 6 
#
# 1 0.046665 -0.004585 -0.001535 0.000000 0.021298 0.000000
# 2 -0.004585 0.014595 -0.006859 0.000000 0.003014 0.000000
# 3 -0.001535 -0.006859 0.021536 0.000000 0.005069 0.000000
# 4 0.000000 0.000000 0.000000 0.079138 0.000000 0.075758
# 5 0.021298 0.003014 0.005069 0.000000 0.066172 0.000000
# 6 0.000000 0.000000 0.000000 0.075758 0.000000 0.157712
#
#
# Mechanical properties :
#
#
# Convention : Reuss Voigt Hill
#
# Bulk Modulus (GPa) = 17.59350 32.65967 25.12658
# Shear Modulus (GPa) = 11.60840 19.05424 15.33132
#
# Velocity S-wave (km/s) = 2.52529 3.23535 2.90212
# Velocity P-wave (km/s) = 4.26238 5.64786 5.00331
#
# Compressibility (1/GPa) = 0.05683918
#
# Stress axis : x y z
#
# Youngs Moduli (GPa) = 21.42935 68.51430 46.43312
#
# Poissons Ratio (x) = 0.31416 0.07125
# Poissons Ratio (y) = 0.09826 0.31849
# Poissons Ratio (z) = 0.03288 0.46994
#
# Static dielectric constant tensor:
#      x y z
#    x 3.055280 0.000000 -0.359560 
#    y 0.000000 3.505490 0.000000 
#    z -0.359560 0.000000 3.385190 
# 
# 
# High freq. dielectric constant tensor:
#      x y z
#    x 1.654900 0.000000 -0.041170 
#    y 0.000000 1.702370 0.000000 
#    z -0.041170 0.000000 1.692680 
# 
# From -- ./inp_files/85461.got.cif
#   From: 2010.06.25/outbox.cif.g09.slc.cpg/sg10_43_cif.got.tgz:85461.got - 2010.06.27 22:07:45.
