data_PCOD8060817
_publ_section_title
;
Structure prediction by ZEFSAII (Michael W. Deem and Ramdas Pophale) SiO2 
 PCOD8060817
Probable space group: P 2/M
;
_chemical_formula_sum "Si O2"
_cell_formula_units_Z 32
_cell_length_a 21.919960
_cell_length_b 13.129038
_cell_length_c 9.210676
_cell_angle_alpha 90.000000
_cell_angle_beta 140.071197
_cell_angle_gamma 90.000000
_cell_volume 1701.326655
_symmetry_space_group_name_H-M "P 2/M"
_symmetry_group_IT_number 10
_symmetry_cell_setting 'monoclinic'
loop_
_space_group_symop_operation_xyz
x,y,z
-x,y,-z
-x,-y,-z
x,-y,z
loop_
_atom_site_type_symbol
_atom_site_label
_atom_site_fract_x
_atom_site_fract_y
_atom_site_fract_z
Si Si1 0.423693 0.613835 0.562768
Si Si2 0.481316 0.883552 0.623520
Si Si3 0.961625 0.887944 0.589993
Si Si4 0.637771 0.114671 0.117872
Si Si5 0.364867 0.383739 0.126395
Si Si6 0.164949 0.121425 0.039299
Si Si7 0.678804 0.204230 0.498394
Si Si8 0.778012 0.797538 0.167997
O O1 0.418495 0.500000 0.614314
O O2 0.534132 0.650103 0.760870
O O3 0.376681 0.621188 0.319769
O O4 0.359003 0.681440 0.550465
O O5 0.500000 0.829613 0.500000
O O6 0.374322 0.868361 0.481002
O O7 0.510319 0.000000 0.658154
O O8 0.545105 0.837685 0.870047
O O9 0.880233 0.800117 0.438542
O O10 0.000000 0.904659 0.500000
O O11 0.923410 0.000000 0.572955
O O12 0.052573 0.853591 0.851434
O O13 0.662940 0.181744 0.301875
O O14 0.718789 0.116366 0.143750
O O15 0.620250 0.000000 0.140782
O O16 0.340067 0.500000 0.034696
O O17 0.277312 0.310622 0.918419
O O18 0.211823 0.181456 0.260999
O O19 0.182578 0.000000 0.076330
O O20 0.209701 0.168457 0.974827
#
# Coordination Sequence:
#
# PCOD8060817 Si02
#       8
#     4   4   4   4   4   4   4   4
#     4   9  19  35  53  76 105 136 176 226 274 317
#     4  10  21  34  49  71 102 141 179 209 248 314
#     4   8  16  30  50  76 104 135 175 222 266 313
#     4  11  23  34  47  77 116 144 171 214 266 315
#     4   9  18  33  55  81 103 129 176 233 275 311
#     4  10  19  32  53  79 103 137 184 223 260 321
#     4  12  21  33  52  74 104 141 177 218 266 310
#     4  11  18  33  55  75 101 142 179 215 267 327
#
# _framework density 18.80885
#
# number of rings (size 3 to 8) (size 9 to 14) (size 15 to 20)
#    0.000    2.000    1.250    5.625    1.750    2.000 
#    0.000    1.250    0.000    9.375    0.000    0.000 
#    0.000    2.000    0.000    0.000    0.000    0.000 
#
# Total GULP energy -396470.991083 kJ/mol
# GULP energy per Si atom -12389.718471 kJ/mol
# Density = 1.876604 g / cm^3
# Si number density = 18.808850 Si / 1000 Ang^3
#
#
#
# Elastic Constant Matrix: (Units=GPa)
#
#
# Indices 1 2 3 4 5 6 
#
# 1 20.6078 24.6102 28.7011 0.0000 4.3299 0.0000
# 2 24.6102 108.0580 61.4548 0.0000 10.8815 0.0000
# 3 28.7011 61.4548 137.4650 0.0000 12.7657 0.0000
# 4 0.0000 0.0000 0.0000 5.6412 0.0000 -5.9624
# 5 4.3299 10.8815 12.7657 0.0000 31.8670 0.0000
# 6 0.0000 0.0000 0.0000 -5.9624 0.0000 17.1578
#
#
#
# Elastic Compliance Matrix: (Units=1/GPa)
#
#
# Indices 1 2 3 4 5 6 
#
# 1 0.077722 -0.011211 -0.010999 0.000000 -0.002326 0.000000
# 2 -0.011211 0.014162 -0.003825 0.000000 -0.001780 0.000000
# 3 -0.010999 -0.003825 0.011447 0.000000 -0.001785 0.000000
# 4 0.000000 0.000000 0.000000 0.280170 0.000000 0.097359
# 5 -0.002326 -0.001780 -0.001785 0.000000 0.033019 0.000000
# 6 0.000000 0.000000 0.000000 0.097359 0.000000 0.092115
#
#
# Mechanical properties :
#
#
# Convention : Reuss Voigt Hill
#
# Bulk Modulus (GPa) = 19.50867 55.07368 37.29118
# Shear Modulus (GPa) = 8.65360 21.02418 14.83889
#
# Velocity S-wave (km/s) = 2.14728 3.34695 2.81184
# Velocity P-wave (km/s) = 4.06723 6.65435 5.51465
#
# Compressibility (1/GPa) = 0.05125925
#
# Stress axis : x y z
#
# Youngs Moduli (GPa) = 12.86641 70.60906 87.35912
#
# Poissons Ratio (x) = 0.79162 0.96089
# Poissons Ratio (y) = 0.14425 0.33418
# Poissons Ratio (z) = 0.14152 0.27010
#
# Static dielectric constant tensor:
#      x y z
#    x 3.235190 0.000000 0.261570 
#    y 0.000000 3.407590 0.000000 
#    z 0.261570 0.000000 3.838490 
# 
# 
# High freq. dielectric constant tensor:
#      x y z
#    x 1.703360 0.000000 0.004420 
#    y 0.000000 1.713650 0.000000 
#    z 0.004420 0.000000 1.731900 
# 
# From -- ./inp_files/35160.got.cif
#   From: 2010.06.25/outbox.cif.g09.slc.cpg/sg10_18_cif.got.tgz:35160.got - 2010.06.27 22:07:45.
