data_PCOD8060729
_publ_section_title
;
Structure prediction by ZEFSAII (Michael W. Deem and Ramdas Pophale) SiO2 
 PCOD8060729
Probable space group: P 2/M
;
_chemical_formula_sum "Si O2"
_cell_formula_units_Z 24
_cell_length_a 32.188461
_cell_length_b 7.750985
_cell_length_c 9.073882
_cell_angle_alpha 90.000000
_cell_angle_beta 32.238698
_cell_angle_gamma 90.000000
_cell_volume 1207.652728
_symmetry_space_group_name_H-M "P 2/M"
_symmetry_group_IT_number 10
_symmetry_cell_setting 'monoclinic'
loop_
_space_group_symop_operation_xyz
x,y,z
-x,y,-z
-x,-y,-z
x,-y,z
loop_
_atom_site_type_symbol
_atom_site_label
_atom_site_fract_x
_atom_site_fract_y
_atom_site_fract_z
Si Si1 0.586791 0.500000 0.064824
Si Si2 0.846501 0.298071 0.131906
Si Si3 0.000062 0.705201 0.833424
Si Si4 0.153618 0.298068 0.210411
Si Si5 0.413337 0.500000 0.585039
Si Si6 0.305123 0.807210 0.253520
Si Si7 0.305244 0.192793 0.915060
O O1 0.500090 0.500000 0.255862
O O2 0.580764 0.500000 0.257774
O O3 0.631701 0.671121 0.874645
O O4 0.835414 0.500000 0.195854
O O5 0.772665 0.199446 0.417585
O O6 0.854616 0.256539 0.936212
O O7 0.923560 0.225406 0.980166
O O8 0.000081 0.500000 0.829485
O O9 0.076621 0.774635 0.521114
O O10 0.000000 0.776101 0.000000
O O11 0.164708 0.500000 0.207792
O O12 0.227522 0.199480 0.052564
O O13 0.368470 0.328873 0.664125
O O14 0.340483 0.000000 0.160491
O O15 0.283936 0.762438 0.148015
O O16 0.340610 0.000000 0.795942
#
# Coordination Sequence:
#
# PCOD8060729 Si02
#       7
#     2   4   4   4   2   4   4
#     4   9  18  34  57  84 113 142 175 223 278 329
#     4  10  19  32  52  78 110 148 188 229 274 324
#     4   9  17  29  50  79 110 146 187 231 276 321
#     4  10  19  32  52  78 110 148 188 229 274 324
#     4   9  18  34  57  84 113 142 175 223 278 329
#     4  10  20  34  55  82 111 145 184 225 272 327
#     4  10  20  34  55  82 111 145 184 225 272 327
#
# _framework density 19.873262
#
# number of rings (size 3 to 8) (size 9 to 14) (size 15 to 20)
#    0.000    2.333    1.667    1.500    0.000    4.667 
#    0.000    4.167    0.000    7.000    0.000    2.333 
#    0.000    0.000    0.000    0.000    0.000    0.000 
#
# Total GULP energy -297635.984516 kJ/mol
# GULP energy per Si atom -12401.499355 kJ/mol
# Density = 1.982803 g / cm^3
# Si number density = 19.873262 Si / 1000 Ang^3
#
#
#
# Elastic Constant Matrix: (Units=GPa)
#
#
# Indices 1 2 3 4 5 6 
#
# 1 80.7650 38.6838 71.4040 0.0000 -1.3796 0.0000
# 2 38.6838 102.4952 54.3358 0.0000 -11.9300 0.0000
# 3 71.4040 54.3358 125.3604 0.0000 -32.8217 0.0000
# 4 0.0000 0.0000 0.0000 7.9748 0.0000 3.7003
# 5 -1.3796 -11.9300 -32.8217 0.0000 29.0776 0.0000
# 6 0.0000 0.0000 0.0000 3.7003 0.0000 12.8711
#
#
#
# Elastic Compliance Matrix: (Units=1/GPa)
#
#
# Indices 1 2 3 4 5 6 
#
# 1 0.039951 -0.002942 -0.030236 0.000000 -0.033440 0.000000
# 2 -0.002942 0.012925 -0.003655 0.000000 0.001038 0.000000
# 3 -0.030236 -0.003655 0.036929 0.000000 0.038749 0.000000
# 4 0.000000 0.000000 0.000000 0.144696 0.000000 -0.041599
# 5 -0.033440 0.001038 0.038749 0.000000 0.076969 0.000000
# 6 0.000000 0.000000 0.000000 -0.041599 0.000000 0.089653
#
#
# Mechanical properties :
#
#
# Convention : Reuss Voigt Hill
#
# Bulk Modulus (GPa) = 61.95987 70.82974 66.39481
# Shear Modulus (GPa) = 10.41304 19.59784 15.00544
#
# Velocity S-wave (km/s) = 2.29153 3.14370 2.75081
# Velocity P-wave (km/s) = 6.18439 6.99251 6.60083
#
# Compressibility (1/GPa) = 0.01613948
#
# Stress axis : x y z
#
# Youngs Moduli (GPa) = 25.03085 77.36809 27.07933
#
# Poissons Ratio (x) = 0.22759 0.81877
# Poissons Ratio (y) = 0.07363 0.09898
# Poissons Ratio (z) = 0.75683 0.28278
#
# Static dielectric constant tensor:
#      x y z
#    x 3.476320 0.000000 -0.111950 
#    y 0.000000 3.501710 0.000000 
#    z -0.111950 0.000000 3.624670 
# 
# 
# High freq. dielectric constant tensor:
#      x y z
#    x 1.758320 0.000000 -0.006810 
#    y 0.000000 1.768240 0.000000 
#    z -0.006810 0.000000 1.767330 
# 
# From -- ./inp_files/37887.got.cif
#   From: 2010.06.25/outbox.cif.g09.slc.cpg/sg10_19_cif.got.tgz:37887.got - 2010.06.27 22:07:45.
