data_PCOD8060142
_publ_section_title
;
Structure prediction by ZEFSAII (Michael W. Deem and Ramdas Pophale) SiO2 
 PCOD8060142
Probable space group: P 2/M
;
_chemical_formula_sum "Si O2"
_cell_formula_units_Z 28
_cell_length_a 28.022843
_cell_length_b 9.486935
_cell_length_c 8.031977
_cell_angle_alpha 90.000000
_cell_angle_beta 135.770879
_cell_angle_gamma 90.000000
_cell_volume 1489.440246
_symmetry_space_group_name_H-M "P 2/M"
_symmetry_group_IT_number 10
_symmetry_cell_setting 'monoclinic'
loop_
_space_group_symop_operation_xyz
x,y,z
-x,y,-z
-x,-y,-z
x,-y,z
loop_
_atom_site_type_symbol
_atom_site_label
_atom_site_fract_x
_atom_site_fract_y
_atom_site_fract_z
Si Si1 0.071136 0.333020 0.241989
Si Si2 0.664653 0.163549 0.724891
Si Si3 0.071136 0.666980 0.613693
Si Si4 0.423453 0.832594 0.808634
Si Si5 0.214612 0.662232 0.097051
Si Si6 0.214612 0.337768 0.476009
Si Si7 0.664653 0.163549 0.098374
O O1 0.064246 0.500000 0.215102
O O2 0.084055 0.279873 0.460137
O O3 0.136385 0.283696 0.297331
O O4 0.000000 0.264921 0.000000
O O5 0.613442 0.220752 0.453300
O O6 0.735963 0.246276 0.894590
O O7 0.680380 0.000000 0.732185
O O8 0.633657 0.186077 0.834142
O O9 0.064246 0.500000 0.606127
O O10 0.000000 0.735079 0.500000
O O11 0.136385 0.716304 0.884594
O O12 0.386558 0.779248 0.886093
O O13 0.426370 0.000000 0.815925
O O14 0.500000 0.769344 0.000000
O O15 0.219870 0.500000 0.052058
O O16 0.238076 0.681005 0.345190
O O17 0.219870 0.500000 0.547291
O O18 0.264037 0.246276 0.714775
O O19 0.680380 0.000000 0.169714
#
# Coordination Sequence:
#
# PCOD8060142 Si02
#       7
#     4   4   4   4   4   4   4
#     4   9  16  26  41  64  95 129 167 212 257 299
#     4  10  20  34  54  79 105 135 170 208 255 307
#     4   9  16  26  41  64  95 129 167 212 257 299
#     4   9  18  34  55  79 107 135 167 211 257 303
#     4  10  19  31  50  75 102 135 173 213 257 304
#     4  10  19  31  50  75 102 135 173 213 257 304
#     4  10  20  34  54  79 105 135 170 208 255 307
#
# _framework density 18.799009000000002
#
# number of rings (size 3 to 8) (size 9 to 14) (size 15 to 20)
#    0.000    2.429    1.429    1.714    0.000    5.714 
#    0.000    2.857    0.000    2.571    0.000    2.000 
#    0.000    0.000    0.000    0.000    0.000    0.000 
#
# Total GULP energy -347080.324969 kJ/mol
# GULP energy per Si atom -12395.725892 kJ/mol
# Density = 1.875622 g / cm^3
# Si number density = 18.799009 Si / 1000 Ang^3
#
#
#
# Elastic Constant Matrix: (Units=GPa)
#
#
# Indices 1 2 3 4 5 6 
#
# 1 123.8615 27.2992 65.3440 0.0000 1.7792 0.0000
# 2 27.2992 27.5037 28.4355 0.0000 3.7300 0.0000
# 3 65.3440 28.4355 125.4030 0.0000 3.2805 0.0000
# 4 0.0000 0.0000 0.0000 16.5841 0.0000 -0.7218
# 5 1.7792 3.7300 3.2805 0.0000 34.4577 0.0000
# 6 0.0000 0.0000 0.0000 -0.7218 0.0000 16.8040
#
#
#
# Elastic Compliance Matrix: (Units=1/GPa)
#
#
# Indices 1 2 3 4 5 6 
#
# 1 0.012147 -0.007287 -0.004693 0.000000 0.000608 0.000000
# 2 -0.007287 0.052457 -0.007979 0.000000 -0.004543 0.000000
# 3 -0.004693 -0.007979 0.012230 0.000000 -0.000058 0.000000
# 4 0.000000 0.000000 0.000000 0.060412 0.000000 0.002595
# 5 0.000608 -0.004543 -0.000058 0.000000 0.029487 0.000000
# 6 0.000000 0.000000 0.000000 0.002595 0.000000 0.059621
#
#
# Mechanical properties :
#
#
# Convention : Reuss Voigt Hill
#
# Bulk Modulus (GPa) = 27.08820 57.65841 42.37330
# Shear Modulus (GPa) = 17.94839 23.94844 20.94842
#
# Velocity S-wave (km/s) = 3.09326 3.57307 3.34179
# Velocity P-wave (km/s) = 5.21520 6.91086 6.12202
#
# Compressibility (1/GPa) = 0.03691645
#
# Stress axis : x y z
#
# Youngs Moduli (GPa) = 82.32768 19.06326 81.76383
#
# Poissons Ratio (x) = 0.13891 0.38370
# Poissons Ratio (y) = 0.59992 0.65238
# Poissons Ratio (z) = 0.38635 0.15210
#
# Static dielectric constant tensor:
#      x y z
#    x 3.607970 0.000000 -0.026820 
#    y 0.000000 2.909870 0.000000 
#    z -0.026820 0.000000 3.599790 
# 
# 
# High freq. dielectric constant tensor:
#      x y z
#    x 1.740060 0.000000 -0.007380 
#    y 0.000000 1.666420 0.000000 
#    z -0.007380 0.000000 1.737820 
# 
# From -- ./inp_files/38024.got.cif
#   From: 2010.06.25/outbox.cif.g09.slc.cpg/sg10_20_cif.got.tgz:38024.got - 2010.06.27 22:07:45.
