data_PCOD8060934
_publ_section_title
;
Structure prediction by ZEFSAII (Michael W. Deem and Ramdas Pophale) SiO2 
 PCOD8060934
Probable space group: P 2/M
;
_chemical_formula_sum "Si O2"
_cell_formula_units_Z 32
_cell_length_a 9.403461
_cell_length_b 19.042500
_cell_length_c 15.939352
_cell_angle_alpha 90.000000
_cell_angle_beta 37.989929
_cell_angle_gamma 90.000000
_cell_volume 1756.817334
_symmetry_space_group_name_H-M "P 2/M"
_symmetry_group_IT_number 10
_symmetry_cell_setting 'monoclinic'
loop_
_space_group_symop_operation_xyz
x,y,z
-x,y,-z
-x,-y,-z
x,-y,z
loop_
_atom_site_type_symbol
_atom_site_label
_atom_site_fract_x
_atom_site_fract_y
_atom_site_fract_z
Si Si1 0.978781 0.841048 0.204036
Si Si2 0.725999 0.921572 0.452487
Si Si3 0.882777 0.691283 0.303487
Si Si4 0.258713 0.581033 0.355683
Si Si5 0.471608 0.839781 0.700536
Si Si6 0.449303 0.690170 0.387631
Si Si7 0.269161 0.581561 0.157576
Si Si8 0.772753 0.919416 0.048854
O O1 0.941208 0.887198 0.304516
O O2 0.025886 0.761098 0.211057
O O3 0.752602 0.844977 0.252697
O O4 0.189052 0.875812 0.054759
O O5 0.500000 0.919499 0.500000
O O6 0.682710 0.879611 0.558087
O O7 0.795075 0.000000 0.444671
O O8 0.684302 0.677067 0.328342
O O9 0.766055 0.700016 0.448996
O O10 0.056876 0.626143 0.220289
O O11 0.306743 0.500000 0.352222
O O12 0.427529 0.623846 0.337263
O O13 0.311045 0.599991 0.235220
O O14 0.000000 0.602237 0.500000
O O15 0.537852 0.758156 0.678795
O O16 0.429481 0.877402 0.809111
O O17 0.202226 0.500000 0.177754
O O18 0.500000 0.600754 0.000000
O O19 0.699043 0.000000 0.063823
O O20 0.000000 0.920089 0.000000
#
# Coordination Sequence:
#
# PCOD8060934 Si02
#       8
#     4   4   4   4   4   4   4   4
#     4   9  16  26  40  63  97 133 169 212 261 310
#     4   9  14  21  36  57  87 129 168 201 249 311
#     4  10  19  33  54  80 111 144 178 223 273 320
#     4  10  20  36  57  81 108 141 180 221 264 313
#     4   9  16  26  39  63  98 133 168 212 264 306
#     4  10  19  32  54  82 111 141 179 226 270 318
#     4  10  22  40  59  80 110 144 177 219 269 319
#     4   9  16  25  38  60  96 140 177 209 255 317
#
# _framework density 18.214756999999999
#
# number of rings (size 3 to 8) (size 9 to 14) (size 15 to 20)
#    0.000    2.500    2.500    0.750    0.000    4.500 
#    0.000    3.125    0.000    2.250    0.000    0.000 
#    0.000   20.000    0.000    0.000    0.000    0.000 
#
# Total GULP energy -396727.508438 kJ/mol
# GULP energy per Si atom -12397.734639 kJ/mol
# Density = 1.817330 g / cm^3
# Si number density = 18.214757 Si / 1000 Ang^3
#
#
#
# Elastic Constant Matrix: (Units=GPa)
#
#
# Indices 1 2 3 4 5 6 
#
# 1 40.2963 53.2432 39.7208 0.0000 9.7270 0.0000
# 2 53.2432 137.5791 69.7789 0.0000 7.7781 0.0000
# 3 39.7208 69.7789 143.7421 0.0000 25.3091 0.0000
# 4 0.0000 0.0000 0.0000 31.2569 0.0000 7.3321
# 5 9.7270 7.7781 25.3091 0.0000 18.9024 0.0000
# 6 0.0000 0.0000 0.0000 7.3321 0.0000 6.8870
#
#
#
# Elastic Compliance Matrix: (Units=1/GPa)
#
#
# Indices 1 2 3 4 5 6 
#
# 1 0.058979 -0.020072 -0.003487 0.000000 -0.017423 0.000000
# 2 -0.020072 0.016606 -0.004096 0.000000 0.008980 0.000000
# 3 -0.003487 -0.004096 0.012164 0.000000 -0.012807 0.000000
# 4 0.000000 0.000000 0.000000 0.042642 0.000000 -0.045399
# 5 -0.017423 0.008980 -0.012807 0.000000 0.075321 0.000000
# 6 0.000000 0.000000 0.000000 -0.045399 0.000000 0.193535
#
#
# Mechanical properties :
#
#
# Convention : Reuss Voigt Hill
#
# Bulk Modulus (GPa) = 30.82568 71.90038 51.36303
# Shear Modulus (GPa) = 10.74416 22.00089 16.37252
#
# Velocity S-wave (km/s) = 2.43134 3.47920 3.00135
# Velocity P-wave (km/s) = 4.98418 7.46319 6.34591
#
# Compressibility (1/GPa) = 0.03244049
#
# Stress axis : x y z
#
# Youngs Moduli (GPa) = 16.95514 60.21912 82.21222
#
# Poissons Ratio (x) = 1.20869 0.28664
# Poissons Ratio (y) = 0.34032 0.33674
# Poissons Ratio (z) = 0.05912 0.24665
#
# Static dielectric constant tensor:
#      x y z
#    x 2.821780 0.000000 0.253260 
#    y 0.000000 3.484010 0.000000 
#    z 0.253260 0.000000 3.541200 
# 
# 
# High freq. dielectric constant tensor:
#      x y z
#    x 1.650600 0.000000 0.022840 
#    y 0.000000 1.719280 0.000000 
#    z 0.022840 0.000000 1.709530 
# 
# From -- ./inp_files/62495.got.cif
#   From: 2010.06.25/outbox.cif.g09.slc.cpg/sg10_32_cif.got.tgz:62495.got - 2010.06.27 22:07:45.
