data_PCOD8060195
_publ_section_title
;
Structure prediction by ZEFSAII (Michael W. Deem and Ramdas Pophale) SiO2 
 PCOD8060195
Probable space group: P 2/M
;
_chemical_formula_sum "Si O2"
_cell_formula_units_Z 24
_cell_length_a 15.756663
_cell_length_b 14.115538
_cell_length_c 7.397037
_cell_angle_alpha 90.000000
_cell_angle_beta 144.830975
_cell_angle_gamma 90.000000
_cell_volume 947.621207
_symmetry_space_group_name_H-M "P 2/M"
_symmetry_group_IT_number 10
_symmetry_cell_setting 'monoclinic'
loop_
_space_group_symop_operation_xyz
x,y,z
-x,y,-z
-x,-y,-z
x,-y,z
loop_
_atom_site_type_symbol
_atom_site_label
_atom_site_fract_x
_atom_site_fract_y
_atom_site_fract_z
Si Si1 0.159827 0.392967 0.415925
Si Si2 0.407362 0.702476 0.652415
Si Si3 0.345211 0.102792 0.639807
Si Si4 0.049532 0.895951 0.290969
Si Si5 0.919470 0.708529 0.182787
Si Si6 0.663502 0.609323 0.905180
O O1 0.126292 0.500000 0.309607
O O2 0.251887 0.349370 0.410905
O O3 0.254209 0.382242 0.762033
O O4 0.000549 0.341564 0.154813
O O5 0.362627 0.811778 0.524606
O O6 0.500000 0.703727 0.000000
O O7 0.496170 0.648291 0.647153
O O8 0.223956 0.132337 0.583334
O O9 0.297343 0.000000 0.468978
O O10 0.500000 0.086253 0.000000
O O11 0.947939 0.821812 0.223711
O O12 0.029373 0.000000 0.345247
O O13 0.000000 0.897027 0.000000
O O14 0.746865 0.677521 0.902247
O O15 0.000000 0.667211 0.500000
O O16 0.658345 0.500000 0.830654
#
# Coordination Sequence:
#
# PCOD8060195 Si02
#       6
#     4   4   4   4   4   4
#     4   9  15  25  43  70 104 141 183 226 269 320
#     4   9  15  25  44  72 104 140 179 222 266 320
#     4   9  17  30  52  80 106 135 181 235 275 312
#     4  10  21  38  58  81 111 148 186 225 276 335
#     4  10  19  31  50  80 111 143 179 230 279 325
#     4   9  17  27  43  73 112 144 175 226 283 322
#
# _framework density 25.326574999999998
#
# number of rings (size 3 to 8) (size 9 to 14) (size 15 to 20)
#    0.000    2.667    1.667    1.000    2.333    4.333 
#    0.000    0.833    0.000    3.000    0.000    4.667 
#    0.000    0.000    0.000    0.000    0.000    0.000 
#
# Total GULP energy -297482.454364 kJ/mol
# GULP energy per Si atom -12395.102265 kJ/mol
# Density = 2.526893 g / cm^3
# Si number density = 25.326575 Si / 1000 Ang^3
#
#
#
# Elastic Constant Matrix: (Units=GPa)
#
#
# Indices 1 2 3 4 5 6 
#
# 1 155.5137 101.6116 50.6769 0.0000 44.6437 0.0000
# 2 101.6116 245.7169 22.2872 0.0000 46.7801 0.0000
# 3 50.6769 22.2872 107.0132 0.0000 57.3845 0.0000
# 4 0.0000 0.0000 0.0000 15.2097 0.0000 16.6195
# 5 44.6437 46.7801 57.3845 0.0000 52.8493 0.0000
# 6 0.0000 0.0000 0.0000 16.6195 0.0000 48.4121
#
#
#
# Elastic Compliance Matrix: (Units=1/GPa)
#
#
# Indices 1 2 3 4 5 6 
#
# 1 0.010413 -0.003553 -0.002778 0.000000 -0.002635 0.000000
# 2 -0.003553 0.006585 0.004374 0.000000 -0.007577 0.000000
# 3 -0.002778 0.004374 0.025295 0.000000 -0.028991 0.000000
# 4 0.000000 0.000000 0.000000 0.105215 0.000000 -0.036119
# 5 -0.002635 -0.007577 -0.028991 0.000000 0.059333 0.000000
# 6 0.000000 0.000000 0.000000 -0.036119 0.000000 0.033055
#
#
# Mechanical properties :
#
#
# Convention : Reuss Voigt Hill
#
# Bulk Modulus (GPa) = 26.05587 95.26612 60.66100
# Shear Modulus (GPa) = 19.48531 45.53875 32.51203
#
# Velocity S-wave (km/s) = 2.77675 4.24496 3.58678
# Velocity P-wave (km/s) = 4.53770 7.85640 6.41536
#
# Compressibility (1/GPa) = 0.03837906
#
# Stress axis : x y z
#
# Youngs Moduli (GPa) = 96.03013 151.87057 39.53311
#
# Poissons Ratio (x) = 0.53953 0.10984
# Poissons Ratio (y) = 0.34115 -0.17291
# Poissons Ratio (z) = 0.26681 -0.66426
#
# Static dielectric constant tensor:
#      x y z
#    x 5.259770 0.000000 0.741820 
#    y 0.000000 4.982400 0.000000 
#    z 0.741820 0.000000 4.890100 
# 
# 
# High freq. dielectric constant tensor:
#      x y z
#    x 1.994410 0.000000 0.014600 
#    y 0.000000 2.015660 0.000000 
#    z 0.014600 0.000000 2.047650 
# 
# From -- ./inp_files/29652.got.cif
#   From: 2010.06.25/outbox.cif.g09.slc.cpg/sg10_15_cif.got.tgz:29652.got - 2010.06.27 22:07:45.
