data_PCOD8060200
_publ_section_title
;
Structure prediction by ZEFSAII (Michael W. Deem and Ramdas Pophale) SiO2 
 PCOD8060200
Probable space group: P 2/M
;
_chemical_formula_sum "Si O2"
_cell_formula_units_Z 32
_cell_length_a 10.908422
_cell_length_b 9.912798
_cell_length_c 21.479676
_cell_angle_alpha 90.000000
_cell_angle_beta 131.267492
_cell_angle_gamma 90.000000
_cell_volume 1745.801724
_symmetry_space_group_name_H-M "P 2/M"
_symmetry_group_IT_number 10
_symmetry_cell_setting 'monoclinic'
loop_
_space_group_symop_operation_xyz
x,y,z
-x,y,-z
-x,-y,-z
x,-y,z
loop_
_atom_site_type_symbol
_atom_site_label
_atom_site_fract_x
_atom_site_fract_y
_atom_site_fract_z
Si Si1 0.837787 0.847511 0.589129
Si Si2 0.895171 0.845770 0.142990
Si Si3 0.485925 0.650706 0.308259
Si Si4 0.253491 0.842881 0.302987
Si Si5 0.167718 0.345439 0.524624
Si Si6 0.797174 0.851368 0.249646
Si Si7 0.643557 0.342664 0.000008
Si Si8 0.521450 0.346856 0.182575
O O1 0.756180 0.806750 0.627309
O O2 0.781632 0.743712 0.517840
O O3 0.031028 0.838668 0.659345
O O4 0.785420 0.000000 0.553317
O O5 0.811681 0.826483 0.181403
O O6 0.085232 0.806726 0.211523
O O7 0.875457 0.000000 0.113207
O O8 0.805631 0.744355 0.066141
O O9 0.438022 0.500000 0.314609
O O10 0.398754 0.757896 0.322617
O O11 0.682085 0.668488 0.377127
O O12 0.429107 0.670724 0.217509
O O13 0.292676 0.000000 0.307512
O O14 0.143536 0.500000 0.494719
O O15 0.000000 0.292498 0.500000
O O16 0.682017 0.741606 0.240782
O O17 0.723632 0.000000 0.237023
O O18 0.688008 0.500000 0.021489
O O19 0.592968 0.303352 0.912920
O O20 0.500000 0.303397 0.000000
O O21 0.579582 0.500000 0.191808
#
# Coordination Sequence:
#
# PCOD8060200 Si02
#       8
#     4   4   4   4   4   4   4   4
#     4   9  19  35  55  80 107 138 177 220 265 310
#     4   9  18  33  53  77 106 138 172 216 264 311
#     4  10  22  38  55  76 104 142 182 218 260 314
#     4   9  20  39  58  77 105 141 183 224 261 307
#     4  10  21  37  56  81 112 141 173 215 265 318
#     4   9  17  30  50  77 106 135 171 213 260 317
#     4  10  19  31  50  81 112 137 172 217 266 320
#     4  10  20  34  51  74 108 142 174 215 266 319
#
# _framework density 18.329685999999999
#
# number of rings (size 3 to 8) (size 9 to 14) (size 15 to 20)
#    0.000    2.500    1.250    2.250    0.000    5.000 
#    0.000    5.625    0.000    3.750    0.000    0.000 
#    0.000    0.000    0.000    0.000    0.000    0.000 
#
# Total GULP energy -396769.375128 kJ/mol
# GULP energy per Si atom -12399.042973 kJ/mol
# Density = 1.828797 g / cm^3
# Si number density = 18.329686 Si / 1000 Ang^3
#
#
#
# Elastic Constant Matrix: (Units=GPa)
#
#
# Indices 1 2 3 4 5 6 
#
# 1 83.6549 47.5929 35.3488 0.0000 -2.2445 0.0000
# 2 47.5929 74.9689 43.6978 0.0000 -4.1799 0.0000
# 3 35.3488 43.6978 91.5327 0.0000 -13.9943 0.0000
# 4 0.0000 0.0000 0.0000 29.8663 0.0000 3.8999
# 5 -2.2445 -4.1799 -13.9943 0.0000 21.0619 0.0000
# 6 0.0000 0.0000 0.0000 3.8999 0.0000 32.4668
#
#
#
# Elastic Compliance Matrix: (Units=1/GPa)
#
#
# Indices 1 2 3 4 5 6 
#
# 1 0.019082 -0.010752 -0.002506 0.000000 -0.001766 0.000000
# 2 -0.010752 0.024653 -0.007841 0.000000 -0.001463 0.000000
# 3 -0.002506 -0.007841 0.017094 0.000000 0.009535 0.000000
# 4 0.000000 0.000000 0.000000 0.034016 0.000000 -0.004086
# 5 -0.001766 -0.001463 0.009535 0.000000 0.053336 0.000000
# 6 0.000000 0.000000 0.000000 -0.004086 0.000000 0.031292
#
#
# Mechanical properties :
#
#
# Convention : Reuss Voigt Hill
#
# Bulk Modulus (GPa) = 53.67269 55.93728 54.80499
# Shear Modulus (GPa) = 21.94120 24.91347 23.42734
#
# Velocity S-wave (km/s) = 3.46357 3.69071 3.57894
# Velocity P-wave (km/s) = 6.73353 6.98179 6.85879
#
# Compressibility (1/GPa) = 0.01863145
#
# Stress axis : x y z
#
# Youngs Moduli (GPa) = 52.40411 40.56272 58.49986
#
# Poissons Ratio (x) = 0.43612 0.14663
# Poissons Ratio (y) = 0.56343 0.45869
# Poissons Ratio (z) = 0.13135 0.31805
#
# Static dielectric constant tensor:
#      x y z
#    x 3.112650 0.000000 -0.065690 
#    y 0.000000 3.382120 0.000000 
#    z -0.065690 0.000000 3.405340 
# 
# 
# High freq. dielectric constant tensor:
#      x y z
#    x 1.687460 0.000000 -0.002760 
#    y 0.000000 1.713840 0.000000 
#    z -0.002760 0.000000 1.712410 
# 
# From -- ./inp_files/83617.got.cif
#   From: 2010.06.25/outbox.cif.g09.slc.cpg/sg10_42_cif.got.tgz:83617.got - 2010.06.27 22:07:45.
