data_PCOD8060259
_publ_section_title
;
Structure prediction by ZEFSAII (Michael W. Deem and Ramdas Pophale) SiO2 
 PCOD8060259
Probable space group: P 2/M
;
_chemical_formula_sum "Si O2"
_cell_formula_units_Z 28
_cell_length_a 5.224117
_cell_length_b 18.740726
_cell_length_c 15.197830
_cell_angle_alpha 90.000000
_cell_angle_beta 64.158148
_cell_angle_gamma 90.000000
_cell_volume 1339.132944
_symmetry_space_group_name_H-M "P 2/M"
_symmetry_group_IT_number 10
_symmetry_cell_setting 'monoclinic'
loop_
_space_group_symop_operation_xyz
x,y,z
-x,y,-z
-x,-y,-z
x,-y,z
loop_
_atom_site_type_symbol
_atom_site_label
_atom_site_fract_x
_atom_site_fract_y
_atom_site_fract_z
Si Si1 0.540924 0.373686 0.790157
Si Si2 0.649410 0.192019 0.387994
Si Si3 0.268633 0.082695 0.774915
Si Si4 0.289202 0.286429 0.967726
Si Si5 0.155075 0.717182 0.387857
Si Si6 0.917139 0.421484 0.886084
Si Si7 0.606764 0.082449 0.892792
O O1 0.449434 0.299792 0.852637
O O2 0.752402 0.353479 0.679017
O O3 0.723579 0.422039 0.828252
O O4 0.245769 0.410781 0.806204
O O5 0.500000 0.166739 0.500000
O O6 0.674149 0.121988 0.325219
O O7 0.452195 0.246444 0.365683
O O8 0.952253 0.229997 0.361970
O O9 0.452852 0.115789 0.828918
O O10 0.940295 0.094301 0.843660
O O11 0.347103 0.000000 0.748202
O O12 0.500000 0.243304 0.000000
O O13 0.195123 0.362494 0.027835
O O14 0.000000 0.240763 0.000000
O O15 0.000000 0.691778 0.500000
O O16 0.886159 0.500000 0.934119
O O17 0.517635 0.000000 0.905038
O O18 0.500000 0.117777 0.000000
#
# Coordination Sequence:
#
# PCOD8060259 Si02
#       7
#     4   4   4   4   4   4   4
#     4  10  19  32  52  74  99 134 174 213 252 296
#     4  10  21  37  57  80 104 134 177 228 277 326
#     4  10  19  32  54  83 112 141 173 218 277 330
#     4   8  16  27  44  71 101 130 160 194 243 298
#     4  10  21  38  58  75  96 136 187 227 260 311
#     4  10  19  31  51  80 109 135 166 204 257 324
#     4   9  17  30  50  75 106 144 180 208 241 303
#
# _framework density 20.909050000000001
#
# number of rings (size 3 to 8) (size 9 to 14) (size 15 to 20)
#    0.000    2.429    0.000    2.571    0.000    7.143 
#    0.000    0.000    0.000   33.429    0.000    0.000 
#    0.000    0.000    0.000    0.000    0.000    0.000 
#
# Total GULP energy -346951.515751 kJ/mol
# GULP energy per Si atom -12391.125563 kJ/mol
# Density = 2.086146 g / cm^3
# Si number density = 20.909050 Si / 1000 Ang^3
#
#
#
# Elastic Constant Matrix: (Units=GPa)
#
#
# Indices 1 2 3 4 5 6 
#
# 1 154.2102 6.4977 26.5727 0.0000 9.8930 0.0000
# 2 6.4977 35.7951 32.0263 0.0000 0.1850 0.0000
# 3 26.5727 32.0263 101.8639 0.0000 2.0379 0.0000
# 4 0.0000 0.0000 0.0000 30.6505 0.0000 7.1281
# 5 9.8930 0.1850 2.0379 0.0000 28.1640 0.0000
# 6 0.0000 0.0000 0.0000 7.1281 0.0000 17.1319
#
#
#
# Elastic Compliance Matrix: (Units=1/GPa)
#
#
# Indices 1 2 3 4 5 6 
#
# 1 0.006942 0.000460 -0.001910 0.000000 -0.002303 0.000000
# 2 0.000460 0.038913 -0.012364 0.000000 0.000477 0.000000
# 3 -0.001910 -0.012364 0.014208 0.000000 -0.000276 0.000000
# 4 0.000000 0.000000 0.000000 0.036121 0.000000 -0.015029
# 5 -0.002303 0.000477 -0.000276 0.000000 0.036332 0.000000
# 6 0.000000 0.000000 0.000000 -0.015029 0.000000 0.064624
#
#
# Mechanical properties :
#
#
# Convention : Reuss Voigt Hill
#
# Bulk Modulus (GPa) = 30.82954 46.89583 38.86269
# Shear Modulus (GPa) = 21.22434 30.30744 25.76589
#
# Velocity S-wave (km/s) = 3.18949 3.81135 3.51420
# Velocity P-wave (km/s) = 5.32357 6.46882 5.92394
#
# Compressibility (1/GPa) = 0.03243642
#
# Stress axis : x y z
#
# Youngs Moduli (GPa) = 144.04913 25.69843 70.38318
#
# Poissons Ratio (x) = -0.01183 0.13440
# Poissons Ratio (y) = -0.06630 0.87021
# Poissons Ratio (z) = 0.27507 0.31773
#
# Static dielectric constant tensor:
#      x y z
#    x 4.986040 0.000000 0.111470 
#    y 0.000000 3.327180 0.000000 
#    z 0.111470 0.000000 3.844110 
# 
# 
# High freq. dielectric constant tensor:
#      x y z
#    x 1.856120 0.000000 0.002310 
#    y 0.000000 1.781770 0.000000 
#    z 0.002310 0.000000 1.807080 
# 
# From -- ./inp_files/59377.got.cif
#   From: 2010.06.25/outbox.cif.g09.slc.cpg/sg10_30_cif.got.tgz:59377.got - 2010.06.27 22:07:45.
