data_PCOD8060239
_publ_section_title
;
Structure prediction by ZEFSAII (Michael W. Deem and Ramdas Pophale) SiO2 
 PCOD8060239
Probable space group: P 2/M
;
_chemical_formula_sum "Si O2"
_cell_formula_units_Z 32
_cell_length_a 11.957825
_cell_length_b 8.939605
_cell_length_c 18.696267
_cell_angle_alpha 90.000000
_cell_angle_beta 72.764270
_cell_angle_gamma 90.000000
_cell_volume 1908.848396
_symmetry_space_group_name_H-M "P 2/M"
_symmetry_group_IT_number 10
_symmetry_cell_setting 'monoclinic'
loop_
_space_group_symop_operation_xyz
x,y,z
-x,y,-z
-x,-y,-z
x,-y,z
loop_
_atom_site_type_symbol
_atom_site_label
_atom_site_fract_x
_atom_site_fract_y
_atom_site_fract_z
Si Si1 0.318342 0.174664 0.196461
Si Si2 0.872797 0.673724 0.169060
Si Si3 0.647353 0.830110 0.268381
Si Si4 0.114169 0.176120 0.128402
Si Si5 0.478102 0.331959 0.920575
Si Si6 0.787869 0.327483 0.028772
Si Si7 0.582985 0.676291 0.694699
Si Si8 0.509553 0.830836 0.577166
O O1 0.207147 0.224405 0.170937
O O2 0.435771 0.215160 0.131921
O O3 0.314937 0.261488 0.272997
O O4 0.317282 0.000000 0.212613
O O5 0.868335 0.500000 0.189096
O O6 0.770981 0.753849 0.232416
O O7 0.861654 0.700275 0.086411
O O8 0.994640 0.742074 0.171843
O O9 0.542042 0.737187 0.249710
O O10 0.617835 0.828900 0.359447
O O11 0.648480 0.000000 0.238704
O O12 0.093207 0.000000 0.131373
O O13 0.159323 0.224202 0.042296
O O14 0.501153 0.500000 0.886158
O O15 0.345489 0.281616 0.929568
O O16 0.500000 0.328833 0.000000
O O17 0.795262 0.500000 0.002172
O O18 0.584353 0.500000 0.693698
O O19 0.600151 0.737430 0.610103
O O20 0.500000 0.758075 0.500000
O O21 0.557721 0.000000 0.561359
#
# Coordination Sequence:
#
# PCOD8060239 Si02
#       8
#     4   4   4   4   4   4   4   4
#     4  11  22  35  49  69  97 131 171 214 259 307
#     4  11  22  35  52  72  98 133 172 216 260 307
#     4   9  18  33  53  78 106 136 167 201 244 296
#     4  11  24  37  50  68  93 130 177 224 263 304
#     4  10  19  32  52  72  94 125 161 209 267 317
#     4  10  21  36  51  70  94 125 167 214 267 317
#     4  10  19  31  51  78 106 134 164 200 246 297
#     4   8  16  32  53  80 113 142 164 193 239 295
#
# _framework density 16.764033000000001
#
# number of rings (size 3 to 8) (size 9 to 14) (size 15 to 20)
#    0.750    1.250    1.250    3.375    0.000    6.000 
#    0.000    0.000    0.000    0.000    0.000    0.875 
#    0.000    7.000    0.000    0.000    0.000    0.000 
#
# Total GULP energy -396701.229399 kJ/mol
# GULP energy per Si atom -12396.913419 kJ/mol
# Density = 1.672588 g / cm^3
# Si number density = 16.764033 Si / 1000 Ang^3
#
#
#
# Elastic Constant Matrix: (Units=GPa)
#
#
# Indices 1 2 3 4 5 6 
#
# 1 96.2610 43.8364 37.0025 0.0000 4.8687 0.0000
# 2 43.8364 94.1245 39.2831 0.0000 5.3746 0.0000
# 3 37.0025 39.2831 63.1197 0.0000 18.0535 0.0000
# 4 0.0000 0.0000 0.0000 -104.2032 0.0000 -42.6879
# 5 4.8687 5.3746 18.0535 0.0000 17.0247 0.0000
# 6 0.0000 0.0000 0.0000 -42.6879 0.0000 13.7194
#
#
#
# Elastic Compliance Matrix: (Units=1/GPa)
#
#
# Indices 1 2 3 4 5 6 
#
# 1 0.014931 -0.004021 -0.007740 0.000000 0.005207 0.000000
# 2 -0.004021 0.016057 -0.009352 0.000000 0.005997 0.000000
# 3 -0.007740 -0.009352 0.035486 0.000000 -0.032464 0.000000
# 4 0.000000 0.000000 0.000000 -0.004219 0.000000 -0.013127
# 5 0.005207 0.005997 -0.032464 0.000000 0.089782 0.000000
# 6 0.000000 0.000000 0.000000 -0.013127 0.000000 0.032044
#
#
# Mechanical properties :
#
#
# Convention : Reuss Voigt Hill
#
# Bulk Modulus (GPa) = 41.23818 54.86103 48.04960
# Shear Modulus (GPa) = 21.33195 -5.79961 7.76617
#
# Velocity S-wave (km/s) = 3.57106 -1.86201 2.15469
# Velocity P-wave (km/s) = 6.45414 5.30789 5.90887
#
# Compressibility (1/GPa) = 0.02424937
#
# Stress axis : x y z
#
# Youngs Moduli (GPa) = 66.97277 62.27674 28.18027
#
# Poissons Ratio (x) = 0.25041 0.21812
# Poissons Ratio (y) = 0.26930 0.26353
# Poissons Ratio (z) = 0.51837 0.58239
#
# Static dielectric constant tensor:
#      x y z
#    x 3.187610 0.000000 0.145630 
#    y 0.000000 3.168620 0.000000 
#    z 0.145630 0.000000 2.961470 
# 
# 
# High freq. dielectric constant tensor:
#      x y z
#    x 1.636860 0.000000 0.013420 
#    y 0.000000 1.656190 0.000000 
#    z 0.013420 0.000000 1.618210 
# 
# From -- ./inp_files/83349.got.cif
#   From: 2010.06.25/outbox.cif.g09.slc.cpg/sg10_42_cif.got.tgz:83349.got - 2010.06.27 22:07:45.
