data_PCOD8060390
_publ_section_title
;
Structure prediction by ZEFSAII (Michael W. Deem and Ramdas Pophale) SiO2 
 PCOD8060390
Probable space group: P 2/M
;
_chemical_formula_sum "Si O2"
_cell_formula_units_Z 28
_cell_length_a 17.531394
_cell_length_b 9.717304
_cell_length_c 14.253740
_cell_angle_alpha 90.000000
_cell_angle_beta 139.966196
_cell_angle_gamma 90.000000
_cell_volume 1561.937850
_symmetry_space_group_name_H-M "P 2/M"
_symmetry_group_IT_number 10
_symmetry_cell_setting 'monoclinic'
loop_
_space_group_symop_operation_xyz
x,y,z
-x,y,-z
-x,-y,-z
x,-y,z
loop_
_atom_site_type_symbol
_atom_site_label
_atom_site_fract_x
_atom_site_fract_y
_atom_site_fract_z
Si Si1 0.525054 0.157251 0.420248
Si Si2 0.175224 0.339945 0.839872
Si Si3 0.209760 0.155305 0.695378
Si Si4 0.092703 0.655378 0.441310
Si Si5 0.547751 0.758112 0.144268
Si Si6 0.347192 0.847629 0.090568
Si Si7 0.330054 0.649352 0.567241
O O1 0.500000 0.217384 0.500000
O O2 0.407249 0.173388 0.247833
O O3 0.631594 0.238025 0.471523
O O4 0.567322 0.000000 0.466838
O O5 0.210852 0.500000 0.861081
O O6 0.221655 0.250399 0.797041
O O7 0.035585 0.322177 0.725838
O O8 0.247466 0.271779 0.993712
O O9 0.111352 0.230482 0.538658
O O10 0.339148 0.143946 0.769276
O O11 0.166449 0.000000 0.677046
O O12 0.100891 0.500000 0.492452
O O13 0.190876 0.674939 0.453793
O O14 0.442844 0.841470 0.095983
O O15 0.596463 0.646819 0.264990
O O16 0.500000 0.694497 0.000000
O O17 0.289461 0.000000 0.029889
O O18 0.350031 0.500000 0.540563
#
# Coordination Sequence:
#
# PCOD8060390 Si02
#       7
#     4   4   4   4   4   4   4
#     4   9  19  37  59  82 108 133 156 197 262 320
#     4  11  22  34  48  67 100 140 173 211 257 299
#     4  11  21  32  49  71  95 133 183 222 251 293
#     4   9  20  37  50  66  99 139 174 212 256 295
#     4  10  19  32  47  71 105 141 164 206 260 304
#     4  10  20  34  52  76 102 132 171 210 250 304
#     4   9  19  34  53  78 101 129 174 214 246 295
#
# _framework density 17.926448000000001
#
# number of rings (size 3 to 8) (size 9 to 14) (size 15 to 20)
#    0.000    2.143    1.429    1.714    0.000   10.286 
#    0.000    0.000    0.000    0.857    0.000    6.000 
#    0.000    0.000    0.000    0.000    0.000    0.000 
#
# Total GULP energy -347016.523345 kJ/mol
# GULP energy per Si atom -12393.447262 kJ/mol
# Density = 1.788565 g / cm^3
# Si number density = 17.926448 Si / 1000 Ang^3
#
#
#
# Elastic Constant Matrix: (Units=GPa)
#
#
# Indices 1 2 3 4 5 6 
#
# 1 78.5755 45.5738 52.4734 0.0000 -7.4400 0.0000
# 2 45.5738 129.5859 50.9312 0.0000 5.8182 0.0000
# 3 52.4734 50.9312 87.3823 0.0000 5.7149 0.0000
# 4 0.0000 0.0000 0.0000 20.6193 0.0000 3.1760
# 5 -7.4400 5.8182 5.7149 0.0000 29.4491 0.0000
# 6 0.0000 0.0000 0.0000 3.1760 0.0000 20.9020
#
#
#
# Elastic Compliance Matrix: (Units=1/GPa)
#
#
# Indices 1 2 3 4 5 6 
#
# 1 0.024717 -0.003947 -0.013169 0.000000 0.009580 0.000000
# 2 -0.003947 0.010662 -0.003688 0.000000 -0.002388 0.000000
# 3 -0.013169 -0.003688 0.021950 0.000000 -0.006858 0.000000
# 4 0.000000 0.000000 0.000000 0.049661 0.000000 -0.007546
# 5 0.009580 -0.002388 -0.006858 0.000000 0.038180 0.000000
# 6 0.000000 0.000000 0.000000 -0.007546 0.000000 0.048989
#
#
# Mechanical properties :
#
#
# Convention : Reuss Voigt Hill
#
# Bulk Modulus (GPa) = 63.60744 65.94451 64.77597
# Shear Modulus (GPa) = 20.74642 23.96509 22.35575
#
# Velocity S-wave (km/s) = 3.40561 3.66027 3.53524
# Velocity P-wave (km/s) = 7.14309 7.39794 7.27163
#
# Compressibility (1/GPa) = 0.01572143
#
# Stress axis : x y z
#
# Youngs Moduli (GPa) = 40.45766 93.79390 45.55867
#
# Poissons Ratio (x) = 0.37022 0.59995
# Poissons Ratio (y) = 0.15969 0.16801
# Poissons Ratio (z) = 0.53277 0.34589
#
# Static dielectric constant tensor:
#      x y z
#    x 3.125900 0.000000 0.098580 
#    y 0.000000 3.384400 0.000000 
#    z 0.098580 0.000000 3.374950 
# 
# 
# High freq. dielectric constant tensor:
#      x y z
#    x 1.665710 0.000000 0.017550 
#    y 0.000000 1.697050 0.000000 
#    z 0.017550 0.000000 1.684360 
# 
# From -- ./inp_files/68694.got.cif
#   From: 2010.06.25/outbox.cif.g09.slc.cpg/sg10_35_cif.got.tgz:68694.got - 2010.06.27 22:07:45.
