data_PCOD8060184
_publ_section_title
;
Structure prediction by ZEFSAII (Michael W. Deem and Ramdas Pophale) SiO2 
 PCOD8060184
Probable space group: P 2/M
;
_chemical_formula_sum "Si O2"
_cell_formula_units_Z 30
_cell_length_a 28.849769
_cell_length_b 10.181799
_cell_length_c 5.319510
_cell_angle_alpha 90.000000
_cell_angle_beta 96.414700
_cell_angle_gamma 90.000000
_cell_volume 1552.783649
_symmetry_space_group_name_H-M "P 2/M"
_symmetry_group_IT_number 10
_symmetry_cell_setting 'monoclinic'
loop_
_space_group_symop_operation_xyz
x,y,z
-x,y,-z
-x,-y,-z
x,-y,z
loop_
_atom_site_type_symbol
_atom_site_label
_atom_site_fract_x
_atom_site_fract_y
_atom_site_fract_z
Si Si1 0.970045 0.350949 0.731795
Si Si2 0.500000 0.789404 0.500000
Si Si3 0.884166 0.156566 0.677626
Si Si4 0.323075 0.151509 0.426456
Si Si5 0.829529 0.154624 0.144782
Si Si6 0.448808 0.644077 0.088822
Si Si7 0.416010 0.857736 0.729241
Si Si8 0.275236 0.157270 0.899696
O O1 0.949409 0.500000 0.718765
O O2 0.931089 0.239520 0.709013
O O3 0.000000 0.328278 0.500000
O O4 0.000000 0.328787 0.000000
O O5 0.458242 0.697090 0.372454
O O6 0.470074 0.876790 0.673728
O O7 0.855372 0.199960 0.906820
O O8 0.895056 0.000000 0.684457
O O9 0.856299 0.200673 0.411541
O O10 0.379029 0.172240 0.484540
O O11 0.304299 0.215012 0.156031
O O12 0.309165 0.000000 0.408368
O O13 0.298308 0.213400 0.658154
O O14 0.777322 0.212928 0.114391
O O15 0.825655 0.000000 0.144686
O O16 0.425917 0.500000 0.080374
O O17 0.500000 0.641183 0.000000
O O18 0.413100 0.741706 0.929708
O O19 0.402510 0.000000 0.844082
O O20 0.276546 0.000000 0.899654
#
# Coordination Sequence:
#
# PCOD8060184 Si02
#       8
#     4   2   4   4   4   4   4   4
#     4  10  21  36  52  72 104 145 184 218 253 303
#     4  10  20  32  52  72 100 132 168 212 258 304
#     4  10  19  31  50  78 106 133 172 220 265 310
#     4   9  18  29  46  71 103 135 168 204 251 316
#     4   9  17  29  48  75 106 133 166 215 269 314
#     4   9  19  35  52  70  93 125 167 207 245 298
#     4  10  21  33  49  75 104 133 165 210 262 311
#     4   9  16  29  47  70 102 137 165 204 260 313
#
# _framework density 19.320141
#
# number of rings (size 3 to 8) (size 9 to 14) (size 15 to 20)
#    0.000    2.533    0.000    2.000    1.867    7.200 
#    0.000    0.000    0.000    0.000    0.000    5.600 
#    0.000    0.000    0.000    0.000    0.000    0.000 
#
# Total GULP energy -371705.847444 kJ/mol
# GULP energy per Si atom -12390.194915 kJ/mol
# Density = 1.927617 g / cm^3
# Si number density = 19.320141 Si / 1000 Ang^3
#
#
#
# Elastic Constant Matrix: (Units=GPa)
#
#
# Indices 1 2 3 4 5 6 
#
# 1 99.9154 26.1716 45.7535 0.0000 4.3560 0.0000
# 2 26.1716 68.5715 27.4952 0.0000 15.0475 0.0000
# 3 45.7535 27.4952 150.6594 0.0000 6.3756 0.0000
# 4 0.0000 0.0000 0.0000 12.0118 0.0000 -1.2992
# 5 4.3560 15.0475 6.3756 0.0000 34.7338 0.0000
# 6 0.0000 0.0000 0.0000 -1.2992 0.0000 -1.2771
#
#
#
# Elastic Compliance Matrix: (Units=1/GPa)
#
#
# Indices 1 2 3 4 5 6 
#
# 1 0.012353 -0.003590 -0.003121 0.000000 0.000579 0.000000
# 2 -0.003590 0.018297 -0.001948 0.000000 -0.007119 0.000000
# 3 -0.003121 -0.001948 0.007950 0.000000 -0.000224 0.000000
# 4 0.000000 0.000000 0.000000 0.074999 0.000000 -0.076297
# 5 0.000579 -0.007119 -0.000224 0.000000 0.031843 0.000000
# 6 0.000000 0.000000 0.000000 -0.076297 0.000000 -0.705395
#
#
# Mechanical properties :
#
#
# Convention : Reuss Voigt Hill
#
# Bulk Modulus (GPa) = 46.98722 57.55411 52.27066
# Shear Modulus (GPa) = -9.33633 23.74209 7.20288
#
# Velocity S-wave (km/s) = -2.20066 3.50934 1.93294
# Velocity P-wave (km/s) = 4.23272 6.80257 5.66528
#
# Compressibility (1/GPa) = 0.02128238
#
# Stress axis : x y z
#
# Youngs Moduli (GPa) = 80.95398 54.65451 125.78462
#
# Poissons Ratio (x) = 0.19623 0.39253
# Poissons Ratio (y) = 0.29066 0.24497
# Poissons Ratio (z) = 0.25263 0.10644
#
# Static dielectric constant tensor:
#      x y z
#    x 3.475890 0.000000 -0.043880 
#    y 0.000000 3.192960 0.000000 
#    z -0.043880 0.000000 3.872830 
# 
# 
# High freq. dielectric constant tensor:
#      x y z
#    x 1.743190 0.000000 -0.000090 
#    y 0.000000 1.698880 0.000000 
#    z -0.000090 0.000000 1.770300 
# 
# From -- ./inp_files/13461.got.cif
#   From: 2010.06.25/outbox.cif.g09.slc.cpg/sg10_7_cif.got.tgz:13461.got - 2010.06.27 22:07:45.
