data_PCOD8060439
_publ_section_title
;
Structure prediction by ZEFSAII (Michael W. Deem and Ramdas Pophale) SiO2 
 PCOD8060439
Probable space group: P 2/M
;
_chemical_formula_sum "Si O2"
_cell_formula_units_Z 32
_cell_length_a 23.731049
_cell_length_b 9.191553
_cell_length_c 28.954888
_cell_angle_alpha 90.000000
_cell_angle_beta 162.046369
_cell_angle_gamma 90.000000
_cell_volume 1946.824832
_symmetry_space_group_name_H-M "P 2/M"
_symmetry_group_IT_number 10
_symmetry_cell_setting 'monoclinic'
loop_
_space_group_symop_operation_xyz
x,y,z
-x,y,-z
-x,-y,-z
x,-y,z
loop_
_atom_site_type_symbol
_atom_site_label
_atom_site_fract_x
_atom_site_fract_y
_atom_site_fract_z
Si Si1 0.839376 0.335019 0.406482
Si Si2 0.184821 0.831419 0.423518
Si Si3 0.839715 0.672807 0.841497
Si Si4 0.471549 0.170924 0.798680
Si Si5 0.869924 0.328869 0.761023
Si Si6 0.566851 0.328606 0.451339
Si Si7 0.230638 0.334914 0.548348
Si Si8 0.115780 0.834154 0.885809
O O1 0.795372 0.500000 0.356161
O O2 0.654304 0.237671 0.257916
O O3 0.901089 0.333239 0.508850
O O4 0.000000 0.268278 0.500000
O O5 0.359352 0.757268 0.535505
O O6 0.136662 0.751514 0.433638
O O7 0.006659 0.806886 0.254163
O O8 0.228504 0.000000 0.466113
O O9 0.848299 0.500000 0.847133
O O10 0.862203 0.733714 0.807011
O O11 0.641397 0.723331 0.704688
O O12 0.000000 0.734427 0.000000
O O13 0.417257 0.249919 0.708058
O O14 0.435071 0.000000 0.766433
O O15 0.681383 0.209347 0.971674
O O16 0.896195 0.500000 0.782243
O O17 0.684562 0.287034 0.588774
O O18 0.047780 0.262322 0.875368
O O19 0.580715 0.500000 0.452401
O O20 0.276214 0.500000 0.568847
O O21 0.106636 0.000000 0.895555
#
# Coordination Sequence:
#
# PCOD8060439 Si02
#       8
#     4   4   4   4   4   4   4   4
#     4   8  16  31  50  73 101 129 160 198 235 275
#     4  10  19  32  49  70  97 128 161 198 241 286
#     4   9  17  29  45  67  90 114 149 198 245 283
#     4   9  17  30  48  72  98 127 162 196 234 279
#     4   9  17  29  47  67  87 118 158 194 234 288
#     4   9  17  30  47  65  88 119 155 194 238 288
#     4   9  18  31  48  72  98 126 159 196 238 280
#     4   9  19  33  48  69  99 129 158 198 243 285
#
# _framework density 16.437021000000001
#
# number of rings (size 3 to 8) (size 9 to 14) (size 15 to 20)
#    0.750    2.250    0.000    1.125    0.000    4.250 
#    0.000    1.875    0.000    4.500    0.000    5.250 
#    0.000    0.000    0.000    0.000    0.000    0.000 
#
# Total GULP energy -396557.579997 kJ/mol
# GULP energy per Si atom -12392.424375 kJ/mol
# Density = 1.639961 g / cm^3
# Si number density = 16.437021 Si / 1000 Ang^3
#
#
#
# Elastic Constant Matrix: (Units=GPa)
#
#
# Indices 1 2 3 4 5 6 
#
# 1 103.3454 42.2744 58.5430 0.0000 9.0007 0.0000
# 2 42.2744 66.5880 39.2269 0.0000 6.3348 0.0000
# 3 58.5430 39.2269 100.1150 0.0000 15.4683 0.0000
# 4 0.0000 0.0000 0.0000 20.7906 0.0000 1.0324
# 5 9.0007 6.3348 15.4683 0.0000 22.7697 0.0000
# 6 0.0000 0.0000 0.0000 1.0324 0.0000 15.0667
#
#
#
# Elastic Compliance Matrix: (Units=1/GPa)
#
#
# Indices 1 2 3 4 5 6 
#
# 1 0.016178 -0.006108 -0.007085 0.000000 0.000117 0.000000
# 2 -0.006108 0.021832 -0.004935 0.000000 -0.000307 0.000000
# 3 -0.007085 -0.004935 0.017229 0.000000 -0.007530 0.000000
# 4 0.000000 0.000000 0.000000 0.048263 0.000000 -0.003307
# 5 0.000117 -0.000307 -0.007530 0.000000 0.049073 0.000000
# 6 0.000000 0.000000 0.000000 -0.003307 0.000000 0.066598
#
#
# Mechanical properties :
#
#
# Convention : Reuss Voigt Hill
#
# Bulk Modulus (GPa) = 52.68081 61.12634 56.90357
# Shear Modulus (GPa) = 19.10167 20.39233 19.74700
#
# Velocity S-wave (km/s) = 3.41268 3.52608 3.46984
# Velocity P-wave (km/s) = 6.90276 7.33803 7.12372
#
# Compressibility (1/GPa) = 0.01898225
#
# Stress axis : x y z
#
# Youngs Moduli (GPa) = 61.81092 45.80425 58.04270
#
# Poissons Ratio (x) = 0.27979 0.41124
# Poissons Ratio (y) = 0.37756 0.28643
# Poissons Ratio (z) = 0.43794 0.22604
#
# Static dielectric constant tensor:
#      x y z
#    x 3.061650 0.000000 -0.004330 
#    y 0.000000 3.019460 0.000000 
#    z -0.004330 0.000000 3.030460 
# 
# 
# High freq. dielectric constant tensor:
#      x y z
#    x 1.623420 0.000000 0.001810 
#    y 0.000000 1.626320 0.000000 
#    z 0.001810 0.000000 1.616980 
# 
# From -- ./inp_files/93750.got.cif
#   From: 2010.06.25/outbox.cif.g09.slc.cpg/sg10_47_cif.got.tgz:93750.got - 2010.06.27 22:07:45.
