data_PCOD8060991
_publ_section_title
;
Structure prediction by ZEFSAII (Michael W. Deem and Ramdas Pophale) SiO2 
 PCOD8060991
Probable space group: P 2/M
;
_chemical_formula_sum "Si O2"
_cell_formula_units_Z 32
_cell_length_a 24.683124
_cell_length_b 9.250719
_cell_length_c 14.303029
_cell_angle_alpha 90.000000
_cell_angle_beta 150.473125
_cell_angle_gamma 90.000000
_cell_volume 1609.542002
_symmetry_space_group_name_H-M "P 2/M"
_symmetry_group_IT_number 10
_symmetry_cell_setting 'monoclinic'
loop_
_space_group_symop_operation_xyz
x,y,z
-x,y,-z
-x,-y,-z
x,-y,z
loop_
_atom_site_type_symbol
_atom_site_label
_atom_site_fract_x
_atom_site_fract_y
_atom_site_fract_z
Si Si1 0.117909 0.830984 0.719097
Si Si2 0.310389 0.841650 0.351053
Si Si3 0.504140 0.832149 0.115953
Si Si4 0.491449 0.667647 0.383774
Si Si5 0.117903 0.830912 0.934510
Si Si6 0.252412 0.161680 0.464769
Si Si7 0.669666 0.670582 0.017330
Si Si8 0.959315 0.670952 0.835636
O O1 0.114940 0.783932 0.822557
O O2 0.000000 0.791090 0.500000
O O3 0.144906 0.000000 0.748518
O O4 0.210183 0.742657 0.800491
O O5 0.407707 0.732869 0.522151
O O6 0.230954 0.842539 0.321368
O O7 0.362356 0.000000 0.413318
O O8 0.240212 0.795534 0.155319
O O9 0.624818 0.781595 0.330075
O O10 0.409049 0.738733 0.022339
O O11 0.484477 0.000000 0.112168
O O12 0.500000 0.804386 0.000000
O O13 0.500000 0.738836 0.500000
O O14 0.513359 0.500000 0.424537
O O15 0.379677 0.701592 0.160464
O O16 0.034456 0.735030 0.867571
O O17 0.089069 0.000000 0.904706
O O18 0.162376 0.270119 0.370785
O O19 0.236846 0.000000 0.483997
O O20 0.679581 0.500000 0.051729
O O21 0.958595 0.500000 0.825173
O O22 0.000000 0.718402 0.000000
#
# Coordination Sequence:
#
# PCOD8060991 Si02
#       8
#     4   4   4   4   4   4   4   4
#     4  10  23  43  65  87 114 153 200 245 288 340
#     4  10  19  32  55  84 111 144 188 239 288 333
#     4  10  22  41  64  88 117 156 199 241 286 342
#     4  10  21  35  53  82 119 156 189 226 284 352
#     4  10  21  38  60  86 116 152 196 245 293 343
#     4  10  20  36  58  83 113 150 192 239 288 338
#     4  11  23  39  62  90 121 156 191 237 295 347
#     4  11  23  36  55  85 120 158 195 237 294 355
#
# _framework density 19.881433000000001
#
# number of rings (size 3 to 8) (size 9 to 14) (size 15 to 20)
#    0.000    1.750    2.500    1.500    0.000    4.750 
#    0.000    5.000    0.000    0.000    0.000    0.000 
#    0.000    0.000    0.000    0.000    0.000    0.000 
#
# Total GULP energy -396761.736734 kJ/mol
# GULP energy per Si atom -12398.804273 kJ/mol
# Density = 1.983618 g / cm^3
# Si number density = 19.881433 Si / 1000 Ang^3
#
#
#
# Elastic Constant Matrix: (Units=GPa)
#
#
# Indices 1 2 3 4 5 6 
#
# 1 86.8214 50.1200 52.2325 0.0000 10.8193 0.0000
# 2 50.1200 68.5059 54.5809 0.0000 14.8256 0.0000
# 3 52.2325 54.5809 122.1089 0.0000 10.4636 0.0000
# 4 0.0000 0.0000 0.0000 52.9222 0.0000 21.4600
# 5 10.8193 14.8256 10.4636 0.0000 34.9857 0.0000
# 6 0.0000 0.0000 0.0000 21.4600 0.0000 39.4604
#
#
#
# Elastic Compliance Matrix: (Units=1/GPa)
#
#
# Indices 1 2 3 4 5 6 
#
# 1 0.020735 -0.012558 -0.003246 0.000000 -0.000120 0.000000
# 2 -0.012558 0.031944 -0.008292 0.000000 -0.007173 0.000000
# 3 -0.003246 -0.008292 0.013236 0.000000 0.000559 0.000000
# 4 0.000000 0.000000 0.000000 0.024242 0.000000 -0.013183
# 5 -0.000120 -0.007173 0.000559 0.000000 0.031493 0.000000
# 6 0.000000 0.000000 0.000000 -0.013183 0.000000 0.032511
#
#
# Mechanical properties :
#
#
# Convention : Reuss Voigt Hill
#
# Bulk Modulus (GPa) = 56.42296 65.70032 61.06164
# Shear Modulus (GPa) = 24.00838 33.50718 28.75778
#
# Velocity S-wave (km/s) = 3.47879 4.10976 3.80737
# Velocity P-wave (km/s) = 6.67663 7.45908 7.07867
#
# Compressibility (1/GPa) = 0.01772328
#
# Stress axis : x y z
#
# Youngs Moduli (GPa) = 48.22745 31.30505 75.54913
#
# Poissons Ratio (x) = 0.39313 0.24523
# Poissons Ratio (y) = 0.60564 0.62645
# Poissons Ratio (z) = 0.15655 0.25958
#
# Static dielectric constant tensor:
#      x y z
#    x 3.604980 0.000000 -0.125810 
#    y 0.000000 3.508230 0.000000 
#    z -0.125810 0.000000 3.636980 
# 
# 
# High freq. dielectric constant tensor:
#      x y z
#    x 1.772600 0.000000 -0.000570 
#    y 0.000000 1.767240 0.000000 
#    z -0.000570 0.000000 1.778930 
# 
# From -- ./inp_files/71637.got.cif
#   From: 2010.06.25/outbox.cif.g09.slc.cpg/sg10_36_cif.got.tgz:71637.got - 2010.06.27 22:07:45.
