data_PCOD8060862
_publ_section_title
;
Structure prediction by ZEFSAII (Michael W. Deem and Ramdas Pophale) SiO2 
 PCOD8060862
Probable space group: P 2/M
;
_chemical_formula_sum "Si O2"
_cell_formula_units_Z 32
_cell_length_a 23.662877
_cell_length_b 10.218700
_cell_length_c 11.471541
_cell_angle_alpha 90.000000
_cell_angle_beta 36.225632
_cell_angle_gamma 90.000000
_cell_volume 1639.260231
_symmetry_space_group_name_H-M "P 2/M"
_symmetry_group_IT_number 10
_symmetry_cell_setting 'monoclinic'
loop_
_space_group_symop_operation_xyz
x,y,z
-x,y,-z
-x,-y,-z
x,-y,z
loop_
_atom_site_type_symbol
_atom_site_label
_atom_site_fract_x
_atom_site_fract_y
_atom_site_fract_z
Si Si1 0.888695 0.349491 0.977384
Si Si2 0.211504 0.150471 0.003160
Si Si3 0.612235 0.145130 0.898200
Si Si4 0.419797 0.217966 0.297535
Si Si5 0.106439 0.649649 0.600708
Si Si6 0.771498 0.350631 0.389220
Si Si7 0.805694 0.851535 0.695265
Si Si8 0.588971 0.148520 0.421716
O O1 0.860968 0.500000 0.990599
O O2 0.999498 0.343139 0.829279
O O3 0.871346 0.249673 0.899674
O O4 0.823625 0.289919 0.189817
O O5 0.310946 0.209821 0.786994
O O6 0.192463 0.000000 0.993410
O O7 0.214510 0.157438 0.135920
O O8 0.618679 0.130620 0.746664
O O9 0.710398 0.194780 0.787666
O O10 0.587111 0.000000 0.989123
O O11 0.530304 0.248154 0.078819
O O12 0.344079 0.337693 0.425551
O O13 0.420439 0.152009 0.422973
O O14 0.130826 0.500000 0.522704
O O15 0.180723 0.706807 0.573193
O O16 0.113912 0.747035 0.477168
O O17 0.800931 0.500000 0.339979
O O18 0.835497 0.000000 0.610728
O O19 0.500000 0.217003 0.500000
O O20 0.592004 0.000000 0.373800
#
# Coordination Sequence:
#
# PCOD8060862 Si02
#       8
#     4   4   4   4   4   4   4   4
#     4  10  21  39  62  84 112 149 192 240 286 343
#     4  10  21  36  56  84 116 151 191 237 285 335
#     4  10  20  33  53  84 116 147 186 229 280 337
#     4  11  18  32  56  81 109 145 184 231 278 335
#     4  10  21  39  62  85 109 148 196 237 287 346
#     4  10  20  37  59  84 113 145 186 238 292 342
#     4  10  21  38  57  82 120 155 187 237 292 333
#     4  10  19  32  53  81 112 148 187 227 273 332
#
# _framework density 19.521000999999998
#
# number of rings (size 3 to 8) (size 9 to 14) (size 15 to 20)
#    0.000    1.875    2.500    2.625    0.000    5.000 
#    0.000    5.000    0.000    4.500    0.000    0.000 
#    0.000    0.000    0.000    0.000    0.000    0.000 
#
# Total GULP energy -396457.298210 kJ/mol
# GULP energy per Si atom -12389.290569 kJ/mol
# Density = 1.947657 g / cm^3
# Si number density = 19.521001 Si / 1000 Ang^3
#
#
#
# Elastic Constant Matrix: (Units=GPa)
#
#
# Indices 1 2 3 4 5 6 
#
# 1 91.8879 36.9349 36.2836 0.0000 3.1176 0.0000
# 2 36.9349 67.4281 39.6287 0.0000 0.5065 0.0000
# 3 36.2836 39.6287 102.0247 0.0000 6.5457 0.0000
# 4 0.0000 0.0000 0.0000 28.5788 0.0000 -0.7417
# 5 3.1176 0.5065 6.5457 0.0000 29.7096 0.0000
# 6 0.0000 0.0000 0.0000 -0.7417 0.0000 23.6267
#
#
#
# Elastic Compliance Matrix: (Units=1/GPa)
#
#
# Indices 1 2 3 4 5 6 
#
# 1 0.014522 -0.006407 -0.002622 0.000000 -0.000837 0.000000
# 2 -0.006407 0.022097 -0.006414 0.000000 0.001709 0.000000
# 3 -0.002622 -0.006414 0.013390 0.000000 -0.002566 0.000000
# 4 0.000000 0.000000 0.000000 0.035019 0.000000 0.001099
# 5 -0.000837 0.001709 -0.002566 0.000000 0.034283 0.000000
# 6 0.000000 0.000000 0.000000 0.001099 0.000000 0.042359
#
#
# Mechanical properties :
#
#
# Convention : Reuss Voigt Hill
#
# Bulk Modulus (GPa) = 52.29492 54.11502 53.20497
# Shear Modulus (GPa) = 25.13419 26.28259 25.70839
#
# Velocity S-wave (km/s) = 3.59213 3.67328 3.63293
# Velocity P-wave (km/s) = 6.63715 6.76552 6.70164
#
# Compressibility (1/GPa) = 0.01912232
#
# Stress axis : x y z
#
# Youngs Moduli (GPa) = 68.86063 45.25481 74.68261
#
# Poissons Ratio (x) = 0.28996 0.19583
# Poissons Ratio (y) = 0.44122 0.47901
# Poissons Ratio (z) = 0.18056 0.29026
#
# Static dielectric constant tensor:
#      x y z
#    x 3.631700 0.000000 -0.028890 
#    y 0.000000 3.270050 0.000000 
#    z -0.028890 0.000000 3.588590 
# 
# 
# High freq. dielectric constant tensor:
#      x y z
#    x 1.766420 0.000000 -0.000260 
#    y 0.000000 1.721530 0.000000 
#    z -0.000260 0.000000 1.767620 
# 
# From -- ./inp_files/57641.got.cif
#   From: 2010.06.25/outbox.cif.g09.slc.cpg/sg10_29_cif.got.tgz:57641.got - 2010.06.27 22:07:45.
