data_PCOD8060788
_publ_section_title
;
Structure prediction by ZEFSAII (Michael W. Deem and Ramdas Pophale) SiO2 
 PCOD8060788
Probable space group: P 2/M
;
_chemical_formula_sum "Si O2"
_cell_formula_units_Z 32
_cell_length_a 32.852261
_cell_length_b 8.852849
_cell_length_c 22.917493
_cell_angle_alpha 90.000000
_cell_angle_beta 164.228681
_cell_angle_gamma 90.000000
_cell_volume 1811.601037
_symmetry_space_group_name_H-M "P 2/M"
_symmetry_group_IT_number 10
_symmetry_cell_setting 'monoclinic'
loop_
_space_group_symop_operation_xyz
x,y,z
-x,y,-z
-x,-y,-z
x,-y,z
loop_
_atom_site_type_symbol
_atom_site_label
_atom_site_fract_x
_atom_site_fract_y
_atom_site_fract_z
Si Si1 0.139865 0.668972 0.650513
Si Si2 0.681447 0.821417 0.007150
Si Si3 0.651711 0.822239 0.471105
Si Si4 0.942684 0.677964 0.159280
Si Si5 0.093633 0.177917 0.262001
Si Si6 0.046304 0.822148 0.700016
Si Si7 0.817009 0.170291 0.809529
Si Si8 0.665384 0.828205 0.719597
O O1 0.186170 0.500000 0.694922
O O2 0.276483 0.746751 0.873053
O O3 0.000000 0.662934 0.500000
O O4 0.096194 0.767965 0.534134
O O5 0.797638 0.775818 0.116300
O O6 0.681576 0.000000 0.016843
O O7 0.516692 0.757235 0.763731
O O8 0.740229 0.788061 0.532949
O O9 0.744807 0.747280 0.653375
O O10 0.639462 0.000000 0.465300
O O11 0.956732 0.500000 0.180441
O O12 0.967599 0.741895 0.257593
O O13 0.070656 0.741959 0.292437
O O14 0.778711 0.724356 0.911402
O O15 0.063280 0.000000 0.229477
O O16 0.972382 0.242691 0.047503
O O17 0.036687 0.000000 0.695528
O O18 0.694185 0.176985 0.690656
O O19 0.855322 0.000000 0.843595
O O20 0.500000 0.762647 0.500000
O O21 0.678794 0.000000 0.761976
#
# Coordination Sequence:
#
# PCOD8060788 Si02
#       8
#     4   4   4   4   4   4   4   4
#     4   9  17  31  50  72 103 136 163 194 242 302
#     4   9  18  30  49  78 106 130 160 202 252 299
#     4   9  16  27  49  77 101 126 163 214 255 290
#     4  11  22  34  49  70 100 135 171 206 249 299
#     4   9  17  32  51  71  96 130 174 214 250 288
#     4  10  19  32  53  77 102 130 167 207 244 295
#     4   8  14  25  45  73  98 124 164 210 250 285
#     4   9  18  31  50  72  98 132 169 209 251 294
#
# _framework density 17.663934000000001
#
# number of rings (size 3 to 8) (size 9 to 14) (size 15 to 20)
#    0.000    2.750    0.000    3.000    1.750    3.750 
#    0.000    0.625    0.000    7.500    0.000    5.250 
#    0.000    0.000    0.000    0.000    0.000    0.000 
#
# Total GULP energy -396667.887176 kJ/mol
# GULP energy per Si atom -12395.871474 kJ/mol
# Density = 1.762373 g / cm^3
# Si number density = 17.663934 Si / 1000 Ang^3
#
#
#
# Elastic Constant Matrix: (Units=GPa)
#
#
# Indices 1 2 3 4 5 6 
#
# 1 107.2321 42.1685 60.9685 0.0000 -16.3152 0.0000
# 2 42.1685 68.2512 27.3600 0.0000 -9.8831 0.0000
# 3 60.9685 27.3600 87.4439 0.0000 -7.7407 0.0000
# 4 0.0000 0.0000 0.0000 13.6680 0.0000 -1.8830
# 5 -16.3152 -9.8831 -7.7407 0.0000 23.5797 0.0000
# 6 0.0000 0.0000 0.0000 -1.8830 0.0000 12.5565
#
#
#
# Elastic Compliance Matrix: (Units=1/GPa)
#
#
# Indices 1 2 3 4 5 6 
#
# 1 0.018921 -0.006455 -0.010560 0.000000 0.006919 0.000000
# 2 -0.006455 0.019667 -0.001358 0.000000 0.003331 0.000000
# 3 -0.010560 -0.001358 0.019081 0.000000 -0.001612 0.000000
# 4 0.000000 0.000000 0.000000 0.074707 0.000000 0.011203
# 5 0.006919 0.003331 -0.001612 0.000000 0.048064 0.000000
# 6 0.000000 0.000000 0.000000 0.011203 0.000000 0.081320
#
#
# Mechanical properties :
#
#
# Convention : Reuss Voigt Hill
#
# Bulk Modulus (GPa) = 47.79547 58.21347 53.00447
# Shear Modulus (GPa) = 16.36774 18.78953 17.57863
#
# Velocity S-wave (km/s) = 3.04734 3.26501 3.15806
# Velocity P-wave (km/s) = 6.28480 6.87324 6.58560
#
# Compressibility (1/GPa) = 0.02092249
#
# Stress axis : x y z
#
# Youngs Moduli (GPa) = 52.85208 50.84765 52.40866
#
# Poissons Ratio (x) = 0.32822 0.55343
# Poissons Ratio (y) = 0.34115 0.07117
# Poissons Ratio (z) = 0.55811 0.06905
#
# Static dielectric constant tensor:
#      x y z
#    x 3.286250 0.000000 -0.083480 
#    y 0.000000 3.050970 0.000000 
#    z -0.083480 0.000000 3.365580 
# 
# 
# High freq. dielectric constant tensor:
#      x y z
#    x 1.678620 0.000000 -0.006290 
#    y 0.000000 1.652950 0.000000 
#    z -0.006290 0.000000 1.672980 
# 
# From -- ./inp_files/87215.got.cif
#   From: 2010.06.25/outbox.cif.g09.slc.cpg/sg10_44_cif.got.tgz:87215.got - 2010.06.27 22:07:45.
