data_PCOD8060714
_publ_section_title
;
Structure prediction by ZEFSAII (Michael W. Deem and Ramdas Pophale) SiO2 
 PCOD8060714
Probable space group: P 2/M
;
_chemical_formula_sum "Si O2"
_cell_formula_units_Z 32
_cell_length_a 26.157860
_cell_length_b 8.956720
_cell_length_c 20.294301
_cell_angle_alpha 90.000000
_cell_angle_beta 158.647312
_cell_angle_gamma 90.000000
_cell_volume 1731.232264
_symmetry_space_group_name_H-M "P 2/M"
_symmetry_group_IT_number 10
_symmetry_cell_setting 'monoclinic'
loop_
_space_group_symop_operation_xyz
x,y,z
-x,y,-z
-x,-y,-z
x,-y,z
loop_
_atom_site_type_symbol
_atom_site_label
_atom_site_fract_x
_atom_site_fract_y
_atom_site_fract_z
Si Si1 0.076674 0.324321 0.363648
Si Si2 0.844840 0.322133 0.800685
Si Si3 0.905151 0.176541 0.482163
Si Si4 0.240482 0.323343 0.041293
Si Si5 0.574165 0.822532 0.846472
Si Si6 0.801395 0.176270 0.220884
Si Si7 0.274784 0.676793 0.482281
Si Si8 0.656392 0.677156 0.692532
O O1 0.081438 0.500000 0.376923
O O2 0.145660 0.252360 0.511422
O O3 0.165934 0.273248 0.407794
O O4 0.916599 0.268839 0.163466
O O5 0.848223 0.500000 0.806271
O O6 0.788054 0.266392 0.662263
O O7 0.744960 0.257378 0.737932
O O8 0.000000 0.257975 0.000000
O O9 0.801894 0.226831 0.298238
O O10 0.061053 0.237094 0.651897
O O11 0.902169 0.000000 0.488730
O O12 0.258715 0.500000 0.053661
O O13 0.352835 0.240689 0.130932
O O14 0.271316 0.273912 0.152900
O O15 0.420507 0.757423 0.670911
O O16 0.568115 0.000000 0.834118
O O17 0.662220 0.768470 0.016415
O O18 0.813625 0.000000 0.233814
O O19 0.299716 0.500000 0.511663
O O20 0.500000 0.744087 0.500000
O O21 0.651418 0.500000 0.681160
#
# Coordination Sequence:
#
# PCOD8060714 Si02
#       8
#     4   4   4   4   4   4   4   4
#     4  10  20  33  50  78 110 136 166 209 262 315
#     4   9  16  29  51  75  97 130 176 217 251 294
#     4   9  16  32  56  77 100 132 172 218 259 295
#     4  10  19  32  52  78 106 133 166 215 267 308
#     4  11  21  35  54  78 105 137 177 214 255 312
#     4   8  16  31  53  78 101 130 172 219 256 294
#     4  10  21  36  53  76 110 143 171 212 263 309
#     4   9  16  26  44  71  98 125 163 207 248 295
#
# _framework density 18.483943
#
# number of rings (size 3 to 8) (size 9 to 14) (size 15 to 20)
#    0.000    2.500    1.250    2.625    0.000    5.500 
#    0.000    3.125    0.000    7.500    0.000    0.000 
#    0.000    0.000    0.000    0.000    0.000    0.000 
#
# Total GULP energy -396752.150120 kJ/mol
# GULP energy per Si atom -12398.504691 kJ/mol
# Density = 1.844187 g / cm^3
# Si number density = 18.483943 Si / 1000 Ang^3
#
#
#
# Elastic Constant Matrix: (Units=GPa)
#
#
# Indices 1 2 3 4 5 6 
#
# 1 146.1505 26.9409 67.0179 0.0000 -14.6861 0.0000
# 2 26.9409 21.3047 22.3122 0.0000 -0.6424 0.0000
# 3 67.0179 22.3122 123.9900 0.0000 -9.9968 0.0000
# 4 0.0000 0.0000 0.0000 21.3096 0.0000 1.0762
# 5 -14.6861 -0.6424 -9.9968 0.0000 38.0224 0.0000
# 6 0.0000 0.0000 0.0000 1.0762 0.0000 1.0118
#
#
#
# Elastic Compliance Matrix: (Units=1/GPa)
#
#
# Indices 1 2 3 4 5 6 
#
# 1 0.010607 -0.009326 -0.003818 0.000000 0.002936 0.000000
# 2 -0.009326 0.066158 -0.007218 0.000000 -0.004382 0.000000
# 3 -0.003818 -0.007218 0.011544 0.000000 0.001438 0.000000
# 4 0.000000 0.000000 0.000000 0.049591 0.000000 -0.052746
# 5 0.002936 -0.004382 0.001438 0.000000 0.027738 0.000000
# 6 0.000000 0.000000 0.000000 -0.052746 0.000000 1.044427
#
#
# Mechanical properties :
#
#
# Convention : Reuss Voigt Hill
#
# Bulk Modulus (GPa) = 21.01503 58.22081 39.61792
# Shear Modulus (GPa) = 3.94741 23.74703 13.84722
#
# Velocity S-wave (km/s) = 1.46295 3.58821 2.74003
# Velocity P-wave (km/s) = 3.77461 6.98094 5.61164
#
# Compressibility (1/GPa) = 0.04758499
#
# Stress axis : x y z
#
# Youngs Moduli (GPa) = 94.27430 15.11527 86.62575
#
# Poissons Ratio (x) = 0.14096 0.33078
# Poissons Ratio (y) = 0.87920 0.62525
# Poissons Ratio (z) = 0.35998 0.10910
#
# Static dielectric constant tensor:
#      x y z
#    x 3.576120 0.000000 -0.151580 
#    y 0.000000 2.937380 0.000000 
#    z -0.151580 0.000000 3.629740 
# 
# 
# High freq. dielectric constant tensor:
#      x y z
#    x 1.726940 0.000000 -0.012290 
#    y 0.000000 1.670380 0.000000 
#    z -0.012290 0.000000 1.723010 
# 
# From -- ./inp_files/87002.got.cif
#   From: 2010.06.25/outbox.cif.g09.slc.cpg/sg10_44_cif.got.tgz:87002.got - 2010.06.27 22:07:45.
