data_PCOD8060130
_publ_section_title
;
Structure prediction by ZEFSAII (Michael W. Deem and Ramdas Pophale) SiO2 
 PCOD8060130
Probable space group: P 2/M
;
_chemical_formula_sum "Si O2"
_cell_formula_units_Z 28
_cell_length_a 10.958678
_cell_length_b 8.979068
_cell_length_c 20.205440
_cell_angle_alpha 90.000000
_cell_angle_beta 128.090242
_cell_angle_gamma 90.000000
_cell_volume 1564.784725
_symmetry_space_group_name_H-M "P 2/M"
_symmetry_group_IT_number 10
_symmetry_cell_setting 'monoclinic'
loop_
_space_group_symop_operation_xyz
x,y,z
-x,y,-z
-x,-y,-z
x,-y,z
loop_
_atom_site_type_symbol
_atom_site_label
_atom_site_fract_x
_atom_site_fract_y
_atom_site_fract_z
Si Si1 0.075750 0.669428 0.611301
Si Si2 0.206570 0.174228 0.533017
Si Si3 0.041753 0.176103 0.940939
Si Si4 0.469914 0.825755 0.416943
Si Si5 0.846902 0.823293 0.750581
Si Si6 0.883079 0.330757 0.226469
Si Si7 0.677988 0.176241 0.056779
O O1 0.072507 0.500000 0.584086
O O2 0.176279 0.773654 0.597382
O O3 0.153612 0.677038 0.708516
O O4 0.900784 0.733981 0.553832
O O5 0.383694 0.211982 0.578664
O O6 0.170498 0.000000 0.512851
O O7 0.212717 0.227443 0.969602
O O8 0.906477 0.226495 0.843916
O O9 0.043746 0.000000 0.948019
O O10 0.000000 0.244323 0.000000
O O11 0.500000 0.754455 0.500000
O O12 0.323530 0.762306 0.326231
O O13 0.441868 0.000000 0.417541
O O14 0.956397 0.752198 0.732372
O O15 0.857792 0.000000 0.749046
O O16 0.894253 0.500000 0.204744
O O17 0.743706 0.246510 0.145079
O O18 0.686753 0.000000 0.065087
O O19 0.500000 0.231600 0.000000
#
# Coordination Sequence:
#
# PCOD8060130 Si02
#       7
#     4   4   4   4   4   4   4
#     4  10  20  34  49  67  97 135 169 202 247 296
#     4  10  19  31  50  74  98 126 166 209 248 294
#     4   8  14  27  48  72  97 126 158 195 246 302
#     4   9  17  29  46  72 101 125 156 202 252 293
#     4   9  17  31  51  72  97 128 162 203 248 293
#     4  10  20  33  51  73  97 131 170 202 243 296
#     4   9  18  33  52  77 102 126 164 211 255 301
#
# _framework density 17.893836
#
# number of rings (size 3 to 8) (size 9 to 14) (size 15 to 20)
#    0.000    2.714    0.000    3.857    0.000    3.714 
#    2.571    1.429    0.000   10.714    0.000    0.000 
#    0.000    0.000    0.000    0.000    0.000    0.000 
#
# Total GULP energy -346925.444674 kJ/mol
# GULP energy per Si atom -12390.194453 kJ/mol
# Density = 1.785311 g / cm^3
# Si number density = 17.893836 Si / 1000 Ang^3
#
#
#
# Elastic Constant Matrix: (Units=GPa)
#
#
# Indices 1 2 3 4 5 6 
#
# 1 108.6215 16.2764 76.5753 0.0000 18.4059 0.0000
# 2 16.2764 32.1317 24.0171 0.0000 0.3807 0.0000
# 3 76.5753 24.0171 136.2577 0.0000 4.1570 0.0000
# 4 0.0000 0.0000 0.0000 15.3610 0.0000 -10.8269
# 5 18.4059 0.3807 4.1570 0.0000 36.9299 0.0000
# 6 0.0000 0.0000 0.0000 -10.8269 0.0000 -1.8149
#
#
#
# Elastic Compliance Matrix: (Units=1/GPa)
#
#
# Indices 1 2 3 4 5 6 
#
# 1 0.017164 -0.001805 -0.009099 0.000000 -0.007512 0.000000
# 2 -0.001805 0.036038 -0.005373 0.000000 0.001133 0.000000
# 3 -0.009099 -0.005373 0.013305 0.000000 0.003092 0.000000
# 4 0.000000 0.000000 0.000000 0.012508 0.000000 -0.074617
# 5 -0.007512 0.001133 0.003092 0.000000 0.030462 0.000000
# 6 0.000000 0.000000 0.000000 -0.074617 0.000000 -0.105865
#
#
# Mechanical properties :
#
#
# Convention : Reuss Voigt Hill
#
# Bulk Modulus (GPa) = 29.45023 56.74984 43.10003
# Shear Modulus (GPa) = 105.30119 20.77135 63.03627
#
# Velocity S-wave (km/s) = 7.67955 3.41076 5.94175
# Velocity P-wave (km/s) = 9.75336 6.87711 8.43868
#
# Compressibility (1/GPa) = 0.03395560
#
# Stress axis : x y z
#
# Youngs Moduli (GPa) = 58.26205 27.74820 75.15963
#
# Poissons Ratio (x) = 0.05007 0.68385
# Poissons Ratio (y) = 0.10514 0.40380
# Poissons Ratio (z) = 0.53011 0.14908
#
# Static dielectric constant tensor:
#      x y z
#    x 3.443900 0.000000 0.052540 
#    y 0.000000 3.118880 0.000000 
#    z 0.052540 0.000000 3.547620 
# 
# 
# High freq. dielectric constant tensor:
#      x y z
#    x 1.690500 0.000000 -0.000450 
#    y 0.000000 1.667710 0.000000 
#    z -0.000450 0.000000 1.694380 
# 
# From -- ./inp_files/83412.got.cif
#   From: 2010.06.25/outbox.cif.g09.slc.cpg/sg10_42_cif.got.tgz:83412.got - 2010.06.27 22:07:45.
