data_PCOD8060758
_publ_section_title
;
Structure prediction by ZEFSAII (Michael W. Deem and Ramdas Pophale) SiO2 
 PCOD8060758
Probable space group: P 2/M
;
_chemical_formula_sum "Si O2"
_cell_formula_units_Z 30
_cell_length_a 14.817532
_cell_length_b 19.715283
_cell_length_c 15.337189
_cell_angle_alpha 90.000000
_cell_angle_beta 160.434554
_cell_angle_gamma 90.000000
_cell_volume 1500.438649
_symmetry_space_group_name_H-M "P 2/M"
_symmetry_group_IT_number 10
_symmetry_cell_setting 'monoclinic'
loop_
_space_group_symop_operation_xyz
x,y,z
-x,y,-z
-x,-y,-z
x,-y,z
loop_
_atom_site_type_symbol
_atom_site_label
_atom_site_fract_x
_atom_site_fract_y
_atom_site_fract_z
Si Si1 0.534377 0.660084 0.275237
Si Si2 0.203001 0.000000 0.761131
Si Si3 0.213734 0.198221 0.128799
Si Si4 0.695701 0.347680 0.751937
Si Si5 0.061242 0.105972 0.767119
Si Si6 0.522124 0.924922 0.702780
Si Si7 0.294617 0.580270 0.738254
Si Si8 0.954424 0.250870 0.206587
O O1 0.386750 0.624873 0.225601
O O2 0.635993 0.606908 0.295681
O O3 0.783693 0.703408 0.539003
O O4 0.318906 0.706720 0.028737
O O5 0.158625 0.930173 0.769997
O O6 0.000000 0.000000 0.500000
O O7 0.500000 0.000000 0.000000
O O8 0.350305 0.266639 0.288805
O O9 0.437018 0.138872 0.324855
O O10 0.045421 0.218751 0.889600
O O11 0.000000 0.166845 0.000000
O O12 0.500000 0.379124 0.500000
O O13 0.000000 0.367216 0.000000
O O14 0.041974 0.186124 0.726083
O O15 0.779068 0.074851 0.538102
O O16 0.276225 0.088872 0.035803
O O17 0.580620 0.000000 0.715006
O O18 0.304787 0.500000 0.739290
O O19 0.000000 0.605717 0.500000
O O20 0.500000 0.605990 0.000000
#
# Coordination Sequence:
#
# PCOD8060758 Si02
#       8
#     4   2   4   4   4   4   4   4
#     4  11  20  37  60  90 117 154 196 233 285 342
#     4  12  24  38  58  76  91 124 173 226 278 338
#     4   9  19  32  51  78 111 142 187 237 279 333
#     4  10  19  32  52  80 115 154 194 237 281 333
#     4  11  21  40  54  73 103 134 181 224 282 348
#     4  11  20  34  54  72  97 146 179 223 286 338
#     4  10  22  41  65  93 124 159 195 232 281 344
#     4  10  21  35  59  81 111 152 185 229 289 338
#
# _framework density 19.994153000000001
#
# number of rings (size 3 to 8) (size 9 to 14) (size 15 to 20)
#    0.000    1.600    1.333    6.400    0.000    2.400 
#    0.000    4.000    0.000    5.200    0.000    0.000 
#    0.000    0.533    0.000    0.000    0.000    0.000 
#
# Total GULP energy -371799.084673 kJ/mol
# GULP energy per Si atom -12393.302822 kJ/mol
# Density = 1.994865 g / cm^3
# Si number density = 19.994153 Si / 1000 Ang^3
#
#
#
# Elastic Constant Matrix: (Units=GPa)
#
#
# Indices 1 2 3 4 5 6 
#
# 1 140.2867 35.8653 41.5476 0.0000 17.4797 0.0000
# 2 35.8653 43.8208 20.9897 0.0000 4.7231 0.0000
# 3 41.5476 20.9897 135.8916 0.0000 19.7271 0.0000
# 4 0.0000 0.0000 0.0000 20.4397 0.0000 -0.2168
# 5 17.4797 4.7231 19.7271 0.0000 30.6387 0.0000
# 6 0.0000 0.0000 0.0000 -0.2168 0.0000 31.8163
#
#
#
# Elastic Compliance Matrix: (Units=1/GPa)
#
#
# Indices 1 2 3 4 5 6 
#
# 1 0.009762 -0.006936 -0.001390 0.000000 -0.003605 0.000000
# 2 -0.006936 0.029632 -0.002612 0.000000 0.001071 0.000000
# 3 -0.001390 -0.002612 0.008840 0.000000 -0.004496 0.000000
# 4 0.000000 0.000000 0.000000 0.048928 0.000000 0.000333
# 5 -0.003605 0.001071 -0.004496 0.000000 0.037425 0.000000
# 6 0.000000 0.000000 0.000000 0.000333 0.000000 0.031433
#
#
# Mechanical properties :
#
#
# Convention : Reuss Voigt Hill
#
# Bulk Modulus (GPa) = 37.93710 57.42270 47.67990
# Shear Modulus (GPa) = 25.42178 31.35205 28.38691
#
# Velocity S-wave (km/s) = 3.56962 3.96417 3.77206
# Velocity P-wave (km/s) = 6.00041 7.05230 6.54751
#
# Compressibility (1/GPa) = 0.02635942
#
# Stress axis : x y z
#
# Youngs Moduli (GPa) = 102.43489 33.74694 113.12318
#
# Poissons Ratio (x) = 0.23405 0.15725
# Poissons Ratio (y) = 0.71044 0.29547
# Poissons Ratio (z) = 0.14239 0.08814
#
# Static dielectric constant tensor:
#      x y z
#    x 3.840790 0.000000 0.076070 
#    y 0.000000 3.567740 0.000000 
#    z 0.076070 0.000000 3.823750 
# 
# 
# High freq. dielectric constant tensor:
#      x y z
#    x 1.772030 0.000000 0.008430 
#    y 0.000000 1.755760 0.000000 
#    z 0.008430 0.000000 1.800060 
# 
# From -- ./inp_files/67905.got.cif
#   From: 2010.06.25/outbox.cif.g09.slc.cpg/sg10_34_cif.got.tgz:67905.got - 2010.06.27 22:07:45.
