data_PCOD8060185
_publ_section_title
;
Structure prediction by ZEFSAII (Michael W. Deem and Ramdas Pophale) SiO2 
 PCOD8060185
Probable space group: P 2/M
;
_chemical_formula_sum "Si O2"
_cell_formula_units_Z 24
_cell_length_a 17.650364
_cell_length_b 7.854498
_cell_length_c 17.721019
_cell_angle_alpha 90.000000
_cell_angle_beta 31.249418
_cell_angle_gamma 90.000000
_cell_volume 1274.474357
_symmetry_space_group_name_H-M "P 2/M"
_symmetry_group_IT_number 10
_symmetry_cell_setting 'monoclinic'
loop_
_space_group_symop_operation_xyz
x,y,z
-x,y,-z
-x,-y,-z
x,-y,z
loop_
_atom_site_type_symbol
_atom_site_label
_atom_site_fract_x
_atom_site_fract_y
_atom_site_fract_z
Si Si1 0.044872 0.000000 0.375785
Si Si2 0.313646 0.303742 0.992940
Si Si3 0.626326 0.000000 0.952974
Si Si4 0.335494 0.188125 0.667648
Si Si5 0.993439 0.689243 0.317548
Si Si6 0.751281 0.805681 0.416558
Si Si7 0.556474 0.691552 0.276777
O O1 0.975681 0.830959 0.397280
O O2 0.000000 0.000000 0.500000
O O3 0.219137 0.000000 0.221155
O O4 0.357232 0.500000 0.975397
O O5 0.392577 0.172466 0.982186
O O6 0.140195 0.276854 0.145371
O O7 0.359448 0.251412 0.869816
O O8 0.500000 0.000000 0.000000
O O9 0.500000 0.177388 0.500000
O O10 0.245415 0.265512 0.673052
O O11 0.329415 0.295842 0.750065
O O12 0.275975 0.000000 0.736918
O O13 0.996691 0.500000 0.351707
O O14 0.858551 0.692989 0.375028
O O15 0.587092 0.805076 0.589663
O O16 0.805661 0.000000 0.371585
O O17 0.500747 0.500000 0.317010
#
# Coordination Sequence:
#
# PCOD8060185 Si02
#       7
#     2   4   2   4   4   4   4
#     4  10  22  40  58  83 112 135 173 218 261 324
#     4   9  21  38  56  81 111 140 177 219 260 319
#     4  10  22  38  60  83 104 143 173 204 273 322
#     4   8  16  29  45  70 106 143 179 225 269 305
#     4  10  20  38  59  79 109 146 177 215 268 317
#     4  10  19  32  51  78 109 142 185 228 265 312
#     4  10  19  31  50  78 107 142 184 225 269 311
#
# _framework density 18.831292999999999
#
# number of rings (size 3 to 8) (size 9 to 14) (size 15 to 20)
#    0.000    2.500    0.833    2.000    2.333    5.667 
#    0.000    0.833    0.000    5.000    0.000    0.000 
#    0.000    0.000    0.000    0.000    0.000    0.000 
#
# Total GULP energy -297469.971793 kJ/mol
# GULP energy per Si atom -12394.582158 kJ/mol
# Density = 1.878843 g / cm^3
# Si number density = 18.831293 Si / 1000 Ang^3
#
#
#
# Elastic Constant Matrix: (Units=GPa)
#
#
# Indices 1 2 3 4 5 6 
#
# 1 146.9000 57.9508 59.3084 0.0000 17.2897 0.0000
# 2 57.9508 100.9871 37.1517 0.0000 14.3261 0.0000
# 3 59.3084 37.1517 71.3567 0.0000 25.2070 0.0000
# 4 0.0000 0.0000 0.0000 22.4581 0.0000 3.3320
# 5 17.2897 14.3261 25.2070 0.0000 28.0625 0.0000
# 6 0.0000 0.0000 0.0000 3.3320 0.0000 18.9750
#
#
#
# Elastic Compliance Matrix: (Units=1/GPa)
#
#
# Indices 1 2 3 4 5 6 
#
# 1 0.011394 -0.003814 -0.008338 0.000000 0.002417 0.000000
# 2 -0.003814 0.013536 -0.003320 0.000000 -0.001578 0.000000
# 3 -0.008338 -0.003320 0.029676 0.000000 -0.019824 0.000000
# 4 0.000000 0.000000 0.000000 0.045718 0.000000 -0.008028
# 5 0.002417 -0.001578 -0.019824 0.000000 0.052758 0.000000
# 6 0.000000 0.000000 0.000000 -0.008028 0.000000 0.054111
#
#
# Mechanical properties :
#
#
# Convention : Reuss Voigt Hill
#
# Bulk Modulus (GPa) = 42.26246 69.78505 56.02375
# Shear Modulus (GPa) = 20.32320 24.88798 22.60559
#
# Velocity S-wave (km/s) = 3.28872 3.63937 3.46848
# Velocity P-wave (km/s) = 6.07555 7.40260 6.77166
#
# Compressibility (1/GPa) = 0.02366166
#
# Stress axis : x y z
#
# Youngs Moduli (GPa) = 87.76780 73.87691 33.69735
#
# Poissons Ratio (x) = 0.28174 0.28097
# Poissons Ratio (y) = 0.33471 0.11189
# Poissons Ratio (z) = 0.73182 0.24530
#
# Static dielectric constant tensor:
#      x y z
#    x 3.481390 0.000000 0.120320 
#    y 0.000000 3.579140 0.000000 
#    z 0.120320 0.000000 3.200830 
# 
# 
# High freq. dielectric constant tensor:
#      x y z
#    x 1.725390 0.000000 0.009730 
#    y 0.000000 1.741140 0.000000 
#    z 0.009730 0.000000 1.703290 
# 
# From -- ./inp_files/33826.got.cif
#   From: 2010.06.25/outbox.cif.g09.slc.cpg/sg10_17_cif.got.tgz:33826.got - 2010.06.27 22:07:45.
