data_PCOD8060155
_publ_section_title
;
Structure prediction by ZEFSAII (Michael W. Deem and Ramdas Pophale) SiO2 
 PCOD8060155
Probable space group: P 2/M
;
_chemical_formula_sum "Si O2"
_cell_formula_units_Z 20
_cell_length_a 5.070415
_cell_length_b 22.075706
_cell_length_c 9.829349
_cell_angle_alpha 90.000000
_cell_angle_beta 109.927522
_cell_angle_gamma 90.000000
_cell_volume 1034.351723
_symmetry_space_group_name_H-M "P 2/M"
_symmetry_group_IT_number 10
_symmetry_cell_setting 'monoclinic'
loop_
_space_group_symop_operation_xyz
x,y,z
-x,y,-z
-x,-y,-z
x,-y,z
loop_
_atom_site_type_symbol
_atom_site_label
_atom_site_fract_x
_atom_site_fract_y
_atom_site_fract_z
Si Si1 0.179785 0.432296 0.905191
Si Si2 0.371589 0.067630 0.827942
Si Si3 0.131563 0.861267 0.171576
Si Si4 0.081132 0.664732 0.664542
Si Si5 0.412952 0.743466 0.335958
O O1 0.066447 0.500000 0.852152
O O2 0.169731 0.392624 0.767622
O O3 0.500000 0.434897 0.000000
O O4 0.000000 0.404966 0.000000
O O5 0.616620 0.090425 0.772221
O O6 0.109838 0.114106 0.769755
O O7 0.276164 0.000000 0.768825
O O8 0.500000 0.066716 0.000000
O O9 0.257448 0.796489 0.229208
O O10 0.000000 0.856065 0.000000
O O11 0.320004 0.717263 0.699960
O O12 0.000000 0.641980 0.500000
O O13 0.805738 0.689424 0.689068
O O14 0.500000 0.767973 0.500000
#
# Coordination Sequence:
#
# PCOD8060155 Si02
#       5
#     4   4   4   4   4
#     4  10  21  37  57  83 113 142 174 218 271 315
#     4   9  17  30  49  73 100 129 165 212 260 307
#     4  10  19  31  50  75  99 129 171 212 257 313
#     4  10  21  37  56  78 105 143 185 217 257 316
#     4  10  21  36  53  75 106 140 174 217 265 309
#
# _framework density 19.335781000000001
#
# number of rings (size 3 to 8) (size 9 to 14) (size 15 to 20)
#    0.000    2.200    0.000    3.000    0.000    5.200 
#    0.000    0.000    0.000   10.800    0.000    0.000 
#    0.000    0.000    0.000    0.000    0.000    0.000 
#
# Total GULP energy -247941.319935 kJ/mol
# GULP energy per Si atom -12397.065997 kJ/mol
# Density = 1.929177 g / cm^3
# Si number density = 19.335781 Si / 1000 Ang^3
#
#
#
# Elastic Constant Matrix: (Units=GPa)
#
#
# Indices 1 2 3 4 5 6 
#
# 1 110.2548 22.5544 30.4593 0.0000 3.3885 0.0000
# 2 22.5544 95.7247 54.4401 0.0000 6.2411 0.0000
# 3 30.4593 54.4401 58.8089 0.0000 3.5845 0.0000
# 4 0.0000 0.0000 0.0000 3.3483 0.0000 5.7234
# 5 3.3885 6.2411 3.5845 0.0000 20.7891 0.0000
# 6 0.0000 0.0000 0.0000 5.7234 0.0000 31.2942
#
#
#
# Elastic Compliance Matrix: (Units=1/GPa)
#
#
# Indices 1 2 3 4 5 6 
#
# 1 0.010684 0.001394 -0.006763 0.000000 -0.000994 0.000000
# 2 0.001394 0.022447 -0.021301 0.000000 -0.003293 0.000000
# 3 -0.006763 -0.021301 0.040191 0.000000 0.000567 0.000000
# 4 0.000000 0.000000 0.000000 0.434486 0.000000 -0.079463
# 5 -0.000994 -0.003293 0.000567 0.000000 0.049155 0.000000
# 6 0.000000 0.000000 0.000000 -0.079463 0.000000 0.046488
#
#
# Mechanical properties :
#
#
# Convention : Reuss Voigt Hill
#
# Bulk Modulus (GPa) = 50.04627 53.29956 51.67291
# Shear Modulus (GPa) = 7.53635 21.57529 14.55582
#
# Velocity S-wave (km/s) = 1.97638 3.34402 2.74668
# Velocity P-wave (km/s) = 5.58095 6.52189 6.06968
#
# Compressibility (1/GPa) = 0.01998151
#
# Stress axis : x y z
#
# Youngs Moduli (GPa) = 93.60017 44.54965 24.88134
#
# Poissons Ratio (x) = -0.06210 0.16828
# Poissons Ratio (y) = -0.13047 0.52999
# Poissons Ratio (z) = 0.63305 0.94893
#
# Static dielectric constant tensor:
#      x y z
#    x 3.939100 0.000000 -0.043710 
#    y 0.000000 3.477530 0.000000 
#    z -0.043710 0.000000 3.360800 
# 
# 
# High freq. dielectric constant tensor:
#      x y z
#    x 1.777860 0.000000 0.003910 
#    y 0.000000 1.749590 0.000000 
#    z 0.003910 0.000000 1.719440 
# 
# From -- ./inp_files/4692.got.cif
#   From: 2010.06.25/outbox.cif.g09.slc.cpg/sg10_3_cif.got.tgz:4692.got - 2010.06.27 22:07:45.
