data_PCOD8060600
_publ_section_title
;
Structure prediction by ZEFSAII (Michael W. Deem and Ramdas Pophale) SiO2 
 PCOD8060600
Probable space group: P 2/M
;
_chemical_formula_sum "Si O2"
_cell_formula_units_Z 32
_cell_length_a 28.050980
_cell_length_b 9.655534
_cell_length_c 21.721332
_cell_angle_alpha 90.000000
_cell_angle_beta 18.790551
_cell_angle_gamma 90.000000
_cell_volume 1895.022723
_symmetry_space_group_name_H-M "P 2/M"
_symmetry_group_IT_number 10
_symmetry_cell_setting 'monoclinic'
loop_
_space_group_symop_operation_xyz
x,y,z
-x,y,-z
-x,-y,-z
x,-y,z
loop_
_atom_site_type_symbol
_atom_site_label
_atom_site_fract_x
_atom_site_fract_y
_atom_site_fract_z
Si Si1 0.173263 0.841843 0.154582
Si Si2 0.398870 0.158482 0.565386
Si Si3 0.080741 0.659020 0.091433
Si Si4 0.891947 0.661024 0.078812
Si Si5 0.328961 0.158185 0.843215
Si Si6 0.925037 0.340974 0.402804
Si Si7 0.827412 0.841542 0.708316
Si Si8 0.666519 0.661009 0.804245
O O1 0.238400 0.815485 0.142828
O O2 0.030168 0.748708 0.317725
O O3 0.118472 0.000000 0.215499
O O4 0.302197 0.807457 0.947814
O O5 0.500000 0.195772 0.500000
O O6 0.260561 0.258166 0.730284
O O7 0.499143 0.184562 0.382073
O O8 0.343381 0.000000 0.637070
O O9 0.127665 0.500000 0.042599
O O10 0.949564 0.697683 0.300440
O O11 0.029678 0.686448 0.083525
O O12 0.225916 0.748790 0.926198
O O13 0.855963 0.500000 0.133030
O O14 0.000000 0.716698 0.000000
O O15 0.286549 0.000000 0.879460
O O16 0.968071 0.500000 0.361729
O O17 0.756071 0.313419 0.630738
O O18 0.742215 0.741841 0.766959
O O19 0.000000 0.804096 0.500000
O O20 0.804320 0.000000 0.715177
O O21 0.666163 0.500000 0.822810
O O22 0.500000 0.716739 0.000000
#
# Coordination Sequence:
#
# PCOD8060600 Si02
#       8
#     4   4   4   4   4   4   4   4
#     4   9  17  30  49  73 101 129 159 201 248 292
#     4  10  19  32  51  76 101 126 163 204 246 294
#     4   9  17  30  49  71  95 126 165 205 243 288
#     4  10  21  35  50  72 102 134 168 204 246 294
#     4   9  17  30  49  73 101 129 159 201 248 292
#     4   9  17  30  49  71  95 126 165 205 243 288
#     4  10  19  32  51  76 101 126 163 204 246 294
#     4  10  21  35  50  72 102 134 168 204 246 294
#
# _framework density 16.886341000000002
#
# number of rings (size 3 to 8) (size 9 to 14) (size 15 to 20)
#    0.000    2.500    2.500    0.000    0.000    2.000 
#    0.000    1.250    0.000    1.500    0.000    0.000 
#    0.000    0.000    0.000    0.000    0.000    0.000 
#
# Total GULP energy -396681.785550 kJ/mol
# GULP energy per Si atom -12396.305798 kJ/mol
# Density = 1.684791 g / cm^3
# Si number density = 16.886341 Si / 1000 Ang^3
#
#
#
# Elastic Constant Matrix: (Units=GPa)
#
#
# Indices 1 2 3 4 5 6 
#
# 1 113.7449 46.8922 64.0947 0.0000 5.5080 0.0000
# 2 46.8922 56.4406 46.3873 0.0000 -3.4474 0.0000
# 3 64.0947 46.3873 115.4493 0.0000 5.3143 0.0000
# 4 0.0000 0.0000 0.0000 40.3485 0.0000 -17.6872
# 5 5.5080 -3.4474 5.3143 0.0000 23.9896 0.0000
# 6 0.0000 0.0000 0.0000 -17.6872 0.0000 43.2173
#
#
#
# Elastic Compliance Matrix: (Units=1/GPa)
#
#
# Indices 1 2 3 4 5 6 
#
# 1 0.015401 -0.009176 -0.004688 0.000000 -0.003816 0.000000
# 2 -0.009176 0.032872 -0.008515 0.000000 0.008717 0.000000
# 3 -0.004688 -0.008515 0.014844 0.000000 -0.003436 0.000000
# 4 0.000000 0.000000 0.000000 0.030203 0.000000 0.012361
# 5 -0.003816 0.008717 -0.003436 0.000000 0.044575 0.000000
# 6 0.000000 0.000000 0.000000 0.012361 0.000000 0.028198
#
#
# Mechanical properties :
#
#
# Convention : Reuss Voigt Hill
#
# Bulk Modulus (GPa) = 54.46733 66.70924 60.58828
# Shear Modulus (GPa) = 23.04497 30.06178 26.55338
#
# Velocity S-wave (km/s) = 3.69821 4.22387 3.96975
# Velocity P-wave (km/s) = 7.11062 7.96107 7.54784
#
# Compressibility (1/GPa) = 0.01835963
#
# Stress axis : x y z
#
# Youngs Moduli (GPa) = 64.93267 30.42128 67.36856
#
# Poissons Ratio (x) = 0.27913 0.31580
# Poissons Ratio (y) = 0.59580 0.57364
# Poissons Ratio (z) = 0.30438 0.25904
#
# Static dielectric constant tensor:
#      x y z
#    x 3.246910 0.000000 0.411560 
#    y 0.000000 3.187540 0.000000 
#    z 0.411560 0.000000 3.309260 
# 
# 
# High freq. dielectric constant tensor:
#      x y z
#    x 1.638750 0.000000 0.033900 
#    y 0.000000 1.653690 0.000000 
#    z 0.033900 0.000000 1.643870 
# 
# From -- ./inp_files/86855.got.cif
#   From: 2010.06.25/outbox.cif.g09.slc.cpg/sg10_44_cif.got.tgz:86855.got - 2010.06.27 22:07:45.
