data_PCOD8060579
_publ_section_title
;
Structure prediction by ZEFSAII (Michael W. Deem and Ramdas Pophale) SiO2 
 PCOD8060579
Probable space group: P 2/M
;
_chemical_formula_sum "Si O2"
_cell_formula_units_Z 24
_cell_length_a 23.940697
_cell_length_b 8.899013
_cell_length_c 17.972925
_cell_angle_alpha 90.000000
_cell_angle_beta 19.362676
_cell_angle_gamma 90.000000
_cell_volume 1269.527169
_symmetry_space_group_name_H-M "P 2/M"
_symmetry_group_IT_number 10
_symmetry_cell_setting 'monoclinic'
loop_
_space_group_symop_operation_xyz
x,y,z
-x,y,-z
-x,-y,-z
x,-y,z
loop_
_atom_site_type_symbol
_atom_site_label
_atom_site_fract_x
_atom_site_fract_y
_atom_site_fract_z
Si Si1 0.674903 0.665560 0.322920
Si Si2 0.840674 0.321587 0.483105
Si Si3 0.508768 0.321630 0.147030
Si Si4 0.159100 0.823116 0.013735
Si Si5 0.540630 0.321783 0.274642
Si Si6 0.156186 0.678805 0.351490
O O1 0.500000 0.654388 0.500000
O O2 0.759979 0.500000 0.218272
O O3 0.798485 0.779540 0.125209
O O4 0.626425 0.721131 0.467184
O O5 0.861561 0.500000 0.449433
O O6 0.658267 0.266209 0.684733
O O7 0.863616 0.266958 0.538992
O O8 0.976422 0.241350 0.261055
O O9 0.515866 0.500000 0.137891
O O10 0.509362 0.262333 0.230877
O O11 0.670834 0.256009 0.900161
O O12 0.292456 0.755507 0.903744
O O13 0.159777 0.000000 0.020602
O O14 0.572434 0.500000 0.238000
O O15 0.159752 0.500000 0.343781
O O16 0.000000 0.742386 0.500000
#
# Coordination Sequence:
#
# PCOD8060579 Si02
#       6
#     4   4   4   4   4   4
#     4   8  15  29  50  74  98 126 163 208 254 295
#     4  10  19  32  51  74 103 136 167 203 246 293
#     4   9  17  30  51  79 104 128 163 205 250 298
#     4  11  21  32  49  73 101 134 171 208 247 294
#     4   9  17  32  54  77 100 127 164 210 254 297
#     4   9  16  27  49  80 106 127 158 204 251 293
#
# _framework density 18.904675999999998
#
# number of rings (size 3 to 8) (size 9 to 14) (size 15 to 20)
#    0.000    2.667    0.000    4.000    0.000    7.667 
#    0.000    1.667    0.000   11.500    0.000    0.000 
#    0.000    0.000    0.000    0.000    0.000    0.000 
#
# Total GULP energy -297537.831361 kJ/mol
# GULP energy per Si atom -12397.409640 kJ/mol
# Density = 1.886165 g / cm^3
# Si number density = 18.904676 Si / 1000 Ang^3
#
#
#
# Elastic Constant Matrix: (Units=GPa)
#
#
# Indices 1 2 3 4 5 6 
#
# 1 72.3564 21.6193 70.1631 0.0000 2.6961 0.0000
# 2 21.6193 48.1300 39.1630 0.0000 1.3837 0.0000
# 3 70.1631 39.1630 160.8402 0.0000 8.2560 0.0000
# 4 0.0000 0.0000 0.0000 2.9845 0.0000 -1.2268
# 5 2.6961 1.3837 8.2560 0.0000 34.4392 0.0000
# 6 0.0000 0.0000 0.0000 -1.2268 0.0000 3.2987
#
#
#
# Elastic Compliance Matrix: (Units=1/GPa)
#
#
# Indices 1 2 3 4 5 6 
#
# 1 0.024274 -0.002843 -0.009927 0.000000 0.000594 0.000000
# 2 -0.002843 0.026251 -0.005173 0.000000 0.000408 0.000000
# 3 -0.009927 -0.005173 0.011903 0.000000 -0.001869 0.000000
# 4 0.000000 0.000000 0.000000 0.395530 0.000000 0.147093
# 5 0.000594 0.000408 -0.001869 0.000000 0.029422 0.000000
# 6 0.000000 0.000000 0.000000 0.147093 0.000000 0.357851
#
#
# Mechanical properties :
#
#
# Convention : Reuss Voigt Hill
#
# Bulk Modulus (GPa) = 37.67477 60.35749 49.01613
# Shear Modulus (GPa) = 5.61820 18.16991 11.89405
#
# Velocity S-wave (km/s) = 1.72578 3.10358 2.51103
# Velocity P-wave (km/s) = 4.89317 6.69623 5.86441
#
# Compressibility (1/GPa) = 0.02654296
#
# Stress axis : x y z
#
# Youngs Moduli (GPa) = 41.19604 38.09336 84.00984
#
# Poissons Ratio (x) = 0.10829 0.83400
# Poissons Ratio (y) = 0.11711 0.43456
# Poissons Ratio (z) = 0.40897 0.19705
#
# Static dielectric constant tensor:
#      x y z
#    x 3.695280 0.000000 0.301070 
#    y 0.000000 2.967790 0.000000 
#    z 0.301070 0.000000 3.661540 
# 
# 
# High freq. dielectric constant tensor:
#      x y z
#    x 1.732770 0.000000 0.019550 
#    y 0.000000 1.681380 0.000000 
#    z 0.019550 0.000000 1.742660 
# 
# From -- ./inp_files/33962.got.cif
#   From: 2010.06.25/outbox.cif.g09.slc.cpg/sg10_17_cif.got.tgz:33962.got - 2010.06.27 22:07:45.
