data_PCOD8060166
_publ_section_title
;
Structure prediction by ZEFSAII (Michael W. Deem and Ramdas Pophale) SiO2 
 PCOD8060166
Probable space group: P 2/M
;
_chemical_formula_sum "Si O2"
_cell_formula_units_Z 28
_cell_length_a 22.583341
_cell_length_b 13.261065
_cell_length_c 18.523461
_cell_angle_alpha 90.000000
_cell_angle_beta 17.829707
_cell_angle_gamma 90.000000
_cell_volume 1698.549526
_symmetry_space_group_name_H-M "P 2/M"
_symmetry_group_IT_number 10
_symmetry_cell_setting 'monoclinic'
loop_
_space_group_symop_operation_xyz
x,y,z
-x,y,-z
-x,-y,-z
x,-y,z
loop_
_atom_site_type_symbol
_atom_site_label
_atom_site_fract_x
_atom_site_fract_y
_atom_site_fract_z
Si Si1 0.712318 0.883058 0.782248
Si Si2 0.413076 0.382999 0.179602
Si Si3 0.328973 0.241985 0.030866
Si Si4 0.941285 0.761679 0.405330
Si Si5 0.433980 0.116393 0.357308
Si Si6 0.979220 0.114719 0.217676
Si Si7 0.600223 0.117583 0.313363
O O1 0.752884 0.823962 0.808477
O O2 0.864733 0.850914 0.544966
O O3 0.737785 0.000000 0.769014
O O4 0.500000 0.855937 0.000000
O O5 0.385148 0.500000 0.228169
O O6 0.203823 0.332003 0.427987
O O7 0.500000 0.362551 0.000000
O O8 0.558936 0.339676 0.070160
O O9 0.147484 0.278714 0.194216
O O10 0.476037 0.174922 0.814260
O O11 0.967759 0.807294 0.295848
O O12 0.202596 0.128537 0.624243
O O13 0.510805 0.163231 0.343330
O O14 0.497362 0.000000 0.275637
O O15 0.987123 0.000000 0.238961
O O16 0.170667 0.138172 0.948948
O O17 0.500000 0.168248 0.500000
O O18 0.549866 0.000000 0.371649
#
# Coordination Sequence:
#
# PCOD8060166 Si02
#       7
#     4   4   4   4   4   4   4
#     4  11  21  33  49  73 107 142 175 210 248 302
#     4  11  24  42  56  72 101 134 177 227 272 311
#     4  12  21  34  54  76 102 136 176 214 262 307
#     4  12  21  34  54  76 102 136 176 214 262 307
#     4  10  19  31  50  76 108 145 176 210 251 298
#     4  10  19  31  50  76 108 145 176 210 251 298
#     4   9  18  32  48  73 110 147 178 207 246 301
#
# _framework density 16.484653999999999
#
# number of rings (size 3 to 8) (size 9 to 14) (size 15 to 20)
#    0.000    1.286    5.714    1.286    0.000    5.714 
#    0.000    4.286    0.000    0.000    0.000    0.000 
#    0.000    3.429    0.000    0.000    0.000    0.000 
#
# Total GULP energy -347272.052992 kJ/mol
# GULP energy per Si atom -12402.573321 kJ/mol
# Density = 1.644713 g / cm^3
# Si number density = 16.484654 Si / 1000 Ang^3
#
#
#
# Elastic Constant Matrix: (Units=GPa)
#
#
# Indices 1 2 3 4 5 6 
#
# 1 59.3959 24.3740 34.1745 0.0000 -4.2214 0.0000
# 2 24.3740 76.8168 34.3360 0.0000 -4.2025 0.0000
# 3 34.1745 34.3360 108.2327 0.0000 -10.8104 0.0000
# 4 0.0000 0.0000 0.0000 -1.9075 0.0000 -3.3546
# 5 -4.2214 -4.2025 -10.8104 0.0000 40.1734 0.0000
# 6 0.0000 0.0000 0.0000 -3.3546 0.0000 8.9252
#
#
#
# Elastic Compliance Matrix: (Units=1/GPa)
#
#
# Indices 1 2 3 4 5 6 
#
# 1 0.021826 -0.004476 -0.005435 0.000000 0.000363 0.000000
# 2 -0.004476 0.016090 -0.003669 0.000000 0.000226 0.000000
# 3 -0.005435 -0.003669 0.012356 0.000000 0.002370 0.000000
# 4 0.000000 0.000000 0.000000 -0.315619 0.000000 -0.118630
# 5 0.000363 0.000226 0.002370 0.000000 0.025592 0.000000
# 6 0.000000 0.000000 0.000000 -0.118630 0.000000 0.067454
#
#
# Mechanical properties :
#
#
# Convention : Reuss Voigt Hill
#
# Bulk Modulus (GPa) = 43.26680 47.80161 45.53420
# Shear Modulus (GPa) = -36.38062 19.54228 -8.41917
#
# Velocity S-wave (km/s) = -4.70290 3.44682 -2.26238
# Velocity P-wave (km/s) = 1.78495 6.70085 4.56702
#
# Compressibility (1/GPa) = 0.02311241
#
# Stress axis : x y z
#
# Youngs Moduli (GPa) = 45.81666 62.14872 80.93119
#
# Poissons Ratio (x) = 0.27818 0.43989
# Poissons Ratio (y) = 0.20508 0.29691
# Poissons Ratio (z) = 0.24903 0.22801
#
# Static dielectric constant tensor:
#      x y z
#    x 3.249820 0.000000 -0.120490 
#    y 0.000000 2.785370 0.000000 
#    z -0.120490 0.000000 3.249120 
# 
# 
# High freq. dielectric constant tensor:
#      x y z
#    x 1.635340 0.000000 -0.014740 
#    y 0.000000 1.591190 0.000000 
#    z -0.014740 0.000000 1.646550 
# 
# From -- ./inp_files/67539.got.cif
#   From: 2010.06.25/outbox.cif.g09.slc.cpg/sg10_34_cif.got.tgz:67539.got - 2010.06.27 22:07:45.
