data_PCOD8060431
_publ_section_title
;
Structure prediction by ZEFSAII (Michael W. Deem and Ramdas Pophale) SiO2 
 PCOD8060431
Probable space group: P 2/M
;
_chemical_formula_sum "Si O2"
_cell_formula_units_Z 32
_cell_length_a 26.131687
_cell_length_b 9.033430
_cell_length_c 21.464168
_cell_angle_alpha 90.000000
_cell_angle_beta 19.294372
_cell_angle_gamma 90.000000
_cell_volume 1674.182241
_symmetry_space_group_name_H-M "P 2/M"
_symmetry_group_IT_number 10
_symmetry_cell_setting 'monoclinic'
loop_
_space_group_symop_operation_xyz
x,y,z
-x,y,-z
-x,-y,-z
x,-y,z
loop_
_atom_site_type_symbol
_atom_site_label
_atom_site_fract_x
_atom_site_fract_y
_atom_site_fract_z
Si Si1 0.173315 0.666396 0.430334
Si Si2 0.710205 0.173533 0.515614
Si Si3 0.319851 0.837069 0.691960
Si Si4 0.299176 0.825901 0.851250
Si Si5 0.997950 0.171564 0.271437
Si Si6 0.350095 0.832895 0.128745
Si Si7 0.528167 0.667491 0.825543
Si Si8 0.624605 0.674982 0.491844
O O1 0.127802 0.500000 0.464176
O O2 0.031672 0.738221 0.631197
O O3 0.205800 0.757444 0.329939
O O4 0.325025 0.669368 0.298227
O O5 0.870308 0.208602 0.366147
O O6 0.565902 0.240309 0.720048
O O7 0.721766 0.253116 0.435953
O O8 0.680996 0.000000 0.540308
O O9 0.500000 0.845128 0.500000
O O10 0.239775 0.787624 0.849099
O O11 0.290006 0.721533 0.670643
O O12 0.260290 0.000000 0.739613
O O13 0.449109 0.732364 0.697024
O O14 0.340489 0.000000 0.807591
O O15 0.164428 0.781525 0.053750
O O16 0.990806 0.000000 0.297178
O O17 0.303913 0.000000 0.164398
O O18 0.500000 0.831049 0.000000
O O19 0.383848 0.743547 0.026473
O O20 0.483087 0.500000 0.859194
O O21 0.626556 0.500000 0.495350
#
# Coordination Sequence:
#
# PCOD8060431 Si02
#       8
#     4   4   4   4   4   4   4   4
#     4   9  16  25  39  61  91 124 154 190 237 282
#     4  10  19  32  49  69  96 129 161 194 236 284
#     4   8  15  30  51  71  92 120 155 196 238 278
#     4   9  18  34  54  74  95 121 157 199 239 281
#     4   9  18  32  50  71  95 125 160 197 238 284
#     4   9  15  23  37  58  85 119 159 197 231 273
#     4   9  16  26  40  61  90 121 154 194 239 282
#     4  11  21  32  49  73  98 125 158 195 236 282
#
# _framework density 19.113809
#
# number of rings (size 3 to 8) (size 9 to 14) (size 15 to 20)
#    0.000    2.750    0.000    3.375    0.000    7.750 
#    0.000    0.625    0.000    3.750    0.000    0.875 
#    0.000    7.000    0.000    0.000    0.000    0.000 
#
# Total GULP energy -396738.322937 kJ/mol
# GULP energy per Si atom -12398.072592 kJ/mol
# Density = 1.907031 g / cm^3
# Si number density = 19.113809 Si / 1000 Ang^3
#
#
#
# Elastic Constant Matrix: (Units=GPa)
#
#
# Indices 1 2 3 4 5 6 
#
# 1 8.7747 2.7542 -14.4648 0.0000 -1.0067 0.0000
# 2 2.7542 105.9330 13.1322 0.0000 -0.1926 0.0000
# 3 -14.4648 13.1322 55.8490 0.0000 10.5386 0.0000
# 4 0.0000 0.0000 0.0000 20.8116 0.0000 7.4976
# 5 -1.0067 -0.1926 10.5386 0.0000 14.2055 0.0000
# 6 0.0000 0.0000 0.0000 7.4976 0.0000 24.7545
#
#
#
# Elastic Compliance Matrix: (Units=1/GPa)
#
#
# Indices 1 2 3 4 5 6 
#
# 1 0.228931 -0.014623 0.069426 0.000000 -0.035479 0.000000
# 2 -0.014623 0.010713 -0.007137 0.000000 0.004404 0.000000
# 3 0.069426 -0.007137 0.042621 0.000000 -0.026796 0.000000
# 4 0.000000 0.000000 0.000000 0.053935 0.000000 -0.016336
# 5 -0.035479 0.004404 -0.026796 0.000000 0.087819 0.000000
# 6 0.000000 0.000000 0.000000 -0.016336 0.000000 0.045344
#
#
# Mechanical properties :
#
#
# Convention : Reuss Voigt Hill
#
# Bulk Modulus (GPa) = 2.64833 19.26664 10.95749
# Shear Modulus (GPa) = 10.00204 23.23001 16.61602
#
# Velocity S-wave (km/s) = 2.29003 3.48997 2.95162
# Velocity P-wave (km/s) = 2.89498 5.13242 4.16669
#
# Compressibility (1/GPa) = 0.37759596
#
# Stress axis : x y z
#
# Youngs Moduli (GPa) = 4.36813 93.34524 23.46249
#
# Poissons Ratio (x) = 1.36499 -1.62891
# Poissons Ratio (y) = 0.06388 0.16746
# Poissons Ratio (z) = -0.30326 0.66624
#
# Static dielectric constant tensor:
#      x y z
#    x 3.256080 0.000000 0.483180 
#    y 0.000000 3.556420 0.000000 
#    z 0.483180 0.000000 3.500880 
# 
# 
# High freq. dielectric constant tensor:
#      x y z
#    x 1.710830 0.000000 0.039410 
#    y 0.000000 1.747000 0.000000 
#    z 0.039410 0.000000 1.726380 
# 
# From -- ./inp_files/86764.got.cif
#   From: 2010.06.25/outbox.cif.g09.slc.cpg/sg10_44_cif.got.tgz:86764.got - 2010.06.27 22:07:45.
