data_PCOD8060465
_publ_section_title
;
Structure prediction by ZEFSAII (Michael W. Deem and Ramdas Pophale) SiO2 
 PCOD8060465
Probable space group: P 2/M
;
_chemical_formula_sum "Si O2"
_cell_formula_units_Z 18
_cell_length_a 17.685780
_cell_length_b 10.978448
_cell_length_c 5.065423
_cell_angle_alpha 90.000000
_cell_angle_beta 104.532135
_cell_angle_gamma 90.000000
_cell_volume 952.049239
_symmetry_space_group_name_H-M "P 2/M"
_symmetry_group_IT_number 10
_symmetry_cell_setting 'monoclinic'
loop_
_space_group_symop_operation_xyz
x,y,z
-x,y,-z
-x,-y,-z
x,-y,z
loop_
_atom_site_type_symbol
_atom_site_label
_atom_site_fract_x
_atom_site_fract_y
_atom_site_fract_z
Si Si1 0.085453 0.140401 0.677735
Si Si2 0.317151 0.643928 0.373278
Si Si3 0.945238 0.500000 0.704374
Si Si4 0.413508 0.356274 0.952522
Si Si5 0.147968 0.737186 0.253229
O O1 0.144728 0.164126 0.486977
O O2 0.000000 0.177722 0.500000
O O3 0.089963 0.000000 0.766274
O O4 0.102976 0.219829 0.952023
O O5 0.300170 0.500000 0.358745
O O6 0.355256 0.691990 0.676556
O O7 0.237182 0.714848 0.251925
O O8 0.378185 0.680897 0.201213
O O9 0.889611 0.616561 0.656480
O O10 0.000000 0.500000 0.500000
O O11 0.000000 0.500000 0.000000
O O12 0.420638 0.500000 0.925361
O O13 0.500000 0.298164 0.000000
#
# Coordination Sequence:
#
# PCOD8060465 Si02
#       5
#     4   4   2   4   4
#     4  11  24  41  60  78 104 144 193 243 282 316
#     4  10  19  32  49  77 113 145 175 215 273 321
#     4  12  24  36  54  80 111 148 181 216 268 340
#     4   9  17  29  48  72 107 150 184 209 248 322
#     4  12  22  38  57  82 113 144 183 228 280 335
#
# _framework density 18.906583999999999
#
# number of rings (size 3 to 8) (size 9 to 14) (size 15 to 20)
#    0.000    1.333    1.111    6.667    0.000    4.444 
#    0.000    0.000    0.000    0.000    0.000    0.000 
#    0.000   62.222    0.000    0.000    0.000    0.000 
#
# Total GULP energy -223254.855212 kJ/mol
# GULP energy per Si atom -12403.047512 kJ/mol
# Density = 1.886355 g / cm^3
# Si number density = 18.906584 Si / 1000 Ang^3
#
#
#
# Elastic Constant Matrix: (Units=GPa)
#
#
# Indices 1 2 3 4 5 6 
#
# 1 114.1528 34.6472 27.1602 0.0000 3.0017 0.0000
# 2 34.6472 51.1010 28.5889 0.0000 4.5952 0.0000
# 3 27.1602 28.5889 117.7385 0.0000 -4.1291 0.0000
# 4 0.0000 0.0000 0.0000 19.1216 0.0000 -2.5651
# 5 3.0017 4.5952 -4.1291 0.0000 28.8893 0.0000
# 6 0.0000 0.0000 0.0000 -2.5651 0.0000 15.5246
#
#
#
# Elastic Compliance Matrix: (Units=1/GPa)
#
#
# Indices 1 2 3 4 5 6 
#
# 1 0.011104 -0.007034 -0.000859 0.000000 -0.000158 0.000000
# 2 -0.007034 0.027674 -0.005252 0.000000 -0.004422 0.000000
# 3 -0.000859 -0.005252 0.010050 0.000000 0.002361 0.000000
# 4 0.000000 0.000000 0.000000 0.053482 0.000000 0.008837
# 5 -0.000158 -0.004422 0.002361 0.000000 0.035672 0.000000
# 6 0.000000 0.000000 0.000000 0.008837 0.000000 0.065874
#
#
# Mechanical properties :
#
#
# Convention : Reuss Voigt Hill
#
# Bulk Modulus (GPa) = 44.37055 51.53165 47.95110
# Shear Modulus (GPa) = 21.03863 25.54683 23.29273
#
# Velocity S-wave (km/s) = 3.33944 3.67987 3.51378
# Velocity P-wave (km/s) = 6.19583 6.73575 6.47143
#
# Compressibility (1/GPa) = 0.02253747
#
# Stress axis : x y z
#
# Youngs Moduli (GPa) = 90.06147 36.13499 99.50535
#
# Poissons Ratio (x) = 0.25416 0.08548
# Poissons Ratio (y) = 0.63345 0.52263
# Poissons Ratio (z) = 0.07737 0.18979
#
# Static dielectric constant tensor:
#      x y z
#    x 3.570470 0.000000 -0.024230 
#    y 0.000000 3.247790 0.000000 
#    z -0.024230 0.000000 3.554860 
# 
# 
# High freq. dielectric constant tensor:
#      x y z
#    x 1.743040 0.000000 -0.007440 
#    y 0.000000 1.687930 0.000000 
#    z -0.007440 0.000000 1.754270 
# 
# From -- ./inp_files/8772.got.cif
#   From: 2010.06.25/outbox.cif.g09.slc.cpg/sg10_5_cif.got.tgz:8772.got - 2010.06.27 22:07:45.
