data_PCOD8060269
_publ_section_title
;
Structure prediction by ZEFSAII (Michael W. Deem and Ramdas Pophale) SiO2 
 PCOD8060269
Probable space group: P 2/M
;
_chemical_formula_sum "Si O2"
_cell_formula_units_Z 28
_cell_length_a 5.156833
_cell_length_b 21.156323
_cell_length_c 12.884481
_cell_angle_alpha 90.000000
_cell_angle_beta 101.543794
_cell_angle_gamma 90.000000
_cell_volume 1377.257746
_symmetry_space_group_name_H-M "P 2/M"
_symmetry_group_IT_number 10
_symmetry_cell_setting 'monoclinic'
loop_
_space_group_symop_operation_xyz
x,y,z
-x,y,-z
-x,-y,-z
x,-y,z
loop_
_atom_site_type_symbol
_atom_site_label
_atom_site_fract_x
_atom_site_fract_y
_atom_site_fract_z
Si Si1 0.562346 0.355042 0.124692
Si Si2 0.123405 0.827954 0.246805
Si Si3 0.563130 0.790961 0.126254
Si Si4 0.218660 0.409891 0.437318
Si Si5 0.099695 0.429792 0.199390
Si Si6 0.784276 0.073551 0.568551
Si Si7 0.218408 0.261018 0.436814
O O1 0.581565 0.282409 0.163126
O O2 0.333109 0.390323 0.167173
O O3 0.834062 0.390323 0.167172
O O4 0.500000 0.358019 0.000000
O O5 0.336173 0.826875 0.171720
O O6 0.160017 0.890061 0.320034
O O7 0.159693 0.765998 0.319387
O O8 0.835554 0.826874 0.171718
O O9 0.500000 0.796299 0.000000
O O10 0.500000 0.433819 0.500000
O O11 0.161961 0.441847 0.323923
O O12 0.211878 0.335245 0.423744
O O13 0.000000 0.433818 0.500000
O O14 0.073083 0.500000 0.146163
O O15 0.500000 0.092675 0.500000
O O16 0.000000 0.092675 0.500000
O O17 0.798749 0.000000 0.597493
O O18 0.500000 0.236229 0.500000
O O19 0.000000 0.236231 0.500000
#
# Coordination Sequence:
#
# PCOD8060269 Si02
#       7
#     4   4   4   4   4   4   4
#     4  11  24  43  63  85 115 147 187 247 314 362
#     4  12  21  36  62  88 121 157 197 245 295 345
#     4  11  24  40  61  87 115 153 200 250 301 356
#     4  10  21  36  54  77 109 145 180 225 278 336
#     4  12  25  40  61  86 112 149 197 240 290 365
#     4  10  21  38  61  94 134 170 204 239 284 349
#     4  10  19  31  51  82 112 139 179 229 286 346
#
# _framework density 20.330252000000002
#
# number of rings (size 3 to 8) (size 9 to 14) (size 15 to 20)
#    0.000    1.143    0.000    7.286    0.000    6.857 
#    0.000    0.000    0.000    2.571    0.000    0.000 
#    0.000    0.000    0.000    0.000    0.000    0.000 
#
# Total GULP energy -347304.860824 kJ/mol
# GULP energy per Si atom -12403.745029 kJ/mol
# Density = 2.028398 g / cm^3
# Si number density = 20.330252 Si / 1000 Ang^3
#
#
#
# Elastic Constant Matrix: (Units=GPa)
#
#
# Indices 1 2 3 4 5 6 
#
# 1 200.2289 50.4074 59.7465 0.0000 2.3190 0.0000
# 2 50.4074 115.6198 46.7244 0.0000 0.1575 0.0000
# 3 59.7465 46.7244 105.7278 0.0000 1.7108 0.0000
# 4 0.0000 0.0000 0.0000 -13.0848 0.0000 0.3729
# 5 2.3190 0.1575 1.7108 0.0000 43.0802 0.0000
# 6 0.0000 0.0000 0.0000 0.3729 0.0000 -4.3022
#
#
#
# Elastic Compliance Matrix: (Units=1/GPa)
#
#
# Indices 1 2 3 4 5 6 
#
# 1 0.006236 -0.001578 -0.002823 0.000000 -0.000218 0.000000
# 2 -0.001578 0.010930 -0.003942 0.000000 0.000202 0.000000
# 3 -0.002823 -0.003942 0.012801 0.000000 -0.000342 0.000000
# 4 0.000000 0.000000 0.000000 -0.076614 0.000000 -0.006640
# 5 -0.000218 0.000202 -0.000342 0.000000 0.023237 0.000000
# 6 0.000000 0.000000 0.000000 -0.006640 0.000000 -0.233015
#
#
# Mechanical properties :
#
#
# Convention : Reuss Voigt Hill
#
# Bulk Modulus (GPa) = 75.29302 81.70368 78.49835
# Shear Modulus (GPa) = -21.24843 22.78519 0.76838
#
# Velocity S-wave (km/s) = -3.23641 3.35140 0.61544
# Velocity P-wave (km/s) = 4.81140 7.43312 6.26103
#
# Compressibility (1/GPa) = 0.01328144
#
# Stress axis : x y z
#
# Youngs Moduli (GPa) = 160.34700 91.49502 78.11672
#
# Poissons Ratio (x) = 0.14434 0.22056
# Poissons Ratio (y) = 0.25297 0.30793
# Poissons Ratio (z) = 0.45274 0.36066
#
# Static dielectric constant tensor:
#      x y z
#    x 4.054000 0.000000 0.014660 
#    y 0.000000 3.618890 0.000000 
#    z 0.014660 0.000000 3.709930 
# 
# 
# High freq. dielectric constant tensor:
#      x y z
#    x 1.816390 0.000000 0.000790 
#    y 0.000000 1.790870 0.000000 
#    z 0.000790 0.000000 1.797750 
# 
# From -- ./inp_files/39765.got.cif
#   From: 2010.06.25/outbox.cif.g09.slc.cpg/sg10_20_cif.got.tgz:39765.got - 2010.06.27 22:07:45.
