data_PCOD8060588
_publ_section_title
;
Structure prediction by ZEFSAII (Michael W. Deem and Ramdas Pophale) SiO2 
 PCOD8060588
Probable space group: P 2/M
;
_chemical_formula_sum "Si O2"
_cell_formula_units_Z 28
_cell_length_a 8.881001
_cell_length_b 21.566290
_cell_length_c 15.454609
_cell_angle_alpha 90.000000
_cell_angle_beta 151.114574
_cell_angle_gamma 90.000000
_cell_volume 1429.868740
_symmetry_space_group_name_H-M "P 2/M"
_symmetry_group_IT_number 10
_symmetry_cell_setting 'monoclinic'
loop_
_space_group_symop_operation_xyz
x,y,z
-x,y,-z
-x,-y,-z
x,-y,z
loop_
_atom_site_type_symbol
_atom_site_label
_atom_site_fract_x
_atom_site_fract_y
_atom_site_fract_z
Si Si1 0.003856 0.069475 0.772872
Si Si2 0.680809 0.592220 0.680355
Si Si3 0.868900 0.500000 0.170072
Si Si4 0.316670 0.267310 0.318387
Si Si5 0.303853 0.192380 0.977163
Si Si6 0.374608 0.179459 0.197928
Si Si7 0.772782 0.500000 0.470280
Si Si8 0.402253 0.069004 0.588906
O O1 0.702588 0.075233 0.680445
O O2 0.901826 0.083586 0.622466
O O3 0.251412 0.119547 0.930159
O O4 0.146108 0.000000 0.851869
O O5 0.500000 0.589796 0.500000
O O6 0.743852 0.662306 0.742131
O O7 0.463563 0.559221 0.644259
O O8 0.012544 0.558742 0.827790
O O9 0.009310 0.500000 0.336494
O O10 0.500000 0.500000 0.000000
O O11 0.500000 0.263384 0.500000
O O12 0.478634 0.231716 0.319631
O O13 0.003699 0.231726 0.177570
O O14 0.500000 0.223469 0.000000
O O15 0.490595 0.199462 0.161260
O O16 0.558419 0.116642 0.312837
O O17 0.000000 0.168898 0.000000
O O18 0.000000 0.500000 0.500000
O O19 0.376540 0.000000 0.615498
#
# Coordination Sequence:
#
# PCOD8060588 Si02
#       8
#     4   4   2   4   4   4   2   4
#     4   9  17  31  52  75 101 133 172 219 272 329
#     4   8  17  34  57  81 109 150 185 215 264 321
#     4   9  17  33  56  84 116 147 181 217 264 316
#     4  10  19  37  59  75 100 143 186 219 257 313
#     4  11  23  36  50  75 109 140 172 223 282 324
#     4  10  19  32  51  75 101 135 173 220 269 318
#     4   9  17  35  58  86 118 143 179 223 260 316
#     4   9  16  29  53  79  95 125 181 226 258 319
#
# _framework density 19.582218999999998
#
# number of rings (size 3 to 8) (size 9 to 14) (size 15 to 20)
#    0.000    2.571    2.857    2.571    0.000    1.714 
#    0.000   12.857    0.000    1.714    0.000    0.000 
#    0.000    0.000    0.000    0.000    0.000    0.000 
#
# Total GULP energy -346913.992344 kJ/mol
# GULP energy per Si atom -12389.785441 kJ/mol
# Density = 1.953765 g / cm^3
# Si number density = 19.582219 Si / 1000 Ang^3
#
#
#
# Elastic Constant Matrix: (Units=GPa)
#
#
# Indices 1 2 3 4 5 6 
#
# 1 126.8744 51.1877 36.3903 0.0000 -12.9657 0.0000
# 2 51.1877 150.7242 44.1195 0.0000 -10.9195 0.0000
# 3 36.3903 44.1195 61.9868 0.0000 -14.6731 0.0000
# 4 0.0000 0.0000 0.0000 266.1691 0.0000 85.0293
# 5 -12.9657 -10.9195 -14.6731 0.0000 30.7602 0.0000
# 6 0.0000 0.0000 0.0000 85.0293 0.0000 39.1723
#
#
#
# Elastic Compliance Matrix: (Units=1/GPa)
#
#
# Indices 1 2 3 4 5 6 
#
# 1 0.010051 -0.002124 -0.004018 0.000000 0.001566 0.000000
# 2 -0.002124 0.008830 -0.005082 0.000000 -0.000185 0.000000
# 3 -0.004018 -0.005082 0.023989 0.000000 0.007946 0.000000
# 4 0.000000 0.000000 0.000000 0.012255 0.000000 -0.026601
# 5 0.001566 -0.000185 0.007946 0.000000 0.036894 0.000000
# 6 0.000000 0.000000 0.000000 -0.026601 0.000000 0.083270
#
#
# Mechanical properties :
#
#
# Convention : Reuss Voigt Hill
#
# Bulk Modulus (GPa) = 48.96527 66.99780 57.98153
# Shear Modulus (GPa) = 24.44452 81.07951 52.76202
#
# Velocity S-wave (km/s) = 3.53696 6.44163 5.19638
# Velocity P-wave (km/s) = 6.46060 9.46646 8.10411
#
# Compressibility (1/GPa) = 0.02042264
#
# Stress axis : x y z
#
# Youngs Moduli (GPa) = 99.48997 113.24986 41.68525
#
# Poissons Ratio (x) = 0.24052 0.16751
# Poissons Ratio (y) = 0.21130 0.21183
# Poissons Ratio (z) = 0.39979 0.57551
#
# Static dielectric constant tensor:
#      x y z
#    x 3.774160 0.000000 -0.269420 
#    y 0.000000 4.050480 0.000000 
#    z -0.269420 0.000000 3.676260 
# 
# 
# High freq. dielectric constant tensor:
#      x y z
#    x 1.750240 0.000000 -0.010740 
#    y 0.000000 1.759990 0.000000 
#    z -0.010740 0.000000 1.745010 
# 
# From -- ./inp_files/62634.got.cif
#   From: 2010.06.25/outbox.cif.g09.slc.cpg/sg10_32_cif.got.tgz:62634.got - 2010.06.27 22:07:45.
