data_PCOD8060290
_publ_section_title
;
Structure prediction by ZEFSAII (Michael W. Deem and Ramdas Pophale) SiO2 
 PCOD8060290
Probable space group: P 2/M
;
_chemical_formula_sum "Si O2"
_cell_formula_units_Z 24
_cell_length_a 11.214049
_cell_length_b 9.301407
_cell_length_c 21.771203
_cell_angle_alpha 90.000000
_cell_angle_beta 147.624165
_cell_angle_gamma 90.000000
_cell_volume 1215.987728
_symmetry_space_group_name_H-M "P 2/M"
_symmetry_group_IT_number 10
_symmetry_cell_setting 'monoclinic'
loop_
_space_group_symop_operation_xyz
x,y,z
-x,y,-z
-x,-y,-z
x,-y,z
loop_
_atom_site_type_symbol
_atom_site_label
_atom_site_fract_x
_atom_site_fract_y
_atom_site_fract_z
Si Si1 0.988737 0.660625 0.567577
Si Si2 0.294498 0.834975 0.370057
Si Si3 0.852858 0.666546 0.172482
Si Si4 0.424658 0.830884 0.762915
Si Si5 0.566291 0.835928 0.373041
Si Si6 0.419156 0.332875 0.061559
O O1 0.999984 0.500000 0.601589
O O2 0.758831 0.736973 0.485807
O O3 0.000000 0.650094 0.500000
O O4 0.192276 0.755927 0.680184
O O5 0.500000 0.775541 0.500000
O O6 0.350435 0.816305 0.321958
O O7 0.070765 0.750819 0.288708
O O8 0.251276 0.000000 0.368454
O O9 0.911037 0.500000 0.201200
O O10 0.652449 0.705104 0.130691
O O11 0.781324 0.707279 0.071811
O O12 0.495146 0.793476 0.723644
O O13 0.607813 0.763320 0.888694
O O14 0.404286 0.000000 0.764761
O O15 0.653933 0.000000 0.412559
O O16 0.409623 0.500000 0.075499
#
# Coordination Sequence:
#
# PCOD8060290 Si02
#       6
#     4   4   4   4   4   4
#     4   9  17  29  47  73 105 140 177 218 262 311
#     4  10  22  38  56  79 110 145 182 223 265 317
#     4   9  20  39  59  80 108 141 178 224 274 321
#     4  10  19  31  52  79 107 142 180 218 268 323
#     4   9  19  35  50  73 111 146 177 220 269 317
#     4   9  19  37  59  82 109 138 175 227 276 317
#
# _framework density 19.737041000000001
#
# number of rings (size 3 to 8) (size 9 to 14) (size 15 to 20)
#    0.000    2.667    0.000    2.000    2.333    5.000 
#    0.000    2.500    0.000    5.000    0.000    0.000 
#    0.000    0.000    0.000    0.000    0.000    0.000 
#
# Total GULP energy -297559.095685 kJ/mol
# GULP energy per Si atom -12398.295654 kJ/mol
# Density = 1.969212 g / cm^3
# Si number density = 19.737041 Si / 1000 Ang^3
#
#
#
# Elastic Constant Matrix: (Units=GPa)
#
#
# Indices 1 2 3 4 5 6 
#
# 1 47.7368 21.9242 25.5534 0.0000 -9.8127 0.0000
# 2 21.9242 78.5902 41.7435 0.0000 -4.5177 0.0000
# 3 25.5534 41.7435 105.1653 0.0000 -8.3907 0.0000
# 4 0.0000 0.0000 0.0000 34.0098 0.0000 -3.0486
# 5 -9.8127 -4.5177 -8.3907 0.0000 33.1582 0.0000
# 6 0.0000 0.0000 0.0000 -3.0486 0.0000 12.7554
#
#
#
# Elastic Compliance Matrix: (Units=1/GPa)
#
#
# Indices 1 2 3 4 5 6 
#
# 1 0.026642 -0.004942 -0.004018 0.000000 0.006194 0.000000
# 2 -0.004942 0.017052 -0.005612 0.000000 -0.000559 0.000000
# 3 -0.004018 -0.005612 0.012816 0.000000 0.001289 0.000000
# 4 0.000000 0.000000 0.000000 0.030047 0.000000 0.007181
# 5 0.006194 -0.000559 0.001289 0.000000 0.032242 0.000000
# 6 0.000000 0.000000 0.000000 0.007181 0.000000 0.080114
#
#
# Mechanical properties :
#
#
# Convention : Reuss Voigt Hill
#
# Bulk Modulus (GPa) = 36.54267 45.54828 41.04548
# Shear Modulus (GPa) = 21.08123 25.46943 23.27533
#
# Velocity S-wave (km/s) = 3.27173 3.59616 3.43778
# Velocity P-wave (km/s) = 5.72951 6.35381 6.04972
#
# Compressibility (1/GPa) = 0.02736527
#
# Stress axis : x y z
#
# Youngs Moduli (GPa) = 37.53483 58.64519 78.03016
#
# Poissons Ratio (x) = 0.28984 0.31349
# Poissons Ratio (y) = 0.18551 0.43791
# Poissons Ratio (z) = 0.15080 0.32912
#
# Static dielectric constant tensor:
#      x y z
#    x 3.476900 0.000000 -0.250170 
#    y 0.000000 3.578230 0.000000 
#    z -0.250170 0.000000 3.521980 
# 
# 
# High freq. dielectric constant tensor:
#      x y z
#    x 1.758740 0.000000 -0.023730 
#    y 0.000000 1.765690 0.000000 
#    z -0.023730 0.000000 1.758110 
# 
# From -- ./inp_files/45066.got.cif
#   From: 2010.06.25/outbox.cif.g09.slc.cpg/sg10_23_cif.got.tgz:45066.got - 2010.06.27 22:07:45.
