data_PCOD8060159
_publ_section_title
;
Structure prediction by ZEFSAII (Michael W. Deem and Ramdas Pophale) SiO2 
 PCOD8060159
Probable space group: P 2/M
;
_chemical_formula_sum "Si O2"
_cell_formula_units_Z 28
_cell_length_a 16.684881
_cell_length_b 11.425041
_cell_length_c 23.534504
_cell_angle_alpha 90.000000
_cell_angle_beta 20.009572
_cell_angle_gamma 90.000000
_cell_volume 1535.100826
_symmetry_space_group_name_H-M "P 2/M"
_symmetry_group_IT_number 10
_symmetry_cell_setting 'monoclinic'
loop_
_space_group_symop_operation_xyz
x,y,z
-x,y,-z
-x,-y,-z
x,-y,z
loop_
_atom_site_type_symbol
_atom_site_label
_atom_site_fract_x
_atom_site_fract_y
_atom_site_fract_z
Si Si1 0.034507 0.135160 0.751993
Si Si2 0.611984 0.500000 0.218417
Si Si3 0.851048 0.500000 0.171523
Si Si4 0.961765 0.128923 0.591628
Si Si5 0.721034 0.269846 0.315696
Si Si6 0.538887 0.863003 0.605901
Si Si7 0.527315 0.136400 0.118152
Si Si8 0.582040 0.254608 0.691398
O O1 0.095309 0.198717 0.769679
O O2 0.197092 0.175411 0.590486
O O3 0.084051 0.000000 0.730060
O O4 0.758692 0.160731 0.925977
O O5 0.623524 0.500000 0.279935
O O6 0.475435 0.390152 0.282095
O O7 0.888892 0.500000 0.025962
O O8 0.845296 0.387136 0.214304
O O9 0.690062 0.168625 0.778923
O O10 0.000000 0.112117 0.500000
O O11 0.137181 0.228353 0.498090
O O12 0.006533 0.000000 0.591104
O O13 0.500000 0.305413 0.500000
O O14 0.653378 0.191560 0.307155
O O15 0.474492 0.819485 0.711527
O O16 0.507211 0.000000 0.624840
O O17 0.526103 0.213764 0.176583
O O18 0.511141 0.000000 0.147294
#
# Coordination Sequence:
#
# PCOD8060159 Si02
#       8
#     4   2   2   4   4   4   4   4
#     4   9  18  32  50  76 107 132 158 201 250 292
#     4  11  24  34  51  68 102 132 162 214 255 276
#     4  11  21  38  48  70  98 132 170 209 244 283
#     4   8  15  29  52  77  99 125 161 202 243 295
#     4  10  19  33  53  72  98 133 171 201 239 296
#     4  10  19  31  50  76 103 130 163 203 247 296
#     4   9  17  32  54  78 103 130 160 199 248 298
#     4  11  19  34  51  73  97 132 169 203 246 293
#
# _framework density 18.239844999999999
#
# number of rings (size 3 to 8) (size 9 to 14) (size 15 to 20)
#    0.000    2.286    1.429    3.643    0.000    1.714 
#    0.000    3.929    0.000    6.857    0.000    1.000 
#    0.000    0.000    0.000    0.000    0.000    0.000 
#
# Total GULP energy -346948.490222 kJ/mol
# GULP energy per Si atom -12391.017508 kJ/mol
# Density = 1.819833 g / cm^3
# Si number density = 18.239845 Si / 1000 Ang^3
#
#
#
# Elastic Constant Matrix: (Units=GPa)
#
#
# Indices 1 2 3 4 5 6 
#
# 1 41.2568 28.6924 2.1695 0.0000 -4.6082 0.0000
# 2 28.6924 88.2315 32.0913 0.0000 -12.8160 0.0000
# 3 2.1695 32.0913 65.1182 0.0000 -19.0856 0.0000
# 4 0.0000 0.0000 0.0000 605.4759 0.0000 -281.1846
# 5 -4.6082 -12.8160 -19.0856 0.0000 21.0115 0.0000
# 6 0.0000 0.0000 0.0000 -281.1846 0.0000 156.5964
#
#
#
# Elastic Compliance Matrix: (Units=1/GPa)
#
#
# Indices 1 2 3 4 5 6 
#
# 1 0.033135 -0.012366 0.006691 0.000000 0.005802 0.000000
# 2 -0.012366 0.018569 -0.008469 0.000000 0.000921 0.000000
# 3 0.006691 -0.008469 0.024836 0.000000 0.018861 0.000000
# 4 0.000000 0.000000 0.000000 0.009942 0.000000 0.017852
# 5 0.005802 0.000921 0.018861 0.000000 0.066559 0.000000
# 6 0.000000 0.000000 0.000000 0.017852 0.000000 0.038442
#
#
# Mechanical properties :
#
#
# Convention : Reuss Voigt Hill
#
# Bulk Modulus (GPa) = 20.72519 35.61257 28.16888
# Shear Modulus (GPa) = 21.19941 165.39362 93.29652
#
# Velocity S-wave (km/s) = 3.41289 9.53278 7.15967
# Velocity P-wave (km/s) = 5.18822 11.86306 9.15560
#
# Compressibility (1/GPa) = 0.04825046
#
# Stress axis : x y z
#
# Youngs Moduli (GPa) = 30.17983 53.85195 40.26494
#
# Poissons Ratio (x) = 0.66593 -0.26940
# Poissons Ratio (y) = 0.37320 0.34102
# Poissons Ratio (z) = -0.20192 0.45609
#
# Static dielectric constant tensor:
#      x y z
#    x 3.422220 0.000000 -0.246860 
#    y 0.000000 3.272360 0.000000 
#    z -0.246860 0.000000 3.754410 
# 
# 
# High freq. dielectric constant tensor:
#      x y z
#    x 1.695620 0.000000 -0.005520 
#    y 0.000000 1.689330 0.000000 
#    z -0.005520 0.000000 1.709260 
# 
# From -- ./inp_files/93429.got.cif
#   From: 2010.06.25/outbox.cif.g09.slc.cpg/sg10_47_cif.got.tgz:93429.got - 2010.06.27 22:07:45.
