data_PCOD8060651
_publ_section_title
;
Structure prediction by ZEFSAII (Michael W. Deem and Ramdas Pophale) SiO2 
 PCOD8060651
Probable space group: P 2/M
;
_chemical_formula_sum "Si O2"
_cell_formula_units_Z 32
_cell_length_a 14.021162
_cell_length_b 17.859010
_cell_length_c 14.458107
_cell_angle_alpha 90.000000
_cell_angle_beta 148.597859
_cell_angle_gamma 90.000000
_cell_volume 1886.362523
_symmetry_space_group_name_H-M "P 2/M"
_symmetry_group_IT_number 10
_symmetry_cell_setting 'monoclinic'
loop_
_space_group_symop_operation_xyz
x,y,z
-x,y,-z
-x,-y,-z
x,-y,z
loop_
_atom_site_type_symbol
_atom_site_label
_atom_site_fract_x
_atom_site_fract_y
_atom_site_fract_z
Si Si1 0.378043 0.188331 0.775588
Si Si2 0.482292 0.351969 0.875337
Si Si3 0.114735 0.586939 0.004871
Si Si4 0.494535 0.588161 0.598573
Si Si5 0.211740 0.585977 0.516407
Si Si6 0.918184 0.916911 0.534239
Si Si7 0.229953 0.824354 0.854248
Si Si8 0.118348 0.335391 0.827670
O O1 0.423326 0.272421 0.780711
O O2 0.253234 0.140531 0.601694
O O3 0.266966 0.197812 0.778884
O O4 0.575192 0.146270 0.945246
O O5 0.330647 0.408815 0.709972
O O6 0.500000 0.346543 0.000000
O O7 0.685395 0.377298 0.013832
O O8 0.091145 0.500000 0.956790
O O9 0.322776 0.609380 0.196182
O O10 0.036667 0.640507 0.859511
O O11 0.000000 0.605461 0.000000
O O12 0.500000 0.624608 0.500000
O O13 0.475562 0.500000 0.571207
O O14 0.327970 0.616791 0.524665
O O15 0.155962 0.500000 0.457138
O O16 0.025235 0.634819 0.368506
O O17 0.000000 0.920531 0.500000
O O18 0.078332 0.889397 0.735942
O O19 0.854523 0.000000 0.512273
O O20 0.149146 0.752954 0.841393
#
# Coordination Sequence:
#
# PCOD8060651 Si02
#       8
#     4   4   4   4   4   4   4   4
#     4   9  16  31  48  64  87 128 167 195 234 282
#     4  11  21  37  53  66  92 133 174 212 248 291
#     4  10  19  32  52  74  98 126 159 208 264 313
#     4   9  17  31  48  68  93 118 150 196 251 308
#     4  11  23  34  48  69  92 122 164 214 259 299
#     4   9  17  27  44  71 100 126 156 196 237 282
#     4   9  17  30  47  66  91 126 163 197 231 284
#     4  11  20  34  53  72  94 129 170 208 248 304
#
# _framework density 16.963865999999999
#
# number of rings (size 3 to 8) (size 9 to 14) (size 15 to 20)
#    0.000    2.125    3.750    1.875    0.000    3.750 
#    0.000    3.125    0.000    0.000    0.000    0.000 
#    0.000    0.500    0.000    4.500    0.000    0.250 
#
# Total GULP energy -396530.174758 kJ/mol
# GULP energy per Si atom -12391.567961 kJ/mol
# Density = 1.692526 g / cm^3
# Si number density = 16.963866 Si / 1000 Ang^3
#
#
#
# Elastic Constant Matrix: (Units=GPa)
#
#
# Indices 1 2 3 4 5 6 
#
# 1 36.8574 30.9118 34.4477 0.0000 1.5219 0.0000
# 2 30.9118 62.5390 38.1955 0.0000 4.9002 0.0000
# 3 34.4477 38.1955 102.9885 0.0000 13.0990 0.0000
# 4 0.0000 0.0000 0.0000 26.2098 0.0000 3.6226
# 5 1.5219 4.9002 13.0990 0.0000 25.4317 0.0000
# 6 0.0000 0.0000 0.0000 3.6226 0.0000 8.3328
#
#
#
# Elastic Compliance Matrix: (Units=1/GPa)
#
#
# Indices 1 2 3 4 5 6 
#
# 1 0.054982 -0.020620 -0.011589 0.000000 0.006652 0.000000
# 2 -0.020620 0.028405 -0.003316 0.000000 -0.002531 0.000000
# 3 -0.011589 -0.003316 0.015673 0.000000 -0.006740 0.000000
# 4 0.000000 0.000000 0.000000 0.040593 0.000000 -0.017647
# 5 0.006652 -0.002531 -0.006740 0.000000 0.042882 0.000000
# 6 0.000000 0.000000 0.000000 -0.017647 0.000000 0.127680
#
#
# Mechanical properties :
#
#
# Convention : Reuss Voigt Hill
#
# Bulk Modulus (GPa) = 35.70020 45.49945 40.59982
# Shear Modulus (GPa) = 12.80076 18.58351 15.69214
#
# Velocity S-wave (km/s) = 2.74996 3.31339 3.04474
# Velocity P-wave (km/s) = 5.58333 6.44342 6.02873
#
# Compressibility (1/GPa) = 0.02801105
#
# Stress axis : x y z
#
# Youngs Moduli (GPa) = 18.18783 35.20459 63.80277
#
# Poissons Ratio (x) = 0.72590 0.73943
# Poissons Ratio (y) = 0.37502 0.21157
# Poissons Ratio (z) = 0.21078 0.11674
#
# Static dielectric constant tensor:
#      x y z
#    x 3.023160 0.000000 0.183830 
#    y 0.000000 2.990080 0.000000 
#    z 0.183830 0.000000 3.514860 
# 
# 
# High freq. dielectric constant tensor:
#      x y z
#    x 1.618040 0.000000 0.017780 
#    y 0.000000 1.615140 0.000000 
#    z 0.017780 0.000000 1.676570 
# 
# From -- ./inp_files/67736.got.cif
#   From: 2010.06.25/outbox.cif.g09.slc.cpg/sg10_34_cif.got.tgz:67736.got - 2010.06.27 22:07:45.
