data_PCOD8060191
_publ_section_title
;
Structure prediction by ZEFSAII (Michael W. Deem and Ramdas Pophale) SiO2 
 PCOD8060191
Probable space group: P 2/M
;
_chemical_formula_sum "Si O2"
_cell_formula_units_Z 28
_cell_length_a 24.691883
_cell_length_b 12.960977
_cell_length_c 5.137063
_cell_angle_alpha 90.000000
_cell_angle_beta 109.952549
_cell_angle_gamma 90.000000
_cell_volume 1545.337701
_symmetry_space_group_name_H-M "P 2/M"
_symmetry_group_IT_number 10
_symmetry_cell_setting 'monoclinic'
loop_
_space_group_symop_operation_xyz
x,y,z
-x,y,-z
-x,-y,-z
x,-y,z
loop_
_atom_site_type_symbol
_atom_site_label
_atom_site_fract_x
_atom_site_fract_y
_atom_site_fract_z
Si Si1 0.625155 0.305463 0.892516
Si Si2 0.245261 0.250172 0.856473
Si Si3 0.255987 0.881682 0.385422
Si Si4 0.617831 0.818045 0.370528
Si Si5 0.457869 0.500000 0.183463
Si Si6 0.935235 0.622826 0.893483
Si Si7 0.133159 0.622403 0.719021
Si Si8 0.463134 0.000000 0.686976
O O1 0.694049 0.312929 0.067370
O O2 0.600812 0.221295 0.055339
O O3 0.619070 0.275265 0.580464
O O4 0.586878 0.405580 0.884209
O O5 0.228084 0.188727 0.565616
O O6 0.197747 0.336296 0.829606
O O7 0.244020 0.166596 0.084346
O O8 0.323663 0.882043 0.549823
O O9 0.233204 0.000000 0.357098
O O10 0.571382 0.895929 0.393317
O O11 0.500000 0.500000 0.500000
O O12 0.500000 0.500000 0.000000
O O13 0.937673 0.500000 0.898712
O O14 0.901678 0.663793 0.586639
O O15 0.901394 0.664293 0.088664
O O16 0.000000 0.667881 0.000000
O O17 0.137394 0.500000 0.726528
O O18 0.500000 0.000000 0.500000
O O19 0.500000 0.000000 0.000000
#
# Coordination Sequence:
#
# PCOD8060191 Si02
#       8
#     4   4   4   4   2   4   4   2
#     4  10  23  39  59  76 103 139 174 221 265 313
#     4  10  21  34  55  83 107 139 174 219 270 320
#     4  10  19  36  57  75 104 135 171 213 271 328
#     4  10  21  39  55  78 103 131 165 207 268 329
#     4  12  26  42  60  78 100 140 187 224 255 304
#     4   9  17  30  48  73 109 155 189 213 252 300
#     4  10  19  31  50  78 115 147 179 221 255 306
#     4  12  24  34  54  82 104 128 160 208 263 330
#
# _framework density 18.119018000000001
#
# number of rings (size 3 to 8) (size 9 to 14) (size 15 to 20)
#    0.000    1.857    0.714    3.429    1.000    5.143 
#    0.000    0.000    0.000    0.000    0.000    0.000 
#    0.000   40.000    0.000    0.000    0.000    0.000 
#
# Total GULP energy -347084.961024 kJ/mol
# GULP energy per Si atom -12395.891465 kJ/mol
# Density = 1.807778 g / cm^3
# Si number density = 18.119018 Si / 1000 Ang^3
#
#
#
# Elastic Constant Matrix: (Units=GPa)
#
#
# Indices 1 2 3 4 5 6 
#
# 1 125.5066 46.2684 42.4781 0.0000 -8.4489 0.0000
# 2 46.2684 59.3952 23.0320 0.0000 4.6077 0.0000
# 3 42.4781 23.0320 95.5169 0.0000 -17.1240 0.0000
# 4 0.0000 0.0000 0.0000 17.1905 0.0000 0.5489
# 5 -8.4489 4.6077 -17.1240 0.0000 34.7769 0.0000
# 6 0.0000 0.0000 0.0000 0.5489 0.0000 28.5917
#
#
#
# Elastic Compliance Matrix: (Units=1/GPa)
#
#
# Indices 1 2 3 4 5 6 
#
# 1 0.012340 -0.008698 -0.002903 0.000000 0.002721 0.000000
# 2 -0.008698 0.025574 -0.003603 0.000000 -0.007275 0.000000
# 3 -0.002903 -0.003603 0.013807 0.000000 0.006571 0.000000
# 4 0.000000 0.000000 0.000000 0.058207 0.000000 -0.001118
# 5 0.002721 -0.007275 0.006571 0.000000 0.033615 0.000000
# 6 0.000000 0.000000 0.000000 -0.001118 0.000000 0.034997
#
#
# Mechanical properties :
#
#
# Convention : Reuss Voigt Hill
#
# Bulk Modulus (GPa) = 46.91850 55.99731 51.45791
# Shear Modulus (GPa) = 23.14268 27.35448 25.24858
#
# Velocity S-wave (km/s) = 3.57775 3.88972 3.73699
# Velocity P-wave (km/s) = 6.55880 7.15161 6.86161
#
# Compressibility (1/GPa) = 0.02131355
#
# Stress axis : x y z
#
# Youngs Moduli (GPa) = 81.03790 39.10269 72.42802
#
# Poissons Ratio (x) = 0.34013 0.21022
# Poissons Ratio (y) = 0.70489 0.26093
# Poissons Ratio (z) = 0.23521 0.14087
#
# Static dielectric constant tensor:
#      x y z
#    x 3.460690 0.000000 -0.125180 
#    y 0.000000 3.027740 0.000000 
#    z -0.125180 0.000000 3.561040 
# 
# 
# High freq. dielectric constant tensor:
#      x y z
#    x 1.705010 0.000000 -0.014970 
#    y 0.000000 1.673050 0.000000 
#    z -0.014970 0.000000 1.718650 
# 
# From -- ./inp_files/12268.got.cif
#   From: 2010.06.25/outbox.cif.g09.slc.cpg/sg10_7_cif.got.tgz:12268.got - 2010.06.27 22:07:45.
