data_PCOD8060680
_publ_section_title
;
Structure prediction by ZEFSAII (Michael W. Deem and Ramdas Pophale) SiO2 
 PCOD8060680
Probable space group: P 2/M
;
_chemical_formula_sum "Si O2"
_cell_formula_units_Z 28
_cell_length_a 9.960980
_cell_length_b 9.018572
_cell_length_c 28.250979
_cell_angle_alpha 90.000000
_cell_angle_beta 37.069042
_cell_angle_gamma 90.000000
_cell_volume 1529.783541
_symmetry_space_group_name_H-M "P 2/M"
_symmetry_group_IT_number 10
_symmetry_cell_setting 'monoclinic'
loop_
_space_group_symop_operation_xyz
x,y,z
-x,y,-z
-x,-y,-z
x,-y,z
loop_
_atom_site_type_symbol
_atom_site_label
_atom_site_fract_x
_atom_site_fract_y
_atom_site_fract_z
Si Si1 0.869697 0.173293 0.621335
Si Si2 0.451884 0.828864 0.800081
Si Si3 0.421434 0.327112 0.373211
Si Si4 0.262026 0.824522 0.049839
Si Si5 0.667853 0.325936 0.494472
Si Si6 0.831649 0.673881 0.195260
Si Si7 0.228035 0.174126 0.955283
O O1 0.698053 0.206668 0.712225
O O2 0.778340 0.242134 0.597791
O O3 0.097256 0.244017 0.575817
O O4 0.904904 0.000000 0.602555
O O5 0.269439 0.728741 0.825673
O O6 0.432303 0.792085 0.861586
O O7 0.388614 0.000000 0.807935
O O8 0.373970 0.500000 0.378315
O O9 0.430533 0.286674 0.426117
O O10 0.661593 0.280021 0.285022
O O11 0.069340 0.751836 0.136346
O O12 0.230276 0.000000 0.061778
O O13 0.500000 0.772006 0.000000
O O14 0.263317 0.756668 0.996695
O O15 0.500000 0.271162 0.500000
O O16 0.710865 0.500000 0.476845
O O17 0.868022 0.500000 0.183503
O O18 0.201392 0.000000 0.969788
O O19 0.000000 0.243278 0.000000
#
# Coordination Sequence:
#
# PCOD8060680 Si02
#       7
#     4   4   4   4   4   4   4
#     4  10  20  33  54  83 110 133 166 216 264 304
#     4   9  17  32  53  76 102 133 169 207 253 301
#     4   9  19  36  57  78 100 136 178 212 252 310
#     4  10  20  34  51  73 100 135 176 209 244 300
#     4  10  21  38  57  75 102 141 178 208 250 312
#     4  10  19  32  52  76 104 131 165 212 258 296
#     4   9  15  28  53  74  95 131 171 207 242 290
#
# _framework density 18.303243999999999
#
# number of rings (size 3 to 8) (size 9 to 14) (size 15 to 20)
#    0.000    2.429    1.429    1.286    0.000    4.000 
#    2.571    1.429    0.000    0.000    0.000    0.000 
#    0.000    0.000    0.000    0.000    0.000    0.000 
#
# Total GULP energy -347086.854243 kJ/mol
# GULP energy per Si atom -12395.959080 kJ/mol
# Density = 1.826159 g / cm^3
# Si number density = 18.303244 Si / 1000 Ang^3
#
#
#
# Elastic Constant Matrix: (Units=GPa)
#
#
# Indices 1 2 3 4 5 6 
#
# 1 139.5093 40.7267 76.6268 0.0000 -10.2313 0.0000
# 2 40.7267 47.5415 40.9931 0.0000 -10.7260 0.0000
# 3 76.6268 40.9931 129.0043 0.0000 -10.4625 0.0000
# 4 0.0000 0.0000 0.0000 29.0672 0.0000 -5.9536
# 5 -10.2313 -10.7260 -10.4625 0.0000 31.9189 0.0000
# 6 0.0000 0.0000 0.0000 -5.9536 0.0000 20.2180
#
#
#
# Elastic Compliance Matrix: (Units=1/GPa)
#
#
# Indices 1 2 3 4 5 6 
#
# 1 0.011599 -0.005461 -0.005138 0.000000 0.000199 0.000000
# 2 -0.005461 0.033103 -0.006693 0.000000 0.007180 0.000000
# 3 -0.005138 -0.006693 0.012959 0.000000 0.000352 0.000000
# 4 0.000000 0.000000 0.000000 0.036611 0.000000 0.010781
# 5 0.000199 0.007180 0.000352 0.000000 0.033921 0.000000
# 6 0.000000 0.000000 0.000000 0.010781 0.000000 0.052635
#
#
# Mechanical properties :
#
#
# Convention : Reuss Voigt Hill
#
# Bulk Modulus (GPa) = 43.33343 70.30536 56.81939
# Shear Modulus (GPa) = 22.41087 26.75475 24.58281
#
# Velocity S-wave (km/s) = 3.50297 3.82743 3.66879
# Velocity P-wave (km/s) = 6.33149 7.61755 7.00410
#
# Compressibility (1/GPa) = 0.02307687
#
# Stress axis : x y z
#
# Youngs Moduli (GPa) = 86.21442 30.20830 77.16630
#
# Poissons Ratio (x) = 0.16497 0.39650
# Poissons Ratio (y) = 0.47082 0.51648
# Poissons Ratio (z) = 0.44299 0.20219
#
# Static dielectric constant tensor:
#      x y z
#    x 3.342960 0.000000 0.092430 
#    y 0.000000 3.195840 0.000000 
#    z 0.092430 0.000000 3.628140 
# 
# 
# High freq. dielectric constant tensor:
#      x y z
#    x 1.689870 0.000000 0.003610 
#    y 0.000000 1.690700 0.000000 
#    z 0.003610 0.000000 1.726720 
# 
# From -- ./inp_files/91937.got.cif
#   From: 2010.06.25/outbox.cif.g09.slc.cpg/sg10_46_cif.got.tgz:91937.got - 2010.06.27 22:07:45.
