data_PCOD8060094
_publ_section_title
;
Structure prediction by ZEFSAII (Michael W. Deem and Ramdas Pophale) SiO2 
 PCOD8060094
Probable space group: P 2/M
;
_chemical_formula_sum "Si O2"
_cell_formula_units_Z 26
_cell_length_a 25.075579
_cell_length_b 13.092778
_cell_length_c 22.995773
_cell_angle_alpha 90.000000
_cell_angle_beta 168.926124
_cell_angle_gamma 90.000000
_cell_volume 1450.108698
_symmetry_space_group_name_H-M "P 2/M"
_symmetry_group_IT_number 10
_symmetry_cell_setting 'monoclinic'
loop_
_space_group_symop_operation_xyz
x,y,z
-x,y,-z
-x,-y,-z
x,-y,z
loop_
_atom_site_type_symbol
_atom_site_label
_atom_site_fract_x
_atom_site_fract_y
_atom_site_fract_z
Si Si1 0.341492 0.884316 0.704916
Si Si2 0.894335 0.118142 0.666622
Si Si3 0.193788 0.390368 0.652620
Si Si4 0.509521 0.119865 0.660720
Si Si5 0.310586 0.500000 0.352653
Si Si6 0.944356 0.188909 0.372126
Si Si7 0.312056 0.277893 0.355214
O O1 0.194061 0.835081 0.490366
O O2 0.126354 0.889078 0.528708
O O3 0.439446 0.000000 0.797541
O O4 0.616696 0.819048 0.011986
O O5 0.653036 0.139480 0.453905
O O6 0.954422 0.000000 0.720630
O O7 0.181808 0.164274 0.998420
O O8 0.208102 0.500000 0.634013
O O9 0.000000 0.405534 0.500000
O O10 0.053800 0.299505 0.465839
O O11 0.500000 0.355525 0.000000
O O12 0.372294 0.185941 0.463333
O O13 0.501695 0.000000 0.634009
O O14 0.500000 0.500000 0.500000
O O15 0.363425 0.390240 0.441543
O O16 0.000000 0.500000 0.000000
O O17 0.000000 0.170978 0.500000
O O18 0.500000 0.264282 0.500000
O O19 0.000000 0.266162 0.000000
#
# Coordination Sequence:
#
# PCOD8060094 Si02
#       7
#     4   4   4   4   2   4   4
#     4  11  22  35  51  71 100 137 171 205 245 296
#     4   9  19  35  51  69  92 128 179 210 232 283
#     4   9  17  31  50  71  95 122 156 196 238 294
#     4  10  19  32  51  74  99 129 167 213 251 289
#     4   8  16  30  46  68 100 134 168 196 223 284
#     4  11  21  33  50  77 103 127 161 203 259 316
#     4  10  19  31  49  76 106 134 163 200 249 297
#
# _framework density 17.929690000000001
#
# number of rings (size 3 to 8) (size 9 to 14) (size 15 to 20)
#    0.000    2.154    0.000    4.615    0.000    4.923 
#    0.000    0.000    0.000    0.000   12.000    0.000 
#    0.000    0.000    0.000    0.000    0.000    0.000 
#
# Total GULP energy -322164.377658 kJ/mol
# GULP energy per Si atom -12390.937602 kJ/mol
# Density = 1.788888 g / cm^3
# Si number density = 17.929690 Si / 1000 Ang^3
#
#
#
# Elastic Constant Matrix: (Units=GPa)
#
#
# Indices 1 2 3 4 5 6 
#
# 1 73.3094 33.3316 35.3445 0.0000 -2.6786 0.0000
# 2 33.3316 89.3840 35.0590 0.0000 -14.2739 0.0000
# 3 35.3445 35.0590 113.0494 0.0000 3.2029 0.0000
# 4 0.0000 0.0000 0.0000 18.5059 0.0000 8.4813
# 5 -2.6786 -14.2739 3.2029 0.0000 34.0933 0.0000
# 6 0.0000 0.0000 0.0000 8.4813 0.0000 7.2873
#
#
#
# Elastic Compliance Matrix: (Units=1/GPa)
#
#
# Indices 1 2 3 4 5 6 
#
# 1 0.017899 -0.005175 -0.003980 0.000000 -0.000386 0.000000
# 2 -0.005175 0.015452 -0.003355 0.000000 0.006378 0.000000
# 3 -0.003980 -0.003355 0.011209 0.000000 -0.002770 0.000000
# 4 0.000000 0.000000 0.000000 0.115809 0.000000 -0.134786
# 5 -0.000386 0.006378 -0.002770 0.000000 0.032231 0.000000
# 6 0.000000 0.000000 0.000000 -0.134786 0.000000 0.294097
#
#
# Mechanical properties :
#
#
# Convention : Reuss Voigt Hill
#
# Bulk Modulus (GPa) = 51.17804 53.69034 52.43419
# Shear Modulus (GPa) = 9.64822 23.44446 16.54634
#
# Velocity S-wave (km/s) = 2.32225 3.61997 3.04113
# Velocity P-wave (km/s) = 5.98299 6.89073 6.45284
#
# Compressibility (1/GPa) = 0.01953963
#
# Stress axis : x y z
#
# Youngs Moduli (GPa) = 55.87042 64.71754 89.21492
#
# Poissons Ratio (x) = 0.33492 0.35508
# Poissons Ratio (y) = 0.28913 0.29929
# Poissons Ratio (z) = 0.22237 0.21710
#
# Static dielectric constant tensor:
#      x y z
#    x 3.168870 0.000000 0.155140 
#    y 0.000000 3.917200 0.000000 
#    z 0.155140 0.000000 3.419810 
# 
# 
# High freq. dielectric constant tensor:
#      x y z
#    x 1.677050 0.000000 0.030360 
#    y 0.000000 1.688750 0.000000 
#    z 0.030360 0.000000 1.705180 
# 
# From -- ./inp_files/86625.got.cif
#   From: 2010.06.25/outbox.cif.g09.slc.cpg/sg10_44_cif.got.tgz:86625.got - 2010.06.27 22:07:45.
