data_PCOD8060459
_publ_section_title
;
Structure prediction by ZEFSAII (Michael W. Deem and Ramdas Pophale) SiO2 
 PCOD8060459
Probable space group: P 2/M
;
_chemical_formula_sum "Si O2"
_cell_formula_units_Z 28
_cell_length_a 15.860041
_cell_length_b 17.581655
_cell_length_c 10.230578
_cell_angle_alpha 90.000000
_cell_angle_beta 144.326364
_cell_angle_gamma 90.000000
_cell_volume 1663.633002
_symmetry_space_group_name_H-M "P 2/M"
_symmetry_group_IT_number 10
_symmetry_cell_setting 'monoclinic'
loop_
_space_group_symop_operation_xyz
x,y,z
-x,y,-z
-x,-y,-z
x,-y,z
loop_
_atom_site_type_symbol
_atom_site_label
_atom_site_fract_x
_atom_site_fract_y
_atom_site_fract_z
Si Si1 0.610044 0.587230 0.250200
Si Si2 0.190889 0.134665 0.863305
Si Si3 0.616999 0.000000 0.947194
Si Si4 0.425411 0.587004 0.273344
Si Si5 0.145226 0.305915 0.514874
Si Si6 0.690883 0.000000 0.346008
Si Si7 0.185383 0.305426 0.868846
Si Si8 0.123851 0.135527 0.474828
O O1 0.651393 0.500000 0.271837
O O2 0.538702 0.597171 0.300373
O O3 0.756971 0.635869 0.443279
O O4 0.500000 0.617534 0.000000
O O5 0.240079 0.219408 0.965603
O O6 0.150690 0.129328 0.661820
O O7 0.045618 0.116811 0.763551
O O8 0.318567 0.073600 0.047601
O O9 0.443110 0.000000 0.721876
O O10 0.651314 0.000000 0.143809
O O11 0.500000 0.615017 0.500000
O O12 0.373594 0.500000 0.219906
O O13 0.284921 0.637023 0.072078
O O14 0.192528 0.318148 0.723534
O O15 0.171759 0.220524 0.494493
O O16 0.975872 0.322197 0.283160
O O17 0.783189 0.924227 0.491729
#
# Coordination Sequence:
#
# PCOD8060459 Si02
#       8
#     4   4   2   4   4   2   4   4
#     4  10  19  32  49  72  97 123 157 195 241 291
#     4   8  14  24  38  55  82 119 156 189 229 279
#     4   9  15  21  31  55  84 118 157 190 225 271
#     4  10  21  36  51  69  97 131 161 193 241 294
#     4   9  17  29  47  73  95 121 160 204 243 280
#     4   9  15  21  29  51  87 122 155 184 226 282
#     4   9  17  30  48  70  95 123 162 201 240 285
#     4   8  14  24  36  54  85 122 152 186 233 281
#
# _framework density 16.830635000000001
#
# number of rings (size 3 to 8) (size 9 to 14) (size 15 to 20)
#    0.000    3.000    1.429    2.143    0.000    3.429 
#    2.571    2.143    0.000    2.571    0.000    0.500 
#    0.000    0.000    0.000    9.857    0.000    5.429 
#
# Total GULP energy -347022.858429 kJ/mol
# GULP energy per Si atom -12393.673515 kJ/mol
# Density = 1.679233 g / cm^3
# Si number density = 16.830635 Si / 1000 Ang^3
#
#
#
# Elastic Constant Matrix: (Units=GPa)
#
#
# Indices 1 2 3 4 5 6 
#
# 1 58.2868 49.4781 45.6101 0.0000 17.4672 0.0000
# 2 49.4781 122.1500 71.4443 0.0000 28.0485 0.0000
# 3 45.6101 71.4443 83.2622 0.0000 18.6028 0.0000
# 4 0.0000 0.0000 0.0000 21.8551 0.0000 12.6617
# 5 17.4672 28.0485 18.6028 0.0000 29.2771 0.0000
# 6 0.0000 0.0000 0.0000 12.6617 0.0000 21.0451
#
#
#
# Elastic Compliance Matrix: (Units=1/GPa)
#
#
# Indices 1 2 3 4 5 6 
#
# 1 0.032956 -0.004097 -0.012845 0.000000 -0.007575 0.000000
# 2 -0.004097 0.018681 -0.012042 0.000000 -0.007801 0.000000
# 3 -0.012845 -0.012042 0.029241 0.000000 0.000621 0.000000
# 4 0.000000 0.000000 0.000000 0.070238 0.000000 -0.042258
# 5 -0.007575 -0.007801 0.000621 0.000000 0.045755 0.000000
# 6 0.000000 0.000000 0.000000 -0.042258 0.000000 0.072942
#
#
# Mechanical properties :
#
#
# Convention : Reuss Voigt Hill
#
# Bulk Modulus (GPa) = 43.64989 66.30709 54.97849
# Shear Modulus (GPa) = 14.90683 20.91322 17.91002
#
# Velocity S-wave (km/s) = 2.97929 3.52883 3.26564
# Velocity P-wave (km/s) = 6.15028 7.48904 6.85244
#
# Compressibility (1/GPa) = 0.02290957
#
# Stress axis : x y z
#
# Youngs Moduli (GPa) = 30.34382 53.53129 34.19855
#
# Poissons Ratio (x) = 0.21929 0.43928
# Poissons Ratio (y) = 0.12430 0.41183
# Poissons Ratio (z) = 0.38977 0.64464
#
# Static dielectric constant tensor:
#      x y z
#    x 2.967570 0.000000 0.360590 
#    y 0.000000 3.407380 0.000000 
#    z 0.360590 0.000000 2.914590 
# 
# 
# High freq. dielectric constant tensor:
#      x y z
#    x 1.619280 0.000000 0.037550 
#    y 0.000000 1.659220 0.000000 
#    z 0.037550 0.000000 1.613690 
# 
# From -- ./inp_files/54116.got.cif
#   From: 2010.06.25/outbox.cif.g09.slc.cpg/sg10_28_cif.got.tgz:54116.got - 2010.06.27 22:07:45.
