data_PCOD8060573
_publ_section_title
;
Structure prediction by ZEFSAII (Michael W. Deem and Ramdas Pophale) SiO2 
 PCOD8060573
Probable space group: P 2/M
;
_chemical_formula_sum "Si O2"
_cell_formula_units_Z 28
_cell_length_a 7.997167
_cell_length_b 19.272904
_cell_length_c 15.627155
_cell_angle_alpha 90.000000
_cell_angle_beta 39.859129
_cell_angle_gamma 90.000000
_cell_volume 1543.671982
_symmetry_space_group_name_H-M "P 2/M"
_symmetry_group_IT_number 10
_symmetry_cell_setting 'monoclinic'
loop_
_space_group_symop_operation_xyz
x,y,z
-x,y,-z
-x,-y,-z
x,-y,z
loop_
_atom_site_type_symbol
_atom_site_label
_atom_site_fract_x
_atom_site_fract_y
_atom_site_fract_z
Si Si1 0.739133 0.921402 0.840578
Si Si2 0.663501 0.579109 0.355126
Si Si3 0.577240 0.835669 0.158665
Si Si4 0.467570 0.689937 0.149570
Si Si5 0.946765 0.164331 0.158665
Si Si6 0.271121 0.579109 0.355126
Si Si7 0.916281 0.689937 0.850430
O O1 0.657197 0.884569 0.783167
O O2 0.993301 0.884569 0.783167
O O3 0.818194 0.000000 0.787870
O O4 0.500000 0.918996 0.000000
O O5 0.500000 0.607321 0.500000
O O6 0.750545 0.500000 0.338194
O O7 0.494356 0.585724 0.337096
O O8 0.921967 0.623598 0.242187
O O9 0.482107 0.756174 0.206867
O O10 0.691540 0.861508 0.205640
O O11 0.802405 0.836961 1.000000
O O12 0.351472 0.623598 0.242187
O O13 0.280409 0.712618 0.146394
O O14 0.753158 0.670512 0.000000
O O15 0.897291 0.243826 0.206867
O O16 0.234873 0.500000 0.338194
O O17 0.000000 0.607321 0.500000
#
# Coordination Sequence:
#
# PCOD8060573 Si02
#       7
#     4   4   4   4   4   4   4
#     4   9  16  26  40  62  95 131 165 201 247 304
#     4  10  21  36  52  71  98 132 168 211 262 308
#     4   9  16  27  43  64  93 129 166 205 251 297
#     4  10  19  32  51  73  99 133 171 212 257 304
#     4   9  16  27  43  64  93 129 166 205 251 297
#     4  10  21  36  52  71  98 132 168 211 262 308
#     4  10  19  32  51  73  99 133 171 212 257 304
#
# _framework density 18.138570000000001
#
# number of rings (size 3 to 8) (size 9 to 14) (size 15 to 20)
#    0.000    2.429    1.429    1.714    0.000    4.571 
#    0.000    5.714    0.000    0.000    0.000    0.000 
#    0.000    1.143    0.571    0.000    0.000    0.000 
#
# Total GULP energy -347133.767480 kJ/mol
# GULP energy per Si atom -12397.634553 kJ/mol
# Density = 1.809729 g / cm^3
# Si number density = 18.138570 Si / 1000 Ang^3
#
#
#
# Elastic Constant Matrix: (Units=GPa)
#
#
# Indices 1 2 3 4 5 6 
#
# 1 115.9724 51.6369 19.7504 0.0000 5.8170 0.0000
# 2 51.6369 109.8212 43.6565 0.0000 0.7739 0.0000
# 3 19.7504 43.6565 55.7104 0.0000 0.0270 0.0000
# 4 0.0000 0.0000 0.0000 3.0300 0.0000 2.3835
# 5 5.8170 0.7739 0.0270 0.0000 18.6805 0.0000
# 6 0.0000 0.0000 0.0000 2.3835 0.0000 27.6084
#
#
#
# Elastic Compliance Matrix: (Units=1/GPa)
#
#
# Indices 1 2 3 4 5 6 
#
# 1 0.011100 -0.005276 0.000201 0.000000 -0.003238 0.000000
# 2 -0.005276 0.015739 -0.010464 0.000000 0.001006 0.000000
# 3 0.000201 -0.010464 0.026078 0.000000 0.000333 0.000000
# 4 0.000000 0.000000 0.000000 0.354082 0.000000 -0.030569
# 5 -0.003238 0.001006 0.000333 0.000000 0.054498 0.000000
# 6 0.000000 0.000000 0.000000 -0.030569 0.000000 0.038860
#
#
# Mechanical properties :
#
#
# Convention : Reuss Voigt Hill
#
# Bulk Modulus (GPa) = 45.78817 56.84349 51.31583
# Shear Modulus (GPa) = 9.28135 20.96113 15.12124
#
# Velocity S-wave (km/s) = 2.26451 3.40312 2.89043
# Velocity P-wave (km/s) = 5.66884 6.84457 6.28426
#
# Compressibility (1/GPa) = 0.02183970
#
# Stress axis : x y z
#
# Youngs Moduli (GPa) = 90.08829 63.53644 38.34633
#
# Poissons Ratio (x) = 0.33524 -0.00771
# Poissons Ratio (y) = 0.47533 0.40124
# Poissons Ratio (z) = -0.01811 0.66482
#
# Static dielectric constant tensor:
#      x y z
#    x 3.573220 0.000000 0.068870 
#    y 0.000000 3.346470 0.000000 
#    z 0.068870 0.000000 2.863040 
# 
# 
# High freq. dielectric constant tensor:
#      x y z
#    x 1.722480 0.000000 0.007810 
#    y 0.000000 1.698350 0.000000 
#    z 0.007810 0.000000 1.641970 
# 
# From -- ./inp_files/30492.got.cif
#   From: 2010.06.25/outbox.cif.g09.slc.cpg/sg10_16_cif.got.tgz:30492.got - 2010.06.27 22:07:45.
