data_PCOD8060526
_publ_section_title
;
Structure prediction by ZEFSAII (Michael W. Deem and Ramdas Pophale) SiO2 
 PCOD8060526
Probable space group: P 2/M
;
_chemical_formula_sum "Si O2"
_cell_formula_units_Z 32
_cell_length_a 27.221473
_cell_length_b 9.179786
_cell_length_c 21.330973
_cell_angle_alpha 90.000000
_cell_angle_beta 161.350986
_cell_angle_gamma 90.000000
_cell_volume 1704.482380
_symmetry_space_group_name_H-M "P 2/M"
_symmetry_group_IT_number 10
_symmetry_cell_setting 'monoclinic'
loop_
_space_group_symop_operation_xyz
x,y,z
-x,y,-z
-x,-y,-z
x,-y,z
loop_
_atom_site_type_symbol
_atom_site_label
_atom_site_fract_x
_atom_site_fract_y
_atom_site_fract_z
Si Si1 0.921432 0.173056 0.498363
Si Si2 0.870885 0.332009 0.795397
Si Si3 0.544874 0.173286 0.247234
Si Si4 0.048308 0.666051 0.884846
Si Si5 0.565974 0.172573 0.415605
Si Si6 0.853485 0.173191 0.554192
Si Si7 0.397832 0.330533 0.317936
Si Si8 0.769553 0.173355 0.189642
O O1 0.865195 0.233329 0.497317
O O2 0.804334 0.227360 0.302595
O O3 0.094049 0.228237 0.691411
O O4 0.921952 0.000000 0.500024
O O5 0.823327 0.500000 0.748179
O O6 0.727665 0.229738 0.636739
O O7 0.930083 0.302468 0.797411
O O8 0.000000 0.284652 0.000000
O O9 0.543050 0.227315 0.316690
O O10 0.695475 0.233227 0.393469
O O11 0.545251 0.000000 0.245222
O O12 0.393320 0.237892 0.030067
O O13 0.037447 0.500000 0.848818
O O14 0.001118 0.768287 0.770149
O O15 0.219272 0.699639 0.116578
O O16 0.433988 0.240622 0.299000
O O17 0.559448 0.000000 0.412690
O O18 0.859575 0.000000 0.563653
O O19 0.500000 0.274642 0.500000
O O20 0.431937 0.500000 0.346745
O O21 0.763250 0.000000 0.180322
#
# Coordination Sequence:
#
# PCOD8060526 Si02
#       8
#     4   4   4   4   4   4   4   4
#     4   8  15  26  46  73 101 137 176 215 255 301
#     4  10  20  37  60  79 100 140 186 223 262 311
#     4   9  18  30  45  71 110 143 167 207 260 315
#     4  10  21  36  55  79 104 136 178 223 268 313
#     4  11  22  35  53  83 115 142 171 215 276 325
#     4  10  19  32  50  76 108 140 172 212 265 315
#     4  10  22  41  60  77 102 138 183 229 267 315
#     4   8  14  27  44  70 105 137 175 214 253 305
#
# _framework density 18.774028999999999
#
# number of rings (size 3 to 8) (size 9 to 14) (size 15 to 20)
#    0.000    2.500    1.250    1.875    1.750    3.500 
#    0.000    3.750    0.000    0.000    0.000    5.250 
#    0.000    0.000    0.000    0.000    0.000    0.000 
#
# Total GULP energy -396775.631077 kJ/mol
# GULP energy per Si atom -12399.238471 kJ/mol
# Density = 1.873130 g / cm^3
# Si number density = 18.774029 Si / 1000 Ang^3
#
#
#
# Elastic Constant Matrix: (Units=GPa)
#
#
# Indices 1 2 3 4 5 6 
#
# 1 98.0051 17.8445 35.0220 0.0000 -10.1877 0.0000
# 2 17.8445 26.1932 18.4188 0.0000 -0.7266 0.0000
# 3 35.0220 18.4188 116.2644 0.0000 -8.8711 0.0000
# 4 0.0000 0.0000 0.0000 17.3750 0.0000 4.3824
# 5 -10.1877 -0.7266 -8.8711 0.0000 31.1068 0.0000
# 6 0.0000 0.0000 0.0000 4.3824 0.0000 20.2929
#
#
#
# Elastic Compliance Matrix: (Units=1/GPa)
#
#
# Indices 1 2 3 4 5 6 
#
# 1 0.012671 -0.006790 -0.002491 0.000000 0.003281 0.000000
# 2 -0.006790 0.046630 -0.005549 0.000000 -0.002717 0.000000
# 3 -0.002491 -0.005549 0.010384 0.000000 0.002016 0.000000
# 4 0.000000 0.000000 0.000000 0.060869 0.000000 -0.013145
# 5 0.003281 -0.002717 0.002016 0.000000 0.033733 0.000000
# 6 0.000000 0.000000 0.000000 -0.013145 0.000000 0.052117
#
#
# Mechanical properties :
#
#
# Convention : Reuss Voigt Hill
#
# Bulk Modulus (GPa) = 24.98387 42.55927 33.77157
# Shear Modulus (GPa) = 19.27470 25.03342 22.15406
#
# Velocity S-wave (km/s) = 3.20764 3.65555 3.43889
# Velocity P-wave (km/s) = 5.20146 6.36677 5.81339
#
# Compressibility (1/GPa) = 0.04002582
#
# Stress axis : x y z
#
# Youngs Moduli (GPa) = 78.92056 21.44526 96.29863
#
# Poissons Ratio (x) = 0.14561 0.23987
# Poissons Ratio (y) = 0.53585 0.53439
# Poissons Ratio (z) = 0.19658 0.11901
#
# Static dielectric constant tensor:
#      x y z
#    x 3.704320 0.000000 -0.007810 
#    y 0.000000 2.969040 0.000000 
#    z -0.007810 0.000000 3.613710 
# 
# 
# High freq. dielectric constant tensor:
#      x y z
#    x 1.738890 0.000000 -0.000620 
#    y 0.000000 1.678130 0.000000 
#    z -0.000620 0.000000 1.738450 
# 
# From -- ./inp_files/87022.got.cif
#   From: 2010.06.25/outbox.cif.g09.slc.cpg/sg10_44_cif.got.tgz:87022.got - 2010.06.27 22:07:45.
