data_PCOD8060291
_publ_section_title
;
Structure prediction by ZEFSAII (Michael W. Deem and Ramdas Pophale) SiO2 
 PCOD8060291
Probable space group: P 2/M
;
_chemical_formula_sum "Si O2"
_cell_formula_units_Z 32
_cell_length_a 30.221780
_cell_length_b 9.384593
_cell_length_c 11.033010
_cell_angle_alpha 90.000000
_cell_angle_beta 147.792250
_cell_angle_gamma 90.000000
_cell_volume 1667.819893
_symmetry_space_group_name_H-M "P 2/M"
_symmetry_group_IT_number 10
_symmetry_cell_setting 'monoclinic'
loop_
_space_group_symop_operation_xyz
x,y,z
-x,y,-z
-x,-y,-z
x,-y,z
loop_
_atom_site_type_symbol
_atom_site_label
_atom_site_fract_x
_atom_site_fract_y
_atom_site_fract_z
Si Si1 0.174520 0.839450 0.652016
Si Si2 0.681730 0.665469 0.431757
Si Si3 0.751644 0.841694 0.926503
Si Si4 0.467936 0.335309 0.294380
Si Si5 0.413591 0.835333 0.593293
Si Si6 0.844216 0.665653 0.954575
Si Si7 0.705598 0.337297 0.215034
Si Si8 0.999354 0.167907 0.640008
O O1 0.211236 0.747191 0.627830
O O2 0.086451 0.782690 0.496895
O O3 0.164831 0.000000 0.582029
O O4 0.242149 0.828964 0.915455
O O5 0.659030 0.500000 0.400262
O O6 0.615211 0.760709 0.349318
O O7 0.775763 0.696539 0.693128
O O8 0.675042 0.711655 0.276751
O O9 0.656785 0.817453 0.671483
O O10 0.810026 0.723203 0.002891
O O11 0.782149 0.000000 0.955272
O O12 0.500000 0.282439 0.500000
O O13 0.493273 0.500000 0.333160
O O14 0.506504 0.242261 0.275785
O O15 0.368771 0.315032 0.053720
O O16 0.434100 0.000000 0.668163
O O17 0.864432 0.500000 0.014786
O O18 0.928687 0.749603 0.119992
O O19 0.733725 0.500000 0.286432
O O20 0.000000 0.211777 0.500000
O O21 0.013060 0.000000 0.685405
#
# Coordination Sequence:
#
# PCOD8060291 Si02
#       8
#     4   4   4   4   4   4   4   4
#     4  10  20  34  54  78 106 141 177 217 269 322
#     4   9  20  39  57  75 106 147 187 222 265 317
#     4   9  17  32  51  75 109 144 173 209 269 331
#     4  10  21  37  57  82 113 144 176 218 274 330
#     4  10  20  33  56  85 109 140 182 227 269 311
#     4  10  19  31  52  80 106 135 177 226 263 304
#     4  10  22  39  57  76 104 146 185 221 268 322
#     4  10  19  34  54  78 112 146 172 210 271 333
#
# _framework density 19.186726
#
# number of rings (size 3 to 8) (size 9 to 14) (size 15 to 20)
#    0.000    2.250    1.250    1.500    0.000    4.000 
#    0.000    3.125    0.000    3.750    0.000    0.000 
#    0.000    0.000    0.000    0.000    0.000    0.000 
#
# Total GULP energy -396812.910388 kJ/mol
# GULP energy per Si atom -12400.403450 kJ/mol
# Density = 1.914306 g / cm^3
# Si number density = 19.186726 Si / 1000 Ang^3
#
#
#
# Elastic Constant Matrix: (Units=GPa)
#
#
# Indices 1 2 3 4 5 6 
#
# 1 110.8042 56.7218 31.7105 0.0000 14.1088 0.0000
# 2 56.7218 79.8725 30.3622 0.0000 12.2970 0.0000
# 3 31.7105 30.3622 48.6649 0.0000 6.4257 0.0000
# 4 0.0000 0.0000 0.0000 26.6796 0.0000 7.2153
# 5 14.1088 12.2970 6.4257 0.0000 28.9001 0.0000
# 6 0.0000 0.0000 0.0000 7.2153 0.0000 35.9748
#
#
#
# Elastic Compliance Matrix: (Units=1/GPa)
#
#
# Indices 1 2 3 4 5 6 
#
# 1 0.014957 -0.008697 -0.003961 0.000000 -0.002721 0.000000
# 2 -0.008697 0.022157 -0.007698 0.000000 -0.003470 0.000000
# 3 -0.003961 -0.007698 0.028069 0.000000 -0.001032 0.000000
# 4 0.000000 0.000000 0.000000 0.039632 0.000000 -0.007949
# 5 -0.002721 -0.003470 -0.001032 0.000000 0.037636 0.000000
# 6 0.000000 0.000000 0.000000 -0.007949 0.000000 0.029391
#
#
# Mechanical properties :
#
#
# Convention : Reuss Voigt Hill
#
# Bulk Modulus (GPa) = 40.86619 52.99230 46.92924
# Shear Modulus (GPa) = 22.65399 26.34737 24.50068
#
# Velocity S-wave (km/s) = 3.43988 3.70970 3.57733
# Velocity P-wave (km/s) = 6.09282 6.78442 6.44790
#
# Compressibility (1/GPa) = 0.02447011
#
# Stress axis : x y z
#
# Youngs Moduli (GPa) = 66.85777 45.13206 35.62684
#
# Poissons Ratio (x) = 0.39253 0.14110
# Poissons Ratio (y) = 0.58149 0.27427
# Poissons Ratio (z) = 0.26480 0.34744
#
# Static dielectric constant tensor:
#      x y z
#    x 3.263120 0.000000 0.000730 
#    y 0.000000 3.522700 0.000000 
#    z 0.000730 0.000000 3.490780 
# 
# 
# High freq. dielectric constant tensor:
#      x y z
#    x 1.729720 0.000000 0.006910 
#    y 0.000000 1.743880 0.000000 
#    z 0.006910 0.000000 1.743400 
# 
# From -- ./inp_files/58270.got.cif
#   From: 2010.06.25/outbox.cif.g09.slc.cpg/sg10_30_cif.got.tgz:58270.got - 2010.06.27 22:07:45.
