data_PCOD8060397
_publ_section_title
;
Structure prediction by ZEFSAII (Michael W. Deem and Ramdas Pophale) SiO2 
 PCOD8060397
Probable space group: P 2/M
;
_chemical_formula_sum "Si O2"
_cell_formula_units_Z 32
_cell_length_a 20.421303
_cell_length_b 13.352296
_cell_length_c 20.311821
_cell_angle_alpha 90.000000
_cell_angle_beta 159.165007
_cell_angle_gamma 90.000000
_cell_volume 1969.904001
_symmetry_space_group_name_H-M "P 2/M"
_symmetry_group_IT_number 10
_symmetry_cell_setting 'monoclinic'
loop_
_space_group_symop_operation_xyz
x,y,z
-x,y,-z
-x,-y,-z
x,-y,z
loop_
_atom_site_type_symbol
_atom_site_label
_atom_site_fract_x
_atom_site_fract_y
_atom_site_fract_z
Si Si1 0.493582 0.211152 0.916208
Si Si2 0.704109 0.618040 0.704216
Si Si3 0.173846 0.112612 0.840109
Si Si4 0.156427 0.696912 0.906901
Si Si5 0.917452 0.612022 0.568198
Si Si6 0.951220 0.618603 0.057115
Si Si7 0.498686 0.386278 0.170318
Si Si8 0.080953 0.806300 0.505275
O O1 0.535654 0.322073 0.928111
O O2 0.296981 0.171968 0.707293
O O3 0.500000 0.217644 0.000000
O O4 0.641956 0.133749 0.028181
O O5 0.500000 0.665906 0.500000
O O6 0.685073 0.500000 0.687064
O O7 0.847517 0.648258 0.781636
O O8 0.790514 0.651364 0.855273
O O9 0.151512 0.186440 0.881417
O O10 0.003580 0.123041 0.630049
O O11 0.179187 0.000000 0.872837
O O12 0.074935 0.684753 0.902634
O O13 0.039447 0.630238 0.746685
O O14 0.365224 0.655043 0.102243
O O15 0.953002 0.500000 0.574462
O O16 0.705599 0.625274 0.391377
O O17 0.966615 0.690219 0.556469
O O18 0.940036 0.500000 0.061798
O O19 0.450600 0.500000 0.106848
O O20 0.000000 0.832938 0.500000
#
# Coordination Sequence:
#
# PCOD8060397 Si02
#       8
#     4   4   4   4   4   4   4   4
#     4  10  19  33  48  67  90 111 146 192 235 289
#     4   8  15  27  42  67 103 133 156 179 203 245
#     4  10  22  37  51  66  87 116 152 202 254 291
#     4  10  19  32  48  67  93 122 160 198 230 272
#     4   9  18  30  44  64  92 123 151 182 224 276
#     4   9  16  26  44  70  98 128 156 180 212 256
#     4   9  18  30  44  64  92 123 151 182 224 276
#     4  10  19  33  48  67  90 111 146 192 235 289
#
# _framework density 16.244446
#
# number of rings (size 3 to 8) (size 9 to 14) (size 15 to 20)
#    0.000    2.625    1.250    1.875    0.000    2.500 
#    0.000    2.500    0.000    0.000    0.000    1.750 
#    0.000    1.000    0.000    0.000    0.000    0.000 
#
# Total GULP energy -396723.422325 kJ/mol
# GULP energy per Si atom -12397.606948 kJ/mol
# Density = 1.620747 g / cm^3
# Si number density = 16.244446 Si / 1000 Ang^3
#
#
#
# Elastic Constant Matrix: (Units=GPa)
#
#
# Indices 1 2 3 4 5 6 
#
# 1 93.8533 22.8715 21.4097 0.0000 3.8894 0.0000
# 2 22.8715 80.7933 12.4804 0.0000 5.0398 0.0000
# 3 21.4097 12.4804 77.4131 0.0000 12.1672 0.0000
# 4 0.0000 0.0000 0.0000 8.8783 0.0000 -0.8216
# 5 3.8894 5.0398 12.1672 0.0000 16.2651 0.0000
# 6 0.0000 0.0000 0.0000 -0.8216 0.0000 13.4862
#
#
#
# Elastic Compliance Matrix: (Units=1/GPa)
#
#
# Indices 1 2 3 4 5 6 
#
# 1 0.012028 -0.002973 -0.002878 0.000000 0.000198 0.000000
# 2 -0.002973 0.013535 -0.000921 0.000000 -0.002794 0.000000
# 3 -0.002878 -0.000921 0.015536 0.000000 -0.010648 0.000000
# 4 0.000000 0.000000 0.000000 0.113273 0.000000 0.006900
# 5 0.000198 -0.002794 -0.010648 0.000000 0.070265 0.000000
# 6 0.000000 0.000000 0.000000 0.006900 0.000000 0.074570
#
#
# Mechanical properties :
#
#
# Convention : Reuss Voigt Hill
#
# Bulk Modulus (GPa) = 36.29076 40.62033 38.45554
# Shear Modulus (GPa) = 15.53103 20.74578 18.13841
#
# Velocity S-wave (km/s) = 3.09541 3.57753 3.34517
# Velocity P-wave (km/s) = 5.92995 6.49037 6.21648
#
# Compressibility (1/GPa) = 0.02755523
#
# Stress axis : x y z
#
# Youngs Moduli (GPa) = 83.14125 73.88081 64.36751
#
# Poissons Ratio (x) = 0.21962 0.18527
# Poissons Ratio (y) = 0.24715 0.05927
# Poissons Ratio (z) = 0.23931 0.06803
#
# Static dielectric constant tensor:
#      x y z
#    x 2.905660 0.000000 0.160090 
#    y 0.000000 2.836310 0.000000 
#    z 0.160090 0.000000 3.486210 
# 
# 
# High freq. dielectric constant tensor:
#      x y z
#    x 1.602470 0.000000 0.011000 
#    y 0.000000 1.592150 0.000000 
#    z 0.011000 0.000000 1.644300 
# 
# From -- ./inp_files/86256.got.cif
#   From: 2010.06.25/outbox.cif.g09.slc.cpg/sg10_44_cif.got.tgz:86256.got - 2010.06.27 22:07:45.
