data_PCOD8060416
_publ_section_title
;
Structure prediction by ZEFSAII (Michael W. Deem and Ramdas Pophale) SiO2 
 PCOD8060416
Probable space group: P 2/M
;
_chemical_formula_sum "Si O2"
_cell_formula_units_Z 32
_cell_length_a 28.367003
_cell_length_b 9.130547
_cell_length_c 20.034585
_cell_angle_alpha 90.000000
_cell_angle_beta 158.782231
_cell_angle_gamma 90.000000
_cell_volume 1878.000119
_symmetry_space_group_name_H-M "P 2/M"
_symmetry_group_IT_number 10
_symmetry_cell_setting 'monoclinic'
loop_
_space_group_symop_operation_xyz
x,y,z
-x,y,-z
-x,-y,-z
x,-y,z
loop_
_atom_site_type_symbol
_atom_site_label
_atom_site_fract_x
_atom_site_fract_y
_atom_site_fract_z
Si Si1 0.817992 0.670593 0.857189
Si Si2 0.086709 0.827740 0.523317
Si Si3 0.307409 0.170089 0.427898
Si Si4 0.603298 0.171599 0.828999
Si Si5 0.191926 0.826289 0.795516
Si Si6 0.918367 0.829357 0.771757
Si Si7 0.030995 0.829076 0.308536
Si Si8 0.766389 0.329086 0.939784
O O1 0.836163 0.500000 0.867607
O O2 0.720319 0.737537 0.674647
O O3 0.754135 0.701704 0.844768
O O4 0.959707 0.743139 0.037261
O O5 0.189589 0.767665 0.714793
O O6 0.122147 0.787331 0.493010
O O7 0.940983 0.769677 0.345722
O O8 0.083981 0.000000 0.529568
O O9 0.452523 0.204798 0.644486
O O10 0.211003 0.218429 0.360094
O O11 0.289307 0.000000 0.386343
O O12 0.645129 0.253771 0.816562
O O13 0.628585 0.000000 0.851356
O O14 0.684966 0.234757 0.000180
O O15 0.201595 0.000000 0.809613
O O16 0.895689 0.790189 0.663613
O O17 0.948905 0.000000 0.821404
O O18 0.993299 0.000000 0.261191
O O19 0.899291 0.738878 0.142473
O O20 0.766437 0.500000 0.955808
#
# Coordination Sequence:
#
# PCOD8060416 Si02
#       8
#     4   4   4   4   4   4   4   4
#     4  10  21  35  51  70  91 117 151 194 238 278
#     4   8  12  20  41  71  94 114 148 188 223 261
#     4  10  21  34  48  68  92 122 157 193 230 267
#     4  10  19  32  49  66  92 128 160 184 218 277
#     4   8  13  22  40  68  95 117 148 188 220 260
#     4   9  18  32  50  71  94 118 151 196 234 264
#     4   9  15  27  49  71  92 121 154 186 225 275
#     4  10  20  32  46  68  96 120 147 189 237 275
#
# _framework density 17.039403
#
# number of rings (size 3 to 8) (size 9 to 14) (size 15 to 20)
#    0.000    2.750    1.250    1.875    0.000    4.500 
#    0.000    2.500    0.000    2.250    0.000    5.250 
#    0.000    0.000    0.000    8.500    0.000    9.000 
#
# Total GULP energy -396581.901990 kJ/mol
# GULP energy per Si atom -12393.184437 kJ/mol
# Density = 1.700062 g / cm^3
# Si number density = 17.039403 Si / 1000 Ang^3
#
#
#
# Elastic Constant Matrix: (Units=GPa)
#
#
# Indices 1 2 3 4 5 6 
#
# 1 94.8439 29.5817 68.4192 0.0000 -17.0984 0.0000
# 2 29.5817 39.2811 32.2846 0.0000 -2.0899 0.0000
# 3 68.4192 32.2846 114.1476 0.0000 -12.3534 0.0000
# 4 0.0000 0.0000 0.0000 2.9474 0.0000 0.6846
# 5 -17.0984 -2.0899 -12.3534 0.0000 28.4097 0.0000
# 6 0.0000 0.0000 0.0000 0.6846 0.0000 15.5868
#
#
#
# Elastic Compliance Matrix: (Units=1/GPa)
#
#
# Indices 1 2 3 4 5 6 
#
# 1 0.021490 -0.007669 -0.009836 0.000000 0.008093 0.000000
# 2 -0.007669 0.035985 -0.006080 0.000000 -0.004612 0.000000
# 3 -0.009836 -0.006080 0.016462 0.000000 0.000791 0.000000
# 4 0.000000 0.000000 0.000000 0.342777 0.000000 -0.015055
# 5 0.008093 -0.004612 0.000791 0.000000 0.040074 0.000000
# 6 0.000000 0.000000 0.000000 -0.015055 0.000000 0.064818
#
#
# Mechanical properties :
#
#
# Convention : Reuss Voigt Hill
#
# Bulk Modulus (GPa) = 37.36101 56.53819 46.94960
# Shear Modulus (GPa) = 8.65503 17.25459 12.95481
#
# Velocity S-wave (km/s) = 2.25620 3.18563 2.76032
# Velocity P-wave (km/s) = 5.36294 6.83988 6.14593
#
# Compressibility (1/GPa) = 0.02676588
#
# Stress axis : x y z
#
# Youngs Moduli (GPa) = 46.53257 27.78974 60.74762
#
# Poissons Ratio (x) = 0.21312 0.59753
# Poissons Ratio (y) = 0.35686 0.36934
# Poissons Ratio (z) = 0.45771 0.16896
#
# Static dielectric constant tensor:
#      x y z
#    x 3.455650 0.000000 -0.299280 
#    y 0.000000 2.967410 0.000000 
#    z -0.299280 0.000000 3.198510 
# 
# 
# High freq. dielectric constant tensor:
#      x y z
#    x 1.661890 0.000000 -0.022740 
#    y 0.000000 1.629600 0.000000 
#    z -0.022740 0.000000 1.636920 
# 
# From -- ./inp_files/52789.got.cif
#   From: 2010.06.25/outbox.cif.g09.slc.cpg/sg10_27_cif.got.tgz:52789.got - 2010.06.27 22:07:45.
