data_PCOD8060186
_publ_section_title
;
Structure prediction by ZEFSAII (Michael W. Deem and Ramdas Pophale) SiO2 
 PCOD8060186
Probable space group: P 2/M
;
_chemical_formula_sum "Si O2"
_cell_formula_units_Z 32
_cell_length_a 24.867193
_cell_length_b 8.828857
_cell_length_c 11.892087
_cell_angle_alpha 90.000000
_cell_angle_beta 134.600245
_cell_angle_gamma 90.000000
_cell_volume 1859.017057
_symmetry_space_group_name_H-M "P 2/M"
_symmetry_group_IT_number 10
_symmetry_cell_setting 'monoclinic'
loop_
_space_group_symop_operation_xyz
x,y,z
-x,y,-z
-x,-y,-z
x,-y,z
loop_
_atom_site_type_symbol
_atom_site_label
_atom_site_fract_x
_atom_site_fract_y
_atom_site_fract_z
Si Si1 0.350509 0.824156 0.339998
Si Si2 0.471656 0.323359 0.664434
Si Si3 0.576248 0.676903 0.162725
Si Si4 0.811417 0.178790 0.525970
Si Si5 0.075682 0.328245 0.164721
Si Si6 0.633450 0.176322 0.895096
Si Si7 0.287949 0.679815 0.788338
Si Si8 0.765321 0.328100 0.671812
O O1 0.426690 0.741305 0.492078
O O2 0.341364 0.793431 0.195161
O O3 0.275962 0.759568 0.289408
O O4 0.359075 0.000000 0.380876
O O5 0.487720 0.500000 0.670587
O O6 0.419509 0.292173 0.697384
O O7 0.550914 0.241784 0.797173
O O8 0.574935 0.500000 0.134166
O O9 0.647225 0.744661 0.200105
O O10 0.500000 0.750777 0.000000
O O11 0.896603 0.231464 0.685850
O O12 0.790001 0.248307 0.372996
O O13 0.752138 0.246940 0.531519
O O14 0.806420 0.000000 0.515762
O O15 0.059000 0.500000 0.179886
O O16 0.143800 0.326617 0.172158
O O17 0.000000 0.255874 0.000000
O O18 0.632528 0.000000 0.923019
O O19 0.695294 0.260687 0.062219
O O20 0.280799 0.500000 0.779442
O O21 0.733813 0.500000 0.618066
#
# Coordination Sequence:
#
# PCOD8060186 Si02
#       8
#     4   4   4   4   4   4   4   4
#     4  11  23  37  51  69  99 135 171 219 268 308
#     4  11  21  35  55  73  92 127 173 220 266 315
#     4   9  17  31  49  70  93 118 157 209 260 302
#     4  10  19  31  50  78 110 137 163 198 248 303
#     4   8  16  32  53  80 112 140 166 200 243 293
#     4  11  24  38  49  67  98 134 174 222 271 309
#     4  11  20  34  53  71  96 132 174 215 255 304
#     4   9  18  33  53  78 104 134 170 205 245 298
#
# _framework density 17.213397000000001
#
# number of rings (size 3 to 8) (size 9 to 14) (size 15 to 20)
#    0.750    1.250    1.250    3.750    0.000    4.750 
#    0.000    2.500    0.000    0.000    0.000    0.875 
#    0.000    7.000    0.000    0.000    0.000    0.000 
#
# Total GULP energy -396664.936555 kJ/mol
# GULP energy per Si atom -12395.779267 kJ/mol
# Density = 1.717422 g / cm^3
# Si number density = 17.213397 Si / 1000 Ang^3
#
#
#
# Elastic Constant Matrix: (Units=GPa)
#
#
# Indices 1 2 3 4 5 6 
#
# 1 27.6844 20.9927 31.5417 0.0000 -4.7363 0.0000
# 2 20.9927 89.2230 54.9387 0.0000 -9.5611 0.0000
# 3 31.5417 54.9387 137.8595 0.0000 1.8445 0.0000
# 4 0.0000 0.0000 0.0000 28.3471 0.0000 -3.3955
# 5 -4.7363 -9.5611 1.8445 0.0000 20.9078 0.0000
# 6 0.0000 0.0000 0.0000 -3.3955 0.0000 18.8226
#
#
#
# Elastic Compliance Matrix: (Units=1/GPa)
#
#
# Indices 1 2 3 4 5 6 
#
# 1 0.053653 -0.005067 -0.010400 0.000000 0.010754 0.000000
# 2 -0.005067 0.016542 -0.005525 0.000000 0.006904 0.000000
# 3 -0.010400 -0.005525 0.011914 0.000000 -0.005934 0.000000
# 4 0.000000 0.000000 0.000000 0.036056 0.000000 0.006504
# 5 0.010754 0.006904 -0.005934 0.000000 0.053946 0.000000
# 6 0.000000 0.000000 0.000000 0.006504 0.000000 0.054301
#
#
# Mechanical properties :
#
#
# Convention : Reuss Voigt Hill
#
# Bulk Modulus (GPa) = 24.92260 52.19033 38.55647
# Shear Modulus (GPa) = 17.74481 23.43510 20.58996
#
# Velocity S-wave (km/s) = 3.21420 3.69378 3.46231
# Velocity P-wave (km/s) = 5.31835 6.96975 6.19929
#
# Compressibility (1/GPa) = 0.04012422
#
# Stress axis : x y z
#
# Youngs Moduli (GPa) = 18.63833 60.45174 83.93138
#
# Poissons Ratio (x) = 0.30633 0.87289
# Poissons Ratio (y) = 0.09445 0.46374
# Poissons Ratio (z) = 0.19384 0.33401
#
# Static dielectric constant tensor:
#      x y z
#    x 2.948520 0.000000 -0.004680 
#    y 0.000000 3.159020 0.000000 
#    z -0.004680 0.000000 3.255960 
# 
# 
# High freq. dielectric constant tensor:
#      x y z
#    x 1.623430 0.000000 -0.001910 
#    y 0.000000 1.667310 0.000000 
#    z -0.001910 0.000000 1.666080 
# 
# From -- ./inp_files/57193.got.cif
#   From: 2010.06.25/outbox.cif.g09.slc.cpg/sg10_29_cif.got.tgz:57193.got - 2010.06.27 22:07:45.
