data_PCOD8060794
_publ_section_title
;
Structure prediction by ZEFSAII (Michael W. Deem and Ramdas Pophale) SiO2 
 PCOD8060794
Probable space group: P 2/M
;
_chemical_formula_sum "Si O2"
_cell_formula_units_Z 24
_cell_length_a 29.345862
_cell_length_b 7.668172
_cell_length_c 13.380051
_cell_angle_alpha 90.000000
_cell_angle_beta 28.258041
_cell_angle_gamma 90.000000
_cell_volume 1425.490902
_symmetry_space_group_name_H-M "P 2/M"
_symmetry_group_IT_number 10
_symmetry_cell_setting 'monoclinic'
loop_
_space_group_symop_operation_xyz
x,y,z
-x,y,-z
-x,-y,-z
x,-y,z
loop_
_atom_site_type_symbol
_atom_site_label
_atom_site_fract_x
_atom_site_fract_y
_atom_site_fract_z
Si Si1 0.628501 0.307389 0.715913
Si Si2 0.383354 0.000000 0.728140
Si Si3 0.195564 0.307222 0.774828
Si Si4 0.720028 0.000000 0.648429
Si Si5 0.670388 0.699840 0.311646
Si Si6 0.497245 0.301401 0.793428
Si Si7 0.358266 0.000000 0.003505
Si Si8 0.105750 0.000000 0.838386
O O1 0.626179 0.500000 0.770251
O O2 0.709360 0.301170 0.474980
O O3 0.654061 0.167074 0.750014
O O4 0.527672 0.271115 0.851598
O O5 0.500000 0.000000 0.500000
O O6 0.340119 0.172929 0.761746
O O7 0.336329 0.000000 0.929030
O O8 0.148281 0.500000 0.860845
O O9 0.228839 0.266065 0.824424
O O10 0.118507 0.168691 0.883777
O O11 0.821368 0.000000 0.396194
O O12 0.734524 0.000000 0.741514
O O13 0.665347 0.500000 0.283480
O O14 0.585393 0.744022 0.551540
O O15 0.463655 0.500000 0.842437
O O16 0.413422 0.175115 0.924002
O O17 0.000000 0.000000 0.000000
#
# Coordination Sequence:
#
# PCOD8060794 Si02
#       8
#     4   2   4   2   4   4   2   2
#     4   8  15  29  47  64  86 120 156 186 218 261
#     4  12  21  30  44  65  91 127 170 205 230 261
#     4   8  15  29  50  74  96 117 147 189 231 274
#     4  10  21  33  44  61  94 124 148 183 224 277
#     4   9  17  31  49  67  91 123 161 203 234 258
#     4   9  17  29  45  65  88 118 159 197 224 257
#     4  12  23  31  39  61  92 127 160 191 230 263
#     4  10  19  32  53  77  97 118 143 178 231 293
#
# _framework density 16.836304999999999
#
# number of rings (size 3 to 8) (size 9 to 14) (size 15 to 20)
#    0.000    2.667    1.667    3.000    0.000    6.000 
#    0.000    1.667    0.000    0.000    0.000    2.333 
#    0.000    2.667    0.000    0.000    0.000    0.000 
#
# Total GULP energy -297435.773675 kJ/mol
# GULP energy per Si atom -12393.157236 kJ/mol
# Density = 1.679798 g / cm^3
# Si number density = 16.836305 Si / 1000 Ang^3
#
#
#
# Elastic Constant Matrix: (Units=GPa)
#
#
# Indices 1 2 3 4 5 6 
#
# 1 117.7427 66.5336 37.0817 0.0000 12.3284 0.0000
# 2 66.5336 115.6499 33.0046 0.0000 -2.1307 0.0000
# 3 37.0817 33.0046 33.9522 0.0000 -2.3576 0.0000
# 4 0.0000 0.0000 0.0000 5.0070 0.0000 -3.4461
# 5 12.3284 -2.1307 -2.3576 0.0000 28.6908 0.0000
# 6 0.0000 0.0000 0.0000 -3.4461 0.0000 10.9675
#
#
#
# Elastic Compliance Matrix: (Units=1/GPa)
#
#
# Indices 1 2 3 4 5 6 
#
# 1 0.017124 -0.006230 -0.013265 0.000000 -0.008911 0.000000
# 2 -0.006230 0.014233 -0.006811 0.000000 0.003174 0.000000
# 3 -0.013265 -0.006811 0.051215 0.000000 0.009403 0.000000
# 4 0.000000 0.000000 0.000000 0.254831 0.000000 0.080071
# 5 -0.008911 0.003174 0.009403 0.000000 0.039692 0.000000
# 6 0.000000 0.000000 0.000000 0.080071 0.000000 0.116338
#
#
# Mechanical properties :
#
#
# Convention : Reuss Voigt Hill
#
# Bulk Modulus (GPa) = 33.37832 60.06498 46.72165
# Shear Modulus (GPa) = 8.99225 17.64804 13.32015
#
# Velocity S-wave (km/s) = 2.31357 3.24112 2.81580
# Velocity P-wave (km/s) = 5.19664 7.05407 6.19536
#
# Compressibility (1/GPa) = 0.02995956
#
# Stress axis : x y z
#
# Youngs Moduli (GPa) = 58.39610 70.25768 19.52544
#
# Poissons Ratio (x) = 0.43772 0.25901
# Poissons Ratio (y) = 0.36382 0.13299
# Poissons Ratio (z) = 0.77464 0.47854
#
# Static dielectric constant tensor:
#      x y z
#    x 3.206210 0.000000 0.188360 
#    y 0.000000 3.537900 0.000000 
#    z 0.188360 0.000000 2.720600 
# 
# 
# High freq. dielectric constant tensor:
#      x y z
#    x 1.635170 0.000000 0.019210 
#    y 0.000000 1.670860 0.000000 
#    z 0.019210 0.000000 1.592030 
# 
# From -- ./inp_files/56600.got.cif
#   From: 2010.06.25/outbox.cif.g09.slc.cpg/sg10_29_cif.got.tgz:56600.got - 2010.06.27 22:07:45.
