data_PCOD8060099
_publ_section_title
;
Structure prediction by ZEFSAII (Michael W. Deem and Ramdas Pophale) SiO2 
 PCOD8060099
Probable space group: P 2/M
;
_chemical_formula_sum "Si O2"
_cell_formula_units_Z 28
_cell_length_a 15.274225
_cell_length_b 8.921405
_cell_length_c 20.682152
_cell_angle_alpha 90.000000
_cell_angle_beta 28.205511
_cell_angle_gamma 90.000000
_cell_volume 1332.031612
_symmetry_space_group_name_H-M "P 2/M"
_symmetry_group_IT_number 10
_symmetry_cell_setting 'monoclinic'
loop_
_space_group_symop_operation_xyz
x,y,z
-x,y,-z
-x,-y,-z
x,-y,z
loop_
_atom_site_type_symbol
_atom_site_label
_atom_site_fract_x
_atom_site_fract_y
_atom_site_fract_z
Si Si1 0.183127 0.176274 0.071280
Si Si2 0.538356 0.677282 0.190298
Si Si3 0.088175 0.827825 0.640643
Si Si4 0.365805 0.663500 0.535668
Si Si5 0.852022 0.173557 0.542637
Si Si6 0.219731 0.823382 0.855349
Si Si7 0.893968 0.663697 0.183802
O O1 0.085786 0.227536 0.202074
O O2 0.065233 0.220926 0.083240
O O3 0.219821 0.000000 0.045499
O O4 0.378022 0.262567 0.932861
O O5 0.557875 0.500000 0.181216
O O6 0.324730 0.722028 0.333308
O O7 0.649678 0.752651 0.176387
O O8 0.292506 0.757037 0.522211
O O9 0.048467 0.796945 0.591299
O O10 0.115920 0.000000 0.639226
O O11 0.500000 0.747063 0.500000
O O12 0.449905 0.500000 0.459956
O O13 0.178596 0.636108 0.697317
O O14 0.000000 0.219708 0.500000
O O15 0.791982 0.000000 0.587917
O O16 0.267850 0.741360 0.755524
O O17 0.253689 0.000000 0.830537
O O18 0.000000 0.779534 0.000000
O O19 0.957853 0.500000 0.114564
#
# Coordination Sequence:
#
# PCOD8060099 Si02
#       7
#     4   4   4   4   4   4   4
#     4  10  19  36  59  86 121 158 200 247 297 358
#     4  12  25  39  61  91 124 162 208 257 310 371
#     4   9  20  38  62  90 117 156 204 250 306 366
#     4   9  19  33  49  76 116 160 202 243 295 359
#     4  10  23  46  71  94 123 159 204 261 320 376
#     4  11  22  35  54  81 118 163 208 253 304 360
#     4  10  19  31  49  76 115 159 203 247 295 352
#
# _framework density 21.020524000000002
#
# number of rings (size 3 to 8) (size 9 to 14) (size 15 to 20)
#    0.000    1.857    1.429    2.571    2.000    2.857 
#    0.000    0.714    0.000    4.286    0.000    0.000 
#    0.000    0.000    0.000    0.000    0.000    0.000 
#
# Total GULP energy -346873.344978 kJ/mol
# GULP energy per Si atom -12388.333749 kJ/mol
# Density = 2.097268 g / cm^3
# Si number density = 21.020524 Si / 1000 Ang^3
#
#
#
# Elastic Constant Matrix: (Units=GPa)
#
#
# Indices 1 2 3 4 5 6 
#
# 1 126.2760 46.1231 46.8392 0.0000 3.3996 0.0000
# 2 46.1231 122.3953 37.8024 0.0000 -0.5565 0.0000
# 3 46.8392 37.8024 74.2394 0.0000 0.4149 0.0000
# 4 0.0000 0.0000 0.0000 23.9866 0.0000 -5.5874
# 5 3.3996 -0.5565 0.4149 0.0000 20.9702 0.0000
# 6 0.0000 0.0000 0.0000 -5.5874 0.0000 12.2697
#
#
#
# Elastic Compliance Matrix: (Units=1/GPa)
#
#
# Indices 1 2 3 4 5 6 
#
# 1 0.010942 -0.002376 -0.005684 0.000000 -0.001724 0.000000
# 2 -0.002376 0.010213 -0.003706 0.000000 0.000729 0.000000
# 3 -0.005684 -0.003706 0.018941 0.000000 0.000448 0.000000
# 4 0.000000 0.000000 0.000000 0.046637 0.000000 0.021238
# 5 -0.001724 0.000729 0.000448 0.000000 0.047977 0.000000
# 6 0.000000 0.000000 0.000000 0.021238 0.000000 0.091173
#
#
# Mechanical properties :
#
#
# Convention : Reuss Voigt Hill
#
# Bulk Modulus (GPa) = 60.36947 64.93779 62.65363
# Shear Modulus (GPa) = 19.61286 24.25504 21.93395
#
# Velocity S-wave (km/s) = 3.05787 3.40056 3.23376
# Velocity P-wave (km/s) = 6.42255 6.81014 6.61918
#
# Compressibility (1/GPa) = 0.01656467
#
# Stress axis : x y z
#
# Youngs Moduli (GPa) = 91.39406 97.91129 52.79643
#
# Poissons Ratio (x) = 0.23259 0.30010
# Poissons Ratio (y) = 0.21711 0.19566
# Poissons Ratio (z) = 0.51949 0.36285
#
# Static dielectric constant tensor:
#      x y z
#    x 3.640880 0.000000 0.298170 
#    y 0.000000 3.943590 0.000000 
#    z 0.298170 0.000000 4.172190 
# 
# 
# High freq. dielectric constant tensor:
#      x y z
#    x 1.795380 0.000000 0.017860 
#    y 0.000000 1.822170 0.000000 
#    z 0.017860 0.000000 1.829330 
# 
# From -- ./inp_files/84901.got.cif
#   From: 2010.06.25/outbox.cif.g09.slc.cpg/sg10_43_cif.got.tgz:84901.got - 2010.06.27 22:07:45.
