data_PCOD8060257
_publ_section_title
;
Structure prediction by ZEFSAII (Michael W. Deem and Ramdas Pophale) SiO2 
 PCOD8060257
Probable space group: P 2/M
;
_chemical_formula_sum "Si O2"
_cell_formula_units_Z 32
_cell_length_a 14.409846
_cell_length_b 9.526273
_cell_length_c 23.377106
_cell_angle_alpha 90.000000
_cell_angle_beta 31.831542
_cell_angle_gamma 90.000000
_cell_volume 1692.515523
_symmetry_space_group_name_H-M "P 2/M"
_symmetry_group_IT_number 10
_symmetry_cell_setting 'monoclinic'
loop_
_space_group_symop_operation_xyz
x,y,z
-x,y,-z
-x,-y,-z
x,-y,z
loop_
_atom_site_type_symbol
_atom_site_label
_atom_site_fract_x
_atom_site_fract_y
_atom_site_fract_z
Si Si1 0.990730 0.833952 0.687200
Si Si2 0.701646 0.335536 0.906541
Si Si3 0.746561 0.657811 0.010657
Si Si4 0.378279 0.833625 0.512291
Si Si5 0.572298 0.838213 0.298283
Si Si6 0.097163 0.834450 0.393704
Si Si7 0.479646 0.838024 0.219658
Si Si8 0.090806 0.658001 0.895581
O O1 0.827334 0.752049 0.799407
O O2 0.999205 0.795017 0.615123
O O3 0.173383 0.785357 0.621992
O O4 0.959457 0.000000 0.711176
O O5 0.744126 0.500000 0.876406
O O6 0.500000 0.300546 0.000000
O O7 0.732883 0.281921 0.954308
O O8 0.669588 0.500000 0.054064
O O9 0.641554 0.751218 0.110502
O O10 0.951935 0.659585 0.917210
O O11 0.500000 0.770948 0.500000
O O12 0.453361 0.781155 0.412368
O O13 0.382941 0.000000 0.513001
O O14 0.467433 0.815952 0.294314
O O15 0.751863 0.754551 0.205966
O O16 0.621219 0.000000 0.282136
O O17 0.298923 0.780634 0.286843
O O18 0.000000 0.766959 0.500000
O O19 0.102533 0.000000 0.399740
O O20 0.513410 0.000000 0.186687
O O21 0.159626 0.500000 0.871960
O O22 0.000000 0.719669 0.000000
#
# Coordination Sequence:
#
# PCOD8060257 Si02
#       8
#     4   4   4   4   4   4   4   4
#     4  10  20  35  58  83 107 141 184 224 263 315
#     4  10  22  39  57  78 109 146 179 219 271 321
#     4  10  21  36  53  73 102 141 176 207 261 324
#     4   9  19  35  53  77 109 142 176 218 269 317
#     4  10  20  33  53  78 106 138 175 218 265 314
#     4   9  17  31  53  79 107 136 169 212 264 314
#     4  10  19  31  51  80 106 130 168 219 262 306
#     4  10  20  35  53  75 105 140 175 216 263 315
#
# _framework density 18.906770000000002
#
# number of rings (size 3 to 8) (size 9 to 14) (size 15 to 20)
#    0.000    2.250    1.250    1.500    1.750    4.500 
#    0.000    0.625    0.000    3.750    0.000    0.000 
#    0.000    0.000    0.000    0.000    0.000    0.000 
#
# Total GULP energy -396769.469226 kJ/mol
# GULP energy per Si atom -12399.045913 kJ/mol
# Density = 1.886374 g / cm^3
# Si number density = 18.906770 Si / 1000 Ang^3
#
#
#
# Elastic Constant Matrix: (Units=GPa)
#
#
# Indices 1 2 3 4 5 6 
#
# 1 120.1947 25.1173 45.5740 0.0000 -3.6461 0.0000
# 2 25.1173 42.9879 41.8802 0.0000 0.8744 0.0000
# 3 45.5740 41.8802 117.4188 0.0000 -1.3592 0.0000
# 4 0.0000 0.0000 0.0000-1009.6409 0.0000 -202.8342
# 5 -3.6461 0.8744 -1.3592 0.0000 34.7893 0.0000
# 6 0.0000 0.0000 0.0000 -202.8342 0.0000 -21.6455
#
#
#
# Elastic Compliance Matrix: (Units=1/GPa)
#
#
# Indices 1 2 3 4 5 6 
#
# 1 0.010066 -0.003230 -0.002743 0.000000 0.001029 0.000000
# 2 -0.003230 0.036754 -0.011876 0.000000 -0.001726 0.000000
# 3 -0.002743 -0.011876 0.013823 0.000000 0.000551 0.000000
# 4 0.000000 0.000000 0.000000 0.001122 0.000000 -0.010516
# 5 0.001029 -0.001726 0.000551 0.000000 0.028917 0.000000
# 6 0.000000 0.000000 0.000000 -0.010516 0.000000 0.052347
#
#
# Mechanical properties :
#
#
# Convention : Reuss Voigt Hill
#
# Bulk Modulus (GPa) = 40.08604 56.19385 48.13994
# Shear Modulus (GPa) = 26.73183 -188.09744 -80.68280
#
# Velocity S-wave (km/s) = 3.76423 -9.98513 -6.53962
# Velocity P-wave (km/s) = 6.33566 10.15633 5.61295
#
# Compressibility (1/GPa) = 0.02494634
#
# Stress axis : x y z
#
# Youngs Moduli (GPa) = 99.34331 27.20764 72.34192
#
# Poissons Ratio (x) = 0.08788 0.19843
# Poissons Ratio (y) = 0.32089 0.85910
# Poissons Ratio (z) = 0.27249 0.32311
#
# Static dielectric constant tensor:
#      x y z
#    x 3.763560 0.000000 -0.007560 
#    y 0.000000 3.154220 0.000000 
#    z -0.007560 0.000000 3.427870 
# 
# 
# High freq. dielectric constant tensor:
#      x y z
#    x 1.754090 0.000000 -0.002110 
#    y 0.000000 1.695600 0.000000 
#    z -0.002110 0.000000 1.735330 
# 
# From -- ./inp_files/71514.got.cif
#   From: 2010.06.25/outbox.cif.g09.slc.cpg/sg10_36_cif.got.tgz:71514.got - 2010.06.27 22:07:45.
