data_PCOD8060205
_publ_section_title
;
Structure prediction by ZEFSAII (Michael W. Deem and Ramdas Pophale) SiO2 
 PCOD8060205
Probable space group: P 2/M
;
_chemical_formula_sum "Si O2"
_cell_formula_units_Z 24
_cell_length_a 25.166129
_cell_length_b 9.102949
_cell_length_c 12.438763
_cell_angle_alpha 90.000000
_cell_angle_beta 31.850785
_cell_angle_gamma 90.000000
_cell_volume 1503.730966
_symmetry_space_group_name_H-M "P 2/M"
_symmetry_group_IT_number 10
_symmetry_cell_setting 'monoclinic'
loop_
_space_group_symop_operation_xyz
x,y,z
-x,y,-z
-x,-y,-z
x,-y,z
loop_
_atom_site_type_symbol
_atom_site_label
_atom_site_fract_x
_atom_site_fract_y
_atom_site_fract_z
Si Si1 0.629222 0.000000 0.667045
Si Si2 0.109478 0.671325 0.651867
Si Si3 0.113868 0.327970 0.040623
Si Si4 0.109471 0.171066 0.268508
Si Si5 0.810806 0.162896 0.284539
Si Si6 0.405939 0.000000 0.019962
Si Si7 0.773782 0.837008 0.724403
O O1 0.693979 0.145070 0.523534
O O2 0.522878 0.000000 0.785963
O O3 0.608147 0.000000 0.828521
O O4 0.123265 0.500000 0.649342
O O5 0.123593 0.751959 0.740382
O O6 0.191427 0.722220 0.424494
O O7 0.000136 0.710643 0.794800
O O8 0.135052 0.500000 0.003655
O O9 0.137753 0.265887 0.116738
O O10 0.188494 0.251598 0.827769
O O11 0.191721 0.214408 0.217105
O O12 0.000000 0.216368 0.500000
O O13 0.113454 0.000000 0.230884
O O14 0.858385 0.000000 0.186786
O O15 0.348386 0.144870 0.071169
O O16 0.822034 0.000000 0.617093
#
# Coordination Sequence:
#
# PCOD8060205 Si02
#       7
#     2   4   4   4   4   2   4
#     4   9  18  32  59  80  96 126 160 227 261 301
#     4  11  20  31  47  74 110 142 164 195 248 305
#     4  11  23  33  47  72 110 147 170 198 243 305
#     4  10  19  31  51  74 104 135 176 213 237 284
#     4  10  20  35  51  75  97 133 175 209 255 293
#     4   9  16  34  57  81 102 117 168 213 274 297
#     4   9  17  32  52  76 102 132 164 211 251 292
#
# _framework density 15.960302
#
# number of rings (size 3 to 8) (size 9 to 14) (size 15 to 20)
#    1.000    1.000    3.333    2.000    0.000    5.000 
#    0.000    0.000    0.000    5.000    0.000    1.167 
#    0.000    0.000    0.000    0.000    0.000    0.000 
#
# Total GULP energy -297486.320801 kJ/mol
# GULP energy per Si atom -12395.263367 kJ/mol
# Density = 1.592398 g / cm^3
# Si number density = 15.960302 Si / 1000 Ang^3
#
#
#
# Elastic Constant Matrix: (Units=GPa)
#
#
# Indices 1 2 3 4 5 6 
#
# 1 105.1561 33.9876 39.8407 0.0000 7.8534 0.0000
# 2 33.9876 68.0491 27.2594 0.0000 9.6381 0.0000
# 3 39.8407 27.2594 53.0629 0.0000 4.9661 0.0000
# 4 0.0000 0.0000 0.0000 13.3384 0.0000 5.0203
# 5 7.8534 9.6381 4.9661 0.0000 31.9875 0.0000
# 6 0.0000 0.0000 0.0000 5.0203 0.0000 20.6278
#
#
#
# Elastic Compliance Matrix: (Units=1/GPa)
#
#
# Indices 1 2 3 4 5 6 
#
# 1 0.013951 -0.003350 -0.008654 0.000000 -0.001072 0.000000
# 2 -0.003350 0.019869 -0.007315 0.000000 -0.004029 0.000000
# 3 -0.008654 -0.007315 0.029119 0.000000 -0.000192 0.000000
# 4 0.000000 0.000000 0.000000 0.082532 0.000000 -0.020086
# 5 -0.001072 -0.004029 -0.000192 0.000000 0.032769 0.000000
# 6 0.000000 0.000000 0.000000 -0.020086 0.000000 0.053367
#
#
# Mechanical properties :
#
#
# Convention : Reuss Voigt Hill
#
# Bulk Modulus (GPa) = 41.14847 47.60483 44.37665
# Shear Modulus (GPa) = 17.96338 21.53611 19.74974
#
# Velocity S-wave (km/s) = 3.35849 3.67734 3.52153
# Velocity P-wave (km/s) = 6.39351 6.92259 6.66330
#
# Compressibility (1/GPa) = 0.02430224
#
# Stress axis : x y z
#
# Youngs Moduli (GPa) = 71.67968 50.32918 34.34208
#
# Poissons Ratio (x) = 0.16858 0.29718
# Poissons Ratio (y) = 0.24009 0.25122
# Poissons Ratio (z) = 0.62029 0.36817
#
# Static dielectric constant tensor:
#      x y z
#    x 3.120030 0.000000 0.010490 
#    y 0.000000 2.908960 0.000000 
#    z 0.010490 0.000000 2.867030 
# 
# 
# High freq. dielectric constant tensor:
#      x y z
#    x 1.615230 0.000000 0.015710 
#    y 0.000000 1.602710 0.000000 
#    z 0.015710 0.000000 1.587080 
# 
# From -- ./inp_files/57234.got.cif
#   From: 2010.06.25/outbox.cif.g09.slc.cpg/sg10_29_cif.got.tgz:57234.got - 2010.06.27 22:07:45.
