data_PCOD8060630
_publ_section_title
;
Structure prediction by ZEFSAII (Michael W. Deem and Ramdas Pophale) SiO2 
 PCOD8060630
Probable space group: P 2/M
;
_chemical_formula_sum "Si O2"
_cell_formula_units_Z 32
_cell_length_a 27.715439
_cell_length_b 8.702335
_cell_length_c 21.567139
_cell_angle_alpha 90.000000
_cell_angle_beta 161.366571
_cell_angle_gamma 90.000000
_cell_volume 1662.025103
_symmetry_space_group_name_H-M "P 2/M"
_symmetry_group_IT_number 10
_symmetry_cell_setting 'monoclinic'
loop_
_space_group_symop_operation_xyz
x,y,z
-x,y,-z
-x,-y,-z
x,-y,z
loop_
_atom_site_type_symbol
_atom_site_label
_atom_site_fract_x
_atom_site_fract_y
_atom_site_fract_z
Si Si1 0.919181 0.681839 0.496064
Si Si2 0.920791 0.176001 0.845163
Si Si3 0.546316 0.318888 0.241580
Si Si4 0.070837 0.817000 0.906771
Si Si5 0.575625 0.176053 0.409491
Si Si6 0.832142 0.181614 0.518913
Si Si7 0.409866 0.183130 0.329921
Si Si8 0.777559 0.318153 0.195537
O O1 0.911361 0.500000 0.496894
O O2 0.845972 0.764497 0.465507
O O3 0.818624 0.734283 0.314998
O O4 0.092193 0.736973 0.694233
O O5 0.744433 0.189444 0.639122
O O6 0.974725 0.252093 0.846851
O O7 0.975891 0.000000 0.910122
O O8 0.000000 0.259198 0.000000
O O9 0.555705 0.500000 0.243779
O O10 0.552446 0.280533 0.321527
O O11 0.681676 0.244869 0.367897
O O12 0.386416 0.251836 0.022023
O O13 0.983066 0.759582 0.738426
O O14 0.075104 0.000000 0.911268
O O15 0.239649 0.751684 0.119854
O O16 0.480228 0.240578 0.350941
O O17 0.534110 0.000000 0.342156
O O18 0.819460 0.000000 0.506702
O O19 0.500000 0.248438 0.500000
O O20 0.414072 0.000000 0.338046
O O21 0.775797 0.500000 0.190821
#
# Coordination Sequence:
#
# PCOD8060630 Si02
#       8
#     4   4   4   4   4   4   4   4
#     4   9  18  38  63  84 106 138 181 225 266 315
#     4   9  15  26  47  72  99 135 175 214 257 306
#     4  11  22  37  56  79 108 146 186 221 264 321
#     4   9  17  29  44  70 107 138 168 212 262 313
#     4  10  19  32  51  79 109 136 173 224 273 314
#     4  11  22  36  53  81 117 147 177 219 271 323
#     4   9  17  29  48  77 107 135 173 220 270 323
#     4   8  18  37  61  84 107 139 183 225 261 314
#
# _framework density 19.253619
#
# number of rings (size 3 to 8) (size 9 to 14) (size 15 to 20)
#    0.000    2.500    1.250    2.250    1.750    3.500 
#    0.000    5.625    0.000    0.750    0.000    0.000 
#    0.000    0.000    0.000    0.000    0.000    0.000 
#
# Total GULP energy -396642.385404 kJ/mol
# GULP energy per Si atom -12395.074544 kJ/mol
# Density = 1.920980 g / cm^3
# Si number density = 19.253619 Si / 1000 Ang^3
#
#
#
# Elastic Constant Matrix: (Units=GPa)
#
#
# Indices 1 2 3 4 5 6 
#
# 1 139.3544 21.9583 56.8431 0.0000 2.5882 0.0000
# 2 21.9583 33.2790 22.7148 0.0000 -0.4753 0.0000
# 3 56.8431 22.7148 128.4941 0.0000 -0.6128 0.0000
# 4 0.0000 0.0000 0.0000 11.7172 0.0000 3.4503
# 5 2.5882 -0.4753 -0.6128 0.0000 33.4786 0.0000
# 6 0.0000 0.0000 0.0000 3.4503 0.0000 20.6238
#
#
#
# Elastic Compliance Matrix: (Units=1/GPa)
#
#
# Indices 1 2 3 4 5 6 
#
# 1 0.009167 -0.003741 -0.003398 0.000000 -0.000824 0.000000
# 2 -0.003741 0.035704 -0.004653 0.000000 0.000711 0.000000
# 3 -0.003398 -0.004653 0.010110 0.000000 0.000382 0.000000
# 4 0.000000 0.000000 0.000000 0.089767 0.000000 -0.015018
# 5 -0.000824 0.000711 0.000382 0.000000 0.029951 0.000000
# 6 0.000000 0.000000 0.000000 -0.015018 0.000000 0.051000
#
#
# Mechanical properties :
#
#
# Convention : Reuss Voigt Hill
#
# Bulk Modulus (GPa) = 31.85093 56.01776 43.93435
# Shear Modulus (GPa) = 19.24950 26.47134 22.86042
#
# Velocity S-wave (km/s) = 3.16537 3.71195 3.44951
# Velocity P-wave (km/s) = 5.47158 6.89415 6.22364
#
# Compressibility (1/GPa) = 0.03139626
#
# Stress axis : x y z
#
# Youngs Moduli (GPa) = 109.09073 28.00837 98.91233
#
# Poissons Ratio (x) = 0.10478 0.33608
# Poissons Ratio (y) = 0.40811 0.46026
# Poissons Ratio (z) = 0.37066 0.13033
#
# Static dielectric constant tensor:
#      x y z
#    x 3.668360 0.000000 -0.023090 
#    y 0.000000 3.002400 0.000000 
#    z -0.023090 0.000000 3.903870 
# 
# 
# High freq. dielectric constant tensor:
#      x y z
#    x 1.763730 0.000000 0.000320 
#    y 0.000000 1.691870 0.000000 
#    z 0.000320 0.000000 1.763200 
# 
# From -- ./inp_files/87019.got.cif
#   From: 2010.06.25/outbox.cif.g09.slc.cpg/sg10_44_cif.got.tgz:87019.got - 2010.06.27 22:07:45.
