data_PCOD8060341
_publ_section_title
;
Structure prediction by ZEFSAII (Michael W. Deem and Ramdas Pophale) SiO2 
 PCOD8060341
Probable space group: P 2/M
;
_chemical_formula_sum "Si O2"
_cell_formula_units_Z 32
_cell_length_a 23.896222
_cell_length_b 9.422484
_cell_length_c 15.114807
_cell_angle_alpha 90.000000
_cell_angle_beta 151.031887
_cell_angle_gamma 90.000000
_cell_volume 1648.284462
_symmetry_space_group_name_H-M "P 2/M"
_symmetry_group_IT_number 10
_symmetry_cell_setting 'monoclinic'
loop_
_space_group_symop_operation_xyz
x,y,z
-x,y,-z
-x,-y,-z
x,-y,z
loop_
_atom_site_type_symbol
_atom_site_label
_atom_site_fract_x
_atom_site_fract_y
_atom_site_fract_z
Si Si1 0.452369 0.839190 0.026546
Si Si2 0.857087 0.835458 0.992158
Si Si3 0.114389 0.165525 0.311039
Si Si4 0.269754 0.834913 0.367160
Si Si5 0.494003 0.667320 0.724897
Si Si6 0.129361 0.650877 0.660026
Si Si7 0.740998 0.333456 0.990666
Si Si8 0.802970 0.156216 0.389675
O O1 0.488572 0.734809 0.154374
O O2 0.498749 0.000000 0.109007
O O3 0.500000 0.779767 0.000000
O O4 0.316350 0.839747 0.826899
O O5 0.784494 0.815405 0.803374
O O6 0.790530 0.750021 0.975757
O O7 0.863466 0.000000 0.029566
O O8 0.986229 0.772239 0.153380
O O9 0.177595 0.226943 0.311436
O O10 0.199961 0.202206 0.511511
O O11 0.097574 0.000000 0.270734
O O12 0.385572 0.742083 0.528896
O O13 0.299355 0.000000 0.427928
O O14 0.471397 0.500000 0.705102
O O15 0.604382 0.695342 0.814446
O O16 0.194234 0.500000 0.730759
O O17 0.115966 0.742032 0.553261
O O18 0.000000 0.614000 0.500000
O O19 0.194666 0.725396 0.832395
O O20 0.766776 0.500000 0.012808
O O21 0.858250 0.000000 0.463007
#
# Coordination Sequence:
#
# PCOD8060341 Si02
#       8
#     4   4   4   4   4   4   4   4
#     4  10  20  35  56  83 115 151 187 229 284 338
#     4  10  21  37  62  90 112 146 195 244 294 349
#     4   9  18  36  60  88 120 148 183 235 297 356
#     4  10  21  39  62  86 115 150 191 244 299 349
#     4  11  23  39  58  82 116 158 200 239 284 342
#     4  10  20  35  54  76 108 150 189 225 273 333
#     4  10  22  39  56  79 117 158 192 237 294 342
#     4  10  19  31  53  83 111 143 180 221 273 331
#
# _framework density 19.414124999999999
#
# number of rings (size 3 to 8) (size 9 to 14) (size 15 to 20)
#    0.000    2.000    1.250    2.250    0.000    6.500 
#    0.000    5.000    0.000    1.500    0.000    0.000 
#    0.000    0.000    0.000    0.000    0.000    0.000 
#
# Total GULP energy -396629.999665 kJ/mol
# GULP energy per Si atom -12394.687490 kJ/mol
# Density = 1.936994 g / cm^3
# Si number density = 19.414125 Si / 1000 Ang^3
#
#
#
# Elastic Constant Matrix: (Units=GPa)
#
#
# Indices 1 2 3 4 5 6 
#
# 1 125.7684 50.6910 31.8803 0.0000 -1.5724 0.0000
# 2 50.6910 70.5873 33.8054 0.0000 -2.6945 0.0000
# 3 31.8803 33.8054 89.7153 0.0000 -0.4894 0.0000
# 4 0.0000 0.0000 0.0000 22.3331 0.0000 10.1275
# 5 -1.5724 -2.6945 -0.4894 0.0000 32.7220 0.0000
# 6 0.0000 0.0000 0.0000 10.1275 0.0000 -12.5300
#
#
#
# Elastic Compliance Matrix: (Units=1/GPa)
#
#
# Indices 1 2 3 4 5 6 
#
# 1 0.011290 -0.007553 -0.001166 0.000000 -0.000097 0.000000
# 2 -0.007553 0.022397 -0.005748 0.000000 0.001395 0.000000
# 3 -0.001166 -0.005748 0.013725 0.000000 -0.000324 0.000000
# 4 0.000000 0.000000 0.000000 0.032767 0.000000 0.026484
# 5 -0.000097 0.001395 -0.000324 0.000000 0.030666 0.000000
# 6 0.000000 0.000000 0.000000 0.026484 0.000000 -0.058402
#
#
# Mechanical properties :
#
#
# Convention : Reuss Voigt Hill
#
# Bulk Modulus (GPa) = 54.11967 57.64716 55.88342
# Shear Modulus (GPa) = 57.12084 19.81799 38.46941
#
# Velocity S-wave (km/s) = 5.43012 3.19847 4.45625
# Velocity P-wave (km/s) = 8.20072 6.58773 7.43808
#
# Compressibility (1/GPa) = 0.01847757
#
# Stress axis : x y z
#
# Youngs Moduli (GPa) = 88.57686 44.64981 72.86026
#
# Poissons Ratio (x) = 0.33722 0.08499
# Poissons Ratio (y) = 0.66898 0.41878
# Poissons Ratio (z) = 0.10332 0.25664
#
# Static dielectric constant tensor:
#      x y z
#    x 3.651310 0.000000 0.019740 
#    y 0.000000 3.546450 0.000000 
#    z 0.019740 0.000000 3.623090 
# 
# 
# High freq. dielectric constant tensor:
#      x y z
#    x 1.760300 0.000000 0.000020 
#    y 0.000000 1.733720 0.000000 
#    z 0.000020 0.000000 1.765410 
# 
# From -- ./inp_files/71677.got.cif
#   From: 2010.06.25/outbox.cif.g09.slc.cpg/sg10_36_cif.got.tgz:71677.got - 2010.06.27 22:07:45.
