data_PCOD8060013
_publ_section_title
;
Structure prediction by ZEFSAII (Michael W. Deem and Ramdas Pophale) SiO2 
 PCOD8060013
Probable space group: P 2/M
;
_chemical_formula_sum "Si O2"
_cell_formula_units_Z 20
_cell_length_a 28.290938
_cell_length_b 9.146739
_cell_length_c 15.038940
_cell_angle_alpha 90.000000
_cell_angle_beta 18.494228
_cell_angle_gamma 90.000000
_cell_volume 1234.458589
_symmetry_space_group_name_H-M "P 2/M"
_symmetry_group_IT_number 10
_symmetry_cell_setting 'monoclinic'
loop_
_space_group_symop_operation_xyz
x,y,z
-x,y,-z
-x,-y,-z
x,-y,z
loop_
_atom_site_type_symbol
_atom_site_label
_atom_site_fract_x
_atom_site_fract_y
_atom_site_fract_z
Si Si1 0.141262 0.828868 0.799430
Si Si2 0.733816 0.665835 0.747815
Si Si3 0.989761 0.829164 0.782968
Si Si4 0.019802 0.665547 0.562853
Si Si5 0.460476 0.171910 0.171481
O O1 0.297138 0.764065 0.485986
O O2 0.142088 0.000000 0.777127
O O3 0.127278 0.797512 0.929706
O O4 0.000000 0.757920 0.000000
O O5 0.715878 0.500000 0.745132
O O6 0.851427 0.753358 0.474753
O O7 0.804960 0.667909 0.720879
O O8 0.575867 0.746545 0.030388
O O9 0.928048 0.760522 0.800048
O O10 0.019079 0.000000 0.718288
O O11 0.956940 0.500000 0.676001
O O12 0.000000 0.734146 0.500000
O O13 0.471539 0.000000 0.170552
O O14 0.500000 0.211368 0.000000
#
# Coordination Sequence:
#
# PCOD8060013 Si02
#       5
#     4   4   4   4   4
#     4   9  17  29  46  69  97 127 159 196 237 281
#     4   9  18  31  47  69  96 124 158 196 238 283
#     4   9  16  28  48  72  96 121 158 199 236 279
#     4   8  16  31  50  71  97 126 157 197 242 285
#     4  10  19  31  49  70  94 128 165 197 236 283
#
# _framework density 16.201433999999999
#
# number of rings (size 3 to 8) (size 9 to 14) (size 15 to 20)
#    1.200    1.800    0.000    1.800    0.000    4.000 
#    0.000    2.000    0.000    5.400    0.000    8.400 
#    0.000    0.000    0.000    0.000    0.000    0.000 
#
# Total GULP energy -247761.476581 kJ/mol
# GULP energy per Si atom -12388.073829 kJ/mol
# Density = 1.616456 g / cm^3
# Si number density = 16.201434 Si / 1000 Ang^3
#
#
#
# Elastic Constant Matrix: (Units=GPa)
#
#
# Indices 1 2 3 4 5 6 
#
# 1 97.6756 38.9018 52.2434 0.0000 9.6762 0.0000
# 2 38.9018 64.0224 36.4299 0.0000 5.3866 0.0000
# 3 52.2434 36.4299 123.2872 0.0000 7.6867 0.0000
# 4 0.0000 0.0000 0.0000 9.0691 0.0000 -6.8999
# 5 9.6762 5.3866 7.6867 0.0000 21.5327 0.0000
# 6 0.0000 0.0000 0.0000 -6.8999 0.0000 21.5453
#
#
#
# Elastic Compliance Matrix: (Units=1/GPa)
#
#
# Indices 1 2 3 4 5 6 
#
# 1 0.015630 -0.006665 -0.004418 0.000000 -0.003779 0.000000
# 2 -0.006665 0.021783 -0.003538 0.000000 -0.001191 0.000000
# 3 -0.004418 -0.003538 0.011097 0.000000 -0.001091 0.000000
# 4 0.000000 0.000000 0.000000 0.145786 0.000000 0.046688
# 5 -0.003779 -0.001191 -0.001091 0.000000 0.048827 0.000000
# 6 0.000000 0.000000 0.000000 0.046688 0.000000 0.061366
#
#
# Mechanical properties :
#
#
# Convention : Reuss Voigt Hill
#
# Bulk Modulus (GPa) = 51.90207 60.01504 55.95855
# Shear Modulus (GPa) = 14.69928 20.92341 17.81134
#
# Velocity S-wave (km/s) = 3.01538 3.59758 3.31927
# Velocity P-wave (km/s) = 6.65044 7.37430 7.02170
#
# Compressibility (1/GPa) = 0.01926705
#
# Stress axis : x y z
#
# Youngs Moduli (GPa) = 63.97904 45.90760 90.11632
#
# Poissons Ratio (x) = 0.30599 0.39815
# Poissons Ratio (y) = 0.42644 0.31882
# Poissons Ratio (z) = 0.28267 0.16242
#
# Static dielectric constant tensor:
#      x y z
#    x 2.967550 0.000000 -0.016220 
#    y 0.000000 2.912890 0.000000 
#    z -0.016220 0.000000 2.963080 
# 
# 
# High freq. dielectric constant tensor:
#      x y z
#    x 1.610070 0.000000 0.000220 
#    y 0.000000 1.612350 0.000000 
#    z 0.000220 0.000000 1.599530 
# 
# From -- ./inp_files/36556.got.cif
#   From: 2010.06.25/outbox.cif.g09.slc.cpg/sg10_19_cif.got.tgz:36556.got - 2010.06.27 22:07:45.
