data_PCOD8060974
_publ_section_title
;
Structure prediction by ZEFSAII (Michael W. Deem and Ramdas Pophale) SiO2 
 PCOD8060974
Probable space group: P 2/M
;
_chemical_formula_sum "Si O2"
_cell_formula_units_Z 28
_cell_length_a 23.575468
_cell_length_b 8.674872
_cell_length_c 15.675927
_cell_angle_alpha 90.000000
_cell_angle_beta 26.812477
_cell_angle_gamma 90.000000
_cell_volume 1446.113589
_symmetry_space_group_name_H-M "P 2/M"
_symmetry_group_IT_number 10
_symmetry_cell_setting 'monoclinic'
loop_
_space_group_symop_operation_xyz
x,y,z
-x,y,-z
-x,-y,-z
x,-y,z
loop_
_atom_site_type_symbol
_atom_site_label
_atom_site_fract_x
_atom_site_fract_y
_atom_site_fract_z
Si Si1 0.380167 0.316385 0.711418
Si Si2 0.931782 0.818547 0.271470
Si Si3 0.565785 0.317992 0.175235
Si Si4 0.284988 0.317236 0.536797
Si Si5 0.184990 0.681296 0.245803
Si Si6 0.012638 0.818239 0.611874
Si Si7 0.166337 0.682463 0.874498
O O1 0.500000 0.251466 0.500000
O O2 0.382234 0.500000 0.707333
O O3 0.386426 0.249306 0.798651
O O4 0.254082 0.257965 0.834102
O O5 0.969742 0.762209 0.314926
O O6 0.794256 0.753322 0.434335
O O7 0.927101 0.000000 0.273279
O O8 0.029647 0.756102 0.070113
O O9 0.555222 0.500000 0.200748
O O10 0.427971 0.253543 0.336221
O O11 0.668636 0.275020 0.965464
O O12 0.281909 0.500000 0.534012
O O13 0.227178 0.261422 0.704288
O O14 0.167531 0.500000 0.284855
O O15 0.105526 0.727739 0.268738
O O16 0.138355 0.774881 0.390619
O O17 0.989082 0.000000 0.636487
O O18 0.150859 0.500000 0.895300
#
# Coordination Sequence:
#
# PCOD8060974 Si02
#       7
#     4   4   4   4   4   4   4
#     4   9  14  25  48  78 109 134 161 202 252 308
#     4  11  24  38  52  72 103 144 185 222 260 302
#     4   9  17  30  50  81 113 137 165 209 265 317
#     4  10  20  35  54  77 107 141 178 216 258 314
#     4  10  19  33  59  89 110 129 163 216 272 317
#     4  10  21  38  56  76 106 141 177 215 260 314
#     4  10  19  32  55  82 105 137 178 218 263 313
#
# _framework density 19.362241000000001
#
# number of rings (size 3 to 8) (size 9 to 14) (size 15 to 20)
#    0.000    2.143    1.429    3.429    0.000    5.714 
#    0.000    2.143    0.000    5.571    0.000    0.000 
#    0.000    0.000    0.000    0.000    0.000    0.000 
#
# Total GULP energy -347195.243846 kJ/mol
# GULP energy per Si atom -12399.830137 kJ/mol
# Density = 1.931817 g / cm^3
# Si number density = 19.362241 Si / 1000 Ang^3
#
#
#
# Elastic Constant Matrix: (Units=GPa)
#
#
# Indices 1 2 3 4 5 6 
#
# 1 75.6166 16.1750 41.7164 0.0000 -8.4100 0.0000
# 2 16.1750 23.8140 15.5474 0.0000 0.9846 0.0000
# 3 41.7164 15.5474 130.5080 0.0000 -9.9703 0.0000
# 4 0.0000 0.0000 0.0000 1.2651 0.0000 5.2804
# 5 -8.4100 0.9846 -9.9703 0.0000 28.3813 0.0000
# 6 0.0000 0.0000 0.0000 5.2804 0.0000 23.9760
#
#
#
# Elastic Compliance Matrix: (Units=1/GPa)
#
#
# Indices 1 2 3 4 5 6 
#
# 1 0.018148 -0.009674 -0.004328 0.000000 0.004193 0.000000
# 2 -0.009674 0.051048 -0.003435 0.000000 -0.005844 0.000000
# 3 -0.004328 -0.003435 0.009625 0.000000 0.002218 0.000000
# 4 0.000000 0.000000 0.000000 9.791201 0.000000 -2.156383
# 5 0.004193 -0.005844 0.002218 0.000000 0.037459 0.000000
# 6 0.000000 0.000000 0.000000 -2.156383 0.000000 0.516623
#
#
# Mechanical properties :
#
#
# Convention : Reuss Voigt Hill
#
# Bulk Modulus (GPa) = 22.75595 41.86848 32.31221
# Shear Modulus (GPa) = 0.47739 21.15778 10.81759
#
# Velocity S-wave (km/s) = 0.49708 3.30924 2.36624
# Velocity P-wave (km/s) = 3.47961 6.02264 4.91833
#
# Compressibility (1/GPa) = 0.04394456
#
# Stress axis : x y z
#
# Youngs Moduli (GPa) = 55.10217 19.58954 103.90096
#
# Poissons Ratio (x) = 0.18951 0.44970
# Poissons Ratio (y) = 0.53307 0.35695
# Poissons Ratio (z) = 0.23849 0.06730
#
# Static dielectric constant tensor:
#      x y z
#    x 3.633390 0.000000 -0.063070 
#    y 0.000000 3.132900 0.000000 
#    z -0.063070 0.000000 3.740150 
# 
# 
# High freq. dielectric constant tensor:
#      x y z
#    x 1.747920 0.000000 -0.004800 
#    y 0.000000 1.719950 0.000000 
#    z -0.004800 0.000000 1.762160 
# 
# From -- ./inp_files/70208.got.cif
#   From: 2010.06.25/outbox.cif.g09.slc.cpg/sg10_36_cif.got.tgz:70208.got - 2010.06.27 22:07:45.
