data_PCOD8060264
_publ_section_title
;
Structure prediction by ZEFSAII (Michael W. Deem and Ramdas Pophale) SiO2 
 PCOD8060264
Probable space group: P 2/M
;
_chemical_formula_sum "Si O2"
_cell_formula_units_Z 32
_cell_length_a 11.995228
_cell_length_b 8.923581
_cell_length_c 16.644224
_cell_angle_alpha 90.000000
_cell_angle_beta 85.269908
_cell_angle_gamma 90.000000
_cell_volume 1775.536445
_symmetry_space_group_name_H-M "P 2/M"
_symmetry_group_IT_number 10
_symmetry_cell_setting 'monoclinic'
loop_
_space_group_symop_operation_xyz
x,y,z
-x,y,-z
-x,-y,-z
x,-y,z
loop_
_atom_site_type_symbol
_atom_site_label
_atom_site_fract_x
_atom_site_fract_y
_atom_site_fract_z
Si Si1 0.839431 0.672232 0.068098
Si Si2 0.752799 0.171956 0.215445
Si Si3 0.910009 0.672998 0.891812
Si Si4 0.321508 0.675189 0.358919
Si Si5 0.910925 0.326081 0.328976
Si Si6 0.555763 0.827195 0.344489
Si Si7 0.284757 0.326938 0.543812
Si Si8 0.131614 0.823540 0.271353
O O1 0.807760 0.500000 0.083949
O O2 0.751500 0.774793 0.122651
O O3 0.962835 0.707246 0.093100
O O4 0.832824 0.710824 0.973799
O O5 0.844412 0.272158 0.254876
O O6 0.630968 0.196447 0.260765
O O7 0.789980 0.000000 0.220228
O O8 0.895703 0.500000 0.867603
O O9 0.872739 0.777077 0.821248
O O10 0.311504 0.500000 0.341683
O O11 0.448405 0.725048 0.339077
O O12 0.280531 0.714430 0.450912
O O13 0.246703 0.764508 0.300796
O O14 0.937408 0.500000 0.316313
O O15 0.838151 0.293676 0.412942
O O16 0.028428 0.241555 0.329024
O O17 0.622772 0.775890 0.419498
O O18 0.521595 0.000000 0.357880
O O19 0.318504 0.500000 0.556086
O O20 0.128385 0.000000 0.278180
#
# Coordination Sequence:
#
# PCOD8060264 Si02
#       8
#     4   4   4   4   4   4   4   4
#     4   9  17  30  53  81 109 139 175 214 257 308
#     4  10  19  31  51  81 113 140 171 214 265 314
#     4   9  18  33  52  78 109 142 175 213 257 308
#     4  11  23  39  57  76 101 140 186 224 262 314
#     4  10  19  34  54  76 106 141 176 216 263 313
#     4  10  21  36  55  81 111 139 172 221 272 313
#     4   9  20  37  58  81 103 134 179 226 267 311
#     4  12  24  36  52  77 110 144 177 215 264 321
#
# _framework density 18.022721000000001
#
# number of rings (size 3 to 8) (size 9 to 14) (size 15 to 20)
#    0.000    2.000    1.250    3.750    0.000    5.500 
#    0.000    3.750    0.000    0.750    0.000    5.250 
#    0.000    0.000    0.000    0.000    0.000    0.000 
#
# Total GULP energy -396875.572203 kJ/mol
# GULP energy per Si atom -12402.361631 kJ/mol
# Density = 1.798170 g / cm^3
# Si number density = 18.022721 Si / 1000 Ang^3
#
#
#
# Elastic Constant Matrix: (Units=GPa)
#
#
# Indices 1 2 3 4 5 6 
#
# 1 55.0178 45.1482 45.9715 0.0000 6.0470 0.0000
# 2 45.1482 109.8157 53.3978 0.0000 0.6090 0.0000
# 3 45.9715 53.3978 94.5609 0.0000 -6.9610 0.0000
# 4 0.0000 0.0000 0.0000 21.6460 0.0000 -4.5424
# 5 6.0470 0.6090 -6.9610 0.0000 19.4472 0.0000
# 6 0.0000 0.0000 0.0000 -4.5424 0.0000 28.5057
#
#
#
# Elastic Compliance Matrix: (Units=1/GPa)
#
#
# Indices 1 2 3 4 5 6 
#
# 1 0.041111 -0.008857 -0.016336 0.000000 -0.018354 0.000000
# 2 -0.008857 0.014635 -0.003892 0.000000 0.000903 0.000000
# 3 -0.016336 -0.003892 0.021669 0.000000 0.012958 0.000000
# 4 0.000000 0.000000 0.000000 0.047796 0.000000 0.007616
# 5 -0.018354 0.000903 0.012958 0.000000 0.061738 0.000000
# 6 0.000000 0.000000 0.000000 0.007616 0.000000 0.036294
#
#
# Mechanical properties :
#
#
# Convention : Reuss Voigt Hill
#
# Bulk Modulus (GPa) = 51.96151 60.93659 56.44905
# Shear Modulus (GPa) = 17.37142 21.57822 19.47482
#
# Velocity S-wave (km/s) = 3.10798 3.46393 3.29077
# Velocity P-wave (km/s) = 6.46321 7.06277 6.76963
#
# Compressibility (1/GPa) = 0.01924501
#
# Stress axis : x y z
#
# Youngs Moduli (GPa) = 24.32422 68.33001 46.14906
#
# Poissons Ratio (x) = 0.60517 0.75391
# Poissons Ratio (y) = 0.21543 0.17961
# Poissons Ratio (z) = 0.39737 0.26594
#
# Static dielectric constant tensor:
#      x y z
#    x 3.156460 0.000000 -0.249490 
#    y 0.000000 3.371520 0.000000 
#    z -0.249490 0.000000 3.500700 
# 
# 
# High freq. dielectric constant tensor:
#      x y z
#    x 1.674740 0.000000 -0.020890 
#    y 0.000000 1.705370 0.000000 
#    z -0.020890 0.000000 1.699580 
# 
# From -- ./inp_files/63824.got.cif
#   From: 2010.06.25/outbox.cif.g09.slc.cpg/sg10_32_cif.got.tgz:63824.got - 2010.06.27 22:07:45.
