data_PCOD8060684
_publ_section_title
;
Structure prediction by ZEFSAII (Michael W. Deem and Ramdas Pophale) SiO2 
 PCOD8060684
Probable space group: P 2/M
;
_chemical_formula_sum "Si O2"
_cell_formula_units_Z 24
_cell_length_a 15.816489
_cell_length_b 13.467247
_cell_length_c 10.390644
_cell_angle_alpha 90.000000
_cell_angle_beta 34.176091
_cell_angle_gamma 90.000000
_cell_volume 1243.269643
_symmetry_space_group_name_H-M "P 2/M"
_symmetry_group_IT_number 10
_symmetry_cell_setting 'monoclinic'
loop_
_space_group_symop_operation_xyz
x,y,z
-x,y,-z
-x,-y,-z
x,-y,z
loop_
_atom_site_type_symbol
_atom_site_label
_atom_site_fract_x
_atom_site_fract_y
_atom_site_fract_z
Si Si1 0.177336 0.893304 0.776191
Si Si2 0.180996 0.215653 0.023166
Si Si3 0.450843 0.698976 0.193148
Si Si4 0.406592 0.614203 0.742210
Si Si5 0.669785 0.115212 0.930927
Si Si6 0.171659 0.807468 0.514953
O O1 0.226233 0.869248 0.570307
O O2 0.246922 0.000000 0.725629
O O3 0.231459 0.815645 0.815756
O O4 0.000000 0.898542 0.000000
O O5 0.241937 0.135281 0.047564
O O6 0.002095 0.223459 0.264649
O O7 0.253857 0.323427 0.953682
O O8 0.487497 0.630935 0.268154
O O9 0.270821 0.708054 0.404544
O O10 0.500000 0.643916 0.000000
O O11 0.528209 0.809589 0.101066
O O12 0.500000 0.648801 0.500000
O O13 0.358768 0.500000 0.791302
O O14 0.787103 0.133077 0.666454
O O15 0.615701 0.000000 0.996829
#
# Coordination Sequence:
#
# PCOD8060684 Si02
#       6
#     4   4   4   4   4   4
#     4   9  17  28  45  72 104 137 169 203 249 301
#     4  10  20  34  53  77 107 137 174 221 265 308
#     4   9  20  36  54  77 106 139 176 214 260 311
#     4  10  21  39  60  78 100 134 174 218 272 327
#     4  10  20  33  51  78 112 148 181 210 248 305
#     4  10  19  32  52  76 108 142 174 215 257 302
#
# _framework density 19.303937000000001
#
# number of rings (size 3 to 8) (size 9 to 14) (size 15 to 20)
#    0.000    2.333    0.000    2.500    0.000    6.667 
#    0.000    0.833    0.000   25.000    0.000    0.000 
#    0.000    0.000    0.000    0.000    0.000    0.000 
#
# Total GULP energy -297441.848577 kJ/mol
# GULP energy per Si atom -12393.410357 kJ/mol
# Density = 1.926000 g / cm^3
# Si number density = 19.303937 Si / 1000 Ang^3
#
#
#
# Elastic Constant Matrix: (Units=GPa)
#
#
# Indices 1 2 3 4 5 6 
#
# 1 102.2958 17.5915 31.5564 0.0000 18.2886 0.0000
# 2 17.5915 66.2670 22.4664 0.0000 4.0178 0.0000
# 3 31.5564 22.4664 74.6068 0.0000 13.9206 0.0000
# 4 0.0000 0.0000 0.0000 17.3763 0.0000 7.6777
# 5 18.2886 4.0178 13.9206 0.0000 41.8670 0.0000
# 6 0.0000 0.0000 0.0000 7.6777 0.0000 17.3344
#
#
#
# Elastic Compliance Matrix: (Units=1/GPa)
#
#
# Indices 1 2 3 4 5 6 
#
# 1 0.011916 -0.001631 -0.003846 0.000000 -0.003770 0.000000
# 2 -0.001631 0.017030 -0.004548 0.000000 0.000591 0.000000
# 3 -0.003846 -0.004548 0.017064 0.000000 -0.003557 0.000000
# 4 0.000000 0.000000 0.000000 0.071552 0.000000 -0.031692
# 5 -0.003770 0.000591 -0.003557 0.000000 0.026658 0.000000
# 6 0.000000 0.000000 0.000000 -0.031692 0.000000 0.071726
#
#
# Mechanical properties :
#
#
# Convention : Reuss Voigt Hill
#
# Bulk Modulus (GPa) = 38.52164 42.93313 40.72738
# Shear Modulus (GPa) = 20.43742 26.75255 23.59498
#
# Velocity S-wave (km/s) = 3.25732 3.72675 3.49992
# Velocity P-wave (km/s) = 5.84342 6.38805 6.12179
#
# Compressibility (1/GPa) = 0.02595944
#
# Stress axis : x y z
#
# Youngs Moduli (GPa) = 83.91780 58.72095 58.60420
#
# Poissons Ratio (x) = 0.09577 0.22537
# Poissons Ratio (y) = 0.13687 0.26656
# Poissons Ratio (z) = 0.32272 0.26709
#
# Static dielectric constant tensor:
#      x y z
#    x 3.731700 0.000000 0.309660 
#    y 0.000000 3.209340 0.000000 
#    z 0.309660 0.000000 3.917330 
# 
# 
# High freq. dielectric constant tensor:
#      x y z
#    x 1.764850 0.000000 0.017870 
#    y 0.000000 1.717640 0.000000 
#    z 0.017870 0.000000 1.758720 
# 
# From -- ./inp_files/29300.got.cif
#   From: 2010.06.25/outbox.cif.g09.slc.cpg/sg10_15_cif.got.tgz:29300.got - 2010.06.27 22:07:45.
