data_PCOD8060678
_publ_section_title
;
Structure prediction by ZEFSAII (Michael W. Deem and Ramdas Pophale) SiO2 
 PCOD8060678
Probable space group: P 2/M
;
_chemical_formula_sum "Si O2"
_cell_formula_units_Z 30
_cell_length_a 15.952304
_cell_length_b 9.122317
_cell_length_c 20.786108
_cell_angle_alpha 90.000000
_cell_angle_beta 148.273797
_cell_angle_gamma 90.000000
_cell_volume 1590.642085
_symmetry_space_group_name_H-M "P 2/M"
_symmetry_group_IT_number 10
_symmetry_cell_setting 'monoclinic'
loop_
_space_group_symop_operation_xyz
x,y,z
-x,y,-z
-x,-y,-z
x,-y,z
loop_
_atom_site_type_symbol
_atom_site_label
_atom_site_fract_x
_atom_site_fract_y
_atom_site_fract_z
Si Si1 0.366198 0.827262 0.214023
Si Si2 0.500000 0.759455 0.000000
Si Si3 0.157688 0.325983 0.970576
Si Si4 0.659670 0.671705 0.362337
Si Si5 0.184572 0.163250 0.858518
Si Si6 0.691889 0.664547 0.242495
Si Si7 0.988271 0.327972 0.359500
Si Si8 0.900027 0.837981 0.869469
O O1 0.545323 0.765530 0.334360
O O2 0.280853 0.796801 0.227460
O O3 0.361784 0.000000 0.194987
O O4 0.278403 0.737059 0.101327
O O5 0.348913 0.852881 0.925191
O O6 0.442631 0.665376 0.900883
O O7 0.168031 0.500000 0.976072
O O8 0.213938 0.262845 0.939555
O O9 0.975684 0.276906 0.868540
O O10 0.617434 0.500000 0.341170
O O11 0.637030 0.735628 0.274509
O O12 0.837876 0.705649 0.500977
O O13 0.042342 0.239233 0.725927
O O14 0.130673 0.000000 0.842974
O O15 0.730768 0.500000 0.288087
O O16 0.858736 0.732146 0.326548
O O17 0.960606 0.500000 0.327354
O O18 0.905394 0.000000 0.841412
O O19 0.000000 0.838660 0.000000
#
# Coordination Sequence:
#
# PCOD8060678 Si02
#       8
#     4   2   4   4   4   4   4   4
#     4  10  20  33  51  77 109 140 168 204 253 306
#     4  10  20  32  50  76 107 138 171 210 251 300
#     4  11  21  33  53  80 106 133 169 209 254 308
#     4  10  19  32  52  76 103 136 176 218 257 299
#     4  11  22  36  53  73 102 137 172 212 259 308
#     4   9  17  30  50  75 103 137 173 211 256 302
#     4   9  19  35  52  71  98 135 179 221 257 298
#     4   8  16  32  51  73 104 138 167 200 249 306
#
# _framework density 18.860308
#
# number of rings (size 3 to 8) (size 9 to 14) (size 15 to 20)
#    0.000    2.267    0.000    4.400    0.000    7.733 
#    0.000    2.667    0.000    4.800    0.000    5.600 
#    0.000    0.000    0.000    0.000    0.000    0.000 
#
# Total GULP energy -371800.215052 kJ/mol
# GULP energy per Si atom -12393.340502 kJ/mol
# Density = 1.881738 g / cm^3
# Si number density = 18.860308 Si / 1000 Ang^3
#
#
#
# Elastic Constant Matrix: (Units=GPa)
#
#
# Indices 1 2 3 4 5 6 
#
# 1 86.7214 41.0093 35.7471 0.0000 16.2389 0.0000
# 2 41.0093 106.7255 30.5337 0.0000 3.7001 0.0000
# 3 35.7471 30.5337 80.9026 0.0000 12.0673 0.0000
# 4 0.0000 0.0000 0.0000 17.0594 0.0000 2.2178
# 5 16.2389 3.7001 12.0673 0.0000 26.7600 0.0000
# 6 0.0000 0.0000 0.0000 2.2178 0.0000 26.6679
#
#
#
# Elastic Compliance Matrix: (Units=1/GPa)
#
#
# Indices 1 2 3 4 5 6 
#
# 1 0.017245 -0.005054 -0.004563 0.000000 -0.007709 0.000000
# 2 -0.005054 0.011988 -0.002682 0.000000 0.002619 0.000000
# 3 -0.004563 -0.002682 0.015996 0.000000 -0.004074 0.000000
# 4 0.000000 0.000000 0.000000 0.059259 0.000000 -0.004928
# 5 -0.007709 0.002619 -0.004074 0.000000 0.043522 0.000000
# 6 0.000000 0.000000 0.000000 -0.004928 0.000000 0.037908
#
#
# Mechanical properties :
#
#
# Convention : Reuss Voigt Hill
#
# Bulk Modulus (GPa) = 48.46645 54.32555 51.39600
# Shear Modulus (GPa) = 22.99963 25.23475 24.11719
#
# Velocity S-wave (km/s) = 3.49588 3.66181 3.57981
# Velocity P-wave (km/s) = 6.48447 6.83705 6.66309
#
# Compressibility (1/GPa) = 0.02063283
#
# Stress axis : x y z
#
# Youngs Moduli (GPa) = 57.98669 83.41440 62.51371
#
# Poissons Ratio (x) = 0.42157 0.28523
# Poissons Ratio (y) = 0.29306 0.16767
# Poissons Ratio (z) = 0.26457 0.22372
#
# Static dielectric constant tensor:
#      x y z
#    x 3.838630 0.000000 0.184160 
#    y 0.000000 3.313900 0.000000 
#    z 0.184160 0.000000 3.243880 
# 
# 
# High freq. dielectric constant tensor:
#      x y z
#    x 1.739330 0.000000 0.013490 
#    y 0.000000 1.719600 0.000000 
#    z 0.013490 0.000000 1.704420 
# 
# From -- ./inp_files/85754.got.cif
#   From: 2010.06.25/outbox.cif.g09.slc.cpg/sg10_43_cif.got.tgz:85754.got - 2010.06.27 22:07:45.
