data_PCOD8060957
_publ_section_title
;
Structure prediction by ZEFSAII (Michael W. Deem and Ramdas Pophale) SiO2 
 PCOD8060957
Probable space group: P 2/M
;
_chemical_formula_sum "Si O2"
_cell_formula_units_Z 32
_cell_length_a 21.705887
_cell_length_b 8.784147
_cell_length_c 14.922605
_cell_angle_alpha 90.000000
_cell_angle_beta 33.552820
_cell_angle_gamma 90.000000
_cell_volume 1572.590179
_symmetry_space_group_name_H-M "P 2/M"
_symmetry_group_IT_number 10
_symmetry_cell_setting 'monoclinic'
loop_
_space_group_symop_operation_xyz
x,y,z
-x,y,-z
-x,-y,-z
x,-y,z
loop_
_atom_site_type_symbol
_atom_site_label
_atom_site_fract_x
_atom_site_fract_y
_atom_site_fract_z
Si Si1 0.064818 0.671489 0.114005
Si Si2 0.356605 0.175825 0.526129
Si Si3 0.599881 0.823153 0.170099
Si Si4 0.739050 0.322099 0.847677
Si Si5 0.190936 0.824751 0.408533
Si Si6 0.062869 0.827552 0.298596
Si Si7 0.182599 0.324831 0.609659
Si Si8 0.696694 0.325939 0.228399
O O1 0.064735 0.500000 0.155461
O O2 0.078716 0.794952 0.174684
O O3 0.947381 0.698821 0.206238
O O4 0.169217 0.690080 0.920130
O O5 0.468406 0.208860 0.335090
O O6 0.251943 0.225725 0.594688
O O7 0.364670 0.265938 0.609327
O O8 0.344330 0.000000 0.565591
O O9 0.660931 0.767953 0.185265
O O10 0.626757 0.000000 0.125388
O O11 0.643764 0.735115 0.030167
O O12 0.724823 0.500000 0.850153
O O13 0.724978 0.239347 0.768576
O O14 0.861548 0.288016 0.737693
O O15 0.205542 0.728310 0.480752
O O16 0.066378 0.806634 0.519038
O O17 0.218520 0.000000 0.396574
O O18 0.102420 0.000000 0.270255
O O19 0.218766 0.500000 0.574701
O O20 0.661552 0.500000 0.255808
#
# Coordination Sequence:
#
# PCOD8060957 Si02
#       8
#     4   4   4   4   4   4   4   4
#     4   9  19  35  57  88 123 157 191 239 296 348
#     4  11  25  43  62  85 116 158 203 248 298 351
#     4  11  24  42  62  86 119 156 198 249 301 351
#     4  12  23  35  56  87 120 155 196 243 296 352
#     4  10  21  37  58  86 120 158 198 239 289 350
#     4  10  19  32  54  84 120 159 195 235 288 350
#     4  10  21  40  63  87 120 158 200 246 293 347
#     4  11  22  38  63  93 122 153 193 243 301 358
#
# _framework density 20.348593999999999
#
# number of rings (size 3 to 8) (size 9 to 14) (size 15 to 20)
#    0.000    1.500    1.250    4.125    0.000    8.000 
#    0.000    3.125    0.000    3.750    0.000    0.000 
#    0.000    0.000    0.000    0.000    0.000    0.000 
#
# Total GULP energy -396890.801099 kJ/mol
# GULP energy per Si atom -12402.837534 kJ/mol
# Density = 2.030228 g / cm^3
# Si number density = 20.348594 Si / 1000 Ang^3
#
#
#
# Elastic Constant Matrix: (Units=GPa)
#
#
# Indices 1 2 3 4 5 6 
#
# 1 33.0884 10.3971 7.4412 0.0000 -10.9678 0.0000
# 2 10.3971 70.8045 36.7679 0.0000 -8.8802 0.0000
# 3 7.4412 36.7679 62.9348 0.0000 9.5092 0.0000
# 4 0.0000 0.0000 0.0000 31.7035 0.0000 2.5372
# 5 -10.9678 -8.8802 9.5092 0.0000 19.6972 0.0000
# 6 0.0000 0.0000 0.0000 2.5372 0.0000 31.9868
#
#
#
# Elastic Compliance Matrix: (Units=1/GPa)
#
#
# Indices 1 2 3 4 5 6 
#
# 1 0.041883 0.003877 -0.011871 0.000000 0.030800 0.000000
# 2 0.003877 0.026736 -0.019660 0.000000 0.023703 0.000000
# 3 -0.011871 -0.019660 0.033565 0.000000 -0.031677 0.000000
# 4 0.000000 0.000000 0.000000 0.031744 0.000000 -0.002518
# 5 0.030800 0.023703 -0.031677 0.000000 0.093898 0.000000
# 6 0.000000 0.000000 0.000000 -0.002518 0.000000 0.031463
#
#
# Mechanical properties :
#
#
# Convention : Reuss Voigt Hill
#
# Bulk Modulus (GPa) = 21.33257 30.67111 26.00184
# Shear Modulus (GPa) = 15.14144 24.15894 19.65019
#
# Velocity S-wave (km/s) = 2.73078 3.44939 3.11091
# Velocity P-wave (km/s) = 4.52208 5.56507 5.07046
#
# Compressibility (1/GPa) = 0.04687667
#
# Stress axis : x y z
#
# Youngs Moduli (GPa) = 23.87630 37.40290 29.79304
#
# Poissons Ratio (x) = -0.14501 0.35367
# Poissons Ratio (y) = -0.09257 0.58572
# Poissons Ratio (z) = 0.28343 0.73533
#
# Static dielectric constant tensor:
#      x y z
#    x 3.475080 0.000000 -0.022580 
#    y 0.000000 3.785380 0.000000 
#    z -0.022580 0.000000 3.853120 
# 
# 
# High freq. dielectric constant tensor:
#      x y z
#    x 1.772780 0.000000 0.004070 
#    y 0.000000 1.807680 0.000000 
#    z 0.004070 0.000000 1.801210 
# 
# From -- ./inp_files/71534.got.cif
#   From: 2010.06.25/outbox.cif.g09.slc.cpg/sg10_36_cif.got.tgz:71534.got - 2010.06.27 22:07:45.
