data_PCOD8060575
_publ_section_title
;
Structure prediction by ZEFSAII (Michael W. Deem and Ramdas Pophale) SiO2 
 PCOD8060575
Probable space group: P 2/M
;
_chemical_formula_sum "Si O2"
_cell_formula_units_Z 32
_cell_length_a 15.459608
_cell_length_b 8.825653
_cell_length_c 27.152424
_cell_angle_alpha 90.000000
_cell_angle_beta 28.579476
_cell_angle_gamma 90.000000
_cell_volume 1772.248092
_symmetry_space_group_name_H-M "P 2/M"
_symmetry_group_IT_number 10
_symmetry_cell_setting 'monoclinic'
loop_
_space_group_symop_operation_xyz
x,y,z
-x,y,-z
-x,-y,-z
x,-y,z
loop_
_atom_site_type_symbol
_atom_site_label
_atom_site_fract_x
_atom_site_fract_y
_atom_site_fract_z
Si Si1 0.812413 0.179789 0.646605
Si Si2 0.563285 0.322696 0.850051
Si Si3 0.183253 0.678178 0.078378
Si Si4 0.183063 0.178183 0.738351
Si Si5 0.181345 0.323039 0.190042
Si Si6 0.818474 0.177192 0.371555
Si Si7 0.811786 0.679826 0.541406
Si Si8 0.436846 0.177472 0.413285
O O1 0.650461 0.221632 0.764039
O O2 0.764976 0.250199 0.617618
O O3 0.000407 0.249951 0.572627
O O4 0.832135 0.000000 0.632314
O O5 0.589485 0.500000 0.824569
O O6 0.651531 0.281896 0.858530
O O7 0.352367 0.277471 0.959344
O O8 0.158576 0.500000 0.091609
O O9 0.219321 0.738870 0.115924
O O10 0.000084 0.750144 0.147916
O O11 0.218870 0.239435 0.664909
O O12 0.352165 0.222315 0.688298
O O13 0.158426 0.000000 0.749555
O O14 0.148146 0.500000 0.205153
O O15 0.000496 0.249212 0.302725
O O16 0.652143 0.219763 0.489826
O O17 0.848707 0.000000 0.354903
O O18 0.831447 0.500000 0.535828
O O19 0.649397 0.722152 0.586340
O O20 0.410220 0.000000 0.414579
#
# Coordination Sequence:
#
# PCOD8060575 Si02
#       8
#     4   4   4   4   4   4   4   4
#     4  11  22  37  56  78 104 131 161 199 247 300
#     4  10  19  32  51  74 101 134 171 208 249 296
#     4   9  18  32  49  70 100 137 174 211 248 289
#     4   9  18  32  49  70 100 137 174 211 248 289
#     4   9  17  29  46  70 101 136 170 204 245 292
#     4   9  17  29  46  70 101 136 170 204 245 292
#     4  11  22  37  56  78 104 131 161 199 247 300
#     4  10  19  32  51  74 101 134 171 208 249 296
#
# _framework density 18.056163000000002
#
# number of rings (size 3 to 8) (size 9 to 14) (size 15 to 20)
#    0.000    2.250    0.000    4.500    0.000    7.000 
#    0.000    0.000    0.000    8.250    0.000    5.250 
#    0.000    0.000    0.000    0.000    0.000    0.000 
#
# Total GULP energy -396799.392481 kJ/mol
# GULP energy per Si atom -12399.981015 kJ/mol
# Density = 1.801507 g / cm^3
# Si number density = 18.056163 Si / 1000 Ang^3
#
#
#
# Elastic Constant Matrix: (Units=GPa)
#
#
# Indices 1 2 3 4 5 6 
#
# 1 98.4118 53.2259 58.1115 0.0000 -23.2424 0.0000
# 2 53.2259 87.5013 49.6975 0.0000 -12.9440 0.0000
# 3 58.1115 49.6975 133.8056 0.0000 -14.6036 0.0000
# 4 0.0000 0.0000 0.0000 29.5966 0.0000 -2.8345
# 5 -23.2424 -12.9440 -14.6036 0.0000 30.7426 0.0000
# 6 0.0000 0.0000 0.0000 -2.8345 0.0000 25.7784
#
#
#
# Elastic Compliance Matrix: (Units=1/GPa)
#
#
# Indices 1 2 3 4 5 6 
#
# 1 0.019127 -0.007776 -0.004427 0.000000 0.009083 0.000000
# 2 -0.007776 0.018064 -0.003315 0.000000 0.000152 0.000000
# 3 -0.004427 -0.003315 0.010663 0.000000 0.000322 0.000000
# 4 0.000000 0.000000 0.000000 0.034147 0.000000 0.003755
# 5 0.009083 0.000152 0.000322 0.000000 0.039612 0.000000
# 6 0.000000 0.000000 0.000000 0.003755 0.000000 0.039205
#
#
# Mechanical properties :
#
#
# Convention : Reuss Voigt Hill
#
# Bulk Modulus (GPa) = 59.46823 71.30984 65.38903
# Shear Modulus (GPa) = 25.32146 27.80246 26.56196
#
# Velocity S-wave (km/s) = 3.74889 3.92826 3.83962
# Velocity P-wave (km/s) = 7.19344 7.75590 7.47996
#
# Compressibility (1/GPa) = 0.01681570
#
# Stress axis : x y z
#
# Youngs Moduli (GPa) = 52.28331 55.35807 93.78434
#
# Poissons Ratio (x) = 0.43049 0.41518
# Poissons Ratio (y) = 0.40658 0.31094
# Poissons Ratio (z) = 0.23146 0.18354
#
# Static dielectric constant tensor:
#      x y z
#    x 3.621790 0.000000 -0.691230 
#    y 0.000000 3.267640 0.000000 
#    z -0.691230 0.000000 4.439110 
# 
# 
# High freq. dielectric constant tensor:
#      x y z
#    x 1.682150 0.000000 -0.009580 
#    y 0.000000 1.693120 0.000000 
#    z -0.009580 0.000000 1.695080 
# 
# From -- ./inp_files/93127.got.cif
#   From: 2010.06.25/outbox.cif.g09.slc.cpg/sg10_47_cif.got.tgz:93127.got - 2010.06.27 22:07:45.
