data_PCOD8060865
_publ_section_title
;
Structure prediction by ZEFSAII (Michael W. Deem and Ramdas Pophale) SiO2 
 PCOD8060865
Probable space group: P 2/M
;
_chemical_formula_sum "Si O2"
_cell_formula_units_Z 32
_cell_length_a 21.395908
_cell_length_b 9.045145
_cell_length_c 15.391148
_cell_angle_alpha 90.000000
_cell_angle_beta 34.549054
_cell_angle_gamma 90.000000
_cell_volume 1689.218411
_symmetry_space_group_name_H-M "P 2/M"
_symmetry_group_IT_number 10
_symmetry_cell_setting 'monoclinic'
loop_
_space_group_symop_operation_xyz
x,y,z
-x,y,-z
-x,-y,-z
x,-y,z
loop_
_atom_site_type_symbol
_atom_site_label
_atom_site_fract_x
_atom_site_fract_y
_atom_site_fract_z
Si Si1 0.566158 0.670695 0.118481
Si Si2 0.680590 0.836099 0.841730
Si Si3 0.873160 0.674202 0.398514
Si Si4 0.931143 0.831453 0.499124
Si Si5 0.898939 0.324830 0.173110
Si Si6 0.433985 0.671409 0.690959
Si Si7 0.668183 0.675578 0.365056
Si Si8 0.354307 0.828680 0.308173
O O1 0.533945 0.500000 0.141567
O O2 0.618257 0.698560 0.154173
O O3 0.458415 0.771319 0.241224
O O4 0.654120 0.716579 0.945334
O O5 0.805984 0.821607 0.670835
O O6 0.612795 0.806911 0.830963
O O7 0.654433 0.000000 0.908441
O O8 0.871429 0.500000 0.414666
O O9 0.948878 0.744333 0.388181
O O10 0.920153 0.717445 0.249783
O O11 0.749345 0.732748 0.545212
O O12 0.000000 0.760727 0.500000
O O13 0.968952 0.000000 0.439621
O O14 0.895186 0.500000 0.167132
O O15 0.781808 0.256500 0.273857
O O16 0.000000 0.259939 0.000000
O O17 0.447111 0.500000 0.654957
O O18 0.559879 0.734035 0.541330
O O19 0.350348 0.733233 0.713352
O O20 0.679719 0.500000 0.357865
O O21 0.328937 0.000000 0.357209
#
# Coordination Sequence:
#
# PCOD8060865 Si02
#       8
#     4   4   4   4   4   4   4   4
#     4  11  20  29  45  76 108 129 160 208 262 305
#     4   9  19  34  49  68  96 131 171 207 246 306
#     4  10  19  32  53  82 107 129 169 222 267 304
#     4   9  19  38  59  74  96 139 185 215 250 313
#     4   9  17  29  46  73 107 139 166 205 266 324
#     4   8  15  26  42  67  93 127 167 202 244 297
#     4   8  13  26  45  61  91 133 169 199 236 302
#     4  10  20  34  52  71  97 138 178 207 245 309
#
# _framework density 18.943673
#
# number of rings (size 3 to 8) (size 9 to 14) (size 15 to 20)
#    0.000    2.750    0.000    3.750    0.000    6.250 
#    2.250    0.000    0.000    1.500    0.000   18.375 
#    0.000    0.000    0.000    0.000    0.000    0.000 
#
# Total GULP energy -396559.009937 kJ/mol
# GULP energy per Si atom -12392.469061 kJ/mol
# Density = 1.890056 g / cm^3
# Si number density = 18.943673 Si / 1000 Ang^3
#
#
#
# Elastic Constant Matrix: (Units=GPa)
#
#
# Indices 1 2 3 4 5 6 
#
# 1 128.5740 38.1027 46.4083 0.0000 20.3535 0.0000
# 2 38.1027 50.2425 28.3176 0.0000 15.8960 0.0000
# 3 46.4083 28.3176 80.9525 0.0000 26.4471 0.0000
# 4 0.0000 0.0000 0.0000 7.5302 0.0000 -7.2438
# 5 20.3535 15.8960 26.4471 0.0000 29.7070 0.0000
# 6 0.0000 0.0000 0.0000 -7.2438 0.0000 14.8912
#
#
#
# Elastic Compliance Matrix: (Units=1/GPa)
#
#
# Indices 1 2 3 4 5 6 
#
# 1 0.011113 -0.005879 -0.004025 0.000000 -0.000884 0.000000
# 2 -0.005879 0.029260 -0.004323 0.000000 -0.007780 0.000000
# 3 -0.004025 -0.004323 0.020470 0.000000 -0.013152 0.000000
# 4 0.000000 0.000000 0.000000 0.249599 0.000000 0.121417
# 5 -0.000884 -0.007780 -0.013152 0.000000 0.050140 0.000000
# 6 0.000000 0.000000 0.000000 0.121417 0.000000 0.126217
#
#
# Mechanical properties :
#
#
# Convention : Reuss Voigt Hill
#
# Bulk Modulus (GPa) = 30.87623 53.93625 42.40624
# Shear Modulus (GPa) = 9.50479 20.22168 14.86323
#
# Velocity S-wave (km/s) = 2.24238 3.27075 2.80411
# Velocity P-wave (km/s) = 4.79987 6.54198 5.73743
#
# Compressibility (1/GPa) = 0.03238738
#
# Stress axis : x y z
#
# Youngs Moduli (GPa) = 89.98620 34.17602 48.85291
#
# Poissons Ratio (x) = 0.20093 0.19664
# Poissons Ratio (y) = 0.52905 0.21120
# Poissons Ratio (z) = 0.36222 0.14775
#
# Static dielectric constant tensor:
#      x y z
#    x 3.841050 0.000000 0.180360 
#    y 0.000000 3.160180 0.000000 
#    z 0.180360 0.000000 3.399430 
# 
# 
# High freq. dielectric constant tensor:
#      x y z
#    x 1.745920 0.000000 0.014290 
#    y 0.000000 1.694930 0.000000 
#    z 0.014290 0.000000 1.723490 
# 
# From -- ./inp_files/69955.got.cif
#   From: 2010.06.25/outbox.cif.g09.slc.cpg/sg10_35_cif.got.tgz:69955.got - 2010.06.27 22:07:45.
