data_PCOD8060172
_publ_section_title
;
Structure prediction by ZEFSAII (Michael W. Deem and Ramdas Pophale) SiO2 
 PCOD8060172
Probable space group: P 2/M
;
_chemical_formula_sum "Si O2"
_cell_formula_units_Z 26
_cell_length_a 5.255798
_cell_length_b 8.209629
_cell_length_c 31.356412
_cell_angle_alpha 90.000000
_cell_angle_beta 61.126865
_cell_angle_gamma 90.000000
_cell_volume 1184.784767
_symmetry_space_group_name_H-M "P 2/M"
_symmetry_group_IT_number 10
_symmetry_cell_setting 'monoclinic'
loop_
_space_group_symop_operation_xyz
x,y,z
-x,y,-z
-x,-y,-z
x,-y,z
loop_
_atom_site_type_symbol
_atom_site_label
_atom_site_fract_x
_atom_site_fract_y
_atom_site_fract_z
Si Si1 0.142696 0.805268 0.699013
Si Si2 0.202258 0.805985 0.190856
Si Si3 0.232691 0.822167 0.443824
Si Si4 0.827090 0.692896 0.973236
Si Si5 0.348752 0.500000 0.467536
Si Si6 0.790797 0.186789 0.648469
Si Si7 0.141824 0.806927 0.863292
O O1 0.468723 0.734098 0.675769
O O2 0.957450 0.740607 0.753971
O O3 0.000980 0.733160 0.666797
O O4 0.151577 0.000000 0.697376
O O5 0.530358 0.737635 0.164069
O O6 0.032816 0.737780 0.163284
O O7 0.203106 0.000000 0.190401
O O8 0.443539 0.667301 0.435604
O O9 0.080836 0.793590 0.410013
O O10 0.000000 0.831900 0.500000
O O11 0.399826 0.000000 0.428863
O O12 0.819313 0.500000 0.975883
O O13 0.986313 0.748369 0.918115
O O14 0.500000 0.763955 0.000000
O O15 0.000000 0.763866 0.000000
O O16 0.500000 0.500000 0.500000
O O17 0.000000 0.500000 0.500000
O O18 0.758231 0.000000 0.664238
O O19 0.147318 0.000000 0.861550
#
# Coordination Sequence:
#
# PCOD8060172 Si02
#       7
#     4   4   4   4   2   4   4
#     4   9  16  28  46  72 103 132 169 213 255 312
#     4   9  17  29  47  74 105 131 164 213 258 302
#     4   9  19  36  57  83 114 146 186 235 278 332
#     4  10  21  36  52  72 100 135 172 206 247 299
#     4  10  22  38  56  80 108 144 184 220 276 332
#     4   9  17  28  46  73 101 134 173 209 259 313
#     4  10  19  31  50  77 102 130 168 208 258 304
#
# _framework density 21.944913
#
# number of rings (size 3 to 8) (size 9 to 14) (size 15 to 20)
#    0.000    2.615    0.000    1.846    0.000    7.077 
#    0.000    4.615    0.000    0.000   12.000    0.000 
#    0.000    0.000    0.000    0.000    0.000    0.000 
#
# Total GULP energy -322198.551166 kJ/mol
# GULP energy per Si atom -12392.251968 kJ/mol
# Density = 2.189496 g / cm^3
# Si number density = 21.944913 Si / 1000 Ang^3
#
#
#
# Elastic Constant Matrix: (Units=GPa)
#
#
# Indices 1 2 3 4 5 6 
#
# 1 174.9500 6.0370 67.5014 0.0000 21.3537 0.0000
# 2 6.0370 66.3108 -5.5051 0.0000 15.9584 0.0000
# 3 67.5014 -5.5051 168.6930 0.0000 18.4962 0.0000
# 4 0.0000 0.0000 0.0000 -37.8105 0.0000 1.6054
# 5 21.3537 15.9584 18.4962 0.0000 49.2941 0.0000
# 6 0.0000 0.0000 0.0000 1.6054 0.0000 6.2385
#
#
#
# Elastic Compliance Matrix: (Units=1/GPa)
#
#
# Indices 1 2 3 4 5 6 
#
# 1 0.006962 -0.000387 -0.002588 0.000000 -0.001920 0.000000
# 2 -0.000387 0.016598 0.001322 0.000000 -0.005702 0.000000
# 3 -0.002588 0.001322 0.007228 0.000000 -0.002019 0.000000
# 4 0.000000 0.000000 0.000000 -0.026162 0.000000 0.006732
# 5 -0.001920 -0.005702 -0.002019 0.000000 0.023721 0.000000
# 6 0.000000 0.000000 0.000000 0.006732 0.000000 0.158563
#
#
# Mechanical properties :
#
#
# Convention : Reuss Voigt Hill
#
# Bulk Modulus (GPa) = 36.38830 60.66893 48.52862
# Shear Modulus (GPa) = 25.07819 26.33914 25.70866
#
# Velocity S-wave (km/s) = 3.38417 3.46820 3.42644
# Velocity P-wave (km/s) = 5.64693 6.61392 6.14946
#
# Compressibility (1/GPa) = 0.02748136
#
# Stress axis : x y z
#
# Youngs Moduli (GPa) = 143.63499 60.24973 138.35143
#
# Poissons Ratio (x) = 0.02330 0.35805
# Poissons Ratio (y) = 0.05554 -0.18284
# Poissons Ratio (z) = 0.37172 -0.07962
#
# Static dielectric constant tensor:
#      x y z
#    x 4.341850 0.000000 0.153170 
#    y 0.000000 4.249870 0.000000 
#    z 0.153170 0.000000 4.121450 
# 
# 
# High freq. dielectric constant tensor:
#      x y z
#    x 1.867210 0.000000 0.012010 
#    y 0.000000 1.815150 0.000000 
#    z 0.012010 0.000000 1.872830 
# 
# From -- ./inp_files/94271.got.cif
#   From: 2010.06.25/outbox.cif.g09.slc.cpg/sg10_48_cif.got.tgz:94271.got - 2010.06.27 22:07:45.
