data_PCOD8060105
_publ_section_title
;
Structure prediction by ZEFSAII (Michael W. Deem and Ramdas Pophale) SiO2 
 PCOD8060105
Probable space group: P 2/M
;
_chemical_formula_sum "Si O2"
_cell_formula_units_Z 32
_cell_length_a 15.117037
_cell_length_b 9.584826
_cell_length_c 24.138245
_cell_angle_alpha 90.000000
_cell_angle_beta 26.443910
_cell_angle_gamma 90.000000
_cell_volume 1557.507915
_symmetry_space_group_name_H-M "P 2/M"
_symmetry_group_IT_number 10
_symmetry_cell_setting 'monoclinic'
loop_
_space_group_symop_operation_xyz
x,y,z
-x,y,-z
-x,-y,-z
x,-y,z
loop_
_atom_site_type_symbol
_atom_site_label
_atom_site_fract_x
_atom_site_fract_y
_atom_site_fract_z
Si Si1 0.256856 0.840443 0.737811
Si Si2 0.171795 0.154609 0.979731
Si Si3 0.003943 0.659152 0.329405
Si Si4 0.315367 0.661209 0.990587
Si Si5 0.160900 0.338567 0.455970
Si Si6 0.110553 0.657712 0.723811
Si Si7 0.624251 0.845731 0.875632
Si Si8 0.478593 0.842183 0.717537
O O1 0.249128 0.753028 0.685047
O O2 0.439973 0.794031 0.675214
O O3 0.282820 0.000000 0.704822
O O4 0.062911 0.820125 0.884911
O O5 0.274920 0.282387 0.952593
O O6 0.260934 0.162071 0.868188
O O7 0.219279 0.000000 0.978777
O O8 0.087309 0.500000 0.279777
O O9 0.910827 0.687961 0.441333
O O10 0.848373 0.680189 0.365131
O O11 0.169700 0.773567 0.225897
O O12 0.373003 0.500000 0.956461
O O13 0.509013 0.744248 0.899693
O O14 0.123599 0.690544 0.136394
O O15 0.209325 0.500000 0.417860
O O16 0.364876 0.252603 0.336721
O O17 0.000000 0.287425 0.500000
O O18 0.157864 0.500000 0.715469
O O19 0.659743 0.000000 0.829450
O O20 0.500000 0.864883 0.000000
O O21 0.561951 0.000000 0.671270
#
# Coordination Sequence:
#
# PCOD8060105 Si02
#       8
#     4   4   4   4   4   4   4   4
#     4   9  18  34  58  87 120 152 183 226 284 344
#     4   9  18  33  55  84 118 151 187 228 277 342
#     4  10  21  39  59  78 109 151 191 237 289 338
#     4  10  19  31  49  77 114 151 185 225 277 337
#     4  10  24  44  62  82 109 147 197 246 288 333
#     4   9  18  33  54  81 111 145 183 224 278 339
#     4  11  22  33  51  82 116 147 185 230 282 343
#     4  10  21  38  60  85 114 152 193 236 288 339
#
# _framework density 20.545642000000001
#
# number of rings (size 3 to 8) (size 9 to 14) (size 15 to 20)
#    0.000    2.250    1.250    1.125    1.750    4.750 
#    0.000    0.625    0.000    7.500    0.000    0.000 
#    0.000    0.000    0.000    0.000    0.000    0.000 
#
# Total GULP energy -396522.554401 kJ/mol
# GULP energy per Si atom -12391.329825 kJ/mol
# Density = 2.049888 g / cm^3
# Si number density = 20.545642 Si / 1000 Ang^3
#
#
#
# Elastic Constant Matrix: (Units=GPa)
#
#
# Indices 1 2 3 4 5 6 
#
# 1 141.5045 56.0174 25.6204 0.0000 1.4135 0.0000
# 2 56.0174 98.7591 17.5828 0.0000 -4.2005 0.0000
# 3 25.6204 17.5828 33.2676 0.0000 7.2461 0.0000
# 4 0.0000 0.0000 0.0000 15.7832 0.0000 -2.6978
# 5 1.4135 -4.2005 7.2461 0.0000 25.8429 0.0000
# 6 0.0000 0.0000 0.0000 -2.6978 0.0000 36.6025
#
#
#
# Elastic Compliance Matrix: (Units=1/GPa)
#
#
# Indices 1 2 3 4 5 6 
#
# 1 0.009842 -0.004660 -0.005149 0.000000 0.000148 0.000000
# 2 -0.004660 0.013726 -0.004481 0.000000 0.003742 0.000000
# 3 -0.005149 -0.004481 0.038864 0.000000 -0.011344 0.000000
# 4 0.000000 0.000000 0.000000 0.064167 0.000000 0.004729
# 5 0.000148 0.003742 -0.011344 0.000000 0.042476 0.000000
# 6 0.000000 0.000000 0.000000 0.004729 0.000000 0.027669
#
#
# Mechanical properties :
#
#
# Convention : Reuss Voigt Hill
#
# Bulk Modulus (GPa) = 29.54028 52.44140 40.99084
# Shear Modulus (GPa) = 21.13197 27.26642 24.19920
#
# Velocity S-wave (km/s) = 3.21056 3.64691 3.43567
# Velocity P-wave (km/s) = 5.30591 6.58126 5.97770
#
# Compressibility (1/GPa) = 0.03385209
#
# Stress axis : x y z
#
# Youngs Moduli (GPa) = 101.60134 72.85654 25.73066
#
# Poissons Ratio (x) = 0.33948 0.13250
# Poissons Ratio (y) = 0.47343 0.11530
# Poissons Ratio (z) = 0.52319 0.32647
#
# Static dielectric constant tensor:
#      x y z
#    x 3.450180 0.000000 0.294640 
#    y 0.000000 3.780040 0.000000 
#    z 0.294640 0.000000 3.251910 
# 
# 
# High freq. dielectric constant tensor:
#      x y z
#    x 1.809220 0.000000 0.005560 
#    y 0.000000 1.803670 0.000000 
#    z 0.005560 0.000000 1.773130 
# 
# From -- ./inp_files/89576.got.cif
#   From: 2010.06.25/outbox.cif.g09.slc.cpg/sg10_45_cif.got.tgz:89576.got - 2010.06.27 22:07:45.
