data_PCOD8060518
_publ_section_title
;
Structure prediction by ZEFSAII (Michael W. Deem and Ramdas Pophale) SiO2 
 PCOD8060518
Probable space group: P 2/M
;
_chemical_formula_sum "Si O2"
_cell_formula_units_Z 28
_cell_length_a 12.168730
_cell_length_b 9.467552
_cell_length_c 15.231937
_cell_angle_alpha 90.000000
_cell_angle_beta 120.388013
_cell_angle_gamma 90.000000
_cell_volume 1513.761202
_symmetry_space_group_name_H-M "P 2/M"
_symmetry_group_IT_number 10
_symmetry_cell_setting 'monoclinic'
loop_
_space_group_symop_operation_xyz
x,y,z
-x,y,-z
-x,-y,-z
x,-y,z
loop_
_atom_site_type_symbol
_atom_site_label
_atom_site_fract_x
_atom_site_fract_y
_atom_site_fract_z
Si Si1 0.234233 0.341193 0.785297
Si Si2 0.083145 0.832455 0.116535
Si Si3 0.635640 0.834429 0.300317
Si Si4 0.644674 0.163724 0.830449
Si Si5 0.122054 0.836992 0.498310
Si Si6 0.385283 0.657610 0.011841
Si Si7 0.002417 0.163836 0.274517
O O1 0.216904 0.500000 0.740632
O O2 0.347865 0.260507 0.780127
O O3 0.262270 0.348084 0.899906
O O4 0.107942 0.250306 0.722326
O O5 0.230869 0.782571 0.171823
O O6 0.034233 0.774366 0.190866
O O7 0.073086 0.000000 0.113378
O O8 0.000000 0.773324 0.000000
O O9 0.489491 0.807692 0.274698
O O10 0.740731 0.778340 0.412856
O O11 0.652631 0.000000 0.284525
O O12 0.661788 0.000000 0.858169
O O13 0.647228 0.238652 0.924119
O O14 0.118189 0.816408 0.390923
O O15 0.000000 0.767033 0.500000
O O16 0.120184 0.000000 0.522991
O O17 0.419484 0.500000 0.060897
O O18 0.500000 0.718190 0.000000
O O19 0.962258 0.000000 0.251776
#
# Coordination Sequence:
#
# PCOD8060518 Si02
#       7
#     4   4   4   4   4   4   4
#     4  11  21  32  49  75 106 133 167 212 258 306
#     4   9  18  33  52  76 104 132 170 217 258 299
#     4  10  19  32  50  74 104 133 168 211 255 306
#     4  10  20  33  52  77 102 132 175 219 250 296
#     4   9  16  29  50  76 103 133 171 209 254 311
#     4  10  20  33  47  69 104 138 165 201 257 316
#     4  10  19  34  56  74  99 140 175 207 258 308
#
# _framework density 18.496974000000002
#
# number of rings (size 3 to 8) (size 9 to 14) (size 15 to 20)
#    0.000    2.143    2.857    1.286    0.000    2.571 
#    0.000    2.857    0.000    6.857    0.000    0.000 
#    0.000    3.429    0.000    0.000    0.000    0.000 
#
# Total GULP energy -346938.117607 kJ/mol
# GULP energy per Si atom -12390.647057 kJ/mol
# Density = 1.845487 g / cm^3
# Si number density = 18.496974 Si / 1000 Ang^3
#
#
#
# Elastic Constant Matrix: (Units=GPa)
#
#
# Indices 1 2 3 4 5 6 
#
# 1 108.9980 25.8122 38.2619 0.0000 12.6069 0.0000
# 2 25.8122 44.3362 13.2797 0.0000 2.6095 0.0000
# 3 38.2619 13.2797 96.2942 0.0000 9.2203 0.0000
# 4 0.0000 0.0000 0.0000 8.3057 0.0000 5.0385
# 5 12.6069 2.6095 9.2203 0.0000 30.8237 0.0000
# 6 0.0000 0.0000 0.0000 5.0385 0.0000 5.9233
#
#
#
# Elastic Compliance Matrix: (Units=1/GPa)
#
#
# Indices 1 2 3 4 5 6 
#
# 1 0.012259 -0.005816 -0.003743 0.000000 -0.003402 0.000000
# 2 -0.005816 0.026319 -0.001372 0.000000 0.000561 0.000000
# 3 -0.003743 -0.001372 0.012255 0.000000 -0.002019 0.000000
# 4 0.000000 0.000000 0.000000 0.248770 0.000000 -0.211610
# 5 -0.003402 0.000561 -0.002019 0.000000 0.034390 0.000000
# 6 0.000000 0.000000 0.000000 -0.211610 0.000000 0.348826
#
#
# Mechanical properties :
#
#
# Convention : Reuss Voigt Hill
#
# Bulk Modulus (GPa) = 34.51872 44.92620 39.72246
# Shear Modulus (GPa) = 6.99947 20.49551 13.74749
#
# Velocity S-wave (km/s) = 1.94739 3.33234 2.72918
# Velocity P-wave (km/s) = 4.87430 6.25677 5.60829
#
# Compressibility (1/GPa) = 0.02896979
#
# Stress axis : x y z
#
# Youngs Moduli (GPa) = 81.57110 37.99554 81.60075
#
# Poissons Ratio (x) = 0.22097 0.30546
# Poissons Ratio (y) = 0.47440 0.11199
# Poissons Ratio (z) = 0.30535 0.05215
#
# Static dielectric constant tensor:
#      x y z
#    x 3.547660 0.000000 0.221870 
#    y 0.000000 3.117380 0.000000 
#    z 0.221870 0.000000 3.496110 
# 
# 
# High freq. dielectric constant tensor:
#      x y z
#    x 1.708480 0.000000 0.019070 
#    y 0.000000 1.681760 0.000000 
#    z 0.019070 0.000000 1.715730 
# 
# From -- ./inp_files/49348.got.cif
#   From: 2010.06.25/outbox.cif.g09.slc.cpg/sg10_25_cif.got.tgz:49348.got - 2010.06.27 22:07:45.
