data_PCOD8060395
_publ_section_title
;
Structure prediction by ZEFSAII (Michael W. Deem and Ramdas Pophale) SiO2 
 PCOD8060395
Probable space group: P 2/M
;
_chemical_formula_sum "Si O2"
_cell_formula_units_Z 32
_cell_length_a 20.498255
_cell_length_b 9.144922
_cell_length_c 19.032274
_cell_angle_alpha 90.000000
_cell_angle_beta 143.371541
_cell_angle_gamma 90.000000
_cell_volume 2128.570212
_symmetry_space_group_name_H-M "P 2/M"
_symmetry_group_IT_number 10
_symmetry_cell_setting 'monoclinic'
loop_
_space_group_symop_operation_xyz
x,y,z
-x,y,-z
-x,-y,-z
x,-y,z
loop_
_atom_site_type_symbol
_atom_site_label
_atom_site_fract_x
_atom_site_fract_y
_atom_site_fract_z
Si Si1 0.032368 0.827759 0.606525
Si Si2 0.257024 0.668162 0.828539
Si Si3 0.494264 0.163497 0.277440
Si Si4 0.318700 0.666731 0.514487
Si Si5 0.450799 0.165874 0.527880
Si Si6 0.164547 0.668704 0.500481
Si Si7 0.364110 0.332105 0.772219
Si Si8 0.413576 0.169332 0.065167
O O1 0.145736 0.755004 0.723884
O O2 0.000000 0.781829 0.500000
O O3 0.940152 0.769916 0.579750
O O4 0.043647 0.000000 0.625136
O O5 0.229298 0.500000 0.820354
O O6 0.332918 0.684459 0.826571
O O7 0.320833 0.734432 0.949778
O O8 0.592281 0.280069 0.349949
O O9 0.459330 0.176794 0.330288
O O10 0.542355 0.000000 0.307263
O O11 0.399034 0.189628 0.137796
O O12 0.340238 0.500000 0.514433
O O13 0.338600 0.756304 0.458810
O O14 0.201746 0.689482 0.450963
O O15 0.500000 0.240988 0.500000
O O16 0.418965 0.000000 0.482051
O O17 0.133866 0.500000 0.488706
O O18 0.260175 0.717406 0.636369
O O19 0.396924 0.500000 0.783394
O O20 0.465107 0.223889 0.848409
O O21 0.401630 0.000000 0.032205
#
# Coordination Sequence:
#
# PCOD8060395 Si02
#       8
#     4   4   4   4   4   4   4   4
#     4  11  23  36  51  69  88 113 153 205 251 286
#     4  11  23  36  49  63  86 119 156 196 238 286
#     4   8  16  28  41  61  90 123 150 176 219 265
#     4   9  16  26  43  67  92 119 152 187 219 263
#     4   8  14  26  43  64  95 129 155 179 217 272
#     4  10  19  32  50  68  91 122 157 193 236 286
#     4  10  19  32  48  66  87 117 153 190 235 285
#     4  11  21  32  47  66  93 121 152 195 234 275
#
# _framework density 15.033566
#
# number of rings (size 3 to 8) (size 9 to 14) (size 15 to 20)
#    0.750    1.500    2.500    1.500    0.000    5.250 
#    0.000    0.000    0.000    0.000    0.000    0.000 
#    0.000    1.000    0.000   11.500    0.000    2.875 
#
# Total GULP energy -396426.160165 kJ/mol
# GULP energy per Si atom -12388.317505 kJ/mol
# Density = 1.499935 g / cm^3
# Si number density = 15.033566 Si / 1000 Ang^3
#
#
#
# Elastic Constant Matrix: (Units=GPa)
#
#
# Indices 1 2 3 4 5 6 
#
# 1 88.9706 42.7790 33.5637 0.0000 -6.4583 0.0000
# 2 42.7790 64.7667 28.1500 0.0000 3.6207 0.0000
# 3 33.5637 28.1500 67.1394 0.0000 2.4180 0.0000
# 4 0.0000 0.0000 0.0000 24.2112 0.0000 1.7942
# 5 -6.4583 3.6207 2.4180 0.0000 15.6769 0.0000
# 6 0.0000 0.0000 0.0000 1.7942 0.0000 20.7422
#
#
#
# Elastic Compliance Matrix: (Units=1/GPa)
#
#
# Indices 1 2 3 4 5 6 
#
# 1 0.019493 -0.011129 -0.005491 0.000000 0.011448 0.000000
# 2 -0.011129 0.025391 -0.004732 0.000000 -0.009719 0.000000
# 3 -0.005491 -0.004732 0.019776 0.000000 -0.004219 0.000000
# 4 0.000000 0.000000 0.000000 0.041570 0.000000 -0.003596
# 5 0.011448 -0.009719 -0.004219 0.000000 0.071399 0.000000
# 6 0.000000 0.000000 0.000000 -0.003596 0.000000 0.048522
#
#
# Mechanical properties :
#
#
# Convention : Reuss Voigt Hill
#
# Bulk Modulus (GPa) = 45.54746 47.76245 46.65496
# Shear Modulus (GPa) = 18.10460 19.88499 18.99480
#
# Velocity S-wave (km/s) = 3.47404 3.64085 3.55842
# Velocity P-wave (km/s) = 6.81578 7.03661 6.92708
#
# Compressibility (1/GPa) = 0.02195512
#
# Stress axis : x y z
#
# Youngs Moduli (GPa) = 51.30049 39.38437 50.56742
#
# Poissons Ratio (x) = 0.43829 0.27767
# Poissons Ratio (y) = 0.57090 0.23931
# Poissons Ratio (z) = 0.28169 0.18638
#
# Static dielectric constant tensor:
#      x y z
#    x 2.898780 0.000000 -0.140890 
#    y 0.000000 2.977260 0.000000 
#    z -0.140890 0.000000 2.700660 
# 
# 
# High freq. dielectric constant tensor:
#      x y z
#    x 1.562800 0.000000 -0.009530 
#    y 0.000000 1.588770 0.000000 
#    z -0.009530 0.000000 1.539180 
# 
# From -- ./inp_files/86151.got.cif
#   From: 2010.06.25/outbox.cif.g09.slc.cpg/sg10_44_cif.got.tgz:86151.got - 2010.06.27 22:07:45.
