data_PCOD8060028
_publ_section_title
;
Structure prediction by ZEFSAII (Michael W. Deem and Ramdas Pophale) SiO2 
 PCOD8060028
Probable space group: P 2/M
;
_chemical_formula_sum "Si O2"
_cell_formula_units_Z 28
_cell_length_a 21.259903
_cell_length_b 8.794834
_cell_length_c 9.867746
_cell_angle_alpha 90.000000
_cell_angle_beta 55.416910
_cell_angle_gamma 90.000000
_cell_volume 1519.032523
_symmetry_space_group_name_H-M "P 2/M"
_symmetry_group_IT_number 10
_symmetry_cell_setting 'monoclinic'
loop_
_space_group_symop_operation_xyz
x,y,z
-x,y,-z
-x,-y,-z
x,-y,z
loop_
_atom_site_type_symbol
_atom_site_label
_atom_site_fract_x
_atom_site_fract_y
_atom_site_fract_z
Si Si1 0.328083 0.317576 0.085217
Si Si2 0.972657 0.675017 0.685300
Si Si3 0.059915 0.821823 0.814019
Si Si4 0.491379 0.665781 0.850978
Si Si5 0.786542 0.319507 0.275956
Si Si6 0.344969 0.317900 0.368140
Si Si7 0.802374 0.680578 0.952377
O O1 0.330680 0.500000 0.077554
O O2 0.409300 0.252242 0.925739
O O3 0.259506 0.251769 0.077267
O O4 0.316217 0.262624 0.254899
O O5 0.978141 0.500000 0.726550
O O6 0.000000 0.694656 0.500000
O O7 0.028048 0.777967 0.706716
O O8 0.886183 0.736116 0.805369
O O9 0.138987 0.736974 0.738375
O O10 0.074323 0.000000 0.805839
O O11 0.000000 0.765606 0.000000
O O12 0.487759 0.500000 0.785395
O O13 0.569351 0.748798 0.703653
O O14 0.500000 0.644461 0.000000
O O15 0.787948 0.500000 0.275767
O O16 0.712769 0.256839 0.446942
O O17 0.783963 0.257341 0.125386
O O18 0.349355 0.500000 0.362860
O O19 0.798323 0.500000 0.954079
#
# Coordination Sequence:
#
# PCOD8060028 Si02
#       7
#     4   4   4   4   4   4   4
#     4   8  13  22  38  60  92 128 157 189 233 285
#     4  10  21  35  54  77 100 127 163 203 247 295
#     4  11  23  38  54  71  96 132 169 201 246 298
#     4   7  10  19  34  56  89 126 156 184 227 282
#     4  10  19  31  49  71  97 124 159 205 245 284
#     4   8  14  23  40  65  91 123 160 193 231 284
#     4   9  17  28  41  65  96 124 154 195 242 283
#
# _framework density 18.432784999999999
#
# number of rings (size 3 to 8) (size 9 to 14) (size 15 to 20)
#    0.000    3.000    1.429    2.143    2.000    0.857 
#    0.000    0.714    0.000    4.286    0.000    0.000 
#    0.000    8.571    0.000    0.000    0.000    0.000 
#
# Total GULP energy -346946.340283 kJ/mol
# GULP energy per Si atom -12390.940724 kJ/mol
# Density = 1.839083 g / cm^3
# Si number density = 18.432785 Si / 1000 Ang^3
#
#
#
# Elastic Constant Matrix: (Units=GPa)
#
#
# Indices 1 2 3 4 5 6 
#
# 1 125.7156 4.7412 73.9543 0.0000 -11.4080 0.0000
# 2 4.7412 5.3980 11.1128 0.0000 -1.3395 0.0000
# 3 73.9543 11.1128 144.3729 0.0000 -23.4684 0.0000
# 4 0.0000 0.0000 0.0000 6.1847 0.0000 1.7698
# 5 -11.4080 -1.3395 -23.4684 0.0000 32.7611 0.0000
# 6 0.0000 0.0000 0.0000 1.7698 0.0000 1.3725
#
#
#
# Elastic Compliance Matrix: (Units=1/GPa)
#
#
# Indices 1 2 3 4 5 6 
#
# 1 0.011413 0.002419 -0.006078 0.000000 -0.000281 0.000000
# 2 0.002419 0.221015 -0.018839 0.000000 -0.003617 0.000000
# 3 -0.006078 -0.018839 0.012473 0.000000 0.006049 0.000000
# 4 0.000000 0.000000 0.000000 0.256241 0.000000 -0.330417
# 5 -0.000281 -0.003617 0.006049 0.000000 0.034611 0.000000
# 6 0.000000 0.000000 0.000000 -0.330417 0.000000 1.154669
#
#
# Mechanical properties :
#
#
# Convention : Reuss Voigt Hill
#
# Bulk Modulus (GPa) = 5.00239 50.56703 27.78471
# Shear Modulus (GPa) = 2.77461 20.44220 11.60840
#
# Velocity S-wave (km/s) = 1.22822 3.33380 2.51224
# Velocity P-wave (km/s) = 2.17511 6.50474 4.84989
#
# Compressibility (1/GPa) = 0.19990455
#
# Stress axis : x y z
#
# Youngs Moduli (GPa) = 87.61612 4.52458 80.17033
#
# Poissons Ratio (x) = -0.01095 0.48730
# Poissons Ratio (y) = -0.21195 1.51035
# Poissons Ratio (z) = 0.53256 0.08524
#
# Static dielectric constant tensor:
#      x y z
#    x 3.715450 0.000000 -0.264470 
#    y 0.000000 2.712140 0.000000 
#    z -0.264470 0.000000 3.623020 
# 
# 
# High freq. dielectric constant tensor:
#      x y z
#    x 1.724910 0.000000 -0.017170 
#    y 0.000000 1.641350 0.000000 
#    z -0.017170 0.000000 1.716170 
# 
# From -- ./inp_files/34419.got.cif
#   From: 2010.06.25/outbox.cif.g09.slc.cpg/sg10_18_cif.got.tgz:34419.got - 2010.06.27 22:07:45.
