data_PCOD8060923
_publ_section_title
;
Structure prediction by ZEFSAII (Michael W. Deem and Ramdas Pophale) SiO2 
 PCOD8060923
Probable space group: P 2/M
;
_chemical_formula_sum "Si O2"
_cell_formula_units_Z 24
_cell_length_a 12.359607
_cell_length_b 9.629777
_cell_length_c 23.842230
_cell_angle_alpha 90.000000
_cell_angle_beta 150.821077
_cell_angle_gamma 90.000000
_cell_volume 1383.492124
_symmetry_space_group_name_H-M "P 2/M"
_symmetry_group_IT_number 10
_symmetry_cell_setting 'monoclinic'
loop_
_space_group_symop_operation_xyz
x,y,z
-x,y,-z
-x,-y,-z
x,-y,z
loop_
_atom_site_type_symbol
_atom_site_label
_atom_site_fract_x
_atom_site_fract_y
_atom_site_fract_z
Si Si1 0.661858 0.659298 0.524028
Si Si2 0.307329 0.657942 0.273100
Si Si3 0.086635 0.839919 0.861616
Si Si4 0.087523 0.840419 0.733845
Si Si5 0.255691 0.661579 0.122578
Si Si6 0.456245 0.837633 0.116955
O O1 0.500000 0.714085 0.500000
O O2 0.726359 0.500000 0.565448
O O3 0.543051 0.676252 0.410229
O O4 0.883428 0.747907 0.621978
O O5 0.220980 0.500000 0.238987
O O6 0.130932 0.753357 0.223847
O O7 0.336250 0.698854 0.221451
O O8 0.156586 0.812778 0.829306
O O9 0.028646 0.000000 0.846092
O O10 0.288412 0.791119 0.992015
O O11 0.296339 0.800623 0.790197
O O12 0.018730 0.000000 0.694226
O O13 0.287807 0.500000 0.122610
O O14 0.407875 0.751267 0.150709
O O15 0.000000 0.705835 0.000000
O O16 0.430132 0.000000 0.118453
#
# Coordination Sequence:
#
# PCOD8060923 Si02
#       6
#     4   4   4   4   4   4
#     4  10  20  35  56  79 106 140 178 220 263 313
#     4  10  20  35  54  80 110 136 172 221 268 310
#     4  10  19  32  54  81 109 139 172 214 267 320
#     4  10  21  36  54  79 111 143 176 217 265 316
#     4  10  20  35  56  79 106 140 178 220 263 313
#     4  10  21  36  54  79 111 143 176 217 265 316
#
# _framework density 17.347407
#
# number of rings (size 3 to 8) (size 9 to 14) (size 15 to 20)
#    0.000    2.000    3.333    0.500    0.000    4.667 
#    0.000    0.833    0.000    8.000    0.000    0.000 
#    0.000    0.000    0.000    0.000    0.000    0.000 
#
# Total GULP energy -297689.201664 kJ/mol
# GULP energy per Si atom -12403.716736 kJ/mol
# Density = 1.730792 g / cm^3
# Si number density = 17.347407 Si / 1000 Ang^3
#
#
#
# Elastic Constant Matrix: (Units=GPa)
#
#
# Indices 1 2 3 4 5 6 
#
# 1 123.9980 50.0081 45.5158 0.0000 -0.4705 0.0000
# 2 50.0081 52.7951 30.3664 0.0000 8.1454 0.0000
# 3 45.5158 30.3664 81.4978 0.0000 -3.3171 0.0000
# 4 0.0000 0.0000 0.0000 24.5444 0.0000 -20.0716
# 5 -0.4705 8.1454 -3.3171 0.0000 32.5666 0.0000
# 6 0.0000 0.0000 0.0000 -20.0716 0.0000 -89.0596
#
#
#
# Elastic Compliance Matrix: (Units=1/GPa)
#
#
# Indices 1 2 3 4 5 6 
#
# 1 0.014080 -0.011858 -0.003330 0.000000 0.002830 0.000000
# 2 -0.011858 0.035782 -0.007111 0.000000 -0.009845 0.000000
# 3 -0.003330 -0.007111 0.016920 0.000000 0.003454 0.000000
# 4 0.000000 0.000000 0.000000 0.034402 0.000000 -0.007753
# 5 0.002830 -0.009845 0.003454 0.000000 0.033561 0.000000
# 6 0.000000 0.000000 0.000000 -0.007753 0.000000 -0.009481
#
#
# Mechanical properties :
#
#
# Convention : Reuss Voigt Hill
#
# Bulk Modulus (GPa) = 45.07605 56.67460 50.87532
# Shear Modulus (GPa) = 28.20762 2.43700 15.32231
#
# Velocity S-wave (km/s) = 4.03680 1.18654 2.97520
# Velocity P-wave (km/s) = 6.91147 5.88374 6.41821
#
# Compressibility (1/GPa) = 0.02218473
#
# Stress axis : x y z
#
# Youngs Moduli (GPa) = 71.02232 27.94698 59.10141
#
# Poissons Ratio (x) = 0.33140 0.19681
# Poissons Ratio (y) = 0.84219 0.42025
# Poissons Ratio (z) = 0.23651 0.19872
#
# Static dielectric constant tensor:
#      x y z
#    x 3.213280 0.000000 -0.144210 
#    y 0.000000 3.215780 0.000000 
#    z -0.144210 0.000000 3.240440 
# 
# 
# High freq. dielectric constant tensor:
#      x y z
#    x 1.667870 0.000000 -0.009900 
#    y 0.000000 1.668670 0.000000 
#    z -0.009900 0.000000 1.669960 
# 
# From -- ./inp_files/45009.got.cif
#   From: 2010.06.25/outbox.cif.g09.slc.cpg/sg10_23_cif.got.tgz:45009.got - 2010.06.27 22:07:45.
