data_PCOD8060089
_publ_section_title
;
Structure prediction by ZEFSAII (Michael W. Deem and Ramdas Pophale) SiO2 
 PCOD8060089
Probable space group: P 2/M
;
_chemical_formula_sum "Si O2"
_cell_formula_units_Z 28
_cell_length_a 21.346263
_cell_length_b 13.709675
_cell_length_c 5.229029
_cell_angle_alpha 90.000000
_cell_angle_beta 82.559985
_cell_angle_gamma 90.000000
_cell_volume 1517.393605
_symmetry_space_group_name_H-M "P 2/M"
_symmetry_group_IT_number 10
_symmetry_cell_setting 'monoclinic'
loop_
_space_group_symop_operation_xyz
x,y,z
-x,y,-z
-x,-y,-z
x,-y,z
loop_
_atom_site_type_symbol
_atom_site_label
_atom_site_fract_x
_atom_site_fract_y
_atom_site_fract_z
Si Si1 0.430354 0.886514 0.049333
Si Si2 0.646109 0.112819 0.399900
Si Si3 0.717909 0.293710 0.443032
Si Si4 0.706846 0.391810 0.954366
Si Si5 0.925243 0.774411 0.038884
Si Si6 0.169985 0.610537 0.842355
Si Si7 0.074933 0.890413 0.461088
O O1 0.401684 0.866942 0.342683
O O2 0.438050 0.000000 0.989042
O O3 0.500000 0.837395 0.000000
O O4 0.385885 0.847973 0.843891
O O5 0.709364 0.177095 0.414242
O O6 0.667134 0.000000 0.375318
O O7 0.679469 0.347132 0.232783
O O8 0.791467 0.327619 0.395246
O O9 0.686671 0.325838 0.726161
O O10 0.679476 0.500000 0.928500
O O11 0.783814 0.394617 0.935489
O O12 0.894280 0.667148 0.057377
O O13 0.902131 0.835991 0.295693
O O14 0.901644 0.832038 0.800626
O O15 0.000000 0.758101 0.000000
O O16 0.153971 0.500000 0.756882
O O17 0.000000 0.896582 0.500000
O O18 0.103293 0.000000 0.440768
#
# Coordination Sequence:
#
# PCOD8060089 Si02
#       7
#     4   4   4   4   4   4   4
#     4   9  17  30  49  74 107 146 178 202 239 293
#     4  10  19  31  49  75 110 144 171 207 248 291
#     4  10  19  33  52  73 100 135 174 211 251 298
#     4   9  18  33  53  72  93 125 169 216 261 302
#     4  10  20  33  54  80 102 129 166 209 259 314
#     4   9  21  36  55  73 101 132 165 216 269 315
#     4   9  18  34  53  72  97 128 162 198 236 290
#
# _framework density 18.452694999999999
#
# number of rings (size 3 to 8) (size 9 to 14) (size 15 to 20)
#    0.857    1.714    0.000    2.571    2.000    3.714 
#    0.000    1.429    0.000    2.571    0.000    0.000 
#    0.000   66.286    0.000    0.000    0.000    0.000 
#
# Total GULP energy -346904.866689 kJ/mol
# GULP energy per Si atom -12389.459525 kJ/mol
# Density = 1.841070 g / cm^3
# Si number density = 18.452695 Si / 1000 Ang^3
#
#
#
# Elastic Constant Matrix: (Units=GPa)
#
#
# Indices 1 2 3 4 5 6 
#
# 1 29.4798 36.6311 9.6369 0.0000 -1.3719 0.0000
# 2 36.6311 114.9249 25.5230 0.0000 0.6807 0.0000
# 3 9.6369 25.5230 116.6909 0.0000 16.1519 0.0000
# 4 0.0000 0.0000 0.0000 21.5748 0.0000 5.2461
# 5 -1.3719 0.6807 16.1519 0.0000 16.1176 0.0000
# 6 0.0000 0.0000 0.0000 5.2461 0.0000 14.3692
#
#
#
# Elastic Compliance Matrix: (Units=1/GPa)
#
#
# Indices 1 2 3 4 5 6 
#
# 1 0.056988 -0.017799 -0.001845 0.000000 0.007451 0.000000
# 2 -0.017799 0.014754 -0.001696 0.000000 -0.000438 0.000000
# 3 -0.001845 -0.001696 0.010571 0.000000 -0.010679 0.000000
# 4 0.000000 0.000000 0.000000 0.050866 0.000000 -0.018571
# 5 0.007451 -0.000438 -0.010679 0.000000 0.073398 0.000000
# 6 0.000000 0.000000 0.000000 -0.018571 0.000000 0.076373
#
#
# Mechanical properties :
#
#
# Convention : Reuss Voigt Hill
#
# Bulk Modulus (GPa) = 25.23145 44.96419 35.09782
# Shear Modulus (GPa) = 14.75614 23.03261 18.89438
#
# Velocity S-wave (km/s) = 2.83092 3.53682 3.20337
# Velocity P-wave (km/s) = 4.93850 6.41085 5.72222
#
# Compressibility (1/GPa) = 0.03963308
#
# Stress axis : x y z
#
# Youngs Moduli (GPa) = 17.54758 67.77881 94.59658
#
# Poissons Ratio (x) = 1.20638 0.17450
# Poissons Ratio (y) = 0.31233 0.16048
# Poissons Ratio (z) = 0.03237 0.11498
#
# Static dielectric constant tensor:
#      x y z
#    x 2.986410 0.000000 0.124350 
#    y 0.000000 3.324970 0.000000 
#    z 0.124350 0.000000 3.446500 
# 
# 
# High freq. dielectric constant tensor:
#      x y z
#    x 1.663730 0.000000 0.010510 
#    y 0.000000 1.709170 0.000000 
#    z 0.010510 0.000000 1.727010 
# 
# From -- ./inp_files/13063.got.cif
#   From: 2010.06.25/outbox.cif.g09.slc.cpg/sg10_7_cif.got.tgz:13063.got - 2010.06.27 22:07:45.
