data_PCOD8060451
_publ_section_title
;
Structure prediction by ZEFSAII (Michael W. Deem and Ramdas Pophale) SiO2 
 PCOD8060451
Probable space group: P 2/M
;
_chemical_formula_sum "Si O2"
_cell_formula_units_Z 28
_cell_length_a 9.506920
_cell_length_b 9.206530
_cell_length_c 30.986812
_cell_angle_alpha 90.000000
_cell_angle_beta 35.585936
_cell_angle_gamma 90.000000
_cell_volume 1578.259839
_symmetry_space_group_name_H-M "P 2/M"
_symmetry_group_IT_number 10
_symmetry_cell_setting 'monoclinic'
loop_
_space_group_symop_operation_xyz
x,y,z
-x,y,-z
-x,-y,-z
x,-y,z
loop_
_atom_site_type_symbol
_atom_site_label
_atom_site_fract_x
_atom_site_fract_y
_atom_site_fract_z
Si Si1 0.689589 0.669293 0.694115
Si Si2 0.959218 0.328919 0.941120
Si Si3 0.623481 0.328780 0.099097
Si Si4 0.745156 0.833979 0.301627
Si Si5 0.792793 0.170131 0.585056
Si Si6 0.192332 0.830548 0.811461
Si Si7 0.125956 0.667808 0.258395
O O1 0.639587 0.500000 0.697773
O O2 0.836279 0.739291 0.617816
O O3 0.435650 0.748604 0.764607
O O4 0.851237 0.691923 0.696207
O O5 0.973738 0.500000 0.927572
O O6 0.181950 0.272552 0.914766
O O7 0.969820 0.239020 0.893832
O O8 0.711003 0.290563 0.028634
O O9 0.613976 0.500000 0.107801
O O10 0.359092 0.263381 0.175309
O O11 0.464692 0.786771 0.371246
O O12 0.861478 0.806095 0.225576
O O13 0.882133 0.742820 0.303500
O O14 0.769151 0.000000 0.309361
O O15 0.000000 0.213649 0.500000
O O16 0.797308 0.000000 0.595782
O O17 0.222583 0.000000 0.814471
O O18 0.103562 0.500000 0.252194
#
# Coordination Sequence:
#
# PCOD8060451 Si02
#       7
#     4   4   4   4   4   4   4
#     4  10  19  32  54  80 103 131 170 210 248 296
#     4   9  15  28  50  71  95 130 173 220 260 293
#     4   8  15  28  47  71  99 131 168 214 259 298
#     4   9  20  35  51  73 101 134 168 203 249 302
#     4   9  19  38  60  80 104 133 166 204 245 295
#     4  10  19  32  49  72 102 134 174 217 254 301
#     4  10  19  33  51  75 104 134 169 209 254 302
#
# _framework density 17.741057000000001
#
# number of rings (size 3 to 8) (size 9 to 14) (size 15 to 20)
#    0.000    2.714    1.429    2.571    0.000    4.286 
#    0.000    3.571    0.000    8.571    0.000    0.000 
#    0.000    0.000    0.000    0.000    0.000    0.000 
#
# Total GULP energy -347124.924553 kJ/mol
# GULP energy per Si atom -12397.318734 kJ/mol
# Density = 1.770068 g / cm^3
# Si number density = 17.741057 Si / 1000 Ang^3
#
#
#
# Elastic Constant Matrix: (Units=GPa)
#
#
# Indices 1 2 3 4 5 6 
#
# 1 89.2621 49.2837 47.7936 0.0000 0.2835 0.0000
# 2 49.2837 76.4695 47.4335 0.0000 9.6631 0.0000
# 3 47.7936 47.4335 129.9917 0.0000 11.7865 0.0000
# 4 0.0000 0.0000 0.0000 13.9418 0.0000 -1.3711
# 5 0.2835 9.6631 11.7865 0.0000 19.3528 0.0000
# 6 0.0000 0.0000 0.0000 -1.3711 0.0000 26.8421
#
#
#
# Elastic Compliance Matrix: (Units=1/GPa)
#
#
# Indices 1 2 3 4 5 6 
#
# 1 0.019288 -0.011063 -0.003736 0.000000 0.007517 0.000000
# 2 -0.011063 0.023710 -0.003732 0.000000 -0.009404 0.000000
# 3 -0.003736 -0.003732 0.010854 0.000000 -0.004692 0.000000
# 4 0.000000 0.000000 0.000000 0.072089 0.000000 0.003682
# 5 0.007517 -0.009404 -0.004692 0.000000 0.059115 0.000000
# 6 0.000000 0.000000 0.000000 0.003682 0.000000 0.037443
#
#
# Mechanical properties :
#
#
# Convention : Reuss Voigt Hill
#
# Bulk Modulus (GPa) = 59.55968 64.97166 62.26567
# Shear Modulus (GPa) = 18.85678 22.10818 20.48248
#
# Velocity S-wave (km/s) = 3.26374 3.53393 3.40152
# Velocity P-wave (km/s) = 6.91716 7.30433 7.11338
#
# Compressibility (1/GPa) = 0.01678988
#
# Stress axis : x y z
#
# Youngs Moduli (GPa) = 51.84648 42.17606 92.13602
#
# Poissons Ratio (x) = 0.46660 0.34423
# Poissons Ratio (y) = 0.57358 0.34381
# Poissons Ratio (z) = 0.19371 0.15738
#
# Static dielectric constant tensor:
#      x y z
#    x 3.059290 0.000000 0.104590 
#    y 0.000000 3.141500 0.000000 
#    z 0.104590 0.000000 3.430690 
# 
# 
# High freq. dielectric constant tensor:
#      x y z
#    x 1.664420 0.000000 0.013320 
#    y 0.000000 1.672610 0.000000 
#    z 0.013320 0.000000 1.685020 
# 
# From -- ./inp_files/37958.got.cif
#   From: 2010.06.25/outbox.cif.g09.slc.cpg/sg10_19_cif.got.tgz:37958.got - 2010.06.27 22:07:45.
