data_PCOD8060632
_publ_section_title
;
Structure prediction by ZEFSAII (Michael W. Deem and Ramdas Pophale) SiO2 
 PCOD8060632
Probable space group: P 2/M
;
_chemical_formula_sum "Si O2"
_cell_formula_units_Z 32
_cell_length_a 26.187973
_cell_length_b 8.644930
_cell_length_c 20.272817
_cell_angle_alpha 90.000000
_cell_angle_beta 158.737759
_cell_angle_gamma 90.000000
_cell_volume 1664.369536
_symmetry_space_group_name_H-M "P 2/M"
_symmetry_group_IT_number 10
_symmetry_cell_setting 'monoclinic'
loop_
_space_group_symop_operation_xyz
x,y,z
-x,y,-z
-x,-y,-z
x,-y,z
loop_
_atom_site_type_symbol
_atom_site_label
_atom_site_fract_x
_atom_site_fract_y
_atom_site_fract_z
Si Si1 0.342135 0.819082 0.287739
Si Si2 0.383404 0.316434 0.714261
Si Si3 0.813239 0.684584 0.405790
Si Si4 0.841669 0.816116 0.811047
Si Si5 0.635179 0.182440 0.449695
Si Si6 0.691735 0.315595 0.122109
Si Si7 0.651739 0.681248 0.843836
Si Si8 0.128342 0.316630 0.782932
O O1 0.500000 0.782695 0.500000
O O2 0.236208 0.759123 0.216567
O O3 0.305569 0.721456 0.179047
O O4 0.322731 0.000000 0.249177
O O5 0.386052 0.500000 0.716311
O O6 0.272589 0.253547 0.634545
O O7 0.336397 0.258060 0.586477
O O8 0.537078 0.251300 0.918438
O O9 0.814362 0.500000 0.406128
O O10 0.739016 0.747811 0.250184
O O11 0.971350 0.752006 0.600235
O O12 0.756919 0.755780 0.645225
O O13 0.843154 0.000000 0.812432
O O14 0.000000 0.748521 0.000000
O O15 0.485660 0.226505 0.300009
O O16 0.641828 0.000000 0.450201
O O17 0.689284 0.500000 0.119188
O O18 0.800235 0.252702 0.197867
O O19 0.621720 0.500000 0.816249
O O20 0.780766 0.735942 0.044867
O O21 0.120209 0.500000 0.769311
#
# Coordination Sequence:
#
# PCOD8060632 Si02
#       8
#     4   4   4   4   4   4   4   4
#     4  10  19  35  57  81 105 136 177 215 251 303
#     4  10  19  32  51  80 109 135 170 217 265 307
#     4   9  17  28  47  75 108 140 172 215 262 307
#     4   9  19  36  57  79 104 135 175 217 253 299
#     4  11  21  36  57  78 102 138 178 212 257 315
#     4   9  15  27  48  74 104 139 177 213 255 307
#     4  11  21  34  54  81 110 137 172 219 266 306
#     4   9  17  29  46  74 108 138 172 215 261 306
#
# _framework density 19.226500000000001
#
# number of rings (size 3 to 8) (size 9 to 14) (size 15 to 20)
#    0.000    2.250    2.500    1.500    0.000    4.250 
#    0.000    0.000    0.000    4.875    0.000    0.875 
#    0.000    0.000    0.000    0.000    0.000    0.000 
#
# Total GULP energy -396820.191353 kJ/mol
# GULP energy per Si atom -12400.630980 kJ/mol
# Density = 1.918274 g / cm^3
# Si number density = 19.226500 Si / 1000 Ang^3
#
#
#
# Elastic Constant Matrix: (Units=GPa)
#
#
# Indices 1 2 3 4 5 6 
#
# 1 188.9581 7.6542 97.8632 0.0000 0.3200 0.0000
# 2 7.6542 7.3337 10.0539 0.0000 0.2158 0.0000
# 3 97.8632 10.0539 155.4203 0.0000 4.4450 0.0000
# 4 0.0000 0.0000 0.0000 8.7499 0.0000 1.2580
# 5 0.3200 0.2158 4.4450 0.0000 43.3052 0.0000
# 6 0.0000 0.0000 0.0000 1.2580 0.0000 11.2294
#
#
#
# Elastic Compliance Matrix: (Units=1/GPa)
#
#
# Indices 1 2 3 4 5 6 
#
# 1 0.007878 -0.001555 -0.004873 0.000000 0.000450 0.000000
# 2 -0.001555 0.149935 -0.008724 0.000000 0.000160 0.000000
# 3 -0.004873 -0.008724 0.010094 0.000000 -0.000957 0.000000
# 4 0.000000 0.000000 0.000000 0.116159 0.000000 -0.013013
# 5 0.000450 0.000160 -0.000957 0.000000 0.023186 0.000000
# 6 0.000000 0.000000 0.000000 -0.013013 0.000000 0.090509
#
#
# Mechanical properties :
#
#
# Convention : Reuss Voigt Hill
#
# Bulk Modulus (GPa) = 7.26733 64.76164 36.01449
# Shear Modulus (GPa) = 10.55001 28.39962 19.47481
#
# Velocity S-wave (km/s) = 2.34502 3.84749 3.18609
# Velocity P-wave (km/s) = 3.33470 7.31397 5.68394
#
# Compressibility (1/GPa) = 0.13760209
#
# Stress axis : x y z
#
# Youngs Moduli (GPa) = 126.93396 6.66957 99.06726
#
# Poissons Ratio (x) = 0.01037 0.48274
# Poissons Ratio (y) = 0.19743 0.86429
# Poissons Ratio (z) = 0.61853 0.05819
#
# Static dielectric constant tensor:
#      x y z
#    x 3.748750 0.000000 0.002780 
#    y 0.000000 2.953530 0.000000 
#    z 0.002780 0.000000 3.801610 
# 
# 
# High freq. dielectric constant tensor:
#      x y z
#    x 1.764380 0.000000 -0.003990 
#    y 0.000000 1.692250 0.000000 
#    z -0.003990 0.000000 1.757320 
# 
# From -- ./inp_files/87078.got.cif
#   From: 2010.06.25/outbox.cif.g09.slc.cpg/sg10_44_cif.got.tgz:87078.got - 2010.06.27 22:07:45.
