data_PCOD8060690
_publ_section_title
;
Structure prediction by ZEFSAII (Michael W. Deem and Ramdas Pophale) SiO2 
 PCOD8060690
Probable space group: P 2/M
;
_chemical_formula_sum "Si O2"
_cell_formula_units_Z 32
_cell_length_a 20.694698
_cell_length_b 9.619688
_cell_length_c 25.739363
_cell_angle_alpha 90.000000
_cell_angle_beta 159.785474
_cell_angle_gamma 90.000000
_cell_volume 1770.562769
_symmetry_space_group_name_H-M "P 2/M"
_symmetry_group_IT_number 10
_symmetry_cell_setting 'monoclinic'
loop_
_space_group_symop_operation_xyz
x,y,z
-x,y,-z
-x,-y,-z
x,-y,z
loop_
_atom_site_type_symbol
_atom_site_label
_atom_site_fract_x
_atom_site_fract_y
_atom_site_fract_z
Si Si1 0.495052 0.158835 0.327917
Si Si2 0.464938 0.662029 0.033096
Si Si3 0.782848 0.345055 0.829906
Si Si4 0.101769 0.161461 0.774691
Si Si5 0.208648 0.661935 0.640323
Si Si6 0.180919 0.158297 0.348019
Si Si7 0.719126 0.657747 0.669683
Si Si8 0.221180 0.162553 0.547334
O O1 0.313028 0.254788 0.197050
O O2 0.629714 0.188398 0.477995
O O3 0.601709 0.195724 0.355381
O O4 0.428920 0.000000 0.277049
O O5 0.416962 0.500000 0.002333
O O6 0.646705 0.701310 0.204583
O O7 0.500000 0.702970 0.000000
O O8 0.287660 0.748150 0.918487
O O9 0.693256 0.500000 0.763825
O O10 0.757303 0.274711 0.754468
O O11 0.000000 0.354172 0.000000
O O12 0.994482 0.189156 0.747399
O O13 0.970161 0.205726 0.626768
O O14 0.155466 0.000000 0.809709
O O15 0.223358 0.500000 0.637214
O O16 0.254872 0.749584 0.624273
O O17 0.000000 0.701700 0.500000
O O18 0.170234 0.256644 0.290264
O O19 0.176335 0.000000 0.325194
O O20 0.500000 0.665017 0.500000
O O21 0.794577 0.500000 0.723165
O O22 0.213603 0.000000 0.555607
#
# Coordination Sequence:
#
# PCOD8060690 Si02
#       8
#     4   4   4   4   4   4   4   4
#     4   9  18  34  55  77 103 135 175 218 259 310
#     4  10  21  37  57  82 111 142 177 218 263 312
#     4  10  21  36  51  72 104 139 173 216 267 313
#     4   9  19  36  56  80 110 142 178 218 265 319
#     4  10  21  37  57  82 110 141 180 220 260 311
#     4   9  18  33  54  79 104 134 173 218 263 308
#     4  10  19  32  52  77 102 132 176 220 259 310
#     4   9  19  36  57  81 108 140 179 221 264 315
#
# _framework density 18.073350999999999
#
# number of rings (size 3 to 8) (size 9 to 14) (size 15 to 20)
#    0.000    2.500    1.250    2.250    0.000    4.500 
#    2.250    2.500    0.000    0.000    0.000    0.000 
#    0.000    0.000    0.000    0.000    0.000    0.000 
#
# Total GULP energy -396754.198153 kJ/mol
# GULP energy per Si atom -12398.568692 kJ/mol
# Density = 1.803222 g / cm^3
# Si number density = 18.073351 Si / 1000 Ang^3
#
#
#
# Elastic Constant Matrix: (Units=GPa)
#
#
# Indices 1 2 3 4 5 6 
#
# 1 123.7374 66.1842 53.2705 0.0000 -2.6346 0.0000
# 2 66.1842 75.5270 45.7771 0.0000 7.8204 0.0000
# 3 53.2705 45.7771 93.7622 0.0000 2.7540 0.0000
# 4 0.0000 0.0000 0.0000 31.3480 0.0000 4.7914
# 5 -2.6346 7.8204 2.7540 0.0000 28.2878 0.0000
# 6 0.0000 0.0000 0.0000 4.7914 0.0000 39.8777
#
#
#
# Elastic Compliance Matrix: (Units=1/GPa)
#
#
# Indices 1 2 3 4 5 6 
#
# 1 0.016638 -0.013242 -0.003150 0.000000 0.005517 0.000000
# 2 -0.013242 0.029885 -0.006808 0.000000 -0.008832 0.000000
# 3 -0.003150 -0.006808 0.015777 0.000000 0.000053 0.000000
# 4 0.000000 0.000000 0.000000 0.032497 0.000000 -0.003905
# 5 0.005517 -0.008832 0.000053 0.000000 0.038301 0.000000
# 6 0.000000 0.000000 0.000000 -0.003905 0.000000 0.025546
#
#
# Mechanical properties :
#
#
# Convention : Reuss Voigt Hill
#
# Bulk Modulus (GPa) = 62.88976 69.27669 66.08322
# Shear Modulus (GPa) = 23.77064 28.42233 26.09648
#
# Velocity S-wave (km/s) = 3.63055 3.96992 3.80402
# Velocity P-wave (km/s) = 7.24203 7.70894 7.47913
#
# Compressibility (1/GPa) = 0.01590084
#
# Stress axis : x y z
#
# Youngs Moduli (GPa) = 60.10362 33.46152 63.38348
#
# Poissons Ratio (x) = 0.44310 0.19964
# Poissons Ratio (y) = 0.79589 0.43151
# Poissons Ratio (z) = 0.18931 0.22780
#
# Static dielectric constant tensor:
#      x y z
#    x 3.295180 0.000000 0.003300 
#    y 0.000000 3.310290 0.000000 
#    z 0.003300 0.000000 3.195290 
# 
# 
# High freq. dielectric constant tensor:
#      x y z
#    x 1.704680 0.000000 0.002100 
#    y 0.000000 1.695470 0.000000 
#    z 0.002100 0.000000 1.692190 
# 
# From -- ./inp_files/93817.got.cif
#   From: 2010.06.25/outbox.cif.g09.slc.cpg/sg10_47_cif.got.tgz:93817.got - 2010.06.27 22:07:45.
