data_PCOD8060659
_publ_section_title
;
Structure prediction by ZEFSAII (Michael W. Deem and Ramdas Pophale) SiO2 
 PCOD8060659
Probable space group: P 2/M
;
_chemical_formula_sum "Si O2"
_cell_formula_units_Z 24
_cell_length_a 11.708821
_cell_length_b 28.139726
_cell_length_c 9.076106
_cell_angle_alpha 90.000000
_cell_angle_beta 24.706954
_cell_angle_gamma 90.000000
_cell_volume 1249.928943
_symmetry_space_group_name_H-M "P 2/M"
_symmetry_group_IT_number 10
_symmetry_cell_setting 'monoclinic'
loop_
_space_group_symop_operation_xyz
x,y,z
-x,y,-z
-x,-y,-z
x,-y,z
loop_
_atom_site_type_symbol
_atom_site_label
_atom_site_fract_x
_atom_site_fract_y
_atom_site_fract_z
Si Si1 0.311498 0.197443 0.085182
Si Si2 0.900956 0.946679 0.282981
Si Si3 0.304134 0.697967 0.095030
Si Si4 0.401287 0.110258 0.782039
Si Si5 0.364443 0.553712 0.318401
Si Si6 0.140814 0.603988 0.175795
O O1 0.406506 0.250491 0.918599
O O2 0.000000 0.194532 0.500000
O O3 0.500000 0.181785 0.000000
O O4 0.363679 0.162964 0.887663
O O5 0.615922 0.919077 0.628176
O O6 0.865754 0.000000 0.386657
O O7 0.000000 0.949137 0.000000
O O8 0.119249 0.918485 0.125132
O O9 0.275427 0.656934 0.002935
O O10 0.000000 0.708786 0.500000
O O11 0.500000 0.679725 0.000000
O O12 0.500000 0.115768 0.500000
O O13 0.266302 0.500000 0.462590
O O14 0.102982 0.588936 0.649587
O O15 0.500000 0.559078 0.000000
O O16 0.607193 0.567887 0.145582
O O17 0.000000 0.599880 0.500000
#
# Coordination Sequence:
#
# PCOD8060659 Si02
#       6
#     4   4   4   4   4   4
#     4  10  20  33  49  68  93 123 154 189 229 271
#     4   9  17  30  50  74  96 120 153 189 221 262
#     4   9  16  26  39  54  72 101 140 176 209 250
#     4  10  19  32  52  75  96 120 153 190 227 267
#     4   9  15  20  27  41  62  89 122 163 208 247
#     4   9  14  21  31  43  62  89 126 168 201 240
#
# _framework density 19.201091000000002
#
# number of rings (size 3 to 8) (size 9 to 14) (size 15 to 20)
#    0.000    2.667    0.000    4.500    0.000    4.000 
#    0.000    0.000    0.000   10.000    0.000    0.000 
#    0.000    0.000    0.000    0.000    0.000    5.000 
#
# Total GULP energy -297313.309882 kJ/mol
# GULP energy per Si atom -12388.054578 kJ/mol
# Density = 1.915739 g / cm^3
# Si number density = 19.201091 Si / 1000 Ang^3
#
#
#
# Elastic Constant Matrix: (Units=GPa)
#
#
# Indices 1 2 3 4 5 6 
#
# 1 40.1271 40.7422 43.5642 0.0000 -28.7056 0.0000
# 2 40.7422 167.1987 45.2929 0.0000 -19.9835 0.0000
# 3 43.5642 45.2929 70.5876 0.0000 -41.8666 0.0000
# 4 0.0000 0.0000 0.0000 28.8344 0.0000 -17.4825
# 5 -28.7056 -19.9835 -41.8666 0.0000 33.6131 0.0000
# 6 0.0000 0.0000 0.0000 -17.4825 0.0000 17.5187
#
#
#
# Elastic Compliance Matrix: (Units=1/GPa)
#
#
# Indices 1 2 3 4 5 6 
#
# 1 0.094324 -0.010683 -0.028128 0.000000 0.039166 0.000000
# 2 -0.010683 0.008743 -0.005149 0.000000 -0.010339 0.000000
# 3 -0.028128 -0.005149 0.071837 0.000000 0.062393 0.000000
# 4 0.000000 0.000000 0.000000 0.087810 0.000000 0.087629
# 5 0.039166 -0.010339 0.062393 0.000000 0.134765 0.000000
# 6 0.000000 0.000000 0.000000 0.087629 0.000000 0.144529
#
#
# Mechanical properties :
#
#
# Convention : Reuss Voigt Hill
#
# Bulk Modulus (GPa) = 11.49657 59.67911 35.58784
# Shear Modulus (GPa) = 7.58814 25.88086 16.73450
#
# Velocity S-wave (km/s) = 1.99010 3.67534 2.95539
# Velocity P-wave (km/s) = 3.35874 7.01138 5.49730
#
# Compressibility (1/GPa) = 0.08698246
#
# Stress axis : x y z
#
# Youngs Moduli (GPa) = 10.60180 114.37353 13.92046
#
# Poissons Ratio (x) = 1.22191 0.39156
# Poissons Ratio (y) = 0.11326 0.07167
# Poissons Ratio (z) = 0.29821 0.58887
#
# Static dielectric constant tensor:
#      x y z
#    x 3.066500 0.000000 -0.633130 
#    y 0.000000 3.923440 0.000000 
#    z -0.633130 0.000000 3.426440 
# 
# 
# High freq. dielectric constant tensor:
#      x y z
#    x 1.690580 0.000000 -0.065470 
#    y 0.000000 1.768240 0.000000 
#    z -0.065470 0.000000 1.728670 
# 
# From -- ./inp_files/52055.got.cif
#   From: 2010.06.25/outbox.cif.g09.slc.cpg/sg10_27_cif.got.tgz:52055.got - 2010.06.27 22:07:45.
