data_PCOD8060709
_publ_section_title
;
Structure prediction by ZEFSAII (Michael W. Deem and Ramdas Pophale) SiO2 
 PCOD8060709
Probable space group: P 2/M
;
_chemical_formula_sum "Si O2"
_cell_formula_units_Z 28
_cell_length_a 15.013802
_cell_length_b 9.120395
_cell_length_c 16.745067
_cell_angle_alpha 90.000000
_cell_angle_beta 45.192351
_cell_angle_gamma 90.000000
_cell_volume 1626.781913
_symmetry_space_group_name_H-M "P 2/M"
_symmetry_group_IT_number 10
_symmetry_cell_setting 'monoclinic'
loop_
_space_group_symop_operation_xyz
x,y,z
-x,y,-z
-x,-y,-z
x,-y,z
loop_
_atom_site_type_symbol
_atom_site_label
_atom_site_fract_x
_atom_site_fract_y
_atom_site_fract_z
Si Si1 0.368386 0.670455 0.909075
Si Si2 0.738810 0.828268 0.869914
Si Si3 0.197130 0.173154 0.905389
Si Si4 0.350204 0.669303 0.225467
Si Si5 0.970395 0.171377 0.315359
Si Si6 0.883211 0.672380 0.521312
Si Si7 0.049969 0.172903 0.848340
O O1 0.334711 0.500000 0.935582
O O2 0.319676 0.738299 0.856304
O O3 0.516922 0.696566 0.817024
O O4 0.299952 0.752967 0.023827
O O5 0.655446 0.764502 0.851076
O O6 0.883906 0.794016 0.760558
O O7 0.713087 0.000000 0.894391
O O8 0.166855 0.213989 0.832020
O O9 0.220148 0.000000 0.900651
O O10 0.080657 0.230345 0.032462
O O11 0.330890 0.500000 0.213273
O O12 0.244476 0.720364 0.354558
O O13 0.885182 0.252547 0.433840
O O14 0.930445 0.234222 0.253421
O O15 0.942566 0.000000 0.339417
O O16 0.891153 0.500000 0.502959
O O17 0.000000 0.729246 0.500000
O O18 0.034918 0.000000 0.853493
#
# Coordination Sequence:
#
# PCOD8060709 Si02
#       7
#     4   4   4   4   4   4   4
#     4  11  22  34  50  73 106 140 167 204 252 300
#     4  11  21  33  52  77 104 134 169 206 246 301
#     4   9  16  31  54  75 100 133 168 202 248 305
#     4  10  22  38  51  69 102 140 173 207 252 298
#     4  10  19  32  52  78 105 129 161 207 257 298
#     4  10  20  35  54  72  95 133 176 211 247 294
#     4   8  15  30  52  76 102 132 161 202 258 302
#
# _framework density 17.211894999999998
#
# number of rings (size 3 to 8) (size 9 to 14) (size 15 to 20)
#    0.000    2.143    2.857    2.143    0.000    4.286 
#    0.000    2.143    0.000    0.857    0.000    6.000 
#    0.000    0.000    0.000    0.000    0.000    0.000 
#
# Total GULP energy -347209.164872 kJ/mol
# GULP energy per Si atom -12400.327317 kJ/mol
# Density = 1.717272 g / cm^3
# Si number density = 17.211895 Si / 1000 Ang^3
#
#
#
# Elastic Constant Matrix: (Units=GPa)
#
#
# Indices 1 2 3 4 5 6 
#
# 1 133.9629 46.7956 34.8573 0.0000 8.7875 0.0000
# 2 46.7956 58.0994 27.6341 0.0000 -2.5699 0.0000
# 3 34.8573 27.6341 52.7539 0.0000 5.9245 0.0000
# 4 0.0000 0.0000 0.0000 22.8401 0.0000 -1.2496
# 5 8.7875 -2.5699 5.9245 0.0000 27.5864 0.0000
# 6 0.0000 0.0000 0.0000 -1.2496 0.0000 19.2571
#
#
#
# Elastic Compliance Matrix: (Units=1/GPa)
#
#
# Indices 1 2 3 4 5 6 
#
# 1 0.011179 -0.007790 -0.002895 0.000000 -0.003665 0.000000
# 2 -0.007790 0.028997 -0.010887 0.000000 0.007521 0.000000
# 3 -0.002895 -0.010887 0.027239 0.000000 -0.005942 0.000000
# 4 0.000000 0.000000 0.000000 0.043939 0.000000 0.002851
# 5 -0.003665 0.007521 -0.005942 0.000000 0.039394 0.000000
# 6 0.000000 0.000000 0.000000 0.002851 0.000000 0.052114
#
#
# Mechanical properties :
#
#
# Convention : Reuss Voigt Hill
#
# Bulk Modulus (GPa) = 41.19915 51.48780 46.34347
# Shear Modulus (GPa) = 19.67764 22.97201 21.32482
#
# Velocity S-wave (km/s) = 3.38488 3.65726 3.52370
# Velocity P-wave (km/s) = 6.26617 6.91470 6.59841
#
# Compressibility (1/GPa) = 0.02427235
#
# Stress axis : x y z
#
# Youngs Moduli (GPa) = 89.44985 34.48647 36.71207
#
# Poissons Ratio (x) = 0.26864 0.10627
# Poissons Ratio (y) = 0.69678 0.39969
# Poissons Ratio (z) = 0.25894 0.37546
#
# Static dielectric constant tensor:
#      x y z
#    x 3.448590 0.000000 0.117110 
#    y 0.000000 3.079700 0.000000 
#    z 0.117110 0.000000 3.112170 
# 
# 
# High freq. dielectric constant tensor:
#      x y z
#    x 1.670660 0.000000 0.007460 
#    y 0.000000 1.652240 0.000000 
#    z 0.007460 0.000000 1.642990 
# 
# From -- ./inp_files/49135.got.cif
#   From: 2010.06.25/outbox.cif.g09.slc.cpg/sg10_25_cif.got.tgz:49135.got - 2010.06.27 22:07:45.
