data_PCOD8060685
_publ_section_title
;
Structure prediction by ZEFSAII (Michael W. Deem and Ramdas Pophale) SiO2 
 PCOD8060685
Probable space group: P 2/M
;
_chemical_formula_sum "Si O2"
_cell_formula_units_Z 32
_cell_length_a 13.921004
_cell_length_b 9.125333
_cell_length_c 18.456318
_cell_angle_alpha 90.000000
_cell_angle_beta 132.317611
_cell_angle_gamma 90.000000
_cell_volume 1733.636341
_symmetry_space_group_name_H-M "P 2/M"
_symmetry_group_IT_number 10
_symmetry_cell_setting 'monoclinic'
loop_
_space_group_symop_operation_xyz
x,y,z
-x,y,-z
-x,-y,-z
x,-y,z
loop_
_atom_site_type_symbol
_atom_site_label
_atom_site_fract_x
_atom_site_fract_y
_atom_site_fract_z
Si Si1 0.011846 0.832222 0.338892
Si Si2 0.987872 0.173733 0.826159
Si Si3 0.499918 0.664599 0.156501
Si Si4 0.212667 0.326158 0.540642
Si Si5 0.496827 0.338244 0.669569
Si Si6 0.754103 0.827510 0.965366
Si Si7 0.753709 0.168615 0.293345
Si Si8 0.746195 0.828793 0.793549
O O1 0.863466 0.819351 0.288232
O O2 0.019942 0.776393 0.260736
O O3 0.100554 0.725485 0.430610
O O4 0.060722 0.000000 0.371492
O O5 0.863747 0.238383 0.806044
O O6 0.989301 0.000000 0.834346
O O7 0.119622 0.233941 0.929270
O O8 0.504519 0.500000 0.126830
O O9 0.499295 0.660917 0.242245
O O10 0.370169 0.745930 0.063330
O O11 0.626595 0.753967 0.195201
O O12 0.204105 0.500000 0.549730
O O13 0.351836 0.284342 0.574736
O O14 0.194287 0.246574 0.607959
O O15 0.522771 0.500000 0.651580
O O16 0.609204 0.234813 0.695160
O O17 0.771837 0.788297 0.889933
O O18 0.733611 0.000000 0.966034
O O19 0.720828 0.000000 0.295149
O O20 0.736747 0.000000 0.776709
#
# Coordination Sequence:
#
# PCOD8060685 Si02
#       8
#     4   4   4   4   4   4   4   4
#     4  10  21  35  50  70  99 133 166 202 243 290
#     4   9  18  33  50  71 101 132 164 204 246 287
#     4   9  17  30  49  74 102 128 158 201 248 291
#     4  10  20  34  53  75  99 128 161 201 248 293
#     4   8  16  30  47  70  98 124 153 194 244 293
#     4   9  16  29  52  77  99 127 164 204 244 288
#     4  10  19  32  52  76  98 125 164 203 242 292
#     4   9  16  28  51  78  98 123 162 204 243 284
#
# _framework density 18.458310000000001
#
# number of rings (size 3 to 8) (size 9 to 14) (size 15 to 20)
#    0.000    2.750    0.000    2.625    0.000    7.500 
#    0.000    3.125    0.000   10.500    0.000    0.000 
#    0.000    0.000    0.000    0.000    0.000    0.000 
#
# Total GULP energy -396751.699429 kJ/mol
# GULP energy per Si atom -12398.490607 kJ/mol
# Density = 1.841630 g / cm^3
# Si number density = 18.458310 Si / 1000 Ang^3
#
#
#
# Elastic Constant Matrix: (Units=GPa)
#
#
# Indices 1 2 3 4 5 6 
#
# 1 72.7991 34.2776 42.0490 0.0000 15.9636 0.0000
# 2 34.2776 69.4263 24.9609 0.0000 8.8719 0.0000
# 3 42.0490 24.9609 42.2235 0.0000 18.4091 0.0000
# 4 0.0000 0.0000 0.0000 20.7290 0.0000 6.0306
# 5 15.9636 8.8719 18.4091 0.0000 28.5364 0.0000
# 6 0.0000 0.0000 0.0000 6.0306 0.0000 11.3087
#
#
#
# Elastic Compliance Matrix: (Units=1/GPa)
#
#
# Indices 1 2 3 4 5 6 
#
# 1 0.034364 -0.005796 -0.032278 0.000000 0.003401 0.000000
# 2 -0.005796 0.019335 -0.006193 0.000000 0.001226 0.000000
# 3 -0.032278 -0.006193 0.070648 0.000000 -0.025593 0.000000
# 4 0.000000 0.000000 0.000000 0.057100 0.000000 -0.030450
# 5 0.003401 0.001226 -0.025593 0.000000 0.049269 0.000000
# 6 0.000000 0.000000 0.000000 -0.030450 0.000000 0.104666
#
#
# Mechanical properties :
#
#
# Convention : Reuss Voigt Hill
#
# Bulk Modulus (GPa) = 27.92321 43.00267 35.46294
# Shear Modulus (GPa) = 11.47174 17.65891 14.56532
#
# Velocity S-wave (km/s) = 2.49568 3.09640 2.81213
# Velocity P-wave (km/s) = 4.84408 6.01093 5.45878
#
# Compressibility (1/GPa) = 0.03581250
#
# Stress axis : x y z
#
# Youngs Moduli (GPa) = 29.10057 51.71920 14.15472
#
# Poissons Ratio (x) = 0.29975 0.45689
# Poissons Ratio (y) = 0.16866 0.08766
# Poissons Ratio (z) = 0.93932 0.32029
#
# Static dielectric constant tensor:
#      x y z
#    x 3.442870 0.000000 0.340390 
#    y 0.000000 3.364330 0.000000 
#    z 0.340390 0.000000 3.389330 
# 
# 
# High freq. dielectric constant tensor:
#      x y z
#    x 1.706150 0.000000 0.028330 
#    y 0.000000 1.704120 0.000000 
#    z 0.028330 0.000000 1.705950 
# 
# From -- ./inp_files/70017.got.cif
#   From: 2010.06.25/outbox.cif.g09.slc.cpg/sg10_36_cif.got.tgz:70017.got - 2010.06.27 22:07:45.
