data_PCOD8060555
_publ_section_title
;
Structure prediction by ZEFSAII (Michael W. Deem and Ramdas Pophale) SiO2 
 PCOD8060555
Probable space group: P 2/M
;
_chemical_formula_sum "Si O2"
_cell_formula_units_Z 32
_cell_length_a 27.580756
_cell_length_b 9.312877
_cell_length_c 18.024318
_cell_angle_alpha 90.000000
_cell_angle_beta 22.284929
_cell_angle_gamma 90.000000
_cell_volume 1755.625338
_symmetry_space_group_name_H-M "P 2/M"
_symmetry_group_IT_number 10
_symmetry_cell_setting 'monoclinic'
loop_
_space_group_symop_operation_xyz
x,y,z
-x,y,-z
-x,-y,-z
x,-y,z
loop_
_atom_site_type_symbol
_atom_site_label
_atom_site_fract_x
_atom_site_fract_y
_atom_site_fract_z
Si Si1 0.251223 0.833455 0.817950
Si Si2 0.722506 0.170497 0.052463
Si Si3 0.708293 0.832079 0.508103
Si Si4 0.130682 0.337547 0.522548
Si Si5 0.031231 0.834368 0.797464
Si Si6 0.938812 0.663167 0.662132
Si Si7 0.566855 0.170995 0.565210
Si Si8 0.633359 0.831049 0.776792
O O1 0.254100 0.768081 0.897111
O O2 0.360034 0.765741 0.610891
O O3 0.281439 0.000000 0.785477
O O4 0.114541 0.809989 0.969640
O O5 0.580522 0.217044 0.228270
O O6 0.741980 0.000000 0.021321
O O7 0.820102 0.241198 0.856696
O O8 0.861068 0.793447 0.293337
O O9 0.635788 0.761152 0.540679
O O10 0.643459 0.780347 0.676729
O O11 0.689149 0.000000 0.527113
O O12 0.160959 0.500000 0.504053
O O13 0.045963 0.262819 0.704883
O O14 0.261348 0.251451 0.324326
O O15 0.054057 0.331287 0.555842
O O16 0.052783 0.000000 0.743168
O O17 0.889570 0.500000 0.720781
O O18 0.000000 0.725300 0.500000
O O19 0.580258 0.000000 0.545916
O O20 0.657447 0.000000 0.750112
O O21 0.500000 0.783719 0.000000
#
# Coordination Sequence:
#
# PCOD8060555 Si02
#       8
#     4   4   4   4   4   4   4   4
#     4   9  16  27  47  74 102 133 167 206 253 300
#     4  10  19  32  52  76 102 131 168 211 252 296
#     4   8  15  27  43  68 101 132 163 200 246 293
#     4  10  19  32  51  72  95 126 163 204 248 295
#     4   9  16  29  50  72  97 128 164 206 246 290
#     4  10  22  38  53  72 100 133 167 206 256 304
#     4   9  17  28  45  74 108 135 164 206 254 302
#     4   9  18  32  51  73  99 131 165 205 250 295
#
# _framework density 18.227124
#
# number of rings (size 3 to 8) (size 9 to 14) (size 15 to 20)
#    0.000    2.750    1.250    1.500    0.000    4.000 
#    0.000    3.750    0.000    5.250    0.000    3.500 
#    0.000    0.000    0.000    0.000    0.000    0.000 
#
# Total GULP energy -396595.030101 kJ/mol
# GULP energy per Si atom -12393.594691 kJ/mol
# Density = 1.818564 g / cm^3
# Si number density = 18.227124 Si / 1000 Ang^3
#
#
#
# Elastic Constant Matrix: (Units=GPa)
#
#
# Indices 1 2 3 4 5 6 
#
# 1 112.7478 22.8355 69.0331 0.0000 -4.4617 0.0000
# 2 22.8355 39.4474 37.8813 0.0000 0.8907 0.0000
# 3 69.0331 37.8813 157.5821 0.0000 2.6247 0.0000
# 4 0.0000 0.0000 0.0000 7.3829 0.0000 -2.7972
# 5 -4.4617 0.8907 2.6247 0.0000 28.7997 0.0000
# 6 0.0000 0.0000 0.0000 -2.7972 0.0000 15.5520
#
#
#
# Elastic Compliance Matrix: (Units=1/GPa)
#
#
# Indices 1 2 3 4 5 6 
#
# 1 0.012483 -0.002589 -0.004887 0.000000 0.002459 0.000000
# 2 -0.002589 0.033498 -0.006905 0.000000 -0.000808 0.000000
# 3 -0.004887 -0.006905 0.010171 0.000000 -0.001471 0.000000
# 4 0.000000 0.000000 0.000000 0.145354 0.000000 0.026143
# 5 0.002459 -0.000808 -0.001471 0.000000 0.035263 0.000000
# 6 0.000000 0.000000 0.000000 0.026143 0.000000 0.069002
#
#
# Mechanical properties :
#
#
# Convention : Reuss Voigt Hill
#
# Bulk Modulus (GPa) = 36.50907 63.25300 49.88104
# Shear Modulus (GPa) = 14.54910 22.34874 18.44892
#
# Velocity S-wave (km/s) = 2.82833 3.50541 3.18491
# Velocity P-wave (km/s) = 5.54432 7.15275 6.39927
#
# Compressibility (1/GPa) = 0.02739045
#
# Stress axis : x y z
#
# Youngs Moduli (GPa) = 80.10639 29.85258 98.31527
#
# Poissons Ratio (x) = 0.07728 0.48050
# Poissons Ratio (y) = 0.20737 0.67888
# Poissons Ratio (z) = 0.39151 0.20614
#
# Static dielectric constant tensor:
#      x y z
#    x 3.536230 0.000000 -0.084430 
#    y 0.000000 2.998810 0.000000 
#    z -0.084430 0.000000 3.524880 
# 
# 
# High freq. dielectric constant tensor:
#      x y z
#    x 1.705540 0.000000 -0.008670 
#    y 0.000000 1.655990 0.000000 
#    z -0.008670 0.000000 1.716790 
# 
# From -- ./inp_files/87187.got.cif
#   From: 2010.06.25/outbox.cif.g09.slc.cpg/sg10_44_cif.got.tgz:87187.got - 2010.06.27 22:07:45.
