data_PCOD8060171
_publ_section_title
;
Structure prediction by ZEFSAII (Michael W. Deem and Ramdas Pophale) SiO2 
 PCOD8060171
Probable space group: P 2/M
;
_chemical_formula_sum "Si O2"
_cell_formula_units_Z 28
_cell_length_a 15.018622
_cell_length_b 8.973797
_cell_length_c 22.054685
_cell_angle_alpha 90.000000
_cell_angle_beta 33.014901
_cell_angle_gamma 90.000000
_cell_volume 1619.533091
_symmetry_space_group_name_H-M "P 2/M"
_symmetry_group_IT_number 10
_symmetry_cell_setting 'monoclinic'
loop_
_space_group_symop_operation_xyz
x,y,z
-x,y,-z
-x,-y,-z
x,-y,z
loop_
_atom_site_type_symbol
_atom_site_label
_atom_site_fract_x
_atom_site_fract_y
_atom_site_fract_z
Si Si1 0.472994 0.176020 0.632477
Si Si2 0.821934 0.327118 0.260980
Si Si3 0.006787 0.674063 0.583539
Si Si4 0.763448 0.824918 0.643832
Si Si5 0.081824 0.675886 0.015394
Si Si6 0.198136 0.329618 0.590503
Si Si7 0.590279 0.826472 0.195716
O O1 0.343579 0.240701 0.659225
O O2 0.652378 0.223465 0.510180
O O3 0.434580 0.235733 0.721962
O O4 0.464909 0.000000 0.635141
O O5 0.789145 0.500000 0.266359
O O6 0.868594 0.297068 0.304086
O O7 0.970619 0.268538 0.134707
O O8 0.988522 0.500000 0.579000
O O9 0.152808 0.741965 0.460282
O O10 0.048251 0.701650 0.630320
O O11 0.837528 0.758509 0.663966
O O12 0.570566 0.793284 0.752230
O O13 0.800944 0.000000 0.617257
O O14 0.101004 0.500000 0.003725
O O15 0.260493 0.744389 0.921871
O O16 0.000000 0.734055 0.000000
O O17 0.258931 0.500000 0.549699
O O18 0.630186 0.000000 0.175137
#
# Coordination Sequence:
#
# PCOD8060171 Si02
#       7
#     4   4   4   4   4   4   4
#     4  11  21  33  50  76 106 137 171 207 247 301
#     4  10  21  37  52  72 103 138 174 209 253 301
#     4  10  19  31  50  77 102 130 168 207 248 300
#     4  10  19  33  51  74 103 135 163 202 258 303
#     4  10  20  34  54  76  97 130 175 216 250 292
#     4  10  21  35  52  73 105 141 168 205 254 304
#     4  10  21  34  51  75 105 135 165 205 256 302
#
# _framework density 17.288934000000001
#
# number of rings (size 3 to 8) (size 9 to 14) (size 15 to 20)
#    0.000    1.857    2.857    2.571    0.000    5.429 
#    0.000    0.000    0.000    0.857    0.000    6.000 
#    0.000    0.000    0.000    0.000    0.000    0.000 
#
# Total GULP energy -347254.677563 kJ/mol
# GULP energy per Si atom -12401.952770 kJ/mol
# Density = 1.724958 g / cm^3
# Si number density = 17.288934 Si / 1000 Ang^3
#
#
#
# Elastic Constant Matrix: (Units=GPa)
#
#
# Indices 1 2 3 4 5 6 
#
# 1 137.0213 40.7100 53.7996 0.0000 -1.6495 0.0000
# 2 40.7100 56.9698 25.8957 0.0000 -3.7691 0.0000
# 3 53.7996 25.8957 82.7707 0.0000 -0.5634 0.0000
# 4 0.0000 0.0000 0.0000 23.8087 0.0000 -7.8622
# 5 -1.6495 -3.7691 -0.5634 0.0000 29.0904 0.0000
# 6 0.0000 0.0000 0.0000 -7.8622 0.0000 25.1445
#
#
#
# Elastic Compliance Matrix: (Units=1/GPa)
#
#
# Indices 1 2 3 4 5 6 
#
# 1 0.011065 -0.005420 -0.005497 0.000000 -0.000181 0.000000
# 2 -0.005420 0.023306 -0.003751 0.000000 0.002640 0.000000
# 3 -0.005497 -0.003751 0.016825 0.000000 -0.000472 0.000000
# 4 0.000000 0.000000 0.000000 0.046838 0.000000 0.014645
# 5 -0.000181 0.002640 -0.000472 0.000000 0.034698 0.000000
# 6 0.000000 0.000000 0.000000 0.014645 0.000000 0.044349
#
#
# Mechanical properties :
#
#
# Convention : Reuss Voigt Hill
#
# Bulk Modulus (GPa) = 45.74666 57.50802 51.62734
# Shear Modulus (GPa) = 23.39694 26.03249 24.71471
#
# Velocity S-wave (km/s) = 3.68270 3.88459 3.78499
# Velocity P-wave (km/s) = 6.67837 7.31130 7.00199
#
# Compressibility (1/GPa) = 0.02185952
#
# Stress axis : x y z
#
# Youngs Moduli (GPa) = 90.37720 42.90809 59.43518
#
# Poissons Ratio (x) = 0.23256 0.32674
# Poissons Ratio (y) = 0.48983 0.22292
# Poissons Ratio (z) = 0.49685 0.16093
#
# Static dielectric constant tensor:
#      x y z
#    x 3.416870 0.000000 0.001340 
#    y 0.000000 3.217870 0.000000 
#    z 0.001340 0.000000 3.091340 
# 
# 
# High freq. dielectric constant tensor:
#      x y z
#    x 1.671190 0.000000 -0.006210 
#    y 0.000000 1.671900 0.000000 
#    z -0.006210 0.000000 1.644910 
# 
# From -- ./inp_files/63371.got.cif
#   From: 2010.06.25/outbox.cif.g09.slc.cpg/sg10_32_cif.got.tgz:63371.got - 2010.06.27 22:07:45.
