data_PCOD8060667
_publ_section_title
;
Structure prediction by ZEFSAII (Michael W. Deem and Ramdas Pophale) SiO2 
 PCOD8060667
Probable space group: P 2/M
;
_chemical_formula_sum "Si O2"
_cell_formula_units_Z 32
_cell_length_a 24.516545
_cell_length_b 9.602387
_cell_length_c 19.541185
_cell_angle_alpha 90.000000
_cell_angle_beta 157.630356
_cell_angle_gamma 90.000000
_cell_volume 1750.797373
_symmetry_space_group_name_H-M "P 2/M"
_symmetry_group_IT_number 10
_symmetry_cell_setting 'monoclinic'
loop_
_space_group_symop_operation_xyz
x,y,z
-x,y,-z
-x,-y,-z
x,-y,z
loop_
_atom_site_type_symbol
_atom_site_label
_atom_site_fract_x
_atom_site_fract_y
_atom_site_fract_z
Si Si1 0.351031 0.335374 0.859786
Si Si2 0.006922 0.345855 0.894944
Si Si3 0.020918 0.157352 0.262597
Si Si4 0.077065 0.663108 0.454101
Si Si5 0.308233 0.844036 0.083142
Si Si6 0.479326 0.163905 0.553189
Si Si7 0.775643 0.346955 0.743464
Si Si8 0.752811 0.663193 0.113298
O O1 0.362184 0.500000 0.872029
O O2 0.209511 0.288576 0.654605
O O3 0.323688 0.284405 0.905802
O O4 0.500000 0.273811 0.000000
O O5 0.022425 0.500000 0.878419
O O6 0.952894 0.231399 0.779043
O O7 0.894425 0.355343 0.824207
O O8 0.157110 0.301869 0.104939
O O9 0.098587 0.246776 0.410957
O O10 0.083057 0.000000 0.332888
O O11 0.853932 0.155357 0.082282
O O12 0.086395 0.500000 0.446529
O O13 0.924229 0.695764 0.313532
O O14 0.395945 0.788525 0.250372
O O15 0.357842 0.000000 0.119914
O O16 0.328589 0.743061 0.042073
O O17 0.500000 0.220055 0.500000
O O18 0.335197 0.233922 0.412500
O O19 0.459828 0.000000 0.530809
O O20 0.704431 0.500000 0.668874
O O21 0.728304 0.500000 0.073401
#
# Coordination Sequence:
#
# PCOD8060667 Si02
#       8
#     4   4   4   4   4   4   4   4
#     4   9  17  31  52  78 104 130 165 209 257 306
#     4   9  18  34  52  71  99 131 164 208 259 301
#     4  10  19  32  52  76 100 130 170 208 244 296
#     4   9  17  31  52  76 102 131 166 208 254 299
#     4   9  19  34  50  72 103 135 167 207 255 300
#     4  10  20  34  51  72 101 136 172 210 255 302
#     4   9  19  34  51  72  97 128 168 211 255 304
#     4   9  17  31  53  77  99 130 173 213 249 303
#
# _framework density 18.277386
#
# number of rings (size 3 to 8) (size 9 to 14) (size 15 to 20)
#    0.000    2.750    0.000    2.250    0.000    4.750 
#    2.250    1.875    0.000    3.750    0.000    0.000 
#    0.000    0.000    0.000    0.000    0.000    0.000 
#
# Total GULP energy -396602.585020 kJ/mol
# GULP energy per Si atom -12393.830782 kJ/mol
# Density = 1.823579 g / cm^3
# Si number density = 18.277386 Si / 1000 Ang^3
#
#
#
# Elastic Constant Matrix: (Units=GPa)
#
#
# Indices 1 2 3 4 5 6 
#
# 1 105.5627 46.6216 50.4576 0.0000 -24.6320 0.0000
# 2 46.6216 61.1547 38.7505 0.0000 -16.1318 0.0000
# 3 50.4576 38.7505 102.3721 0.0000 -23.1748 0.0000
# 4 0.0000 0.0000 0.0000 24.3098 0.0000 -3.3645
# 5 -24.6320 -16.1318 -23.1748 0.0000 28.0175 0.0000
# 6 0.0000 0.0000 0.0000 -3.3645 0.0000 19.5246
#
#
#
# Elastic Compliance Matrix: (Units=1/GPa)
#
#
# Indices 1 2 3 4 5 6 
#
# 1 0.016455 -0.008675 -0.003301 0.000000 0.006742 0.000000
# 2 -0.008675 0.027245 -0.005183 0.000000 0.003773 0.000000
# 3 -0.003301 -0.005183 0.014795 0.000000 0.006352 0.000000
# 4 0.000000 0.000000 0.000000 0.042141 0.000000 0.007262
# 5 0.006742 0.003773 0.006352 0.000000 0.049045 0.000000
# 6 0.000000 0.000000 0.000000 0.007262 0.000000 0.052469
#
#
# Mechanical properties :
#
#
# Convention : Reuss Voigt Hill
#
# Bulk Modulus (GPa) = 41.36014 60.08322 50.72168
# Shear Modulus (GPa) = 20.44776 23.25437 21.85107
#
# Velocity S-wave (km/s) = 3.34840 3.57081 3.46139
# Velocity P-wave (km/s) = 6.13411 7.06719 6.61712
#
# Compressibility (1/GPa) = 0.02417787
#
# Stress axis : x y z
#
# Youngs Moduli (GPa) = 60.77172 36.70438 67.59092
#
# Poissons Ratio (x) = 0.31840 0.22309
# Poissons Ratio (y) = 0.52718 0.35033
# Poissons Ratio (z) = 0.20058 0.19024
#
# Static dielectric constant tensor:
#      x y z
#    x 3.371730 0.000000 -0.160620 
#    y 0.000000 3.398410 0.000000 
#    z -0.160620 0.000000 3.521390 
# 
# 
# High freq. dielectric constant tensor:
#      x y z
#    x 1.703000 0.000000 -0.011400 
#    y 0.000000 1.693890 0.000000 
#    z -0.011400 0.000000 1.702260 
# 
# From -- ./inp_files/86976.got.cif
#   From: 2010.06.25/outbox.cif.g09.slc.cpg/sg10_44_cif.got.tgz:86976.got - 2010.06.27 22:07:45.
