data_PCOD8060227
_publ_section_title
;
Structure prediction by ZEFSAII (Michael W. Deem and Ramdas Pophale) SiO2 
 PCOD8060227
Probable space group: P 2/M
;
_chemical_formula_sum "Si O2"
_cell_formula_units_Z 32
_cell_length_a 20.627184
_cell_length_b 9.161055
_cell_length_c 26.171484
_cell_angle_alpha 90.000000
_cell_angle_beta 159.067740
_cell_angle_gamma 90.000000
_cell_volume 1766.863365
_symmetry_space_group_name_H-M "P 2/M"
_symmetry_group_IT_number 10
_symmetry_cell_setting 'monoclinic'
loop_
_space_group_symop_operation_xyz
x,y,z
-x,y,-z
-x,-y,-z
x,-y,z
loop_
_atom_site_type_symbol
_atom_site_label
_atom_site_fract_x
_atom_site_fract_y
_atom_site_fract_z
Si Si1 0.535166 0.826875 0.352610
Si Si2 0.189209 0.174050 0.160090
Si Si3 0.238572 0.331495 0.945910
Si Si4 0.130666 0.173460 0.332409
Si Si5 0.204015 0.171168 0.654426
Si Si6 0.455162 0.332871 0.911346
Si Si7 0.298483 0.173229 0.350342
Si Si8 0.498325 0.172099 0.788286
O O1 0.357810 0.764105 0.251116
O O2 0.717722 0.773336 0.515366
O O3 0.534667 0.772443 0.293703
O O4 0.529516 0.000000 0.350676
O O5 0.202199 0.228767 0.227990
O O6 0.190892 0.000000 0.158606
O O7 0.000000 0.237636 0.000000
O O8 0.203325 0.500000 0.933639
O O9 0.055624 0.254255 0.792623
O O10 0.370022 0.313132 0.994910
O O11 0.325280 0.252982 0.059249
O O12 0.188448 0.226398 0.318543
O O13 0.102123 0.000000 0.314262
O O14 0.287275 0.243123 0.765890
O O15 0.318683 0.213386 0.688313
O O16 0.000000 0.231302 0.500000
O O17 0.205261 0.000000 0.664341
O O18 0.393155 0.500000 0.869380
O O19 0.500000 0.269166 0.000000
O O20 0.500000 0.240026 0.500000
O O21 0.311623 0.000000 0.360555
O O22 0.538430 0.000000 0.819684
#
# Coordination Sequence:
#
# PCOD8060227 Si02
#       8
#     4   4   4   4   4   4   4   4
#     4   9  17  29  45  72 104 128 159 206 250 290
#     4   9  16  24  38  66 100 127 156 200 250 289
#     4  10  21  36  52  73 101 132 167 206 249 296
#     4  10  19  31  51  77 103 132 166 205 251 300
#     4   9  18  32  50  75 105 134 162 197 246 300
#     4   9  19  36  55  74  98 129 168 211 247 287
#     4   9  15  26  43  68 101 129 158 204 251 289
#     4   9  18  33  52  73 100 133 167 203 245 294
#
# _framework density 18.111191999999999
#
# number of rings (size 3 to 8) (size 9 to 14) (size 15 to 20)
#    0.000    2.750    1.250    0.375    1.750    2.000 
#    0.000    1.875    0.000    0.375    0.000    0.875 
#    0.000    0.000    0.000    0.000    0.000    0.000 
#
# Total GULP energy -396766.223315 kJ/mol
# GULP energy per Si atom -12398.944479 kJ/mol
# Density = 1.806997 g / cm^3
# Si number density = 18.111192 Si / 1000 Ang^3
#
#
#
# Elastic Constant Matrix: (Units=GPa)
#
#
# Indices 1 2 3 4 5 6 
#
# 1 111.0513 26.0873 68.8763 0.0000 -30.0625 0.0000
# 2 26.0873 30.9936 38.2792 0.0000 -1.6759 0.0000
# 3 68.8763 38.2792 174.0281 0.0000 -13.7981 0.0000
# 4 0.0000 0.0000 0.0000 3.1985 0.0000 -1.1666
# 5 -30.0625 -1.6759 -13.7981 0.0000 33.2121 0.0000
# 6 0.0000 0.0000 0.0000 -1.1666 0.0000 14.1254
#
#
#
# Elastic Compliance Matrix: (Units=1/GPa)
#
#
# Indices 1 2 3 4 5 6 
#
# 1 0.017072 -0.009082 -0.003692 0.000000 0.013461 0.000000
# 2 -0.009082 0.049244 -0.007954 0.000000 -0.009040 0.000000
# 3 -0.003692 -0.007954 0.008955 0.000000 -0.000023 0.000000
# 4 0.000000 0.000000 0.000000 0.322360 0.000000 0.026624
# 5 0.013461 -0.009040 -0.000023 0.000000 0.041828 0.000000
# 6 0.000000 0.000000 0.000000 0.026624 0.000000 0.072993
#
#
# Mechanical properties :
#
#
# Convention : Reuss Voigt Hill
#
# Bulk Modulus (GPa) = 29.57231 64.72871 47.15051
# Shear Modulus (GPa) = 8.84673 22.29589 15.57131
#
# Velocity S-wave (km/s) = 2.21253 3.51245 2.93535
# Velocity P-wave (km/s) = 4.78442 7.22959 6.13016
#
# Compressibility (1/GPa) = 0.03381542
#
# Stress axis : x y z
#
# Youngs Moduli (GPa) = 58.57522 20.30705 111.66862
#
# Poissons Ratio (x) = 0.18443 0.41225
# Poissons Ratio (y) = 0.53199 0.88821
# Poissons Ratio (z) = 0.21624 0.16152
#
# Static dielectric constant tensor:
#      x y z
#    x 3.498640 0.000000 -0.072810 
#    y 0.000000 2.905100 0.000000 
#    z -0.072810 0.000000 3.506880 
# 
# 
# High freq. dielectric constant tensor:
#      x y z
#    x 1.708190 0.000000 -0.003640 
#    y 0.000000 1.651420 0.000000 
#    z -0.003640 0.000000 1.712560 
# 
# From -- ./inp_files/93804.got.cif
#   From: 2010.06.25/outbox.cif.g09.slc.cpg/sg10_47_cif.got.tgz:93804.got - 2010.06.27 22:07:45.
