data_PCOD8060520
_publ_section_title
;
Structure prediction by ZEFSAII (Michael W. Deem and Ramdas Pophale) SiO2 
 PCOD8060520
Probable space group: P 2/M
;
_chemical_formula_sum "Si O2"
_cell_formula_units_Z 28
_cell_length_a 13.303629
_cell_length_b 8.945423
_cell_length_c 13.750178
_cell_angle_alpha 90.000000
_cell_angle_beta 59.579726
_cell_angle_gamma 90.000000
_cell_volume 1411.091309
_symmetry_space_group_name_H-M "P 2/M"
_symmetry_group_IT_number 10
_symmetry_cell_setting 'monoclinic'
loop_
_space_group_symop_operation_xyz
x,y,z
-x,y,-z
-x,-y,-z
x,-y,z
loop_
_atom_site_type_symbol
_atom_site_label
_atom_site_fract_x
_atom_site_fract_y
_atom_site_fract_z
Si Si1 0.250560 0.671915 0.703272
Si Si2 0.981229 0.330957 0.270579
Si Si3 0.174423 0.824342 0.269990
Si Si4 0.831058 0.327879 0.536382
Si Si5 0.631414 0.176086 0.531907
Si Si6 0.552336 0.327953 0.259411
Si Si7 0.557348 0.176098 0.871696
O O1 0.260802 0.500000 0.660717
O O2 0.112270 0.714891 0.768436
O O3 0.320189 0.776684 0.595556
O O4 0.308735 0.688463 0.782035
O O5 0.024177 0.500000 0.234102
O O6 0.917228 0.309660 0.404751
O O7 0.095963 0.225380 0.214911
O O8 0.115813 0.737324 0.389910
O O9 0.308059 0.771961 0.191773
O O10 0.163903 0.000000 0.289723
O O11 0.796175 0.500000 0.568977
O O12 0.716859 0.226726 0.576484
O O13 0.509805 0.256252 0.615753
O O14 0.612456 0.000000 0.543927
O O15 0.516591 0.500000 0.266808
O O16 0.519219 0.246610 0.176541
O O17 0.549062 0.000000 0.861974
O O18 0.500000 0.229559 0.000000
#
# Coordination Sequence:
#
# PCOD8060520 Si02
#       7
#     4   4   4   4   4   4   4
#     4   9  20  36  52  76 111 149 184 219 263 317
#     4   9  19  34  51  74 109 149 181 212 261 322
#     4  11  21  33  53  79 106 138 179 227 274 324
#     4  10  19  32  50  74 108 149 184 219 265 319
#     4  11  20  30  48  78 113 148 184 221 264 320
#     4  11  21  35  57  80 106 141 183 228 272 324
#     4  10  23  42  60  80 108 140 177 229 289 333
#
# _framework density 19.842797000000001
#
# number of rings (size 3 to 8) (size 9 to 14) (size 15 to 20)
#    0.000    1.857    1.429    4.286    0.000    8.286 
#    0.000    0.000    0.000    0.857    0.000    6.000 
#    0.000    0.000    0.000    0.000    0.000    0.000 
#
# Total GULP energy -347034.585514 kJ/mol
# GULP energy per Si atom -12394.092340 kJ/mol
# Density = 1.979763 g / cm^3
# Si number density = 19.842797 Si / 1000 Ang^3
#
#
#
# Elastic Constant Matrix: (Units=GPa)
#
#
# Indices 1 2 3 4 5 6 
#
# 1 170.3139 39.5001 31.7198 0.0000 9.1955 0.0000
# 2 39.5001 61.2483 25.2123 0.0000 3.0736 0.0000
# 3 31.7198 25.2123 37.5206 0.0000 3.7590 0.0000
# 4 0.0000 0.0000 0.0000 13.8991 0.0000 -3.3679
# 5 9.1955 3.0736 3.7590 0.0000 12.7548 0.0000
# 6 0.0000 0.0000 0.0000 -3.3679 0.0000 23.6313
#
#
#
# Elastic Compliance Matrix: (Units=1/GPa)
#
#
# Indices 1 2 3 4 5 6 
#
# 1 0.007501 -0.003035 -0.003950 0.000000 -0.003512 0.000000
# 2 -0.003035 0.023811 -0.013476 0.000000 0.000422 0.000000
# 3 -0.003950 -0.013476 0.039605 0.000000 -0.005577 0.000000
# 4 0.000000 0.000000 0.000000 0.074521 0.000000 0.010621
# 5 -0.003512 0.000422 -0.005577 0.000000 0.082476 0.000000
# 6 0.000000 0.000000 0.000000 0.010621 0.000000 0.043830
#
#
# Mechanical properties :
#
#
# Convention : Reuss Voigt Hill
#
# Bulk Modulus (GPa) = 33.33938 51.32748 42.33343
# Shear Modulus (GPa) = 15.49604 21.56709 18.53157
#
# Velocity S-wave (km/s) = 2.79756 3.30039 3.05932
# Velocity P-wave (km/s) = 5.22239 6.35977 5.81894
#
# Compressibility (1/GPa) = 0.02999456
#
# Stress axis : x y z
#
# Youngs Moduli (GPa) = 133.32129 41.99822 25.24930
#
# Poissons Ratio (x) = 0.12747 0.09973
# Poissons Ratio (y) = 0.40466 0.34026
# Poissons Ratio (z) = 0.52657 0.56597
#
# Static dielectric constant tensor:
#      x y z
#    x 4.209520 0.000000 -0.020750 
#    y 0.000000 3.526950 0.000000 
#    z -0.020750 0.000000 3.112000 
# 
# 
# High freq. dielectric constant tensor:
#      x y z
#    x 1.804930 0.000000 0.004260 
#    y 0.000000 1.773430 0.000000 
#    z 0.004260 0.000000 1.708590 
# 
# From -- ./inp_files/65922.got.cif
#   From: 2010.06.25/outbox.cif.g09.slc.cpg/sg10_33_cif.got.tgz:65922.got - 2010.06.27 22:07:45.
