data_PCOD8060720
_publ_section_title
;
Structure prediction by ZEFSAII (Michael W. Deem and Ramdas Pophale) SiO2 
 PCOD8060720
Probable space group: P 2/M
;
_chemical_formula_sum "Si O2"
_cell_formula_units_Z 32
_cell_length_a 24.164531
_cell_length_b 9.190919
_cell_length_c 25.296583
_cell_angle_alpha 90.000000
_cell_angle_beta 17.179042
_cell_angle_gamma 90.000000
_cell_volume 1659.391250
_symmetry_space_group_name_H-M "P 2/M"
_symmetry_group_IT_number 10
_symmetry_cell_setting 'monoclinic'
loop_
_space_group_symop_operation_xyz
x,y,z
-x,y,-z
-x,-y,-z
x,-y,z
loop_
_atom_site_type_symbol
_atom_site_label
_atom_site_fract_x
_atom_site_fract_y
_atom_site_fract_z
Si Si1 0.681445 0.334124 0.711586
Si Si2 0.484839 0.836152 0.800319
Si Si3 0.203730 0.327714 0.796269
Si Si4 0.786882 0.164368 0.713057
Si Si5 0.414368 0.672391 0.500119
Si Si6 0.701438 0.170589 0.499982
Si Si7 0.914393 0.163862 0.800329
Si Si8 0.894885 0.665886 0.711969
O O1 0.622678 0.500000 0.775769
O O2 0.545185 0.267185 0.792677
O O3 0.658992 0.246340 0.786738
O O4 0.890200 0.322595 0.499805
O O5 0.563469 0.780468 0.672896
O O6 0.559346 0.000000 0.743773
O O7 0.260851 0.833280 0.000103
O O8 0.188980 0.500000 0.811024
O O9 0.372528 0.277196 0.680975
O O10 0.265356 0.277214 0.681136
O O11 0.000000 0.261393 0.000000
O O12 0.767164 0.246398 0.786925
O O13 0.000000 0.166756 0.500000
O O14 0.713071 0.000000 0.786856
O O15 0.408117 0.500000 0.500113
O O16 0.354856 0.743627 0.500228
O O17 0.909081 0.219732 0.327503
O O18 0.688591 0.000000 0.499759
O O19 0.868727 0.267049 0.793234
O O20 0.952930 0.000000 0.743856
O O21 0.825299 0.500000 0.776149
#
# Coordination Sequence:
#
# PCOD8060720 Si02
#       8
#     4   4   4   4   4   4   4   4
#     4  10  19  32  52  78 107 136 171 221 277 327
#     4  10  21  37  56  76 101 140 185 222 265 325
#     4   8  15  31  54  80 112 146 178 218 264 306
#     4   9  17  29  50  77 104 138 177 215 264 331
#     4   9  18  32  54  82 107 139 185 222 255 311
#     4  10  21  37  55  77 111 146 177 222 272 314
#     4  10  21  37  56  76 101 140 185 222 265 325
#     4  10  19  32  52  78 107 136 171 221 277 327
#
# _framework density 19.284179999999999
#
# number of rings (size 3 to 8) (size 9 to 14) (size 15 to 20)
#    0.000    2.500    1.250    1.875    0.000    5.000 
#    0.000    1.875    0.000    4.500    0.000    0.000 
#    0.000    0.000    0.000    0.000    0.000    0.000 
#
# Total GULP energy -396755.614737 kJ/mol
# GULP energy per Si atom -12398.612961 kJ/mol
# Density = 1.924029 g / cm^3
# Si number density = 19.284180 Si / 1000 Ang^3
#
#
#
# Elastic Constant Matrix: (Units=GPa)
#
#
# Indices 1 2 3 4 5 6 
#
# 1 165.0530 62.4036 72.6283 0.0000 28.5711 0.0000
# 2 62.4036 88.3851 38.3916 0.0000 2.6553 0.0000
# 3 72.6283 38.3916 115.6676 0.0000 -19.6442 0.0000
# 4 0.0000 0.0000 0.0000 13.4680 0.0000 4.6385
# 5 28.5711 2.6553 -19.6442 0.0000 -90.6942 0.0000
# 6 0.0000 0.0000 0.0000 4.6385 0.0000 64.8346
#
#
#
# Elastic Compliance Matrix: (Units=1/GPa)
#
#
# Indices 1 2 3 4 5 6 
#
# 1 0.008781 -0.004852 -0.003335 0.000000 0.003347 0.000000
# 2 -0.004852 0.015746 -0.002277 0.000000 -0.000574 0.000000
# 3 -0.003335 -0.002277 0.010905 0.000000 -0.003479 0.000000
# 4 0.000000 0.000000 0.000000 0.076126 0.000000 -0.005446
# 5 0.003347 -0.000574 -0.003479 0.000000 -0.009235 0.000000
# 6 0.000000 0.000000 0.000000 -0.005446 0.000000 0.015814
#
#
# Mechanical properties :
#
#
# Convention : Reuss Voigt Hill
#
# Bulk Modulus (GPa) = 68.94897 79.55031 74.24964
# Shear Modulus (GPa) = 34.74644 10.56716 22.65680
#
# Velocity S-wave (km/s) = 4.24938 2.34342 3.43139
# Velocity P-wave (km/s) = 7.74003 6.97591 7.36788
#
# Compressibility (1/GPa) = 0.01450348
#
# Stress axis : x y z
#
# Youngs Moduli (GPa) = 113.87889 63.50738 91.70470
#
# Poissons Ratio (x) = 0.30813 0.30584
# Poissons Ratio (y) = 0.55252 0.20885
# Poissons Ratio (z) = 0.37979 0.14463
#
# Static dielectric constant tensor:
#      x y z
#    x 3.428630 0.000000 -0.026810 
#    y 0.000000 3.430220 0.000000 
#    z -0.026810 0.000000 3.720230 
# 
# 
# High freq. dielectric constant tensor:
#      x y z
#    x 1.743060 0.000000 -0.001000 
#    y 0.000000 1.735910 0.000000 
#    z -0.001000 0.000000 1.754470 
# 
# From -- ./inp_files/90623.got.cif
#   From: 2010.06.25/outbox.cif.g09.slc.cpg/sg10_46_cif.got.tgz:90623.got - 2010.06.27 22:07:45.
