data_PCOD8060843
_publ_section_title
;
Structure prediction by ZEFSAII (Michael W. Deem and Ramdas Pophale) SiO2 
 PCOD8060843
Probable space group: P 2/M
;
_chemical_formula_sum "Si O2"
_cell_formula_units_Z 24
_cell_length_a 23.594833
_cell_length_b 8.631658
_cell_length_c 12.513220
_cell_angle_alpha 90.000000
_cell_angle_beta 27.265452
_cell_angle_gamma 90.000000
_cell_volume 1167.490756
_symmetry_space_group_name_H-M "P 2/M"
_symmetry_group_IT_number 10
_symmetry_cell_setting 'monoclinic'
loop_
_space_group_symop_operation_xyz
x,y,z
-x,y,-z
-x,-y,-z
x,-y,z
loop_
_atom_site_type_symbol
_atom_site_label
_atom_site_fract_x
_atom_site_fract_y
_atom_site_fract_z
Si Si1 0.857054 0.328401 0.713165
Si Si2 0.823587 0.180658 0.984573
Si Si3 0.684110 0.318823 0.687163
Si Si4 0.501395 0.816307 0.159396
Si Si5 0.563535 0.181892 0.499183
Si Si6 0.904678 0.180414 0.419649
O O1 0.805779 0.500000 0.771471
O O2 0.787779 0.261102 0.932632
O O3 0.838936 0.214575 0.643418
O O4 0.000000 0.337779 0.500000
O O5 0.952860 0.240785 0.818956
O O6 0.838339 0.000000 0.934723
O O7 0.710859 0.217363 0.253405
O O8 0.669743 0.500000 0.690066
O O9 0.627460 0.225413 0.682683
O O10 0.828550 0.272710 0.456519
O O11 0.613305 0.272146 0.914717
O O12 0.494896 0.754633 0.292678
O O13 0.522438 0.000000 0.117112
O O14 0.500000 0.257013 0.500000
O O15 0.540359 0.000000 0.534892
O O16 0.896524 0.000000 0.407677
#
# Coordination Sequence:
#
# PCOD8060843 Si02
#       6
#     4   4   4   4   4   4
#     4   9  17  29  46  73 110 146 178 219 270 321
#     4   9  18  33  53  79 111 146 184 226 273 327
#     4  11  22  37  58  82 112 145 184 235 284 325
#     4  10  20  37  60  85 112 145 186 227 273 331
#     4   9  19  35  57  85 114 145 182 226 273 327
#     4  10  19  32  53  80 108 143 188 231 274 327
#
# _framework density 20.556908
#
# number of rings (size 3 to 8) (size 9 to 14) (size 15 to 20)
#    0.000    2.333    0.000    4.000    2.333    2.667 
#    0.000    2.500    0.000    7.500    0.000    0.000 
#    0.000    0.000    0.000    0.000    0.000    0.000 
#
# Total GULP energy -297524.079189 kJ/mol
# GULP energy per Si atom -12396.836633 kJ/mol
# Density = 2.051012 g / cm^3
# Si number density = 20.556908 Si / 1000 Ang^3
#
#
#
# Elastic Constant Matrix: (Units=GPa)
#
#
# Indices 1 2 3 4 5 6 
#
# 1 100.6857 1.0088 36.6212 0.0000 -4.7618 0.0000
# 2 1.0088 52.8812 7.0452 0.0000 -3.5995 0.0000
# 3 36.6212 7.0452 60.0612 0.0000 5.8616 0.0000
# 4 0.0000 0.0000 0.0000 13.4432 0.0000 -6.5502
# 5 -4.7618 -3.5995 5.8616 0.0000 34.6199 0.0000
# 6 0.0000 0.0000 0.0000 -6.5502 0.0000 14.9348
#
#
#
# Elastic Compliance Matrix: (Units=1/GPa)
#
#
# Indices 1 2 3 4 5 6 
#
# 1 0.013166 0.001108 -0.008486 0.000000 0.003363 0.000000
# 2 0.001108 0.019505 -0.003230 0.000000 0.002727 0.000000
# 3 -0.008486 -0.003230 0.022725 0.000000 -0.005351 0.000000
# 4 0.000000 0.000000 0.000000 0.094604 0.000000 0.041492
# 5 0.003363 0.002727 -0.005351 0.000000 0.030537 0.000000
# 6 0.000000 0.000000 0.000000 0.041492 0.000000 0.085156
#
#
# Mechanical properties :
#
#
# Convention : Reuss Voigt Hill
#
# Bulk Modulus (GPa) = 29.25600 33.66429 31.46014
# Shear Modulus (GPa) = 16.76149 23.86311 20.31230
#
# Velocity S-wave (km/s) = 2.85857 3.41079 3.14682
# Velocity P-wave (km/s) = 5.01576 5.65005 5.34232
#
# Compressibility (1/GPa) = 0.03418103
#
# Stress axis : x y z
#
# Youngs Moduli (GPa) = 75.95079 51.26854 44.00433
#
# Poissons Ratio (x) = -0.05682 0.37343
# Poissons Ratio (y) = -0.08418 0.14213
# Poissons Ratio (z) = 0.64453 0.16559
#
# Static dielectric constant tensor:
#      x y z
#    x 3.949790 0.000000 -0.075750 
#    y 0.000000 3.585720 0.000000 
#    z -0.075750 0.000000 3.648460 
# 
# 
# High freq. dielectric constant tensor:
#      x y z
#    x 1.803710 0.000000 -0.016580 
#    y 0.000000 1.786130 0.000000 
#    z -0.016580 0.000000 1.785330 
# 
# From -- ./inp_files/56551.got.cif
#   From: 2010.06.25/outbox.cif.g09.slc.cpg/sg10_29_cif.got.tgz:56551.got - 2010.06.27 22:07:45.
