data_PCOD8060893
_publ_section_title
;
Structure prediction by ZEFSAII (Michael W. Deem and Ramdas Pophale) SiO2 
 PCOD8060893
Probable space group: P 2/M
;
_chemical_formula_sum "Si O2"
_cell_formula_units_Z 28
_cell_length_a 9.548864
_cell_length_b 9.165524
_cell_length_c 28.108004
_cell_angle_alpha 90.000000
_cell_angle_beta 39.533941
_cell_angle_gamma 90.000000
_cell_volume 1565.890690
_symmetry_space_group_name_H-M "P 2/M"
_symmetry_group_IT_number 10
_symmetry_cell_setting 'monoclinic'
loop_
_space_group_symop_operation_xyz
x,y,z
-x,y,-z
-x,-y,-z
x,-y,z
loop_
_atom_site_type_symbol
_atom_site_label
_atom_site_fract_x
_atom_site_fract_y
_atom_site_fract_z
Si Si1 0.214927 0.333153 0.707983
Si Si2 0.156874 0.830209 0.314767
Si Si3 0.556981 0.670048 0.256628
Si Si4 0.280229 0.328425 0.584084
Si Si5 0.687214 0.171881 0.054450
Si Si6 0.211618 0.831831 0.189587
Si Si7 0.874857 0.172569 0.105146
O O1 0.143548 0.500000 0.724662
O O2 0.404760 0.306580 0.697037
O O3 0.305263 0.283003 0.632890
O O4 0.993134 0.248849 0.780469
O O5 0.336607 0.754658 0.300999
O O6 0.224863 0.804897 0.242547
O O7 0.921991 0.756902 0.386828
O O8 0.144804 0.000000 0.330956
O O9 0.532931 0.500000 0.249903
O O10 0.770901 0.736305 0.174980
O O11 0.500000 0.277496 0.500000
O O12 0.238640 0.500000 0.588598
O O13 0.441184 0.229720 0.107154
O O14 0.764841 0.230391 0.085357
O O15 0.675074 0.000000 0.063899
O O16 0.863329 0.210345 0.967016
O O17 0.178636 0.000000 0.185910
O O18 0.836126 0.000000 0.123622
#
# Coordination Sequence:
#
# PCOD8060893 Si02
#       7
#     4   4   4   4   4   4   4
#     4   9  20  35  50  72 102 134 164 200 249 299
#     4  10  19  32  54  79 102 130 167 207 245 292
#     4  11  21  33  48  71 105 137 167 203 246 300
#     4   9  18  36  60  81 101 128 164 204 246 294
#     4   8  14  27  48  72  96 125 166 215 257 290
#     4   9  16  30  51  74  95 124 169 213 250 291
#     4   9  16  29  49  70  97 131 167 212 255 291
#
# _framework density 17.881198000000001
#
# number of rings (size 3 to 8) (size 9 to 14) (size 15 to 20)
#    0.000    2.714    1.429    1.714    0.000    2.000 
#    0.000    3.571    0.000    8.571    0.000    0.000 
#    0.000    0.000    0.000    0.000    0.000    0.000 
#
# Total GULP energy -347093.041440 kJ/mol
# GULP energy per Si atom -12396.180051 kJ/mol
# Density = 1.784050 g / cm^3
# Si number density = 17.881198 Si / 1000 Ang^3
#
#
#
# Elastic Constant Matrix: (Units=GPa)
#
#
# Indices 1 2 3 4 5 6 
#
# 1 87.2237 44.6170 49.8665 0.0000 -16.2125 0.0000
# 2 44.6170 69.7296 48.0869 0.0000 -12.9976 0.0000
# 3 49.8665 48.0869 130.8711 0.0000 -24.4126 0.0000
# 4 0.0000 0.0000 0.0000 24.3842 0.0000 -5.9156
# 5 -16.2125 -12.9976 -24.4126 0.0000 25.0674 0.0000
# 6 0.0000 0.0000 0.0000 -5.9156 0.0000 25.1463
#
#
#
# Elastic Compliance Matrix: (Units=1/GPa)
#
#
# Indices 1 2 3 4 5 6 
#
# 1 0.018599 -0.009047 -0.002925 0.000000 0.004489 0.000000
# 2 -0.009047 0.023905 -0.005029 0.000000 0.001646 0.000000
# 3 -0.002925 -0.005029 0.011932 0.000000 0.007121 0.000000
# 4 0.000000 0.000000 0.000000 0.043492 0.000000 0.010232
# 5 0.004489 0.001646 0.007121 0.000000 0.050584 0.000000
# 6 0.000000 0.000000 0.000000 0.010232 0.000000 0.042174
#
#
# Mechanical properties :
#
#
# Convention : Reuss Voigt Hill
#
# Bulk Modulus (GPa) = 48.94002 63.66280 56.30141
# Shear Modulus (GPa) = 21.59820 24.60318 23.10069
#
# Velocity S-wave (km/s) = 3.47922 3.71337 3.59820
# Velocity P-wave (km/s) = 6.60067 7.35296 6.98695
#
# Compressibility (1/GPa) = 0.02043318
#
# Stress axis : x y z
#
# Youngs Moduli (GPa) = 53.76548 41.83255 83.80775
#
# Poissons Ratio (x) = 0.37844 0.24518
# Poissons Ratio (y) = 0.48639 0.42151
# Poissons Ratio (z) = 0.15729 0.21039
#
# Static dielectric constant tensor:
#      x y z
#    x 3.200320 0.000000 -0.166210 
#    y 0.000000 3.179950 0.000000 
#    z -0.166210 0.000000 3.450640 
# 
# 
# High freq. dielectric constant tensor:
#      x y z
#    x 1.677040 0.000000 -0.015810 
#    y 0.000000 1.676570 0.000000 
#    z -0.015810 0.000000 1.687550 
# 
# From -- ./inp_files/37263.got.cif
#   From: 2010.06.25/outbox.cif.g09.slc.cpg/sg10_19_cif.got.tgz:37263.got - 2010.06.27 22:07:45.
