data_PCOD8060605
_publ_section_title
;
Structure prediction by ZEFSAII (Michael W. Deem and Ramdas Pophale) SiO2 
 PCOD8060605
Probable space group: P 2/M
;
_chemical_formula_sum "Si O2"
_cell_formula_units_Z 32
_cell_length_a 27.635923
_cell_length_b 9.063593
_cell_length_c 21.634438
_cell_angle_alpha 90.000000
_cell_angle_beta 161.423851
_cell_angle_gamma 90.000000
_cell_volume 1726.305683
_symmetry_space_group_name_H-M "P 2/M"
_symmetry_group_IT_number 10
_symmetry_cell_setting 'monoclinic'
loop_
_space_group_symop_operation_xyz
x,y,z
-x,y,-z
-x,-y,-z
x,-y,z
loop_
_atom_site_type_symbol
_atom_site_label
_atom_site_fract_x
_atom_site_fract_y
_atom_site_fract_z
Si Si1 0.422395 0.174940 0.841643
Si Si2 0.773571 0.175098 0.694098
Si Si3 0.921095 0.824334 0.996892
Si Si4 0.157974 0.175535 0.964647
Si Si5 0.577652 0.667343 0.915652
Si Si6 0.921041 0.826051 0.578964
Si Si7 0.542243 0.823991 0.743345
Si Si8 0.932808 0.334508 0.354795
O O1 0.503014 0.252590 0.882808
O O2 0.249767 0.234515 0.630946
O O3 0.432605 0.000000 0.844968
O O4 0.500000 0.223156 0.000000
O O5 0.810258 0.231963 0.807907
O O6 0.609432 0.234087 0.474611
O O7 0.772586 0.000000 0.693172
O O8 0.906302 0.229643 0.807988
O O9 0.919419 0.000000 0.997685
O O10 0.860543 0.759158 0.988584
O O11 0.011129 0.231365 0.748516
O O12 0.163810 0.000000 0.973440
O O13 0.313066 0.233972 0.120747
O O14 0.517058 0.500000 0.836289
O O15 0.540115 0.755269 0.808317
O O16 0.753999 0.669012 0.142708
O O17 0.014076 0.776448 0.632684
O O18 0.918004 0.000000 0.575072
O O19 0.544695 0.000000 0.753005
O O20 0.992248 0.500000 0.412713
O O21 0.000000 0.274827 0.500000
#
# Coordination Sequence:
#
# PCOD8060605 Si02
#       8
#     4   4   4   4   4   4   4   4
#     4  10  22  38  56  80 108 137 173 219 268 319
#     4   8  15  26  45  73 104 138 170 207 257 309
#     4   8  14  26  43  71 107 136 168 209 257 309
#     4   9  17  28  45  72 105 135 165 209 257 305
#     4  11  23  37  54  78 107 141 178 219 264 314
#     4  10  20  34  53  79 106 136 172 213 263 312
#     4  10  19  32  51  76 105 138 174 214 261 310
#     4  10  21  37  56  76 101 137 177 217 262 310
#
# _framework density 18.536693
#
# number of rings (size 3 to 8) (size 9 to 14) (size 15 to 20)
#    0.000    2.500    1.250    1.875    1.750    2.000 
#    0.000    2.500    0.000    0.000    0.000    4.375 
#    0.000    0.000    0.000    0.000    0.000    0.000 
#
# Total GULP energy -396706.501464 kJ/mol
# GULP energy per Si atom -12397.078171 kJ/mol
# Density = 1.849450 g / cm^3
# Si number density = 18.536693 Si / 1000 Ang^3
#
#
#
# Elastic Constant Matrix: (Units=GPa)
#
#
# Indices 1 2 3 4 5 6 
#
# 1 176.1568 25.7742 83.5665 0.0000 -8.7922 0.0000
# 2 25.7742 10.9488 27.7829 0.0000 -1.1455 0.0000
# 3 83.5665 27.7829 153.4424 0.0000 -9.9285 0.0000
# 4 0.0000 0.0000 0.0000 27.9901 0.0000 -23.5986
# 5 -8.7922 -1.1455 -9.9285 0.0000 31.6985 0.0000
# 6 0.0000 0.0000 0.0000 -23.5986 0.0000 45.6643
#
#
#
# Elastic Compliance Matrix: (Units=1/GPa)
#
#
# Indices 1 2 3 4 5 6 
#
# 1 0.009022 -0.016372 -0.001864 0.000000 0.001327 0.000000
# 2 -0.016372 0.199065 -0.027513 0.000000 -0.005965 0.000000
# 3 -0.001864 -0.027513 0.012673 0.000000 0.002458 0.000000
# 4 0.000000 0.000000 0.000000 0.063312 0.000000 0.032719
# 5 0.001327 -0.005965 0.002458 0.000000 0.032470 0.000000
# 6 0.000000 0.000000 0.000000 0.032719 0.000000 0.038807
#
#
# Mechanical properties :
#
#
# Convention : Reuss Voigt Hill
#
# Bulk Modulus (GPa) = 7.73614 68.31058 38.02336
# Shear Modulus (GPa) = 10.20544 34.63222 22.41883
#
# Velocity S-wave (km/s) = 2.34893 4.32708 3.48146
# Velocity P-wave (km/s) = 3.39693 7.86742 6.05952
#
# Compressibility (1/GPa) = 0.12926343
#
# Stress axis : x y z
#
# Youngs Moduli (GPa) = 110.83460 5.02347 78.90972
#
# Poissons Ratio (x) = 0.08224 0.14705
# Poissons Ratio (y) = 1.81456 2.17106
# Poissons Ratio (z) = 0.20654 0.13821
#
# Static dielectric constant tensor:
#      x y z
#    x 3.564410 0.000000 -0.056450 
#    y 0.000000 3.006680 0.000000 
#    z -0.056450 0.000000 3.800410 
# 
# 
# High freq. dielectric constant tensor:
#      x y z
#    x 1.729640 0.000000 -0.003230 
#    y 0.000000 1.669460 0.000000 
#    z -0.003230 0.000000 1.734710 
# 
# From -- ./inp_files/86953.got.cif
#   From: 2010.06.25/outbox.cif.g09.slc.cpg/sg10_44_cif.got.tgz:86953.got - 2010.06.27 22:07:45.
