data_PCOD8060370
_publ_section_title
;
Structure prediction by ZEFSAII (Michael W. Deem and Ramdas Pophale) SiO2 
 PCOD8060370
Probable space group: P 2/M
;
_chemical_formula_sum "Si O2"
_cell_formula_units_Z 28
_cell_length_a 26.863171
_cell_length_b 13.563686
_cell_length_c 5.113481
_cell_angle_alpha 90.000000
_cell_angle_beta 102.333371
_cell_angle_gamma 90.000000
_cell_volume 1820.167031
_symmetry_space_group_name_H-M "P 2/M"
_symmetry_group_IT_number 10
_symmetry_cell_setting 'monoclinic'
loop_
_space_group_symop_operation_xyz
x,y,z
-x,y,-z
-x,-y,-z
x,-y,z
loop_
_atom_site_type_symbol
_atom_site_label
_atom_site_fract_x
_atom_site_fract_y
_atom_site_fract_z
Si Si1 0.706165 0.883132 0.146151
Si Si2 0.557143 0.708429 0.456235
Si Si3 0.882354 0.117683 0.878278
Si Si4 0.942644 0.882465 0.446079
Si Si5 0.595269 0.191536 0.984575
Si Si6 0.768355 0.116538 0.718579
Si Si7 0.464851 0.000000 0.208705
Si Si8 0.464665 0.500000 0.706912
O O1 0.743446 0.850337 0.419922
O O2 0.696014 0.000000 0.136105
O O3 0.653526 0.826264 0.125659
O O4 0.732713 0.845478 0.911977
O O5 0.500000 0.722156 0.500000
O O6 0.593026 0.727288 0.748781
O O7 0.568891 0.599408 0.351430
O O8 0.565968 0.780884 0.219831
O O9 0.914640 0.157915 0.671055
O O10 0.825139 0.161384 0.803860
O O11 0.880676 0.000000 0.873237
O O12 0.910458 0.157764 0.166231
O O13 0.000000 0.840344 0.500000
O O14 0.944145 0.000000 0.445913
O O15 0.571066 0.094859 0.828616
O O16 0.772726 0.000000 0.742000
O O17 0.500000 0.000000 0.500000
O O18 0.500000 0.000000 0.000000
O O19 0.500000 0.500000 0.500000
O O20 0.500000 0.500000 0.000000
#
# Coordination Sequence:
#
# PCOD8060370 Si02
#       8
#     4   4   4   4   4   4   2   2
#     4  10  19  32  43  58  80 107 138 168 206 240
#     4  11  22  36  54  71  90 110 138 168 208 253
#     4   9  15  23  33  48  63  85 123 158 197 245
#     4   9  15  21  30  44  66  88 110 149 204 259
#     4  12  22  35  49  68  91 116 141 170 205 255
#     4   9  17  27  42  53  69  98 134 174 202 237
#     4  12  24  34  46  64  90 118 142 164 193 246
#     4  10  20  36  56  74  90 108 134 170 206 248
#
# _framework density 15.383203
#
# number of rings (size 3 to 8) (size 9 to 14) (size 15 to 20)
#    0.000    1.857    0.714    6.429    0.000    5.143 
#    0.000    0.000    0.000    0.000    0.000    0.000 
#    0.000    0.000    0.000    0.000    0.000    0.000 
#
# Total GULP energy -347142.548143 kJ/mol
# GULP energy per Si atom -12397.948148 kJ/mol
# Density = 1.534819 g / cm^3
# Si number density = 15.383203 Si / 1000 Ang^3
#
#
#
# Elastic Constant Matrix: (Units=GPa)
#
#
# Indices 1 2 3 4 5 6 
#
# 1 94.3274 22.7101 32.7484 0.0000 5.7851 0.0000
# 2 22.7101 36.8898 18.0434 0.0000 2.2707 0.0000
# 3 32.7484 18.0434 107.3919 0.0000 -2.6269 0.0000
# 4 0.0000 0.0000 0.0000 12.9437 0.0000 -0.0947
# 5 5.7851 2.2707 -2.6269 0.0000 31.7269 0.0000
# 6 0.0000 0.0000 0.0000 -0.0947 0.0000 4.0479
#
#
#
# Elastic Compliance Matrix: (Units=1/GPa)
#
#
# Indices 1 2 3 4 5 6 
#
# 1 0.013381 -0.006623 -0.003022 0.000000 -0.002216 0.000000
# 2 -0.006623 0.033017 -0.003563 0.000000 -0.001450 0.000000
# 3 -0.003022 -0.003563 0.010874 0.000000 0.001706 0.000000
# 4 0.000000 0.000000 0.000000 0.077271 0.000000 0.001808
# 5 -0.002216 -0.001450 0.001706 0.000000 0.032168 0.000000
# 6 0.000000 0.000000 0.000000 0.001808 0.000000 0.247084
#
#
# Mechanical properties :
#
#
# Convention : Reuss Voigt Hill
#
# Bulk Modulus (GPa) = 32.40924 42.84588 37.62756
# Shear Modulus (GPa) = 11.09887 20.75084 15.92485
#
# Velocity S-wave (km/s) = 2.68898 3.67676 3.22096
# Velocity P-wave (km/s) = 5.54567 6.77773 6.19242
#
# Compressibility (1/GPa) = 0.03085540
#
# Stress axis : x y z
#
# Youngs Moduli (GPa) = 74.73295 30.28727 91.96597
#
# Poissons Ratio (x) = 0.20060 0.27791
# Poissons Ratio (y) = 0.49497 0.32769
# Poissons Ratio (z) = 0.22583 0.10792
#
# Static dielectric constant tensor:
#      x y z
#    x 3.031270 0.000000 -0.006670 
#    y 0.000000 3.233890 0.000000 
#    z -0.006670 0.000000 3.175770 
# 
# 
# High freq. dielectric constant tensor:
#      x y z
#    x 1.589290 0.000000 -0.003710 
#    y 0.000000 1.511950 0.000000 
#    z -0.003710 0.000000 1.618450 
# 
# From -- ./inp_files/13091.got.cif
#   From: 2010.06.25/outbox.cif.g09.slc.cpg/sg10_7_cif.got.tgz:13091.got - 2010.06.27 22:07:45.
