data_PCOD8060374
_publ_section_title
;
Structure prediction by ZEFSAII (Michael W. Deem and Ramdas Pophale) SiO2 
 PCOD8060374
Probable space group: P 2/M
;
_chemical_formula_sum "Si O2"
_cell_formula_units_Z 22
_cell_length_a 17.104440
_cell_length_b 16.410603
_cell_length_c 17.990588
_cell_angle_alpha 90.000000
_cell_angle_beta 16.300256
_cell_angle_gamma 90.000000
_cell_volume 1417.347347
_symmetry_space_group_name_H-M "P 2/M"
_symmetry_group_IT_number 10
_symmetry_cell_setting 'monoclinic'
loop_
_space_group_symop_operation_xyz
x,y,z
-x,y,-z
-x,-y,-z
x,-y,z
loop_
_atom_site_type_symbol
_atom_site_label
_atom_site_fract_x
_atom_site_fract_y
_atom_site_fract_z
Si Si1 0.497680 0.255998 0.912953
Si Si2 0.875010 0.596021 0.038417
Si Si3 0.948177 0.658290 0.404596
Si Si4 0.738753 0.596112 0.444592
Si Si5 0.186127 0.500000 0.258906
Si Si6 0.692713 0.088031 0.753871
O O1 0.575236 0.164395 0.813707
O O2 0.729081 0.317198 0.668594
O O3 0.500000 0.263541 0.000000
O O4 0.183524 0.273819 0.172887
O O5 0.922239 0.500000 0.998449
O O6 0.554298 0.619717 0.324524
O O7 0.000000 0.635038 0.000000
O O8 0.032167 0.628865 0.822171
O O9 0.123000 0.578744 0.267244
O O10 0.771956 0.643445 0.491296
O O11 0.760956 0.500000 0.440022
O O12 0.000000 0.500000 0.500000
O O13 0.500000 0.500000 0.000000
O O14 0.000000 0.111936 0.500000
O O15 0.695104 0.000000 0.708289
O O16 0.500000 0.076814 0.000000
#
# Coordination Sequence:
#
# PCOD8060374 Si02
#       6
#     4   4   4   4   2   4
#     4  11  21  33  48  63  86 113 154 195 227 264
#     4   9  17  29  48  67  82 103 138 182 223 267
#     4  12  22  34  45  62  86 120 154 191 229 255
#     4  10  19  32  45  61  87 113 145 182 223 262
#     4  12  24  34  44  56  77 116 163 200 222 242
#     4   9  17  30  48  67  84 104 136 184 237 279
#
# _framework density 15.521953999999999
#
# number of rings (size 3 to 8) (size 9 to 14) (size 15 to 20)
#    0.000    1.636    0.909    7.091    0.000    2.182 
#    0.000    0.000    0.000    0.000    0.000    0.000 
#    0.000    0.000    0.000    0.000    0.000   63.636 
#
# Total GULP energy -272716.404743 kJ/mol
# GULP energy per Si atom -12396.200216 kJ/mol
# Density = 1.548662 g / cm^3
# Si number density = 15.521954 Si / 1000 Ang^3
#
#
#
# Elastic Constant Matrix: (Units=GPa)
#
#
# Indices 1 2 3 4 5 6 
#
# 1 76.3471 31.2224 18.1740 0.0000 -3.3462 0.0000
# 2 31.2224 67.2073 20.4097 0.0000 -2.1506 0.0000
# 3 18.1740 20.4097 93.1468 0.0000 -1.9406 0.0000
# 4 0.0000 0.0000 0.0000 18.4578 0.0000 -4.8636
# 5 -3.3462 -2.1506 -1.9406 0.0000 20.1847 0.0000
# 6 0.0000 0.0000 0.0000 -4.8636 0.0000 6.4037
#
#
#
# Elastic Compliance Matrix: (Units=1/GPa)
#
#
# Indices 1 2 3 4 5 6 
#
# 1 0.016467 -0.007100 -0.001619 0.000000 0.001818 0.000000
# 2 -0.007100 0.019039 -0.002774 0.000000 0.000585 0.000000
# 3 -0.001619 -0.002774 0.011671 0.000000 0.000558 0.000000
# 4 0.000000 0.000000 0.000000 0.067733 0.000000 0.051443
# 5 0.001818 0.000585 0.000558 0.000000 0.049960 0.000000
# 6 0.000000 0.000000 0.000000 0.051443 0.000000 0.195231
#
#
# Mechanical properties :
#
#
# Convention : Reuss Voigt Hill
#
# Bulk Modulus (GPa) = 41.33958 41.81259 41.57609
# Shear Modulus (GPa) = 12.78279 20.13558 16.45919
#
# Velocity S-wave (km/s) = 2.87283 3.60562 3.25988
# Velocity P-wave (km/s) = 6.13963 6.65809 6.40411
#
# Compressibility (1/GPa) = 0.02418989
#
# Stress axis : x y z
#
# Youngs Moduli (GPa) = 60.72834 52.52378 85.68116
#
# Poissons Ratio (x) = 0.37292 0.13874
# Poissons Ratio (y) = 0.43117 0.23770
# Poissons Ratio (z) = 0.09834 0.14571
#
# Static dielectric constant tensor:
#      x y z
#    x 2.818520 0.000000 -0.037430 
#    y 0.000000 3.207340 0.000000 
#    z -0.037430 0.000000 3.139700 
# 
# 
# High freq. dielectric constant tensor:
#      x y z
#    x 1.564980 0.000000 -0.008990 
#    y 0.000000 1.560930 0.000000 
#    z -0.008990 0.000000 1.624550 
# 
# From -- ./inp_files/67689.got.cif
#   From: 2010.06.25/outbox.cif.g09.slc.cpg/sg10_34_cif.got.tgz:67689.got - 2010.06.27 22:07:45.
