data_PCOD8060219
_publ_section_title
;
Structure prediction by ZEFSAII (Michael W. Deem and Ramdas Pophale) SiO2 
 PCOD8060219
Probable space group: P 2/M
;
_chemical_formula_sum "Si O2"
_cell_formula_units_Z 28
_cell_length_a 5.095145
_cell_length_b 30.977621
_cell_length_c 10.010678
_cell_angle_alpha 90.000000
_cell_angle_beta 66.614779
_cell_angle_gamma 90.000000
_cell_volume 1450.250900
_symmetry_space_group_name_H-M "P 2/M"
_symmetry_group_IT_number 10
_symmetry_cell_setting 'monoclinic'
loop_
_space_group_symop_operation_xyz
x,y,z
-x,y,-z
-x,-y,-z
x,-y,z
loop_
_atom_site_type_symbol
_atom_site_label
_atom_site_fract_x
_atom_site_fract_y
_atom_site_fract_z
Si Si1 0.864737 0.951775 0.672789
Si Si2 0.140883 0.189644 0.828804
Si Si3 0.635779 0.100609 0.327275
Si Si4 0.146813 0.328734 0.331818
Si Si5 0.359601 0.616330 0.668432
Si Si6 0.642705 0.241860 0.829819
Si Si7 0.331509 0.451425 0.904836
O O1 0.584883 0.921960 0.728833
O O2 0.000000 0.954670 0.500000
O O3 0.089750 0.930329 0.727260
O O4 0.788299 0.000000 0.738372
O O5 0.280335 0.146725 0.745201
O O6 0.391505 0.225951 0.782003
O O7 0.888419 0.205345 0.782703
O O8 0.000000 0.180359 0.000000
O O9 0.500000 0.106968 0.500000
O O10 0.459969 0.346842 0.296001
O O11 0.194356 0.285305 0.241584
O O12 0.000000 0.316303 0.500000
O O13 0.957696 0.364067 0.289122
O O14 0.500000 0.602045 0.500000
O O15 0.373533 0.575047 0.760851
O O16 0.500000 0.250646 0.000000
O O17 0.445368 0.500000 0.855498
O O18 0.500000 0.431992 0.000000
O O19 0.000000 0.451311 0.000000
#
# Coordination Sequence:
#
# PCOD8060219 Si02
#       7
#     4   4   4   4   4   4   4
#     4   9  17  30  49  74 102 128 159 204 251 295
#     4  10  21  36  52  72 102 135 167 209 257 304
#     4  10  19  31  51  76  97 126 168 205 245 300
#     4  10  21  36  55  80 109 139 175 222 269 315
#     4  10  21  37  56  81 112 145 180 219 272 330
#     4  10  21  36  53  74 100 135 175 210 255 313
#     4  10  21  37  57  83 113 145 185 230 271 314
#
# _framework density 19.307002000000001
#
# number of rings (size 3 to 8) (size 9 to 14) (size 15 to 20)
#    0.000    2.143    0.000    3.000    0.000    4.857 
#    0.000    0.000    0.000    7.714    0.000    0.000 
#    0.000    0.000    0.000    0.000    0.000    0.000 
#
# Total GULP energy -347168.817742 kJ/mol
# GULP energy per Si atom -12398.886348 kJ/mol
# Density = 1.926306 g / cm^3
# Si number density = 19.307002 Si / 1000 Ang^3
#
#
#
# Elastic Constant Matrix: (Units=GPa)
#
#
# Indices 1 2 3 4 5 6 
#
# 1 126.4918 37.1827 37.9904 0.0000 1.0234 0.0000
# 2 37.1827 119.4292 59.9987 0.0000 -0.4343 0.0000
# 3 37.9904 59.9987 52.9701 0.0000 1.3089 0.0000
# 4 0.0000 0.0000 0.0000 45.1904 0.0000 0.1793
# 5 1.0234 -0.4343 1.3089 0.0000 19.0907 0.0000
# 6 0.0000 0.0000 0.0000 0.1793 0.0000 22.7036
#
#
#
# Elastic Compliance Matrix: (Units=1/GPa)
#
#
# Indices 1 2 3 4 5 6 
#
# 1 0.010144 0.001155 -0.008586 0.000000 0.000071 0.000000
# 2 0.001155 0.019634 -0.023116 0.000000 0.001970 0.000000
# 3 -0.008586 -0.023116 0.051308 0.000000 -0.003583 0.000000
# 4 0.000000 0.000000 0.000000 0.022129 0.000000 -0.000175
# 5 0.000071 0.001970 -0.003583 0.000000 0.052668 0.000000
# 6 0.000000 0.000000 0.000000 -0.000175 0.000000 0.044047
#
#
# Mechanical properties :
#
#
# Convention : Reuss Voigt Hill
#
# Bulk Modulus (GPa) = 50.01775 63.24830 56.63302
# Shear Modulus (GPa) = 18.67842 28.31156 23.49499
#
# Velocity S-wave (km/s) = 3.11375 3.83350 3.49222
# Velocity P-wave (km/s) = 6.23619 7.24049 6.75702
#
# Compressibility (1/GPa) = 0.01999290
#
# Stress axis : x y z
#
# Youngs Moduli (GPa) = 98.57946 50.93287 19.49000
#
# Poissons Ratio (x) = -0.05885 0.16734
# Poissons Ratio (y) = -0.11389 0.45053
# Poissons Ratio (z) = 0.84638 1.17737
#
# Static dielectric constant tensor:
#      x y z
#    x 3.930320 0.000000 0.059950 
#    y 0.000000 3.493800 0.000000 
#    z 0.059950 0.000000 3.155970 
# 
# 
# High freq. dielectric constant tensor:
#      x y z
#    x 1.775600 0.000000 -0.002610 
#    y 0.000000 1.753920 0.000000 
#    z -0.002610 0.000000 1.724080 
# 
# From -- ./inp_files/15879.got.cif
#   From: 2010.06.25/outbox.cif.g09.slc.cpg/sg10_8_cif.got.tgz:15879.got - 2010.06.27 22:07:45.
