data_PCOD8060500
_publ_section_title
;
Structure prediction by ZEFSAII (Michael W. Deem and Ramdas Pophale) SiO2 
 PCOD8060500
Probable space group: P 2/M
;
_chemical_formula_sum "Si O2"
_cell_formula_units_Z 28
_cell_length_a 5.156634
_cell_length_b 32.518050
_cell_length_c 9.524458
_cell_angle_alpha 90.000000
_cell_angle_beta 64.521452
_cell_angle_gamma 90.000000
_cell_volume 1441.772848
_symmetry_space_group_name_H-M "P 2/M"
_symmetry_group_IT_number 10
_symmetry_cell_setting 'monoclinic'
loop_
_space_group_symop_operation_xyz
x,y,z
-x,y,-z
-x,-y,-z
x,-y,z
loop_
_atom_site_type_symbol
_atom_site_label
_atom_site_fract_x
_atom_site_fract_y
_atom_site_fract_z
Si Si1 0.140188 0.546359 0.314517
Si Si2 0.639005 0.593761 0.314502
Si Si3 0.165457 0.899936 0.101204
Si Si4 0.130993 0.733737 0.316069
Si Si5 0.176643 0.046050 0.600035
Si Si6 0.827923 0.805085 0.899671
Si Si7 0.363102 0.686156 0.684958
O O1 0.166164 0.500000 0.250595
O O2 0.453779 0.566570 0.250219
O O3 0.000000 0.546087 0.500000
O O4 0.952940 0.573437 0.250530
O O5 0.500000 0.594224 0.500000
O O6 0.652812 0.640017 0.250509
O O7 0.121318 0.852420 0.152442
O O8 0.015362 0.926037 0.255758
O O9 0.500000 0.911041 0.000000
O O10 0.000000 0.911397 0.000000
O O11 0.091543 0.778216 0.254392
O O12 0.454604 0.715921 0.253768
O O13 0.000000 0.737979 0.500000
O O14 0.960192 0.702325 0.255598
O O15 0.500000 0.063967 0.500000
O O16 0.000000 0.044573 0.500000
O O17 0.205374 0.000000 0.657224
O O18 0.500000 0.795342 0.000000
O O19 0.000000 0.792787 0.000000
O O20 0.500000 0.685728 0.500000
#
# Coordination Sequence:
#
# PCOD8060500 Si02
#       7
#     4   4   4   4   4   4   4
#     4   9  15  21  30  46  70 105 151 192 225 275
#     4   9  15  23  34  49  74 108 145 191 239 276
#     4  10  21  37  57  81 109 145 187 226 266 324
#     4  10  19  32  50  72  95 124 167 210 247 299
#     4  10  21  37  57  84 117 149 183 228 279 324
#     4  10  21  37  54  75 105 137 171 213 264 315
#     4   9  17  28  43  64  89 117 157 206 248 292
#
# _framework density 19.420535999999998
#
# number of rings (size 3 to 8) (size 9 to 14) (size 15 to 20)
#    0.000    2.429    0.000    3.000    0.000    6.286 
#    0.000    2.143    0.000    0.000    0.000    0.000 
#    0.000    0.000    0.000    0.000    0.000  180.000 
#
# Total GULP energy -347096.327784 kJ/mol
# GULP energy per Si atom -12396.297421 kJ/mol
# Density = 1.937633 g / cm^3
# Si number density = 19.420536 Si / 1000 Ang^3
#
#
#
# Elastic Constant Matrix: (Units=GPa)
#
#
# Indices 1 2 3 4 5 6 
#
# 1 168.5684 55.6555 36.5950 0.0000 5.9202 0.0000
# 2 55.6555 123.3974 53.8466 0.0000 4.5793 0.0000
# 3 36.5950 53.8466 46.3030 0.0000 0.2345 0.0000
# 4 0.0000 0.0000 0.0000 1.9591 0.0000 1.4460
# 5 5.9202 4.5793 0.2345 0.0000 12.6885 0.0000
# 6 0.0000 0.0000 0.0000 1.4460 0.0000 54.5214
#
#
#
# Elastic Compliance Matrix: (Units=1/GPa)
#
#
# Indices 1 2 3 4 5 6 
#
# 1 0.007410 -0.001393 -0.004222 0.000000 -0.002876 0.000000
# 2 -0.001393 0.017121 -0.018783 0.000000 -0.005182 0.000000
# 3 -0.004222 -0.018783 0.046736 0.000000 0.007885 0.000000
# 4 0.000000 0.000000 0.000000 0.520624 0.000000 -0.013808
# 5 -0.002876 -0.005182 0.007885 0.000000 0.081878 0.000000
# 6 0.000000 0.000000 0.000000 -0.013808 0.000000 0.018708
#
#
# Mechanical properties :
#
#
# Convention : Reuss Voigt Hill
#
# Bulk Modulus (GPa) = 44.50015 70.05145 57.27580
# Shear Modulus (GPa) = 6.67769 26.64524 16.66147
#
# Velocity S-wave (km/s) = 1.85632 3.70809 2.93222
# Velocity P-wave (km/s) = 5.24960 7.38122 6.40471
#
# Compressibility (1/GPa) = 0.02247183
#
# Stress axis : x y z
#
# Youngs Moduli (GPa) = 134.95708 58.40893 21.39672
#
# Poissons Ratio (x) = 0.08137 0.09033
# Poissons Ratio (y) = 0.18801 0.40189
# Poissons Ratio (z) = 0.56973 1.09708
#
# Static dielectric constant tensor:
#      x y z
#    x 3.865480 0.000000 -0.064000 
#    y 0.000000 3.785410 0.000000 
#    z -0.064000 0.000000 2.745020 
# 
# 
# High freq. dielectric constant tensor:
#      x y z
#    x 1.780940 0.000000 0.003670 
#    y 0.000000 1.763520 0.000000 
#    z 0.003670 0.000000 1.701890 
# 
# From -- ./inp_files/15882.got.cif
#   From: 2010.06.25/outbox.cif.g09.slc.cpg/sg10_8_cif.got.tgz:15882.got - 2010.06.27 22:07:45.
