data_PCOD8060092
_publ_section_title
;
Structure prediction by ZEFSAII (Michael W. Deem and Ramdas Pophale) SiO2 
 PCOD8060092
Probable space group: P 2/M
;
_chemical_formula_sum "Si O2"
_cell_formula_units_Z 32
_cell_length_a 15.126011
_cell_length_b 8.518604
_cell_length_c 26.290449
_cell_angle_alpha 90.000000
_cell_angle_beta 150.348219
_cell_angle_gamma 90.000000
_cell_volume 1675.933841
_symmetry_space_group_name_H-M "P 2/M"
_symmetry_group_IT_number 10
_symmetry_cell_setting 'monoclinic'
loop_
_space_group_symop_operation_xyz
x,y,z
-x,y,-z
-x,-y,-z
x,-y,z
loop_
_atom_site_type_symbol
_atom_site_label
_atom_site_fract_x
_atom_site_fract_y
_atom_site_fract_z
Si Si1 1.000000 0.813229 0.444056
Si Si2 0.796243 0.314391 0.898121
Si Si3 0.669120 0.186821 0.729161
Si Si4 0.330879 0.186822 0.060041
Si Si5 0.999999 0.812653 0.285124
Si Si6 0.716367 0.813651 0.493322
Si Si7 0.716366 0.186349 0.223044
Si Si8 0.000000 0.186864 0.171222
O O1 0.176133 0.755212 0.502536
O O2 0.000000 0.737183 0.500000
O O3 0.823869 0.755208 0.326404
O O4 0.999997 0.000000 0.447299
O O5 0.796496 0.500000 0.898247
O O6 0.691298 0.253294 0.796604
O O7 0.691299 0.253297 0.894695
O O8 0.000000 0.249319 0.000000
O O9 0.485392 0.250578 0.612010
O O10 0.826707 0.249676 0.771800
O O11 0.670102 0.000000 0.733354
O O12 0.514607 0.250577 0.126618
O O13 0.329896 0.000000 0.063252
O O14 0.173293 0.249675 0.945094
O O15 0.179296 0.753142 0.404028
O O16 0.820701 0.753143 0.224731
O O17 0.999999 0.742989 0.228241
O O18 0.000000 0.000000 0.283865
O O19 0.713186 0.000000 0.493357
O O20 0.713186 0.000000 0.219830
O O21 0.000001 0.000000 0.173170
#
# Coordination Sequence:
#
# PCOD8060092 Si02
#       8
#     4   4   4   4   4   4   4   4
#     4   8  13  21  33  56  89 124 161 194 226 275
#     4  11  23  37  51  68  95 132 162 195 243 290
#     4  10  19  31  49  75  99 125 161 200 242 284
#     4  10  19  31  49  75  99 125 161 200 242 284
#     4   8  14  27  42  66 105 134 156 194 240 285
#     4   8  15  25  40  65  98 131 158 191 237 283
#     4   8  15  25  40  65  98 131 158 191 237 283
#     4   9  17  27  43  68  99 129 159 199 244 283
#
# _framework density 19.093833
#
# number of rings (size 3 to 8) (size 9 to 14) (size 15 to 20)
#    0.000    3.000    1.250    1.875    1.750    1.500 
#    0.000    5.000    0.000    0.000    0.000   12.250 
#    0.000    0.000    0.000    0.000    0.000    0.000 
#
# Total GULP energy -396612.976442 kJ/mol
# GULP energy per Si atom -12394.155514 kJ/mol
# Density = 1.905037 g / cm^3
# Si number density = 19.093833 Si / 1000 Ang^3
#
#
#
# Elastic Constant Matrix: (Units=GPa)
#
#
# Indices 1 2 3 4 5 6 
#
# 1 173.0255 9.6649 118.2481 0.0000 -13.6847 0.0000
# 2 9.6649 12.1729 11.2364 0.0000 1.1704 0.0000
# 3 118.2481 11.2364 174.1037 0.0000 14.4899 0.0000
# 4 0.0000 0.0000 0.0000 4.4175 0.0000 2.1887
# 5 -13.6847 1.1704 14.4899 0.0000 39.2205 0.0000
# 6 0.0000 0.0000 0.0000 2.1887 0.0000 1.4815
#
#
#
# Elastic Compliance Matrix: (Units=1/GPa)
#
#
# Indices 1 2 3 4 5 6 
#
# 1 0.012864 -0.002449 -0.009242 0.000000 0.007976 0.000000
# 2 -0.002449 0.087831 -0.003834 0.000000 -0.002059 0.000000
# 3 -0.009242 -0.003834 0.012925 0.000000 -0.007885 0.000000
# 4 0.000000 0.000000 0.000000 0.844485 0.000000 -1.247563
# 5 0.007976 -0.002059 -0.007885 0.000000 0.031254 0.000000
# 6 0.000000 0.000000 0.000000 -1.247563 0.000000 2.518016
#
#
# Mechanical properties :
#
#
# Convention : Reuss Voigt Hill
#
# Bulk Modulus (GPa) = 12.11107 70.84456 41.47782
# Shear Modulus (GPa) = 1.40215 23.70073 12.55144
#
# Velocity S-wave (km/s) = 0.85787 3.52700 2.56668
# Velocity P-wave (km/s) = 2.70887 7.33282 5.52757
#
# Compressibility (1/GPa) = 0.08256906
#
# Stress axis : x y z
#
# Youngs Moduli (GPa) = 77.73921 11.38547 77.37110
#
# Poissons Ratio (x) = 0.02788 0.71510
# Poissons Ratio (y) = 0.19036 0.29664
# Poissons Ratio (z) = 0.71850 0.04365
#
# Static dielectric constant tensor:
#      x y z
#    x 3.795470 0.000000 0.063330 
#    y 0.000000 2.746440 0.000000 
#    z 0.063330 0.000000 3.880410 
# 
# 
# High freq. dielectric constant tensor:
#      x y z
#    x 1.751080 0.000000 0.001340 
#    y 0.000000 1.669750 0.000000 
#    z 0.001340 0.000000 1.752880 
# 
# From -- ./inp_files/93137.got.cif
#   From: 2010.06.25/outbox.cif.g09.slc.cpg/sg10_47_cif.got.tgz:93137.got - 2010.06.27 22:07:45.
