data_PCOD8060640
_publ_section_title
;
Structure prediction by ZEFSAII (Michael W. Deem and Ramdas Pophale) SiO2 
 PCOD8060640
Probable space group: P 2/M
;
_chemical_formula_sum "Si O2"
_cell_formula_units_Z 30
_cell_length_a 19.956244
_cell_length_b 9.191607
_cell_length_c 15.120487
_cell_angle_alpha 90.000000
_cell_angle_beta 37.179445
_cell_angle_gamma 90.000000
_cell_volume 1676.093330
_symmetry_space_group_name_H-M "P 2/M"
_symmetry_group_IT_number 10
_symmetry_cell_setting 'monoclinic'
loop_
_space_group_symop_operation_xyz
x,y,z
-x,y,-z
-x,-y,-z
x,-y,z
loop_
_atom_site_type_symbol
_atom_site_label
_atom_site_fract_x
_atom_site_fract_y
_atom_site_fract_z
Si Si1 0.628962 0.664223 0.342846
Si Si2 0.585231 0.169468 0.218792
Si Si3 0.960742 0.340360 0.727311
Si Si4 0.000000 0.750864 0.500000
Si Si5 0.282607 0.327154 0.063799
Si Si6 0.233513 0.839147 0.285182
Si Si7 0.827891 0.828293 0.458889
Si Si8 0.668937 0.831767 0.469648
O O1 0.500000 0.664385 0.500000
O O2 0.673073 0.500000 0.282691
O O3 0.650493 0.756977 0.231866
O O4 0.693885 0.738552 0.355702
O O5 0.454445 0.193340 0.365004
O O6 0.616831 0.000000 0.182271
O O7 0.620058 0.248945 0.092203
O O8 0.967770 0.500000 0.763669
O O9 0.996378 0.355004 0.587793
O O10 0.833570 0.282977 0.861999
O O11 0.048135 0.235800 0.684637
O O12 0.105430 0.856528 0.392197
O O13 0.298908 0.500000 0.047374
O O14 0.292328 0.271297 0.155116
O O15 0.235210 0.778031 0.384475
O O16 0.288618 0.000000 0.221198
O O17 0.753587 0.776453 0.455173
O O18 0.842002 0.000000 0.447155
O O19 0.687800 0.000000 0.425965
#
# Coordination Sequence:
#
# PCOD8060640 Si02
#       8
#     4   4   4   2   4   4   4   4
#     4   9  17  30  50  75  98 119 148 190 237 280
#     4  10  19  32  52  73  94 123 157 193 233 280
#     4   9  17  28  44  66  92 123 157 193 235 280
#     4   8  14  24  42  64  88 116 154 202 240 268
#     4  10  20  32  46  67  97 128 159 198 238 276
#     4   9  16  27  44  66  91 123 162 197 232 273
#     4   9  18  31  48  70  97 126 157 196 234 273
#     4   9  18  33  51  73  98 123 154 191 233 279
#
# _framework density 17.898765000000001
#
# number of rings (size 3 to 8) (size 9 to 14) (size 15 to 20)
#    0.000    2.800    0.000    1.600    0.000    9.600 
#    0.000    0.667    0.000    4.800    0.000    5.600 
#    0.000    0.000    0.000    0.000    0.000    0.000 
#
# Total GULP energy -371817.771160 kJ/mol
# GULP energy per Si atom -12393.925705 kJ/mol
# Density = 1.785803 g / cm^3
# Si number density = 17.898765 Si / 1000 Ang^3
#
#
#
# Elastic Constant Matrix: (Units=GPa)
#
#
# Indices 1 2 3 4 5 6 
#
# 1 79.8119 15.7033 -13.0644 0.0000 3.5772 0.0000
# 2 15.7033 72.1872 4.5139 0.0000 0.2959 0.0000
# 3 -13.0644 4.5139 11.6805 0.0000 0.0063 0.0000
# 4 0.0000 0.0000 0.0000 24.5237 0.0000 0.7796
# 5 3.5772 0.2959 0.0063 0.0000 15.2015 0.0000
# 6 0.0000 0.0000 0.0000 0.7796 0.0000 21.0229
#
#
#
# Elastic Compliance Matrix: (Units=1/GPa)
#
#
# Indices 1 2 3 4 5 6 
#
# 1 0.017158 -0.005038 0.021140 0.000000 -0.003948 0.000000
# 2 -0.005038 0.015676 -0.011694 0.000000 0.000885 0.000000
# 3 0.021140 -0.011694 0.113779 0.000000 -0.004794 0.000000
# 4 0.000000 0.000000 0.000000 0.040825 0.000000 -0.001514
# 5 -0.003948 0.000885 -0.004794 0.000000 0.066697 0.000000
# 6 0.000000 0.000000 0.000000 -0.001514 0.000000 0.047623
#
#
# Mechanical properties :
#
#
# Convention : Reuss Voigt Hill
#
# Bulk Modulus (GPa) = 6.43378 19.77614 13.10496
# Shear Modulus (GPa) = 14.50318 22.58475 18.54396
#
# Velocity S-wave (km/s) = 2.84965 3.55604 3.22226
# Velocity P-wave (km/s) = 3.79864 5.28521 4.60234
#
# Compressibility (1/GPa) = 0.15542971
#
# Stress axis : x y z
#
# Youngs Moduli (GPa) = 58.28132 63.78989 8.78898
#
# Poissons Ratio (x) = 0.32139 -0.18580
# Poissons Ratio (y) = 0.29364 0.10278
# Poissons Ratio (z) = -1.23208 0.74594
#
# Static dielectric constant tensor:
#      x y z
#    x 3.291750 0.000000 0.128650 
#    y 0.000000 3.277200 0.000000 
#    z 0.128650 0.000000 3.113280 
# 
# 
# High freq. dielectric constant tensor:
#      x y z
#    x 1.674800 0.000000 0.012420 
#    y 0.000000 1.694940 0.000000 
#    z 0.012420 0.000000 1.665420 
# 
# From -- ./inp_files/58008.got.cif
#   From: 2010.06.25/outbox.cif.g09.slc.cpg/sg10_30_cif.got.tgz:58008.got - 2010.06.27 22:07:45.
