data_PCOD8060420
_publ_section_title
;
Structure prediction by ZEFSAII (Michael W. Deem and Ramdas Pophale) SiO2 
 PCOD8060420
Probable space group: P 2/M
;
_chemical_formula_sum "Si O2"
_cell_formula_units_Z 28
_cell_length_a 11.259896
_cell_length_b 8.860064
_cell_length_c 30.139636
_cell_angle_alpha 90.000000
_cell_angle_beta 147.069794
_cell_angle_gamma 90.000000
_cell_volume 1634.565335
_symmetry_space_group_name_H-M "P 2/M"
_symmetry_group_IT_number 10
_symmetry_cell_setting 'monoclinic'
loop_
_space_group_symop_operation_xyz
x,y,z
-x,y,-z
-x,-y,-z
x,-y,z
loop_
_atom_site_type_symbol
_atom_site_label
_atom_site_fract_x
_atom_site_fract_y
_atom_site_fract_z
Si Si1 0.787506 0.176487 0.760921
Si Si2 0.973465 0.680150 0.731997
Si Si3 0.910897 0.673416 0.542114
Si Si4 0.247921 0.175916 0.420923
Si Si5 0.405560 0.331759 0.903804
Si Si6 0.169359 0.329658 0.923565
Si Si7 0.656480 0.326858 0.373725
O O1 0.545070 0.218636 0.700784
O O2 0.829959 0.256164 0.727251
O O3 0.953281 0.227800 0.852085
O O4 0.810841 0.000000 0.761234
O O5 0.971659 0.500000 0.735442
O O6 0.227310 0.741970 0.814296
O O7 0.874956 0.729626 0.654846
O O8 0.877189 0.500000 0.546298
O O9 0.857669 0.785685 0.565149
O O10 0.750807 0.713527 0.451549
O O11 0.160124 0.701103 0.605864
O O12 0.500000 0.224338 0.500000
O O13 0.219844 0.000000 0.401954
O O14 0.457381 0.500000 0.903877
O O15 0.282120 0.335770 0.911545
O O16 0.647725 0.256060 0.985126
O O17 0.104185 0.500000 0.917610
O O18 0.578329 0.500000 0.348289
#
# Coordination Sequence:
#
# PCOD8060420 Si02
#       7
#     4   4   4   4   4   4   4
#     4  11  20  28  42  70 102 127 154 188 232 281
#     4  10  19  32  49  67  91 126 164 197 230 271
#     4   9  19  35  54  72  89 117 159 199 231 269
#     4  11  23  35  47  69 100 128 154 187 229 278
#     4   7  12  24  43  64  85 115 156 195 228 267
#     4   8  13  25  43  62  88 121 154 188 228 273
#     4   9  18  34  53  71  91 118 156 197 233 271
#
# _framework density 17.129936000000001
#
# number of rings (size 3 to 8) (size 9 to 14) (size 15 to 20)
#    0.000    2.714    0.000    5.571    0.000    4.571 
#    0.000    7.857    0.000    0.000    0.000    1.000 
#    0.000    8.000    0.000    0.000    0.000    0.000 
#
# Total GULP energy -346940.067439 kJ/mol
# GULP energy per Si atom -12390.716694 kJ/mol
# Density = 1.709095 g / cm^3
# Si number density = 17.129936 Si / 1000 Ang^3
#
#
#
# Elastic Constant Matrix: (Units=GPa)
#
#
# Indices 1 2 3 4 5 6 
#
# 1 55.5024 24.4734 40.3846 0.0000 5.1679 0.0000
# 2 24.4734 70.6013 48.4618 0.0000 5.2888 0.0000
# 3 40.3846 48.4618 145.0803 0.0000 14.3546 0.0000
# 4 0.0000 0.0000 0.0000 14.3613 0.0000 -0.7082
# 5 5.1679 5.2888 14.3546 0.0000 18.7827 0.0000
# 6 0.0000 0.0000 0.0000 -0.7082 0.0000 19.2453
#
#
#
# Elastic Compliance Matrix: (Units=1/GPa)
#
#
# Indices 1 2 3 4 5 6 
#
# 1 0.023822 -0.004795 -0.004884 0.000000 -0.001472 0.000000
# 2 -0.004795 0.019348 -0.005106 0.000000 -0.000227 0.000000
# 3 -0.004884 -0.005106 0.010474 0.000000 -0.005224 0.000000
# 4 0.000000 0.000000 0.000000 0.069758 0.000000 0.002567
# 5 -0.001472 -0.000227 -0.005224 0.000000 0.057701 0.000000
# 6 0.000000 0.000000 0.000000 0.002567 0.000000 0.052055
#
#
# Mechanical properties :
#
#
# Convention : Reuss Voigt Hill
#
# Bulk Modulus (GPa) = 41.53636 55.31373 48.42505
# Shear Modulus (GPa) = 18.46697 21.00214 19.73456
#
# Velocity S-wave (km/s) = 3.28693 3.50530 3.39787
# Velocity P-wave (km/s) = 6.22139 6.98166 6.61246
#
# Compressibility (1/GPa) = 0.02407529
#
# Stress axis : x y z
#
# Youngs Moduli (GPa) = 41.97762 51.68532 95.47018
#
# Poissons Ratio (x) = 0.24785 0.46625
# Poissons Ratio (y) = 0.20129 0.48743
# Poissons Ratio (z) = 0.20501 0.26389
#
# Static dielectric constant tensor:
#      x y z
#    x 2.767860 0.000000 0.127420 
#    y 0.000000 3.035910 0.000000 
#    z 0.127420 0.000000 3.817540 
# 
# 
# High freq. dielectric constant tensor:
#      x y z
#    x 1.610480 0.000000 0.013950 
#    y 0.000000 1.645070 0.000000 
#    z 0.013950 0.000000 1.682460 
# 
# From -- ./inp_files/92069.got.cif
#   From: 2010.06.25/outbox.cif.g09.slc.cpg/sg10_47_cif.got.tgz:92069.got - 2010.06.27 22:07:45.
