data_PCOD8060688
_publ_section_title
;
Structure prediction by ZEFSAII (Michael W. Deem and Ramdas Pophale) SiO2 
 PCOD8060688
Probable space group: P 2/M
;
_chemical_formula_sum "Si O2"
_cell_formula_units_Z 28
_cell_length_a 30.017988
_cell_length_b 9.074025
_cell_length_c 9.661990
_cell_angle_alpha 90.000000
_cell_angle_beta 36.668564
_cell_angle_gamma 90.000000
_cell_volume 1571.654705
_symmetry_space_group_name_H-M "P 2/M"
_symmetry_group_IT_number 10
_symmetry_cell_setting 'monoclinic'
loop_
_space_group_symop_operation_xyz
x,y,z
-x,y,-z
-x,-y,-z
x,-y,z
loop_
_atom_site_type_symbol
_atom_site_label
_atom_site_fract_x
_atom_site_fract_y
_atom_site_fract_z
Si Si1 0.350087 0.826812 0.733354
Si Si2 0.506018 0.337978 0.648769
Si Si3 0.929634 0.671371 0.084491
Si Si4 0.220813 0.172970 0.535856
Si Si5 0.067902 0.328302 0.240332
Si Si6 0.217230 0.170795 0.863157
Si Si7 0.657790 0.325196 0.954719
O O1 0.429521 0.776795 0.470113
O O2 0.287530 0.781698 0.779108
O O3 0.352898 0.000000 0.754748
O O4 0.331227 0.744085 0.921686
O O5 0.500000 0.348853 0.500000
O O6 0.526048 0.500000 0.659027
O O7 0.424131 0.286546 0.904555
O O8 0.909780 0.500000 0.155086
O O9 0.860049 0.768269 0.308825
O O10 0.949098 0.706664 0.877160
O O11 0.000000 0.719332 0.000000
O O12 0.235000 0.211905 0.660600
O O13 0.282763 0.257807 0.296221
O O14 0.225748 0.000000 0.492847
O O15 0.076900 0.500000 0.246453
O O16 0.000000 0.263086 0.500000
O O17 0.144537 0.254846 0.099156
O O18 0.199372 0.000000 0.922879
O O19 0.668284 0.500000 0.941900
#
# Coordination Sequence:
#
# PCOD8060688 Si02
#       7
#     4   4   4   4   4   4   4
#     4  10  19  32  52  77 102 130 167 207 248 296
#     4   8  16  31  49  71 100 131 164 205 250 293
#     4   9  18  33  51  71  98 130 163 202 247 293
#     4  10  20  35  53  73 101 135 169 205 247 295
#     4   9  18  32  50  72  96 126 165 203 241 289
#     4   9  20  36  51  72 103 135 165 201 247 296
#     4  10  20  34  52  75 102 131 167 209 250 295
#
# _framework density 17.815615999999999
#
# number of rings (size 3 to 8) (size 9 to 14) (size 15 to 20)
#    0.000    2.714    0.000    2.143    0.000    6.571 
#    0.000    2.143    0.000    4.286    0.000    0.000 
#    0.000    0.000    0.000    0.000    0.000    0.000 
#
# Total GULP energy -347180.550934 kJ/mol
# GULP energy per Si atom -12399.305391 kJ/mol
# Density = 1.777507 g / cm^3
# Si number density = 17.815616 Si / 1000 Ang^3
#
#
#
# Elastic Constant Matrix: (Units=GPa)
#
#
# Indices 1 2 3 4 5 6 
#
# 1 123.6510 60.6347 71.6258 0.0000 -28.2206 0.0000
# 2 60.6347 83.6908 65.9145 0.0000 -16.3022 0.0000
# 3 71.6258 65.9145 147.2040 0.0000 -27.3853 0.0000
# 4 0.0000 0.0000 0.0000 8.9089 0.0000 -6.0554
# 5 -28.2206 -16.3022 -27.3853 0.0000 22.1753 0.0000
# 6 0.0000 0.0000 0.0000 -6.0554 0.0000 26.3634
#
#
#
# Elastic Compliance Matrix: (Units=1/GPa)
#
#
# Indices 1 2 3 4 5 6 
#
# 1 0.015618 -0.007348 -0.002099 0.000000 0.011882 0.000000
# 2 -0.007348 0.022247 -0.006600 0.000000 -0.001146 0.000000
# 3 -0.002099 -0.006600 0.012165 0.000000 0.007501 0.000000
# 4 0.000000 0.000000 0.000000 0.133014 0.000000 0.030552
# 5 0.011882 -0.001146 0.007501 0.000000 0.068637 0.000000
# 6 0.000000 0.000000 0.000000 0.030552 0.000000 0.044949
#
#
# Mechanical properties :
#
#
# Convention : Reuss Voigt Hill
#
# Bulk Modulus (GPa) = 55.74897 83.43287 69.59092
# Shear Modulus (GPa) = 14.93873 21.91423 18.42648
#
# Velocity S-wave (km/s) = 2.89886 3.51102 3.21952
# Velocity P-wave (km/s) = 6.52416 7.96049 7.27784
#
# Compressibility (1/GPa) = 0.01793755
#
# Stress axis : x y z
#
# Youngs Moduli (GPa) = 64.02896 44.95006 82.20359
#
# Poissons Ratio (x) = 0.33029 0.17251
# Poissons Ratio (y) = 0.47049 0.54251
# Poissons Ratio (z) = 0.13437 0.29665
#
# Static dielectric constant tensor:
#      x y z
#    x 3.324170 0.000000 -0.223230 
#    y 0.000000 3.321830 0.000000 
#    z -0.223230 0.000000 3.483220 
# 
# 
# High freq. dielectric constant tensor:
#      x y z
#    x 1.679750 0.000000 -0.016430 
#    y 0.000000 1.692860 0.000000 
#    z -0.016430 0.000000 1.689740 
# 
# From -- ./inp_files/37921.got.cif
#   From: 2010.06.25/outbox.cif.g09.slc.cpg/sg10_19_cif.got.tgz:37921.got - 2010.06.27 22:07:45.
