data_PCOD8060721
_publ_section_title
;
Structure prediction by ZEFSAII (Michael W. Deem and Ramdas Pophale) SiO2 
 PCOD8060721
Probable space group: P 2/M
;
_chemical_formula_sum "Si O2"
_cell_formula_units_Z 32
_cell_length_a 19.680346
_cell_length_b 9.017985
_cell_length_c 25.030148
_cell_angle_alpha 90.000000
_cell_angle_beta 157.767267
_cell_angle_gamma 90.000000
_cell_volume 1680.822976
_symmetry_space_group_name_H-M "P 2/M"
_symmetry_group_IT_number 10
_symmetry_cell_setting 'monoclinic'
loop_
_space_group_symop_operation_xyz
x,y,z
-x,y,-z
-x,-y,-z
x,-y,z
loop_
_atom_site_type_symbol
_atom_site_label
_atom_site_fract_x
_atom_site_fract_y
_atom_site_fract_z
Si Si1 0.912092 0.174394 0.694134
Si Si2 0.881155 0.835082 0.994432
Si Si3 0.792913 0.332271 0.026577
Si Si4 0.747676 0.166028 0.778298
Si Si5 0.861302 0.325217 0.353879
Si Si6 0.568363 0.671916 0.491735
Si Si7 0.537492 0.331674 0.933529
Si Si8 0.885285 0.325115 0.249096
O O1 0.730872 0.232234 0.588240
O O2 0.068409 0.215421 0.848646
O O3 0.955077 0.248411 0.667968
O O4 0.899623 0.000000 0.676699
O O5 0.769148 0.716488 0.947918
O O6 0.094513 0.799198 0.149679
O O7 0.847038 0.000000 0.992386
O O8 0.819276 0.824451 0.889525
O O9 0.867701 0.500000 0.084629
O O10 0.606690 0.320304 0.923004
O O11 0.598658 0.292859 0.667754
O O12 0.671817 0.000000 0.711869
O O13 0.849838 0.500000 0.355514
O O14 0.659431 0.254049 0.210392
O O15 0.925213 0.288455 0.340120
O O16 0.000000 0.259124 0.500000
O O17 0.500000 0.724263 0.500000
O O18 0.620921 0.500000 0.528641
O O19 0.506017 0.500000 0.929033
O O20 0.687992 0.265918 0.084576
O O21 0.893071 0.500000 0.242986
#
# Coordination Sequence:
#
# PCOD8060721 Si02
#       8
#     4   4   4   4   4   4   4   4
#     4  11  22  36  55  77 105 141 180 219 268 327
#     4   9  18  34  54  75 104 140 180 218 260 316
#     4  10  19  32  52  78 107 136 173 222 270 313
#     4   9  19  35  53  74 102 141 181 217 260 320
#     4   9  16  28  50  80 109 138 174 219 270 323
#     4  11  23  37  54  79 108 137 175 227 277 319
#     4   8  15  28  47  73 105 138 175 213 262 321
#     4   9  17  32  54  78 105 139 177 224 270 317
#
# _framework density 19.038292999999999
#
# number of rings (size 3 to 8) (size 9 to 14) (size 15 to 20)
#    0.000    2.500    0.000    4.500    0.000    5.500 
#    2.250    1.250    0.000    7.125    0.000    0.000 
#    0.000    0.000    0.000    0.000    0.000    0.000 
#
# Total GULP energy -396518.961001 kJ/mol
# GULP energy per Si atom -12391.217531 kJ/mol
# Density = 1.899496 g / cm^3
# Si number density = 19.038293 Si / 1000 Ang^3
#
#
#
# Elastic Constant Matrix: (Units=GPa)
#
#
# Indices 1 2 3 4 5 6 
#
# 1 126.1612 52.2164 49.5658 0.0000 4.6587 0.0000
# 2 52.2164 68.5496 31.8149 0.0000 8.3714 0.0000
# 3 49.5658 31.8149 90.5323 0.0000 8.9567 0.0000
# 4 0.0000 0.0000 0.0000 20.0143 0.0000 -4.3345
# 5 4.6587 8.3714 8.9567 0.0000 23.3603 0.0000
# 6 0.0000 0.0000 0.0000 -4.3345 0.0000 18.3209
#
#
#
# Elastic Compliance Matrix: (Units=1/GPa)
#
#
# Indices 1 2 3 4 5 6 
#
# 1 0.012922 -0.008021 -0.004454 0.000000 0.002005 0.000000
# 2 -0.008021 0.022786 -0.003084 0.000000 -0.005384 0.000000
# 3 -0.004454 -0.003084 0.014938 0.000000 -0.003734 0.000000
# 4 0.000000 0.000000 0.000000 0.052663 0.000000 0.012459
# 5 0.002005 -0.005384 -0.003734 0.000000 0.045769 0.000000
# 6 0.000000 0.000000 0.000000 0.012459 0.000000 0.057530
#
#
# Mechanical properties :
#
#
# Convention : Reuss Voigt Hill
#
# Bulk Modulus (GPa) = 51.20763 61.38194 56.29478
# Shear Modulus (GPa) = 20.47212 22.44881 21.46047
#
# Velocity S-wave (km/s) = 3.28275 3.43759 3.36106
# Velocity P-wave (km/s) = 6.42839 6.93306 6.68549
#
# Compressibility (1/GPa) = 0.01952834
#
# Stress axis : x y z
#
# Youngs Moduli (GPa) = 77.38738 43.88630 66.94491
#
# Poissons Ratio (x) = 0.35199 0.29821
# Poissons Ratio (y) = 0.62069 0.20644
# Poissons Ratio (z) = 0.34472 0.13533
#
# Static dielectric constant tensor:
#      x y z
#    x 3.707460 0.000000 0.185640 
#    y 0.000000 3.247270 0.000000 
#    z 0.185640 0.000000 3.640030 
# 
# 
# High freq. dielectric constant tensor:
#      x y z
#    x 1.752190 0.000000 0.004200 
#    y 0.000000 1.707480 0.000000 
#    z 0.004200 0.000000 1.725800 
# 
# From -- ./inp_files/93783.got.cif
#   From: 2010.06.25/outbox.cif.g09.slc.cpg/sg10_47_cif.got.tgz:93783.got - 2010.06.27 22:07:45.
