data_PCOD8060830
_publ_section_title
;
Structure prediction by ZEFSAII (Michael W. Deem and Ramdas Pophale) SiO2 
 PCOD8060830
Probable space group: P 2/M
;
_chemical_formula_sum "Si O2"
_cell_formula_units_Z 22
_cell_length_a 5.136511
_cell_length_b 8.190805
_cell_length_c 22.480345
_cell_angle_alpha 90.000000
_cell_angle_beta 95.549464
_cell_angle_gamma 90.000000
_cell_volume 941.363801
_symmetry_space_group_name_H-M "P 2/M"
_symmetry_group_IT_number 10
_symmetry_cell_setting 'monoclinic'
loop_
_space_group_symop_operation_xyz
x,y,z
-x,y,-z
-x,-y,-z
x,-y,z
loop_
_atom_site_type_symbol
_atom_site_label
_atom_site_fract_x
_atom_site_fract_y
_atom_site_fract_z
Si Si1 0.969107 0.804718 0.932245
Si Si2 0.402809 0.686715 0.734741
Si Si3 0.517359 0.177725 0.430090
Si Si4 0.264388 0.500000 0.541542
Si Si5 0.888443 0.312066 0.659787
Si Si6 0.558721 0.189939 0.133886
O O1 0.200902 0.731791 0.896852
O O2 0.705686 0.731169 0.897760
O O3 0.967751 0.000000 0.931021
O O4 0.000000 0.739969 0.000000
O O5 0.335607 0.500000 0.748314
O O6 0.677928 0.705546 0.708070
O O7 0.414056 0.785652 0.795525
O O8 0.165596 0.758851 0.688997
O O9 0.500000 0.171555 0.500000
O O10 0.706503 0.334151 0.416892
O O11 0.225522 0.208315 0.398012
O O12 0.621881 0.000000 0.409661
O O13 0.500000 0.500000 0.500000
O O14 0.000000 0.500000 0.500000
O O15 0.916647 0.500000 0.638767
O O16 0.552839 0.000000 0.120041
#
# Coordination Sequence:
#
# PCOD8060830 Si02
#       6
#     4   4   4   2   4   4
#     4   9  17  30  51  80 111 144 184 231 282 337
#     4  10  22  38  58  81 112 152 192 235 288 348
#     4  10  22  41  65  94 124 158 200 250 309 367
#     4  10  22  40  62  86 120 158 192 238 291 358
#     4  10  21  39  59  82 111 150 195 238 290 353
#     4  10  19  32  53  79 108 143 186 234 282 335
#
# _framework density 23.370349000000001
#
# number of rings (size 3 to 8) (size 9 to 14) (size 15 to 20)
#    0.000    2.182    0.909    1.636    0.000    6.909 
#    0.000    3.636    0.000    3.273    0.000    0.000 
#    0.000    0.000    0.000    0.000    0.000    0.000 
#
# Total GULP energy -272756.646195 kJ/mol
# GULP energy per Si atom -12398.029373 kJ/mol
# Density = 2.331716 g / cm^3
# Si number density = 23.370349 Si / 1000 Ang^3
#
#
#
# Elastic Constant Matrix: (Units=GPa)
#
#
# Indices 1 2 3 4 5 6 
#
# 1 97.1660 20.7377 25.6257 0.0000 36.6907 0.0000
# 2 20.7377 103.3607 12.9435 0.0000 14.2960 0.0000
# 3 25.6257 12.9435 134.5542 0.0000 29.2566 0.0000
# 4 0.0000 0.0000 0.0000 34.0090 0.0000 -1.0001
# 5 36.6907 14.2960 29.2566 0.0000 41.1315 0.0000
# 6 0.0000 0.0000 0.0000 -1.0001 0.0000 14.1851
#
#
#
# Elastic Compliance Matrix: (Units=1/GPa)
#
#
# Indices 1 2 3 4 5 6 
#
# 1 0.015678 -0.001275 0.000096 0.000000 -0.013610 0.000000
# 2 -0.001275 0.010274 -0.000256 0.000000 -0.002252 0.000000
# 3 0.000096 -0.000256 0.008798 0.000000 -0.006255 0.000000
# 4 0.000000 0.000000 0.000000 0.029465 0.000000 0.002077
# 5 -0.013610 -0.002252 -0.006255 0.000000 0.041685 0.000000
# 6 0.000000 0.000000 0.000000 0.002077 0.000000 0.070643
#
#
# Mechanical properties :
#
#
# Convention : Reuss Voigt Hill
#
# Bulk Modulus (GPa) = 31.36702 50.41049 40.88876
# Shear Modulus (GPa) = 26.31029 36.25006 31.28018
#
# Velocity S-wave (km/s) = 3.35893 3.94269 3.66246
# Velocity P-wave (km/s) = 5.33798 6.50719 5.95137
#
# Compressibility (1/GPa) = 0.03188062
#
# Stress axis : x y z
#
# Youngs Moduli (GPa) = 63.78434 97.33175 113.65832
#
# Poissons Ratio (x) = 0.12411 -0.01093
# Poissons Ratio (y) = 0.08133 0.02909
# Poissons Ratio (z) = -0.00613 0.02491
#
# Static dielectric constant tensor:
#      x y z
#    x 4.691190 0.000000 0.158980 
#    y 0.000000 5.120950 0.000000 
#    z 0.158980 0.000000 4.157780 
# 
# 
# High freq. dielectric constant tensor:
#      x y z
#    x 1.934030 0.000000 0.006870 
#    y 0.000000 1.891510 0.000000 
#    z 0.006870 0.000000 1.934120 
# 
# From -- ./inp_files/80956.got.cif
#   From: 2010.06.25/outbox.cif.g09.slc.cpg/sg10_41_cif.got.tgz:80956.got - 2010.06.27 22:07:45.
