data_PCOD8060003
_publ_section_title
;
Structure prediction by ZEFSAII (Michael W. Deem and Ramdas Pophale) SiO2 
 PCOD8060003
Probable space group: P 2/M
;
_chemical_formula_sum "Si O2"
_cell_formula_units_Z 32
_cell_length_a 12.499367
_cell_length_b 9.124203
_cell_length_c 20.489318
_cell_angle_alpha 90.000000
_cell_angle_beta 114.955989
_cell_angle_gamma 90.000000
_cell_volume 2118.563943
_symmetry_space_group_name_H-M "P 2/M"
_symmetry_group_IT_number 10
_symmetry_cell_setting 'monoclinic'
loop_
_space_group_symop_operation_xyz
x,y,z
-x,y,-z
-x,-y,-z
x,-y,z
loop_
_atom_site_type_symbol
_atom_site_label
_atom_site_fract_x
_atom_site_fract_y
_atom_site_fract_z
Si Si1 0.998732 0.668033 0.335135
Si Si2 0.029946 0.832875 0.078351
Si Si3 0.024847 0.329979 0.199339
Si Si4 0.101625 0.828068 0.573422
Si Si5 0.426114 0.328852 0.331105
Si Si6 0.657503 0.826665 0.434580
Si Si7 0.271078 0.670549 0.418352
Si Si8 0.238829 0.167741 0.216358
O O1 0.986681 0.500000 0.352705
O O2 0.953581 0.690755 0.248586
O O3 0.912924 0.761223 0.358527
O O4 0.134844 0.717772 0.376449
O O5 0.172451 0.824506 0.128262
O O6 0.962633 0.742862 0.119169
O O7 0.984471 0.000000 0.069685
O O8 0.000000 0.764035 0.000000
O O9 0.049001 0.500000 0.191299
O O10 0.150342 0.249567 0.243951
O O11 0.227048 0.783388 0.576705
O O12 0.000000 0.764069 0.500000
O O13 0.087129 0.000000 0.576859
O O14 0.444859 0.500000 0.323152
O O15 0.550907 0.251466 0.370575
O O16 0.344280 0.295889 0.372146
O O17 0.362479 0.255053 0.251352
O O18 0.668366 0.767208 0.510399
O O19 0.637088 0.000000 0.431733
O O20 0.282276 0.500000 0.439854
O O21 0.258690 0.000000 0.242973
#
# Coordination Sequence:
#
# PCOD8060003 Si02
#       8
#     4   4   4   4   4   4   4   4
#     4  10  19  31  49  68  90 118 155 196 234 282
#     4   8  15  27  43  67  99 130 156 181 215 266
#     4   9  16  28  43  67  95 122 154 186 223 266
#     4  10  21  36  49  64  86 114 152 202 247 283
#     4  11  21  34  48  64  91 120 152 191 230 278
#     4  11  23  35  46  64  87 113 153 198 238 282
#     4  10  19  32  47  65  87 115 147 189 239 280
#     4   9  17  28  44  65  91 124 152 179 217 261
#
# _framework density 15.104571
#
# number of rings (size 3 to 8) (size 9 to 14) (size 15 to 20)
#    0.750    1.500    2.500    1.500    0.000    5.000 
#    0.000    0.000    0.000    0.000    0.000    0.000 
#    0.000    1.000    0.000   11.250    0.000    5.625 
#
# Total GULP energy -396509.461578 kJ/mol
# GULP energy per Si atom -12390.920674 kJ/mol
# Density = 1.507019 g / cm^3
# Si number density = 15.104571 Si / 1000 Ang^3
#
#
#
# Elastic Constant Matrix: (Units=GPa)
#
#
# Indices 1 2 3 4 5 6 
#
# 1 61.1231 33.8982 35.4289 0.0000 1.5661 0.0000
# 2 33.8982 69.6604 41.7182 0.0000 0.1997 0.0000
# 3 35.4289 41.7182 95.5105 0.0000 -6.1424 0.0000
# 4 0.0000 0.0000 0.0000 24.4942 0.0000 -0.4405
# 5 1.5661 0.1997 -6.1424 0.0000 15.4216 0.0000
# 6 0.0000 0.0000 0.0000 -0.4405 0.0000 23.8228
#
#
#
# Elastic Compliance Matrix: (Units=1/GPa)
#
#
# Indices 1 2 3 4 5 6 
#
# 1 0.024479 -0.008508 -0.005662 0.000000 -0.004631 0.000000
# 2 -0.008508 0.022609 -0.006858 0.000000 -0.002160 0.000000
# 3 -0.005662 -0.006858 0.016019 0.000000 0.007044 0.000000
# 4 0.000000 0.000000 0.000000 0.040840 0.000000 0.000755
# 5 -0.004631 -0.002160 0.007044 0.000000 0.068148 0.000000
# 6 0.000000 0.000000 0.000000 0.000755 0.000000 0.041991
#
#
# Mechanical properties :
#
#
# Convention : Reuss Voigt Hill
#
# Bulk Modulus (GPa) = 47.50455 49.82049 48.66252
# Shear Modulus (GPa) = 18.99986 20.43095 19.71541
#
# Velocity S-wave (km/s) = 3.55052 3.68181 3.61676
# Velocity P-wave (km/s) = 6.95176 7.15050 7.05183
#
# Compressibility (1/GPa) = 0.02105062
#
# Stress axis : x y z
#
# Youngs Moduli (GPa) = 40.85061 44.22995 62.42564
#
# Poissons Ratio (x) = 0.37631 0.35346
# Poissons Ratio (y) = 0.34756 0.42814
# Poissons Ratio (z) = 0.23130 0.30335
#
# Static dielectric constant tensor:
#      x y z
#    x 2.672740 0.000000 0.004850 
#    y 0.000000 2.940600 0.000000 
#    z 0.004850 0.000000 2.880160 
# 
# 
# High freq. dielectric constant tensor:
#      x y z
#    x 1.541830 0.000000 -0.002250 
#    y 0.000000 1.590700 0.000000 
#    z -0.002250 0.000000 1.564810 
# 
# From -- ./inp_files/57189.got.cif
#   From: 2010.06.25/outbox.cif.g09.slc.cpg/sg10_29_cif.got.tgz:57189.got - 2010.06.27 22:07:45.
