data_PCOD8060319
_publ_section_title
;
Structure prediction by ZEFSAII (Michael W. Deem and Ramdas Pophale) SiO2 
 PCOD8060319
Probable space group: P 2/M
;
_chemical_formula_sum "Si O2"
_cell_formula_units_Z 28
_cell_length_a 19.476531
_cell_length_b 12.732286
_cell_length_c 10.157096
_cell_angle_alpha 90.000000
_cell_angle_beta 40.757665
_cell_angle_gamma 90.000000
_cell_volume 1644.403290
_symmetry_space_group_name_H-M "P 2/M"
_symmetry_group_IT_number 10
_symmetry_cell_setting 'monoclinic'
loop_
_space_group_symop_operation_xyz
x,y,z
-x,y,-z
-x,-y,-z
x,-y,z
loop_
_atom_site_type_symbol
_atom_site_label
_atom_site_fract_x
_atom_site_fract_y
_atom_site_fract_z
Si Si1 0.476566 0.878413 0.892427
Si Si2 0.850160 0.615922 0.626319
Si Si3 0.759790 0.175501 0.819015
Si Si4 0.807422 0.190670 0.053792
Si Si5 0.945309 0.000000 0.939742
Si Si6 0.407910 0.123738 0.530911
Si Si7 0.932557 0.384273 0.801840
Si Si8 0.912107 0.000000 0.515046
O O1 0.553586 0.834296 0.667466
O O2 0.502824 0.000000 0.865994
O O3 0.500000 0.823845 0.000000
O O4 0.357461 0.865006 0.021458
O O5 0.801262 0.500000 0.667214
O O6 0.763399 0.708065 0.748878
O O7 0.894491 0.616666 0.708208
O O8 0.942545 0.641068 0.386559
O O9 0.840042 0.102801 0.623618
O O10 0.796025 0.166572 0.916642
O O11 0.692592 0.194386 0.286492
O O12 0.868613 0.301160 0.983529
O O13 0.873962 0.102286 0.029332
O O14 0.036214 0.000000 0.701190
O O15 0.000000 0.000000 0.000000
O O16 0.500000 0.146579 0.500000
O O17 0.378601 0.000000 0.574809
O O18 0.914328 0.500000 0.890335
O O19 0.000000 0.000000 0.500000
#
# Coordination Sequence:
#
# PCOD8060319 Si02
#       8
#     4   4   4   4   2   4   4   2
#     4  10  21  35  50  75 105 133 174 221 258 302
#     4   8  15  27  46  76 107 134 170 213 257 304
#     4  11  19  31  55  77 102 140 176 212 258 312
#     4  11  19  33  54  75 104 142 174 209 259 313
#     4  12  26  36  46  77 115 140 166 211 263 313
#     4  10  19  31  53  73  98 134 179 214 248 309
#     4   8  15  28  49  76 104 134 172 216 254 299
#     4  12  22  32  52  78 107 136 173 207 256 311
#
# _framework density 17.027453000000001
#
# number of rings (size 3 to 8) (size 9 to 14) (size 15 to 20)
#    0.000    2.000    4.286    1.714    2.000    1.143 
#    0.000    0.000    0.000    2.143    0.000    2.000 
#    0.000    0.000    0.000    0.000    0.000    0.000 
#
# Total GULP energy -347051.990179 kJ/mol
# GULP energy per Si atom -12394.713935 kJ/mol
# Density = 1.698870 g / cm^3
# Si number density = 17.027453 Si / 1000 Ang^3
#
#
#
# Elastic Constant Matrix: (Units=GPa)
#
#
# Indices 1 2 3 4 5 6 
#
# 1 60.4273 30.3130 34.5970 0.0000 6.4945 0.0000
# 2 30.3130 84.0820 51.1282 0.0000 0.4299 0.0000
# 3 34.5970 51.1282 132.2761 0.0000 -1.7734 0.0000
# 4 0.0000 0.0000 0.0000 -8.4162 0.0000 -2.1365
# 5 6.4945 0.4299 -1.7734 0.0000 21.2674 0.0000
# 6 0.0000 0.0000 0.0000 -2.1365 0.0000 4.5342
#
#
#
# Elastic Compliance Matrix: (Units=1/GPa)
#
#
# Indices 1 2 3 4 5 6 
#
# 1 0.022310 -0.005754 -0.003705 0.000000 -0.007005 0.000000
# 2 -0.005754 0.017046 -0.005070 0.000000 0.000990 0.000000
# 3 -0.003705 -0.005070 0.010517 0.000000 0.002111 0.000000
# 4 0.000000 0.000000 0.000000 -0.106125 0.000000 -0.050005
# 5 -0.007005 0.000990 0.002111 0.000000 0.049316 0.000000
# 6 0.000000 0.000000 0.000000 -0.050005 0.000000 0.196983
#
#
# Mechanical properties :
#
#
# Convention : Reuss Voigt Hill
#
# Bulk Modulus (GPa) = 48.04596 56.54022 52.29309
# Shear Modulus (GPa) = 22.11970 14.19355 18.15663
#
# Velocity S-wave (km/s) = 3.60816 2.89029 3.26899
# Velocity P-wave (km/s) = 6.75547 6.66452 6.71015
#
# Compressibility (1/GPa) = 0.02081340
#
# Stress axis : x y z
#
# Youngs Moduli (GPa) = 44.82395 58.66559 95.08364
#
# Poissons Ratio (x) = 0.33758 0.35227
# Poissons Ratio (y) = 0.25793 0.48210
# Poissons Ratio (z) = 0.16606 0.29745
#
# Static dielectric constant tensor:
#      x y z
#    x 2.944290 0.000000 -0.012420 
#    y 0.000000 3.683580 0.000000 
#    z -0.012420 0.000000 3.317560 
# 
# 
# High freq. dielectric constant tensor:
#      x y z
#    x 1.623380 0.000000 -0.008430 
#    y 0.000000 1.640800 0.000000 
#    z -0.008430 0.000000 1.662370 
# 
# From -- ./inp_files/32802.got.cif
#   From: 2010.06.25/outbox.cif.g09.slc.cpg/sg10_17_cif.got.tgz:32802.got - 2010.06.27 22:07:45.
