data_PCOD8060163
_publ_section_title
;
Structure prediction by ZEFSAII (Michael W. Deem and Ramdas Pophale) SiO2 
 PCOD8060163
Probable space group: P 2/M
;
_chemical_formula_sum "Si O2"
_cell_formula_units_Z 32
_cell_length_a 30.984832
_cell_length_b 9.186424
_cell_length_c 13.137213
_cell_angle_alpha 90.000000
_cell_angle_beta 153.431696
_cell_angle_gamma 90.000000
_cell_volume 1672.488652
_symmetry_space_group_name_H-M "P 2/M"
_symmetry_group_IT_number 10
_symmetry_cell_setting 'monoclinic'
loop_
_space_group_symop_operation_xyz
x,y,z
-x,y,-z
-x,-y,-z
x,-y,z
loop_
_atom_site_type_symbol
_atom_site_label
_atom_site_fract_x
_atom_site_fract_y
_atom_site_fract_z
Si Si1 0.140297 0.670052 0.090102
Si Si2 0.397276 0.172228 0.323945
Si Si3 0.079356 0.670350 0.391667
Si Si4 0.651200 0.664711 0.119251
Si Si5 0.830099 0.335381 0.624016
Si Si6 0.754519 0.828290 0.162749
Si Si7 0.515316 0.836499 0.149556
Si Si8 0.691196 0.166402 0.652671
O O1 0.165451 0.500000 0.145853
O O2 0.151475 0.740237 0.227424
O O3 0.211239 0.744002 0.158622
O O4 0.032502 0.699275 0.822827
O O5 0.500000 0.238979 0.500000
O O6 0.371777 0.225559 0.384383
O O7 0.408197 0.000000 0.343773
O O8 0.306115 0.222137 0.063597
O O9 0.106471 0.500000 0.452823
O O10 0.108456 0.732710 0.340565
O O11 0.140706 0.750669 0.609565
O O12 0.650555 0.500000 0.074585
O O13 0.716353 0.673062 0.358618
O O14 0.692500 0.779083 0.127483
O O15 0.543531 0.714597 0.914778
O O16 0.866971 0.500000 0.714048
O O17 0.770725 0.000000 0.198934
O O18 0.626765 0.817760 0.415243
O O19 0.480151 0.000000 0.104189
O O20 0.500000 0.805956 0.000000
O O21 0.721242 0.000000 0.736633
#
# Coordination Sequence:
#
# PCOD8060163 Si02
#       8
#     4   4   4   4   4   4   4   4
#     4  10  19  33  53  75 103 139 175 211 252 302
#     4   9  18  35  58  78  97 129 171 211 255 307
#     4   9  18  33  53  77 105 137 173 213 255 299
#     4  10  19  31  50  76 105 135 167 208 257 308
#     4   8  15  29  50  75 102 136 175 207 241 294
#     4  10  19  33  55  78  99 127 168 216 260 302
#     4  10  20  33  50  74 105 139 171 206 252 304
#     4  10  21  36  53  75 104 135 170 214 259 307
#
# _framework density 19.133165000000002
#
# number of rings (size 3 to 8) (size 9 to 14) (size 15 to 20)
#    0.000    2.500    0.000    3.375    0.000    4.750 
#    0.000    4.375    0.000   10.125    0.000    0.000 
#    0.000    0.000    0.000    0.000    0.000    0.000 
#
# Total GULP energy -396637.922527 kJ/mol
# GULP energy per Si atom -12394.935079 kJ/mol
# Density = 1.908962 g / cm^3
# Si number density = 19.133165 Si / 1000 Ang^3
#
#
#
# Elastic Constant Matrix: (Units=GPa)
#
#
# Indices 1 2 3 4 5 6 
#
# 1 96.6098 29.5225 61.5141 0.0000 11.2315 0.0000
# 2 29.5225 45.7470 38.2802 0.0000 6.0183 0.0000
# 3 61.5141 38.2802 110.6180 0.0000 0.5661 0.0000
# 4 0.0000 0.0000 0.0000 28.9068 0.0000 6.5949
# 5 11.2315 6.0183 0.5661 0.0000 34.2152 0.0000
# 6 0.0000 0.0000 0.0000 6.5949 0.0000 24.7906
#
#
#
# Elastic Compliance Matrix: (Units=1/GPa)
#
#
# Indices 1 2 3 4 5 6 
#
# 1 0.017353 -0.003512 -0.008409 0.000000 -0.004939 0.000000
# 2 -0.003512 0.032448 -0.009253 0.000000 -0.004401 0.000000
# 3 -0.008409 -0.009253 0.016897 0.000000 0.004108 0.000000
# 4 0.000000 0.000000 0.000000 0.036829 0.000000 -0.009797
# 5 -0.004939 -0.004401 0.004108 0.000000 0.031554 0.000000
# 6 0.000000 0.000000 0.000000 -0.009797 0.000000 0.042944
#
#
# Mechanical properties :
#
#
# Convention : Reuss Voigt Hill
#
# Bulk Modulus (GPa) = 41.06908 56.84537 48.95723
# Shear Modulus (GPa) = 21.88271 25.82639 23.85455
#
# Velocity S-wave (km/s) = 3.38554 3.67798 3.53479
# Velocity P-wave (km/s) = 6.06580 6.91459 6.50406
#
# Compressibility (1/GPa) = 0.02434922
#
# Stress axis : x y z
#
# Youngs Moduli (GPa) = 57.62813 30.81868 59.18041
#
# Poissons Ratio (x) = 0.10824 0.49765
# Poissons Ratio (y) = 0.20239 0.54761
# Poissons Ratio (z) = 0.48460 0.28517
#
# Static dielectric constant tensor:
#      x y z
#    x 3.394170 0.000000 -0.023410 
#    y 0.000000 3.257180 0.000000 
#    z -0.023410 0.000000 3.734320 
# 
# 
# High freq. dielectric constant tensor:
#      x y z
#    x 1.726550 0.000000 0.003350 
#    y 0.000000 1.712490 0.000000 
#    z 0.003350 0.000000 1.752350 
# 
# From -- ./inp_files/58338.got.cif
#   From: 2010.06.25/outbox.cif.g09.slc.cpg/sg10_30_cif.got.tgz:58338.got - 2010.06.27 22:07:45.
