data_PCOD8060694
_publ_section_title
;
Structure prediction by ZEFSAII (Michael W. Deem and Ramdas Pophale) SiO2 
 PCOD8060694
Probable space group: P 2/M
;
_chemical_formula_sum "Si O2"
_cell_formula_units_Z 32
_cell_length_a 19.747859
_cell_length_b 8.716735
_cell_length_c 27.532138
_cell_angle_alpha 90.000000
_cell_angle_beta 158.769391
_cell_angle_gamma 90.000000
_cell_volume 1716.206010
_symmetry_space_group_name_H-M "P 2/M"
_symmetry_group_IT_number 10
_symmetry_cell_setting 'monoclinic'
loop_
_space_group_symop_operation_xyz
x,y,z
-x,y,-z
-x,-y,-z
x,-y,z
loop_
_atom_site_type_symbol
_atom_site_label
_atom_site_fract_x
_atom_site_fract_y
_atom_site_fract_z
Si Si1 0.168514 0.177626 0.900244
Si Si2 0.425647 0.819677 0.666872
Si Si3 0.725002 0.320478 0.931992
Si Si4 0.295994 0.180099 0.878323
Si Si5 0.946606 0.179825 0.909879
Si Si6 0.060798 0.671092 0.393938
Si Si7 0.562307 0.680230 0.659250
Si Si8 0.814406 0.330282 0.633422
O O1 0.272828 0.280606 0.009626
O O2 0.258489 0.224661 0.909050
O O3 0.945115 0.213039 0.750403
O O4 0.197236 0.000000 0.931632
O O5 0.207553 0.772796 0.522487
O O6 0.527399 0.775058 0.684922
O O7 0.445509 0.000000 0.687870
O O8 0.526151 0.732059 0.778078
O O9 0.754431 0.500000 0.943157
O O10 0.889322 0.226355 0.016306
O O11 0.146143 0.257346 0.742053
O O12 0.277894 0.000000 0.858479
O O13 0.500000 0.241194 0.000000
O O14 0.760376 0.270613 0.769412
O O15 0.908926 0.000000 0.880419
O O16 0.000000 0.228640 0.000000
O O17 0.055462 0.500000 0.412323
O O18 0.128487 0.667847 0.384288
O O19 0.557121 0.500000 0.668574
O O20 0.404269 0.718987 0.512754
O O21 0.840339 0.500000 0.673532
#
# Coordination Sequence:
#
# PCOD8060694 Si02
#       8
#     4   4   4   4   4   4   4   4
#     4  10  20  35  55  79 108 140 176 215 258 314
#     4  11  20  32  51  76 105 138 179 223 266 312
#     4  12  24  37  54  74 104 143 180 221 269 320
#     4   9  18  34  58  87 115 143 174 211 259 313
#     4  11  22  35  52  76 105 137 178 228 272 316
#     4   9  17  30  50  79 110 139 175 217 261 308
#     4  10  19  32  52  77 104 136 176 224 272 316
#     4   8  16  31  50  73 102 135 173 215 260 311
#
# _framework density 18.645780999999999
#
# number of rings (size 3 to 8) (size 9 to 14) (size 15 to 20)
#    0.000    2.000    1.250    4.500    0.000    4.750 
#    0.000    0.625    0.000    4.500    0.000    5.250 
#    0.000    0.000    0.000    0.000    0.000    0.000 
#
# Total GULP energy -396829.576899 kJ/mol
# GULP energy per Si atom -12400.924278 kJ/mol
# Density = 1.860334 g / cm^3
# Si number density = 18.645781 Si / 1000 Ang^3
#
#
#
# Elastic Constant Matrix: (Units=GPa)
#
#
# Indices 1 2 3 4 5 6 
#
# 1 43.8958 17.0766 39.0223 0.0000 5.4911 0.0000
# 2 17.0766 66.5852 31.8599 0.0000 -1.5729 0.0000
# 3 39.0223 31.8599 134.8135 0.0000 13.0367 0.0000
# 4 0.0000 0.0000 0.0000 37.0490 0.0000 -0.6152
# 5 5.4911 -1.5729 13.0367 0.0000 28.6535 0.0000
# 6 0.0000 0.0000 0.0000 -0.6152 0.0000 18.9651
#
#
#
# Elastic Compliance Matrix: (Units=1/GPa)
#
#
# Indices 1 2 3 4 5 6 
#
# 1 0.031894 -0.004459 -0.007911 0.000000 -0.002757 0.000000
# 2 -0.004459 0.017786 -0.003232 0.000000 0.003301 0.000000
# 3 -0.007911 -0.003232 0.010818 0.000000 -0.003583 0.000000
# 4 0.000000 0.000000 0.000000 0.027006 0.000000 0.000876
# 5 -0.002757 0.003301 -0.003583 0.000000 0.037240 0.000000
# 6 0.000000 0.000000 0.000000 0.000876 0.000000 0.052757
#
#
# Mechanical properties :
#
#
# Convention : Reuss Voigt Hill
#
# Bulk Modulus (GPa) = 34.13758 46.80134 40.46946
# Shear Modulus (GPa) = 22.88643 27.42255 25.15449
#
# Velocity S-wave (km/s) = 3.50727 3.83915 3.67696
# Velocity P-wave (km/s) = 5.89487 6.69379 6.30699
#
# Compressibility (1/GPa) = 0.02929323
#
# Stress axis : x y z
#
# Youngs Moduli (GPa) = 31.35394 56.22286 92.43947
#
# Poissons Ratio (x) = 0.25071 0.73132
# Poissons Ratio (y) = 0.13982 0.29875
# Poissons Ratio (z) = 0.24805 0.18170
#
# Static dielectric constant tensor:
#      x y z
#    x 3.047850 0.000000 0.073130 
#    y 0.000000 3.467460 0.000000 
#    z 0.073130 0.000000 3.802720 
# 
# 
# High freq. dielectric constant tensor:
#      x y z
#    x 1.670660 0.000000 0.004530 
#    y 0.000000 1.733350 0.000000 
#    z 0.004530 0.000000 1.739690 
# 
# From -- ./inp_files/93775.got.cif
#   From: 2010.06.25/outbox.cif.g09.slc.cpg/sg10_47_cif.got.tgz:93775.got - 2010.06.27 22:07:45.
