data_PCOD8060914
_publ_section_title
;
Structure prediction by ZEFSAII (Michael W. Deem and Ramdas Pophale) SiO2 
 PCOD8060914
Probable space group: P 2/M
;
_chemical_formula_sum "Si O2"
_cell_formula_units_Z 32
_cell_length_a 11.992357
_cell_length_b 8.959311
_cell_length_c 28.837670
_cell_angle_alpha 90.000000
_cell_angle_beta 147.423616
_cell_angle_gamma 90.000000
_cell_volume 1668.258457
_symmetry_space_group_name_H-M "P 2/M"
_symmetry_group_IT_number 10
_symmetry_cell_setting 'monoclinic'
loop_
_space_group_symop_operation_xyz
x,y,z
-x,y,-z
-x,-y,-z
x,-y,z
loop_
_atom_site_type_symbol
_atom_site_label
_atom_site_fract_x
_atom_site_fract_y
_atom_site_fract_z
Si Si1 0.072211 0.176634 0.163792
Si Si2 0.304905 0.677492 0.403425
Si Si3 0.112740 0.677657 0.494250
Si Si4 0.412645 0.323174 0.339853
Si Si5 0.424164 0.675574 0.851903
Si Si6 0.104705 0.675974 0.988290
Si Si7 0.698308 0.824248 0.098196
Si Si8 0.061780 0.676340 0.662554
O O1 0.293040 0.242471 0.256254
O O2 0.019129 0.240736 0.095036
O O3 0.900404 0.227964 0.140903
O O4 0.084076 0.000000 0.164196
O O5 0.500000 0.742424 0.500000
O O6 0.314668 0.500000 0.407588
O O7 0.312670 0.732177 0.353117
O O8 0.097632 0.739782 0.354867
O O9 0.101873 0.500000 0.490092
O O10 0.349947 0.730238 0.577673
O O11 0.000000 0.743425 0.500000
O O12 0.993164 0.743147 0.407211
O O13 0.394902 0.500000 0.326770
O O14 0.421673 0.500000 0.859080
O O15 0.305387 0.747444 0.853367
O O16 0.294813 0.718503 0.760095
O O17 0.657995 0.734110 0.928017
O O18 0.093786 0.500000 0.975453
O O19 0.000000 0.719653 0.000000
O O20 0.693310 0.000000 0.104057
O O21 0.500000 0.769092 0.000000
O O22 0.032498 0.500000 0.649821
#
# Coordination Sequence:
#
# PCOD8060914 Si02
#       8
#     4   4   4   4   4   4   4   4
#     4  11  23  38  57  80 109 146 184 225 274 330
#     4   9  14  24  45  73 104 133 165 209 258 309
#     4   9  17  29  48  76 108 141 174 213 265 320
#     4  10  19  32  54  81 107 139 178 222 269 318
#     4  10  20  33  55  84 110 139 175 223 274 323
#     4  10  22  39  57  80 111 143 179 227 276 319
#     4  10  20  36  56  78 108 144 179 221 273 330
#     4   9  16  27  44  72 105 132 166 210 257 310
#
# _framework density 19.18168
#
# number of rings (size 3 to 8) (size 9 to 14) (size 15 to 20)
#    0.000    2.250    2.500    1.125    0.000    3.500 
#    0.000    3.750    0.000    1.500    0.000    0.000 
#    0.000    0.000    0.000    0.000    0.000    0.000 
#
# Total GULP energy -396786.922445 kJ/mol
# GULP energy per Si atom -12399.591326 kJ/mol
# Density = 1.913802 g / cm^3
# Si number density = 19.181680 Si / 1000 Ang^3
#
#
#
# Elastic Constant Matrix: (Units=GPa)
#
#
# Indices 1 2 3 4 5 6 
#
# 1 144.7729 26.4552 69.0509 0.0000 -18.5898 0.0000
# 2 26.4552 24.2808 28.3084 0.0000 -8.3553 0.0000
# 3 69.0509 28.3084 157.4780 0.0000 -27.4889 0.0000
# 4 0.0000 0.0000 0.0000 3.1136 0.0000 4.9430
# 5 -18.5898 -8.3553 -27.4889 0.0000 21.4201 0.0000
# 6 0.0000 0.0000 0.0000 4.9430 0.0000 12.2926
#
#
#
# Elastic Compliance Matrix: (Units=1/GPa)
#
#
# Indices 1 2 3 4 5 6 
#
# 1 0.009690 -0.006655 -0.002626 0.000000 0.002444 0.000000
# 2 -0.006655 0.058652 -0.005979 0.000000 0.009429 0.000000
# 3 -0.002626 -0.005979 0.010015 0.000000 0.008241 0.000000
# 4 0.000000 0.000000 0.000000 0.888142 0.000000 -0.357135
# 5 0.002444 0.009429 0.008241 0.000000 0.063060 0.000000
# 6 0.000000 0.000000 0.000000 -0.357135 0.000000 0.224959
#
#
# Mechanical properties :
#
#
# Convention : Reuss Voigt Hill
#
# Bulk Modulus (GPa) = 20.90489 63.79564 42.35026
# Shear Modulus (GPa) = 3.84325 20.87975 12.36150
#
# Velocity S-wave (km/s) = 1.41702 3.30286 2.54134
# Velocity P-wave (km/s) = 3.68772 6.91925 5.54415
#
# Compressibility (1/GPa) = 0.04783571
#
# Stress axis : x y z
#
# Youngs Moduli (GPa) = 103.20228 17.04983 99.85177
#
# Poissons Ratio (x) = 0.11347 0.26220
# Poissons Ratio (y) = 0.68683 0.59704
# Poissons Ratio (z) = 0.27099 0.10194
#
# Static dielectric constant tensor:
#      x y z
#    x 3.630540 0.000000 -0.004020 
#    y 0.000000 2.960230 0.000000 
#    z -0.004020 0.000000 3.716610 
# 
# 
# High freq. dielectric constant tensor:
#      x y z
#    x 1.747060 0.000000 -0.003500 
#    y 0.000000 1.691920 0.000000 
#    z -0.003500 0.000000 1.764330 
# 
# From -- ./inp_files/95014.got.cif
#   From: 2010.06.25/outbox.cif.g09.slc.cpg/sg10_48_cif.got.tgz:95014.got - 2010.06.27 22:07:45.
