data_PCOD8060681
_publ_section_title
;
Structure prediction by ZEFSAII (Michael W. Deem and Ramdas Pophale) SiO2 
 PCOD8060681
Probable space group: P 2/M
;
_chemical_formula_sum "Si O2"
_cell_formula_units_Z 32
_cell_length_a 20.718508
_cell_length_b 8.944714
_cell_length_c 27.389272
_cell_angle_alpha 90.000000
_cell_angle_beta 19.123765
_cell_angle_gamma 90.000000
_cell_volume 1662.885433
_symmetry_space_group_name_H-M "P 2/M"
_symmetry_group_IT_number 10
_symmetry_cell_setting 'monoclinic'
loop_
_space_group_symop_operation_xyz
x,y,z
-x,y,-z
-x,-y,-z
x,-y,z
loop_
_atom_site_type_symbol
_atom_site_label
_atom_site_fract_x
_atom_site_fract_y
_atom_site_fract_z
Si Si1 0.598092 0.176323 0.065293
Si Si2 0.086236 0.178047 0.082384
Si Si3 0.666390 0.177924 0.417342
Si Si4 0.895243 0.323799 0.437390
Si Si5 0.166691 0.821967 0.917100
Si Si6 0.820096 0.824907 0.593807
Si Si7 0.594616 0.177493 0.578340
Si Si8 0.678844 0.675775 0.905394
O O1 0.377386 0.224698 0.237046
O O2 0.615024 0.000000 0.047069
O O3 0.742656 0.235864 0.004237
O O4 0.666932 0.248394 0.966126
O O5 0.877308 0.241276 0.249916
O O6 0.083554 0.000000 0.083152
O O7 0.126973 0.241908 0.999409
O O8 0.500000 0.242608 0.500000
O O9 0.625322 0.233480 0.501288
O O10 0.664638 0.000000 0.416520
O O11 0.866077 0.500000 0.457268
O O12 0.836307 0.264413 0.532317
O O13 0.758264 0.251415 0.494744
O O14 0.119530 0.277938 0.265404
O O15 0.379982 0.765765 0.747781
O O16 0.159147 0.000000 0.922278
O O17 0.000000 0.757661 0.000000
O O18 0.000000 0.781092 0.500000
O O19 0.817089 0.000000 0.583324
O O20 0.614652 0.000000 0.568764
O O21 0.663930 0.500000 0.924135
O O22 0.500000 0.735239 0.000000
#
# Coordination Sequence:
#
# PCOD8060681 Si02
#       8
#     4   4   4   4   4   4   4   4
#     4  10  20  34  54  80 107 136 171 213 264 319
#     4   9  16  26  41  65  98 128 157 199 246 295
#     4   9  16  26  43  70 100 128 162 206 256 307
#     4  11  23  37  55  79 108 144 184 223 266 323
#     4   9  16  27  46  73 103 134 168 209 259 311
#     4  10  21  37  57  82 110 138 173 220 272 325
#     4  10  19  32  52  76 104 137 173 219 270 316
#     4  10  22  39  56  76 104 138 178 223 267 314
#
# _framework density 19.243659000000001
#
# number of rings (size 3 to 8) (size 9 to 14) (size 15 to 20)
#    0.000    2.250    0.000    3.375    0.000    8.000 
#    0.000    0.000    0.000    0.750    0.000    1.750 
#    0.000    0.000    0.000    0.000    0.000    0.000 
#
# Total GULP energy -396876.935603 kJ/mol
# GULP energy per Si atom -12402.404238 kJ/mol
# Density = 1.919986 g / cm^3
# Si number density = 19.243659 Si / 1000 Ang^3
#
#
#
# Elastic Constant Matrix: (Units=GPa)
#
#
# Indices 1 2 3 4 5 6 
#
# 1 128.4385 20.2343 29.7782 0.0000 0.3445 0.0000
# 2 20.2343 22.7800 16.5703 0.0000 1.6224 0.0000
# 3 29.7782 16.5703 105.9531 0.0000 -0.1150 0.0000
# 4 0.0000 0.0000 0.0000 16.3159 0.0000 2.9627
# 5 0.3445 1.6224 -0.1150 0.0000 47.7897 0.0000
# 6 0.0000 0.0000 0.0000 2.9627 0.0000 -11.0407
#
#
#
# Elastic Compliance Matrix: (Units=1/GPa)
#
#
# Indices 1 2 3 4 5 6 
#
# 1 0.009256 -0.007156 -0.001482 0.000000 0.000173 0.000000
# 2 -0.007156 0.055204 -0.006624 0.000000 -0.001838 0.000000
# 3 -0.001482 -0.006624 0.010891 0.000000 0.000262 0.000000
# 4 0.000000 0.000000 0.000000 0.058442 0.000000 0.015683
# 5 0.000173 -0.001838 0.000262 0.000000 0.020987 0.000000
# 6 0.000000 0.000000 0.000000 0.015683 0.000000 -0.086366
#
#
# Mechanical properties :
#
#
# Convention : Reuss Voigt Hill
#
# Bulk Modulus (GPa) = 22.30835 43.37081 32.83958
# Shear Modulus (GPa) = 43.90525 23.31891 33.61208
#
# Velocity S-wave (km/s) = 4.78173 3.48483 4.18384
# Velocity P-wave (km/s) = 6.48879 6.22725 6.35936
#
# Compressibility (1/GPa) = 0.04482627
#
# Stress axis : x y z
#
# Youngs Moduli (GPa) = 108.03363 18.11462 91.81918
#
# Poissons Ratio (x) = 0.12963 0.13609
# Poissons Ratio (y) = 0.77310 0.60824
# Poissons Ratio (z) = 0.16012 0.12000
#
# Static dielectric constant tensor:
#      x y z
#    x 3.618550 0.000000 -0.210920 
#    y 0.000000 3.017900 0.000000 
#    z -0.210920 0.000000 3.705670 
# 
# 
# High freq. dielectric constant tensor:
#      x y z
#    x 1.768880 0.000000 -0.001520 
#    y 0.000000 1.695130 0.000000 
#    z -0.001520 0.000000 1.770700 
# 
# From -- ./inp_files/93617.got.cif
#   From: 2010.06.25/outbox.cif.g09.slc.cpg/sg10_47_cif.got.tgz:93617.got - 2010.06.27 22:07:45.
