data_PCOD8060190
_publ_section_title
;
Structure prediction by ZEFSAII (Michael W. Deem and Ramdas Pophale) SiO2 
 PCOD8060190
Probable space group: P 2/M
;
_chemical_formula_sum "Si O2"
_cell_formula_units_Z 28
_cell_length_a 20.197187
_cell_length_b 7.756353
_cell_length_c 15.249866
_cell_angle_alpha 90.000000
_cell_angle_beta 40.970430
_cell_angle_gamma 90.000000
_cell_volume 1566.388272
_symmetry_space_group_name_H-M "P 2/M"
_symmetry_group_IT_number 10
_symmetry_cell_setting 'monoclinic'
loop_
_space_group_symop_operation_xyz
x,y,z
-x,y,-z
-x,-y,-z
x,-y,z
loop_
_atom_site_type_symbol
_atom_site_label
_atom_site_fract_x
_atom_site_fract_y
_atom_site_fract_z
Si Si1 0.619398 0.308285 0.380603
Si Si2 0.881246 0.000000 0.515969
Si Si3 0.747731 0.303585 0.910476
Si Si4 0.614997 0.196796 0.197100
Si Si5 0.610549 0.703463 0.889451
Si Si6 0.614996 0.196796 0.572909
Si Si7 0.252270 0.696415 0.405936
Si Si8 0.118754 0.000000 0.278460
O O1 0.500000 0.313312 0.500000
O O2 0.665283 0.500000 0.334718
O O3 0.655064 0.211157 0.257015
O O4 0.655063 0.211157 0.432859
O O5 0.841217 0.828009 0.506794
O O6 0.851473 0.000000 0.648527
O O7 0.000000 0.000000 0.384783
O O8 0.784946 0.500000 0.854729
O O9 0.668497 0.235563 0.917875
O O10 0.841217 0.171990 0.810771
O O11 0.691592 0.303153 0.060054
O O12 0.500001 0.269596 0.303403
O O13 0.618059 0.000000 0.164037
O O14 0.599968 0.500000 0.900029
O O15 0.668499 0.764442 0.745131
O O16 0.500000 0.790286 0.000000
O O17 0.691590 0.303154 0.556765
O O18 0.618058 0.000000 0.599846
O O19 0.215055 0.500000 0.424618
#
# Coordination Sequence:
#
# PCOD8060190 Si02
#       8
#     4   2   4   4   4   4   4   2
#     4   9  17  29  45  71 109 152 191 223 257 301
#     4  11  24  42  60  79 104 135 179 234 287 329
#     4  11  21  36  56  80 108 142 182 220 268 324
#     4  10  19  31  50  78 114 152 187 221 260 312
#     4   9  18  31  49  76 111 145 176 210 250 308
#     4  10  19  31  50  78 114 152 187 221 260 312
#     4  11  21  36  56  80 108 142 182 220 268 324
#     4  11  24  42  60  79 104 135 179 234 287 329
#
# _framework density 17.875516000000001
#
# number of rings (size 3 to 8) (size 9 to 14) (size 15 to 20)
#    0.000    1.857    2.857    2.143    0.000    5.143 
#    0.000    2.143    0.000    0.000    0.000    2.000 
#    0.000    3.429    0.000    0.000    0.000    0.000 
#
# Total GULP energy -347155.310161 kJ/mol
# GULP energy per Si atom -12398.403934 kJ/mol
# Density = 1.783483 g / cm^3
# Si number density = 17.875516 Si / 1000 Ang^3
#
#
#
# Elastic Constant Matrix: (Units=GPa)
#
#
# Indices 1 2 3 4 5 6 
#
# 1 85.1209 27.3633 57.1664 0.0000 13.5135 0.0000
# 2 27.3633 96.4338 31.8589 0.0000 -8.0329 0.0000
# 3 57.1664 31.8589 75.4042 0.0000 3.8496 0.0000
# 4 0.0000 0.0000 0.0000 20.9601 0.0000 4.2463
# 5 13.5135 -8.0329 3.8496 0.0000 27.4587 0.0000
# 6 0.0000 0.0000 0.0000 4.2463 0.0000 23.3377
#
#
#
# Elastic Compliance Matrix: (Units=1/GPa)
#
#
# Indices 1 2 3 4 5 6 
#
# 1 0.026988 -0.002363 -0.018884 0.000000 -0.011325 0.000000
# 2 -0.002363 0.012777 -0.003885 0.000000 0.005445 0.000000
# 3 -0.018884 -0.003885 0.029011 0.000000 0.004090 0.000000
# 4 0.000000 0.000000 0.000000 0.049536 0.000000 -0.009013
# 5 -0.011325 0.005445 0.004090 0.000000 0.043012 0.000000
# 6 0.000000 0.000000 0.000000 -0.009013 0.000000 0.044489
#
#
# Mechanical properties :
#
#
# Convention : Reuss Voigt Hill
#
# Bulk Modulus (GPa) = 54.01732 54.41514 54.21623
# Shear Modulus (GPa) = 19.06595 23.72263 21.39429
#
# Velocity S-wave (km/s) = 3.26942 3.64689 3.46330
# Velocity P-wave (km/s) = 6.67356 6.94553 6.81090
#
# Compressibility (1/GPa) = 0.01851258
#
# Stress axis : x y z
#
# Youngs Moduli (GPa) = 37.05387 78.26301 34.46940
#
# Poissons Ratio (x) = 0.18490 0.65092
# Poissons Ratio (y) = 0.08754 0.13393
# Poissons Ratio (z) = 0.69972 0.30409
#
# Static dielectric constant tensor:
#      x y z
#    x 3.273400 0.000000 0.241070 
#    y 0.000000 3.271540 0.000000 
#    z 0.241070 0.000000 3.138450 
# 
# 
# High freq. dielectric constant tensor:
#      x y z
#    x 1.675410 0.000000 0.028580 
#    y 0.000000 1.700570 0.000000 
#    z 0.028580 0.000000 1.659420 
# 
# From -- ./inp_files/61286.got.cif
#   From: 2010.06.25/outbox.cif.g09.slc.cpg/sg10_31_cif.got.tgz:61286.got - 2010.06.27 22:07:45.
