data_PCOD8060775
_publ_section_title
;
Structure prediction by ZEFSAII (Michael W. Deem and Ramdas Pophale) SiO2 
 PCOD8060775
Probable space group: P 2/M
;
_chemical_formula_sum "Si O2"
_cell_formula_units_Z 20
_cell_length_a 20.031928
_cell_length_b 11.968706
_cell_length_c 10.552087
_cell_angle_alpha 90.000000
_cell_angle_beta 25.577064
_cell_angle_gamma 90.000000
_cell_volume 1092.232794
_symmetry_space_group_name_H-M "P 2/M"
_symmetry_group_IT_number 10
_symmetry_cell_setting 'monoclinic'
loop_
_space_group_symop_operation_xyz
x,y,z
-x,y,-z
-x,-y,-z
x,-y,z
loop_
_atom_site_type_symbol
_atom_site_label
_atom_site_fract_x
_atom_site_fract_y
_atom_site_fract_z
Si Si1 0.328330 0.265107 0.829994
Si Si2 0.124766 0.500000 0.537546
Si Si3 0.764115 0.500000 0.122307
Si Si4 0.246506 0.735216 0.257582
Si Si5 0.959677 0.873554 0.716422
Si Si6 0.500000 0.313428 0.000000
Si Si7 0.684525 0.500000 0.551625
O O1 0.500000 0.225270 0.500000
O O2 0.303814 0.393458 0.833768
O O3 0.309184 0.242094 0.010899
O O4 0.201182 0.188706 0.976115
O O5 0.205236 0.605319 0.335558
O O6 0.158485 0.500000 0.631477
O O7 0.947758 0.500000 0.801979
O O8 0.718553 0.500000 0.346128
O O9 0.379955 0.765043 0.130481
O O10 0.099017 0.810121 0.548894
O O11 0.000000 0.869050 0.500000
O O12 0.948027 0.000000 0.786428
O O13 0.585752 0.389893 0.749651
#
# Coordination Sequence:
#
# PCOD8060775 Si02
#       7
#     4   2   2   4   4   2   2
#     4  11  22  32  52  81 109 135 166 214 265 305
#     4  10  19  32  53  76 104 144 171 206 249 310
#     4  12  20  31  49  81 112 133 167 213 259 305
#     4  10  19  35  54  78 104 138 176 206 256 310
#     4   9  19  36  55  74 100 135 176 216 254 305
#     4   9  18  34  53  72 106 146 171 207 246 306
#     4   9  19  31  47  76 111 142 172 199 248 313
#
# _framework density 18.311114
#
# number of rings (size 3 to 8) (size 9 to 14) (size 15 to 20)
#    0.000    2.000    2.000    3.000    0.000    1.200 
#    0.000    0.500    0.000    0.000    0.000   18.200 
#    0.000    0.000    0.000    0.000    0.000    0.000 
#
# Total GULP energy -247995.358830 kJ/mol
# GULP energy per Si atom -12399.767941 kJ/mol
# Density = 1.826944 g / cm^3
# Si number density = 18.311114 Si / 1000 Ang^3
#
#
#
# Elastic Constant Matrix: (Units=GPa)
#
#
# Indices 1 2 3 4 5 6 
#
# 1 103.0653 33.7684 50.2735 0.0000 -31.4186 0.0000
# 2 33.7684 107.2713 33.8484 0.0000 -21.0130 0.0000
# 3 50.2735 33.8484 109.9598 0.0000 -26.3365 0.0000
# 4 0.0000 0.0000 0.0000 -12.0752 0.0000 -14.8693
# 5 -31.4186 -21.0130 -26.3365 0.0000 37.7300 0.0000
# 6 0.0000 0.0000 0.0000 -14.8693 0.0000 -1.3083
#
#
#
# Elastic Compliance Matrix: (Units=1/GPa)
#
#
# Indices 1 2 3 4 5 6 
#
# 1 0.014933 -0.001686 -0.004269 0.000000 0.008517 0.000000
# 2 -0.001686 0.011113 -0.001806 0.000000 0.003525 0.000000
# 3 -0.004269 -0.001806 0.012619 0.000000 0.004248 0.000000
# 4 0.000000 0.000000 0.000000 0.006373 0.000000 -0.072428
# 5 0.008517 0.003525 0.004248 0.000000 0.038525 0.000000
# 6 0.000000 0.000000 0.000000 -0.072428 0.000000 0.058818
#
#
# Mechanical properties :
#
#
# Convention : Reuss Voigt Hill
#
# Bulk Modulus (GPa) = 43.20569 61.78631 52.49600
# Shear Modulus (GPa) = 30.19014 18.36303 24.27659
#
# Velocity S-wave (km/s) = 4.06486 3.17019 3.64508
# Velocity P-wave (km/s) = 6.75851 6.87139 6.81518
#
# Compressibility (1/GPa) = 0.02314510
#
# Stress axis : x y z
#
# Youngs Moduli (GPa) = 66.96390 89.98359 79.24378
#
# Poissons Ratio (x) = 0.15168 0.33827
# Poissons Ratio (y) = 0.11288 0.14311
# Poissons Ratio (z) = 0.28585 0.16251
#
# Static dielectric constant tensor:
#      x y z
#    x 3.544890 0.000000 -0.381510 
#    y 0.000000 3.265240 0.000000 
#    z -0.381510 0.000000 3.418770 
# 
# 
# High freq. dielectric constant tensor:
#      x y z
#    x 1.709620 0.000000 -0.024320 
#    y 0.000000 1.685360 0.000000 
#    z -0.024320 0.000000 1.709270 
# 
# From -- ./inp_files/23150.got.cif
#   From: 2010.06.25/outbox.cif.g09.slc.cpg/sg10_12_cif.got.tgz:23150.got - 2010.06.27 22:07:45.
