data_PCOD8060597
_publ_section_title
;
Structure prediction by ZEFSAII (Michael W. Deem and Ramdas Pophale) SiO2 
 PCOD8060597
Probable space group: P 2/M
;
_chemical_formula_sum "Si O2"
_cell_formula_units_Z 32
_cell_length_a 14.048998
_cell_length_b 9.745427
_cell_length_c 20.668874
_cell_angle_alpha 90.000000
_cell_angle_beta 137.357937
_cell_angle_gamma 90.000000
_cell_volume 1916.984534
_symmetry_space_group_name_H-M "P 2/M"
_symmetry_group_IT_number 10
_symmetry_cell_setting 'monoclinic'
loop_
_space_group_symop_operation_xyz
x,y,z
-x,y,-z
-x,-y,-z
x,-y,z
loop_
_atom_site_type_symbol
_atom_site_label
_atom_site_fract_x
_atom_site_fract_y
_atom_site_fract_z
Si Si1 0.094444 0.660348 0.608695
Si Si2 0.103147 0.656406 0.229010
Si Si3 0.659738 0.156969 0.700506
Si Si4 0.340157 0.842094 0.149410
Si Si5 0.103147 0.343594 0.374137
Si Si6 0.659738 0.156969 0.459232
Si Si7 0.094444 0.660348 0.985749
Si Si8 0.340157 0.157906 0.690747
O O1 0.131738 0.500000 0.626182
O O2 0.238825 0.744720 0.681201
O O3 0.000000 0.701723 0.500000
O O4 0.014677 0.704599 0.634145
O O5 0.146212 0.500000 0.235287
O O6 0.242487 0.746755 0.293280
O O7 0.042225 0.671553 0.271113
O O8 0.985322 0.704599 0.119468
O O9 0.676672 0.195415 0.783934
O O10 0.500000 0.180902 0.598223
O O11 0.703891 0.000000 0.710703
O O12 0.500000 0.815331 0.206911
O O13 0.298868 0.000000 0.116593
O O14 0.238825 0.744720 0.057624
O O15 0.146212 0.500000 0.410926
O O16 0.242487 0.253245 0.449207
O O17 0.676672 0.195416 0.392738
O O18 0.703891 0.000000 0.493188
O O19 0.131737 0.500000 0.005555
O O20 0.000000 0.701723 0.000000
O O21 0.298868 0.000000 0.682275
#
# Coordination Sequence:
#
# PCOD8060597 Si02
#       8
#     4   4   4   4   4   4   4   4
#     4  10  19  32  51  75  98 125 165 206 241 283
#     4  10  21  35  49  69 100 133 163 200 245 289
#     4   9  18  32  49  71 100 132 165 199 236 284
#     4   9  18  32  51  76 102 127 159 201 247 290
#     4  10  21  35  49  69 100 133 163 200 245 289
#     4   9  18  32  49  71 100 132 165 199 236 284
#     4  10  19  32  51  75  98 125 165 206 241 283
#     4   9  18  32  51  76 102 127 159 201 247 290
#
# _framework density 16.692883999999999
#
# number of rings (size 3 to 8) (size 9 to 14) (size 15 to 20)
#    0.000    2.500    2.500    1.500    0.000    3.500 
#    0.000    5.000    0.000    0.750    0.000    5.250 
#    0.000    0.000    0.000    0.000    0.000    0.000 
#
# Total GULP energy -396844.722567 kJ/mol
# GULP energy per Si atom -12401.397580 kJ/mol
# Density = 1.665489 g / cm^3
# Si number density = 16.692884 Si / 1000 Ang^3
#
#
#
# Elastic Constant Matrix: (Units=GPa)
#
#
# Indices 1 2 3 4 5 6 
#
# 1 94.9582 45.3506 48.9635 0.0000 1.2483 0.0000
# 2 45.3506 63.5219 46.6149 0.0000 8.7617 0.0000
# 3 48.9635 46.6149 95.3032 0.0000 1.1440 0.0000
# 4 0.0000 0.0000 0.0000 27.8357 0.0000 7.5225
# 5 1.2483 8.7617 1.1440 0.0000 22.3647 0.0000
# 6 0.0000 0.0000 0.0000 7.5225 0.0000 26.7504
#
#
#
# Elastic Compliance Matrix: (Units=1/GPa)
#
#
# Indices 1 2 3 4 5 6 
#
# 1 0.017268 -0.009689 -0.004169 0.000000 0.003045 0.000000
# 2 -0.009689 0.031953 -0.010514 0.000000 -0.011440 0.000000
# 3 -0.004169 -0.010514 0.017736 0.000000 0.003445 0.000000
# 4 0.000000 0.000000 0.000000 0.038880 0.000000 -0.010933
# 5 0.003045 -0.011440 0.003445 0.000000 0.048849 0.000000
# 6 0.000000 0.000000 0.000000 -0.010933 0.000000 0.040457
#
#
# Mechanical properties :
#
#
# Convention : Reuss Voigt Hill
#
# Bulk Modulus (GPa) = 54.90468 59.51570 57.21019
# Shear Modulus (GPa) = 20.00338 22.91377 21.45858
#
# Velocity S-wave (km/s) = 3.46543 3.70897 3.58927
# Velocity P-wave (km/s) = 6.99819 7.35341 7.17800
#
# Compressibility (1/GPa) = 0.01821338
#
# Stress axis : x y z
#
# Youngs Moduli (GPa) = 57.91106 31.29586 56.38202
#
# Poissons Ratio (x) = 0.30321 0.23507
# Poissons Ratio (y) = 0.56108 0.59280
# Poissons Ratio (z) = 0.24145 0.32904
#
# Static dielectric constant tensor:
#      x y z
#    x 3.026470 0.000000 0.011600 
#    y 0.000000 3.085050 0.000000 
#    z 0.011600 0.000000 3.028140 
# 
# 
# High freq. dielectric constant tensor:
#      x y z
#    x 1.629360 0.000000 0.004840 
#    y 0.000000 1.645270 0.000000 
#    z 0.004840 0.000000 1.630060 
# 
# From -- ./inp_files/69965.got.cif
#   From: 2010.06.25/outbox.cif.g09.slc.cpg/sg10_35_cif.got.tgz:69965.got - 2010.06.27 22:07:45.
