data_PCOD8060016
_publ_section_title
;
Structure prediction by ZEFSAII (Michael W. Deem and Ramdas Pophale) SiO2 
 PCOD8060016
Probable space group: P 2/M
;
_chemical_formula_sum "Si O2"
_cell_formula_units_Z 28
_cell_length_a 13.998505
_cell_length_b 9.633656
_cell_length_c 14.973802
_cell_angle_alpha 90.000000
_cell_angle_beta 136.297138
_cell_angle_gamma 90.000000
_cell_volume 1395.184727
_symmetry_space_group_name_H-M "P 2/M"
_symmetry_group_IT_number 10
_symmetry_cell_setting 'monoclinic'
loop_
_space_group_symop_operation_xyz
x,y,z
-x,y,-z
-x,-y,-z
x,-y,z
loop_
_atom_site_type_symbol
_atom_site_label
_atom_site_fract_x
_atom_site_fract_y
_atom_site_fract_z
Si Si1 0.877578 0.663282 0.855123
Si Si2 0.317665 0.654698 0.960835
Si Si3 0.549267 0.657805 0.253904
Si Si4 0.016394 0.153116 0.607288
Si Si5 0.433055 0.664742 0.362143
Si Si6 0.000184 0.341557 0.750909
Si Si7 0.335984 0.154590 0.817471
O O1 0.875898 0.500000 0.872761
O O2 0.722072 0.724536 0.762775
O O3 0.913590 0.699812 0.778149
O O4 0.000000 0.729384 0.000000
O O5 0.327766 0.500000 0.925830
O O6 0.160335 0.690151 0.878263
O O7 0.392383 0.758285 0.940906
O O8 0.397080 0.664234 0.107863
O O9 0.608194 0.500000 0.288028
O O10 0.532723 0.704893 0.346099
O O11 0.646824 0.763403 0.264738
O O12 0.942752 0.248788 0.630886
O O13 0.177120 0.139708 0.734785
O O14 0.000000 0.224659 0.500000
O O15 0.946163 0.000000 0.560733
O O16 0.500000 0.723518 0.500000
O O17 0.420342 0.500000 0.361580
O O18 0.975238 0.500000 0.706740
O O19 0.403423 0.000000 0.856957
#
# Coordination Sequence:
#
# PCOD8060016 Si02
#       7
#     4   4   4   4   4   4   4
#     4   9  16  28  48  72  96 124 160 200 242 289
#     4   9  17  30  47  71 101 127 154 191 238 290
#     4  10  19  31  49  70  96 131 161 190 236 290
#     4   9  19  35  50  65  92 129 161 191 238 298
#     4   9  18  31  46  68  98 128 160 200 244 288
#     4   9  17  29  49  75  97 120 157 204 242 275
#     4  10  20  32  48  71  96 124 160 199 239 287
#
# _framework density 20.069027999999999
#
# number of rings (size 3 to 8) (size 9 to 14) (size 15 to 20)
#    0.000    2.714    0.000    1.714    0.000    7.714 
#    0.000    1.429    0.000    1.714    0.000    0.000 
#    0.000    0.000    0.000    0.000    0.000    0.000 
#
# Total GULP energy -346963.303111 kJ/mol
# GULP energy per Si atom -12391.546540 kJ/mol
# Density = 2.002335 g / cm^3
# Si number density = 20.069028 Si / 1000 Ang^3
#
#
#
# Elastic Constant Matrix: (Units=GPa)
#
#
# Indices 1 2 3 4 5 6 
#
# 1 76.3637 35.6116 12.0358 0.0000 -14.7763 0.0000
# 2 35.6116 68.2079 10.5168 0.0000 -15.9899 0.0000
# 3 12.0358 10.5168 75.1258 0.0000 -19.7355 0.0000
# 4 0.0000 0.0000 0.0000 13.1175 0.0000 0.6764
# 5 -14.7763 -15.9899 -19.7355 0.0000 30.6566 0.0000
# 6 0.0000 0.0000 0.0000 0.6764 0.0000 0.8574
#
#
#
# Elastic Compliance Matrix: (Units=1/GPa)
#
#
# Indices 1 2 3 4 5 6 
#
# 1 0.017812 -0.008300 -0.000690 0.000000 0.003812 0.000000
# 2 -0.008300 0.020571 0.000262 0.000000 0.006898 0.000000
# 3 -0.000690 0.000262 0.016047 0.000000 0.010134 0.000000
# 4 0.000000 0.000000 0.000000 0.079467 0.000000 -0.062693
# 5 0.003812 0.006898 0.010134 0.000000 0.044579 0.000000
# 6 0.000000 0.000000 0.000000 -0.062693 0.000000 1.215743
#
#
# Mechanical properties :
#
#
# Convention : Reuss Voigt Hill
#
# Bulk Modulus (GPa) = 27.04596 37.33621 32.19109
# Shear Modulus (GPa) = 3.51124 19.69519 11.60321
#
# Velocity S-wave (km/s) = 1.32415 3.13608 2.40712
# Velocity P-wave (km/s) = 3.98040 5.63539 4.87859
#
# Compressibility (1/GPa) = 0.03697410
#
# Stress axis : x y z
#
# Youngs Moduli (GPa) = 56.14140 48.61210 62.31598
#
# Poissons Ratio (x) = 0.40347 0.04302
# Poissons Ratio (y) = 0.46596 -0.01633
# Poissons Ratio (z) = 0.03876 -0.01274
#
# Static dielectric constant tensor:
#      x y z
#    x 3.575430 0.000000 -0.050850 
#    y 0.000000 3.708650 0.000000 
#    z -0.050850 0.000000 3.723270 
# 
# 
# High freq. dielectric constant tensor:
#      x y z
#    x 1.781860 0.000000 -0.003340 
#    y 0.000000 1.734980 0.000000 
#    z -0.003340 0.000000 1.785680 
# 
# From -- ./inp_files/49598.got.cif
#   From: 2010.06.25/outbox.cif.g09.slc.cpg/sg10_25_cif.got.tgz:49598.got - 2010.06.27 22:07:45.
