data_PCOD8060784
_publ_section_title
;
Structure prediction by ZEFSAII (Michael W. Deem and Ramdas Pophale) SiO2 
 PCOD8060784
Probable space group: P 2/M
;
_chemical_formula_sum "Si O2"
_cell_formula_units_Z 24
_cell_length_a 23.103733
_cell_length_b 9.286776
_cell_length_c 16.425224
_cell_angle_alpha 90.000000
_cell_angle_beta 156.853721
_cell_angle_gamma 90.000000
_cell_volume 1385.285594
_symmetry_space_group_name_H-M "P 2/M"
_symmetry_group_IT_number 10
_symmetry_cell_setting 'monoclinic'
loop_
_space_group_symop_operation_xyz
x,y,z
-x,y,-z
-x,-y,-z
x,-y,z
loop_
_atom_site_type_symbol
_atom_site_label
_atom_site_fract_x
_atom_site_fract_y
_atom_site_fract_z
Si Si1 0.921333 0.333892 0.646555
Si Si2 0.834042 0.164285 0.283756
Si Si3 0.659767 0.670323 0.737253
Si Si4 0.808970 0.834813 0.067028
Si Si5 0.336969 0.332712 0.802253
Si Si6 0.947077 0.668252 0.016523
O O1 0.968585 0.500000 0.693927
O O2 0.756683 0.305108 0.401384
O O3 0.030070 0.233773 0.735991
O O4 0.933453 0.296208 0.758362
O O5 0.765553 0.176395 0.105210
O O6 0.732616 0.256246 0.210795
O O7 0.000000 0.225977 0.500000
O O8 0.835625 0.000000 0.316998
O O9 0.500000 0.718332 0.500000
O O10 0.669205 0.500000 0.763993
O O11 0.686802 0.748664 0.857945
O O12 0.785240 0.722924 0.835481
O O13 0.814464 0.000000 0.044954
O O14 0.343932 0.500000 0.833019
O O15 0.500000 0.269567 0.000000
O O16 0.934401 0.500000 0.984659
O O17 0.000000 0.742342 0.000000
#
# Coordination Sequence:
#
# PCOD8060784 Si02
#       6
#     4   4   4   4   4   4
#     4   9  17  31  51  72  99 132 168 208 254 305
#     4  10  20  35  54  76 101 135 180 217 250 307
#     4   9  18  33  51  75 103 130 163 204 254 307
#     4  10  19  32  53  77 100 131 174 214 251 297
#     4  10  21  35  50  76 108 135 168 214 266 310
#     4   8  14  27  48  70  91 122 162 198 236 290
#
# _framework density 17.324946000000001
#
# number of rings (size 3 to 8) (size 9 to 14) (size 15 to 20)
#    0.000    2.667    1.667    1.500    0.000    2.333 
#    3.000    0.000    0.000    8.000    0.000    0.000 
#    0.000    0.000    0.000    0.000    0.000    0.000 
#
# Total GULP energy -297538.895599 kJ/mol
# GULP energy per Si atom -12397.453983 kJ/mol
# Density = 1.728551 g / cm^3
# Si number density = 17.324946 Si / 1000 Ang^3
#
#
#
# Elastic Constant Matrix: (Units=GPa)
#
#
# Indices 1 2 3 4 5 6 
#
# 1 122.6055 37.2366 67.8930 0.0000 -1.0616 0.0000
# 2 37.2366 50.1318 40.4871 0.0000 0.1335 0.0000
# 3 67.8930 40.4871 154.2450 0.0000 -1.0236 0.0000
# 4 0.0000 0.0000 0.0000 18.3055 0.0000 -1.3081
# 5 -1.0616 0.1335 -1.0236 0.0000 23.3477 0.0000
# 6 0.0000 0.0000 0.0000 -1.3081 0.0000 44.4521
#
#
#
# Elastic Compliance Matrix: (Units=1/GPa)
#
#
# Indices 1 2 3 4 5 6 
#
# 1 0.012026 -0.005915 -0.003738 0.000000 0.000417 0.000000
# 2 -0.005915 0.028227 -0.004810 0.000000 -0.000641 0.000000
# 3 -0.003738 -0.004810 0.009393 0.000000 0.000269 0.000000
# 4 0.000000 0.000000 0.000000 0.054743 0.000000 0.001611
# 5 0.000417 -0.000641 0.000269 0.000000 0.042865 0.000000
# 6 0.000000 0.000000 0.000000 0.001611 0.000000 0.022544
#
#
# Mechanical properties :
#
#
# Convention : Reuss Voigt Hill
#
# Bulk Modulus (GPa) = 48.26188 68.69064 58.47626
# Shear Modulus (GPa) = 24.31533 29.31209 26.81371
#
# Velocity S-wave (km/s) = 3.75038 4.11773 3.93834
# Velocity P-wave (km/s) = 6.83163 7.89570 7.38286
#
# Compressibility (1/GPa) = 0.02072028
#
# Stress axis : x y z
#
# Youngs Moduli (GPa) = 83.15098 35.42684 106.46303
#
# Poissons Ratio (x) = 0.20955 0.39798
# Poissons Ratio (y) = 0.49183 0.51208
# Poissons Ratio (z) = 0.31083 0.17040
#
# Static dielectric constant tensor:
#      x y z
#    x 3.296780 0.000000 -0.117550 
#    y 0.000000 3.063280 0.000000 
#    z -0.117550 0.000000 3.370430 
# 
# 
# High freq. dielectric constant tensor:
#      x y z
#    x 1.663660 0.000000 -0.014940 
#    y 0.000000 1.650500 0.000000 
#    z -0.014940 0.000000 1.667020 
# 
# From -- ./inp_files/33776.got.cif
#   From: 2010.06.25/outbox.cif.g09.slc.cpg/sg10_17_cif.got.tgz:33776.got - 2010.06.27 22:07:45.
