data_PCOD8060766
_publ_section_title
;
Structure prediction by ZEFSAII (Michael W. Deem and Ramdas Pophale) SiO2 
 PCOD8060766
Probable space group: P 2/M
;
_chemical_formula_sum "Si O2"
_cell_formula_units_Z 32
_cell_length_a 25.034889
_cell_length_b 9.297114
_cell_length_c 15.274675
_cell_angle_alpha 90.000000
_cell_angle_beta 27.967011
_cell_angle_gamma 90.000000
_cell_volume 1667.264446
_symmetry_space_group_name_H-M "P 2/M"
_symmetry_group_IT_number 10
_symmetry_cell_setting 'monoclinic'
loop_
_space_group_symop_operation_xyz
x,y,z
-x,y,-z
-x,-y,-z
x,-y,z
loop_
_atom_site_type_symbol
_atom_site_label
_atom_site_fract_x
_atom_site_fract_y
_atom_site_fract_z
Si Si1 0.609382 0.332383 0.283357
Si Si2 0.048674 0.665979 0.657914
Si Si3 0.359292 0.330580 0.960377
Si Si4 0.528459 0.671230 0.863104
Si Si5 0.167824 0.832175 0.983475
Si Si6 0.125390 0.834254 0.843369
Si Si7 0.224699 0.669905 0.548969
Si Si8 0.116763 0.666152 0.367226
O O1 0.500000 0.290522 0.500000
O O2 0.639690 0.500000 0.251708
O O3 0.589354 0.295642 0.209840
O O4 0.712639 0.236370 0.165877
O O5 0.013960 0.500000 0.721448
O O6 0.125652 0.722656 0.626555
O O7 0.122981 0.685182 0.462735
O O8 0.933637 0.757897 0.815602
O O9 0.351280 0.500000 0.986909
O O10 0.443102 0.264934 0.912894
O O11 0.231372 0.264858 0.158614
O O12 0.520841 0.500000 0.873821
O O13 0.655237 0.724486 0.660422
O O14 0.500000 0.733265 0.000000
O O15 0.147140 0.801779 0.912203
O O16 0.169343 0.000000 0.004173
O O17 0.212442 0.739919 0.661646
O O18 0.143489 0.000000 0.792852
O O19 0.000000 0.781822 0.000000
O O20 0.221858 0.500000 0.563502
O O21 0.113498 0.500000 0.343909
O O22 0.000000 0.739594 0.500000
#
# Coordination Sequence:
#
# PCOD8060766 Si02
#       8
#     4   4   4   4   4   4   4   4
#     4  10  22  38  58  83 111 145 184 228 274 319
#     4  10  19  32  52  82 111 136 173 224 273 322
#     4   9  17  31  51  77 111 148 181 218 271 328
#     4   9  17  30  50  80 117 148 176 218 272 327
#     4  11  23  38  57  78 106 146 185 224 272 326
#     4  10  21  38  55  75 107 146 183 219 270 334
#     4  10  20  31  52  83 110 138 177 225 275 320
#     4   9  16  27  48  75 104 138 177 218 265 322
#
# _framework density 19.193114999999999
#
# number of rings (size 3 to 8) (size 9 to 14) (size 15 to 20)
#    0.000    2.250    1.250    1.875    1.750    6.500 
#    0.000    0.000    0.000    3.750    0.000    0.000 
#    0.000    0.000    0.000    0.000    0.000    0.000 
#
# Total GULP energy -396785.777761 kJ/mol
# GULP energy per Si atom -12399.555555 kJ/mol
# Density = 1.914943 g / cm^3
# Si number density = 19.193115 Si / 1000 Ang^3
#
#
#
# Elastic Constant Matrix: (Units=GPa)
#
#
# Indices 1 2 3 4 5 6 
#
# 1 113.0695 28.0847 57.5870 0.0000 -6.9674 0.0000
# 2 28.0847 31.5997 33.6395 0.0000 -2.3447 0.0000
# 3 57.5870 33.6395 150.5351 0.0000 1.3826 0.0000
# 4 0.0000 0.0000 0.0000 -2.9708 0.0000 -5.2588
# 5 -6.9674 -2.3447 1.3826 0.0000 33.4555 0.0000
# 6 0.0000 0.0000 0.0000 -5.2588 0.0000 19.0584
#
#
#
# Elastic Compliance Matrix: (Units=1/GPa)
#
#
# Indices 1 2 3 4 5 6 
#
# 1 0.012437 -0.007618 -0.003076 0.000000 0.002183 0.000000
# 2 -0.007618 0.046556 -0.007508 0.000000 0.001987 0.000000
# 3 -0.003076 -0.007508 0.009512 0.000000 -0.001560 0.000000
# 4 0.000000 0.000000 0.000000 -0.226150 0.000000 -0.062402
# 5 0.002183 0.001987 -0.001560 0.000000 0.030549 0.000000
# 6 0.000000 0.000000 0.000000 -0.062402 0.000000 0.035252
#
#
# Mechanical properties :
#
#
# Convention : Reuss Voigt Hill
#
# Bulk Modulus (GPa) = 31.15001 59.31408 45.23204
# Shear Modulus (GPa) = -111.75223 21.63482 -45.05871
#
# Velocity S-wave (km/s) = -7.63882 3.36105 -4.85051
# Velocity P-wave (km/s) = 7.84456 6.78477 2.78424
#
# Compressibility (1/GPa) = 0.03210272
#
# Stress axis : x y z
#
# Youngs Moduli (GPa) = 80.40415 21.47951 105.13462
#
# Poissons Ratio (x) = 0.16362 0.32335
# Poissons Ratio (y) = 0.61248 0.78933
# Poissons Ratio (z) = 0.24729 0.16126
#
# Static dielectric constant tensor:
#      x y z
#    x 3.779150 0.000000 -0.002490 
#    y 0.000000 3.019450 0.000000 
#    z -0.002490 0.000000 3.672610 
# 
# 
# High freq. dielectric constant tensor:
#      x y z
#    x 1.759660 0.000000 0.002750 
#    y 0.000000 1.690270 0.000000 
#    z 0.002750 0.000000 1.759780 
# 
# From -- ./inp_files/71457.got.cif
#   From: 2010.06.25/outbox.cif.g09.slc.cpg/sg10_36_cif.got.tgz:71457.got - 2010.06.27 22:07:45.
