data_PCOD8060918
_publ_section_title
;
Structure prediction by ZEFSAII (Michael W. Deem and Ramdas Pophale) SiO2 
 PCOD8060918
Probable space group: P 2/M
;
_chemical_formula_sum "Si O2"
_cell_formula_units_Z 28
_cell_length_a 8.752668
_cell_length_b 32.811422
_cell_length_c 5.149870
_cell_angle_alpha 90.000000
_cell_angle_beta 64.923227
_cell_angle_gamma 90.000000
_cell_volume 1339.570740
_symmetry_space_group_name_H-M "P 2/M"
_symmetry_group_IT_number 10
_symmetry_cell_setting 'monoclinic'
loop_
_space_group_symop_operation_xyz
x,y,z
-x,y,-z
-x,-y,-z
x,-y,z
loop_
_atom_site_type_symbol
_atom_site_label
_atom_site_fract_x
_atom_site_fract_y
_atom_site_fract_z
Si Si1 0.799317 0.545708 0.143022
Si Si2 0.799553 0.594216 0.642484
Si Si3 0.887795 0.738324 0.330872
Si Si4 0.298724 0.046039 0.128466
Si Si5 0.890076 0.168747 0.325542
Si Si6 0.697659 0.090967 0.376189
Si Si7 0.392849 0.324540 0.328884
O O1 0.725233 0.500000 0.180746
O O2 0.734354 0.567113 0.450427
O O3 0.733296 0.571920 0.948283
O O4 0.000000 0.543820 0.000000
O O5 0.721972 0.638785 0.688958
O O6 0.000000 0.599070 0.500000
O O7 0.824202 0.784884 0.360217
O O8 0.720345 0.711772 0.475798
O O9 0.000000 0.730448 0.500000
O O10 0.000000 0.726003 0.000000
O O11 0.224577 0.062916 0.452060
O O12 0.236097 0.000000 0.127520
O O13 0.500000 0.047733 0.000000
O O14 0.226138 0.074832 0.950598
O O15 0.733231 0.138093 0.420671
O O16 0.000000 0.160972 0.500000
O O17 0.000000 0.158121 0.000000
O O18 0.500000 0.085513 0.500000
O O19 0.500000 0.339323 0.500000
O O20 0.500000 0.309562 0.000000
#
# Coordination Sequence:
#
# PCOD8060918 Si02
#       7
#     4   4   4   4   4   4   4
#     4   9  17  31  55  86 112 141 193 249 281 314
#     4  10  20  35  58  83 113 154 193 232 282 343
#     4  10  22  42  65  86 112 152 198 233 278 350
#     4   9  17  30  50  77 107 141 184 229 269 315
#     4  10  21  38  59  82 111 146 180 224 281 340
#     4  10  19  32  54  81 107 140 183 229 273 323
#     4  12  25  40  60  89 123 153 188 241 295 338
#
# _framework density 20.902215999999999
#
# number of rings (size 3 to 8) (size 9 to 14) (size 15 to 20)
#    0.000    2.000    0.000    3.857    0.000    5.714 
#    0.000    2.143    0.000   17.143    0.000    0.000 
#    0.000    0.000    0.000    0.000    0.000    0.000 
#
# Total GULP energy -347194.885809 kJ/mol
# GULP energy per Si atom -12399.817350 kJ/mol
# Density = 2.085464 g / cm^3
# Si number density = 20.902216 Si / 1000 Ang^3
#
#
#
# Elastic Constant Matrix: (Units=GPa)
#
#
# Indices 1 2 3 4 5 6 
#
# 1 52.4639 46.6556 51.0013 0.0000 23.2820 0.0000
# 2 46.6556 149.0371 57.1409 0.0000 9.6633 0.0000
# 3 51.0013 57.1409 143.6442 0.0000 41.0427 0.0000
# 4 0.0000 0.0000 0.0000 38.6949 0.0000 14.4955
# 5 23.2820 9.6633 41.0427 0.0000 31.2224 0.0000
# 6 0.0000 0.0000 0.0000 14.4955 0.0000 27.9218
#
#
#
# Elastic Compliance Matrix: (Units=1/GPa)
#
#
# Indices 1 2 3 4 5 6 
#
# 1 0.042513 -0.010058 -0.004684 0.000000 -0.022431 0.000000
# 2 -0.010058 0.010442 -0.002886 0.000000 0.008063 0.000000
# 3 -0.004684 -0.002886 0.013644 0.000000 -0.013550 0.000000
# 4 0.000000 0.000000 0.000000 0.032082 0.000000 -0.016655
# 5 -0.022431 0.008063 -0.013550 0.000000 0.064071 0.000000
# 6 0.000000 0.000000 0.000000 -0.016655 0.000000 0.044461
#
#
# Mechanical properties :
#
#
# Convention : Reuss Voigt Hill
#
# Bulk Modulus (GPa) = 31.90586 72.74897 52.32741
# Shear Modulus (GPa) = 19.76913 32.25766 26.01339
#
# Velocity S-wave (km/s) = 3.07871 3.93270 3.53161
# Velocity P-wave (km/s) = 5.28540 7.44993 6.45898
#
# Compressibility (1/GPa) = 0.03134220
#
# Stress axis : x y z
#
# Youngs Moduli (GPa) = 23.52196 95.76418 73.28968
#
# Poissons Ratio (x) = 0.96323 0.34332
# Poissons Ratio (y) = 0.23659 0.21154
# Poissons Ratio (z) = 0.11019 0.27641
#
# Static dielectric constant tensor:
#      x y z
#    x 3.564690 0.000000 0.365150 
#    y 0.000000 3.883580 0.000000 
#    z 0.365150 0.000000 3.985170 
# 
# 
# High freq. dielectric constant tensor:
#      x y z
#    x 1.800680 0.000000 0.027590 
#    y 0.000000 1.827250 0.000000 
#    z 0.027590 0.000000 1.826010 
# 
# From -- ./inp_files/5492.got.cif
#   From: 2010.06.25/outbox.cif.g09.slc.cpg/sg10_3_cif.got.tgz:5492.got - 2010.06.27 22:07:45.
