data_PCOD8060392
_publ_section_title
;
Structure prediction by ZEFSAII (Michael W. Deem and Ramdas Pophale) SiO2 
 PCOD8060392
Probable space group: P 2/M
;
_chemical_formula_sum "Si O2"
_cell_formula_units_Z 28
_cell_length_a 28.331151
_cell_length_b 8.816126
_cell_length_c 14.276250
_cell_angle_alpha 90.000000
_cell_angle_beta 28.242058
_cell_angle_gamma 90.000000
_cell_volume 1687.324635
_symmetry_space_group_name_H-M "P 2/M"
_symmetry_group_IT_number 10
_symmetry_cell_setting 'monoclinic'
loop_
_space_group_symop_operation_xyz
x,y,z
-x,y,-z
-x,-y,-z
x,-y,z
loop_
_atom_site_type_symbol
_atom_site_label
_atom_site_fract_x
_atom_site_fract_y
_atom_site_fract_z
Si Si1 0.131886 0.823567 0.944684
Si Si2 0.612976 0.179826 0.796377
Si Si3 0.087232 0.170854 0.731884
Si Si4 0.238040 0.323479 0.599921
Si Si5 0.237576 0.171527 0.307673
Si Si6 0.075840 0.820064 0.248464
Si Si7 0.131626 0.678969 0.334281
O O1 0.219647 0.733300 0.738282
O O2 0.155281 0.000000 0.895470
O O3 0.128531 0.774492 0.059077
O O4 0.027585 0.783142 0.076572
O O5 0.663618 0.245776 0.614683
O O6 0.671662 0.234263 0.787022
O O7 0.619604 0.000000 0.777125
O O8 0.500000 0.238791 0.000000
O O9 0.140826 0.285356 0.708320
O O10 0.135440 0.178047 0.544997
O O11 0.099075 0.000000 0.751696
O O12 0.257480 0.500000 0.566722
O O13 0.224066 0.276673 0.240039
O O14 0.259580 0.000000 0.236250
O O15 0.147265 0.762605 0.207302
O O16 0.970643 0.735136 0.440184
O O17 0.056948 0.000000 0.287932
O O18 0.128582 0.500000 0.324299
#
# Coordination Sequence:
#
# PCOD8060392 Si02
#       7
#     4   4   4   4   4   4   4
#     4  10  19  32  48  65  89 129 171 202 231 270
#     4   9  19  37  58  75  92 120 161 204 240 281
#     4   9  17  31  47  64  90 128 170 202 227 268
#     4  11  22  31  44  70 100 127 153 191 243 295
#     4   9  16  30  50  71  94 124 161 198 237 281
#     4  10  19  32  48  64  89 129 173 207 234 267
#     4  11  20  29  43  68  99 129 160 197 241 284
#
# _framework density 16.594317
#
# number of rings (size 3 to 8) (size 9 to 14) (size 15 to 20)
#    0.000    2.143    1.429    5.143    0.000    6.000 
#    0.000    0.000    0.000    0.000    0.000    1.000 
#    0.000    8.000    0.000    0.000    0.000    0.000 
#
# Total GULP energy -347171.999739 kJ/mol
# GULP energy per Si atom -12398.999991 kJ/mol
# Density = 1.655655 g / cm^3
# Si number density = 16.594317 Si / 1000 Ang^3
#
#
#
# Elastic Constant Matrix: (Units=GPa)
#
#
# Indices 1 2 3 4 5 6 
#
# 1 77.8369 28.3830 53.5778 0.0000 14.9438 0.0000
# 2 28.3830 59.3505 29.9487 0.0000 6.7287 0.0000
# 3 53.5778 29.9487 98.0728 0.0000 6.9964 0.0000
# 4 0.0000 0.0000 0.0000 11.5240 0.0000 -1.1411
# 5 14.9438 6.7287 6.9964 0.0000 24.2463 0.0000
# 6 0.0000 0.0000 0.0000 -1.1411 0.0000 8.5245
#
#
#
# Elastic Compliance Matrix: (Units=1/GPa)
#
#
# Indices 1 2 3 4 5 6 
#
# 1 0.024165 -0.004837 -0.010984 0.000000 -0.010382 0.000000
# 2 -0.004837 0.021245 -0.003714 0.000000 -0.001843 0.000000
# 3 -0.010984 -0.003714 0.017127 0.000000 0.002858 0.000000
# 4 0.000000 0.000000 0.000000 0.087941 0.000000 0.011772
# 5 -0.010382 -0.001843 0.002858 0.000000 0.047329 0.000000
# 6 0.000000 0.000000 0.000000 0.011772 0.000000 0.118885
#
#
# Mechanical properties :
#
#
# Convention : Reuss Voigt Hill
#
# Bulk Modulus (GPa) = 42.61039 51.00881 46.80960
# Shear Modulus (GPa) = 13.75200 17.08234 15.41717
#
# Velocity S-wave (km/s) = 2.88187 3.21192 3.05136
# Velocity P-wave (km/s) = 6.06688 6.67538 6.37839
#
# Compressibility (1/GPa) = 0.02346846
#
# Stress axis : x y z
#
# Youngs Moduli (GPa) = 41.38260 47.06971 58.38671
#
# Poissons Ratio (x) = 0.22766 0.64130
# Poissons Ratio (y) = 0.20016 0.21684
# Poissons Ratio (z) = 0.45453 0.17481
#
# Static dielectric constant tensor:
#      x y z
#    x 3.219310 0.000000 0.171060 
#    y 0.000000 3.016040 0.000000 
#    z 0.171060 0.000000 2.977110 
# 
# 
# High freq. dielectric constant tensor:
#      x y z
#    x 1.630520 0.000000 0.022100 
#    y 0.000000 1.635460 0.000000 
#    z 0.022100 0.000000 1.605200 
# 
# From -- ./inp_files/72464.got.cif
#   From: 2010.06.25/outbox.cif.g09.slc.cpg/sg10_37_cif.got.tgz:72464.got - 2010.06.27 22:07:45.
