data_PCOD8060602
_publ_section_title
;
Structure prediction by ZEFSAII (Michael W. Deem and Ramdas Pophale) SiO2 
 PCOD8060602
Probable space group: P 2/M
;
_chemical_formula_sum "Si O2"
_cell_formula_units_Z 24
_cell_length_a 19.852866
_cell_length_b 9.346328
_cell_length_c 9.493965
_cell_angle_alpha 90.000000
_cell_angle_beta 129.745725
_cell_angle_gamma 90.000000
_cell_volume 1354.490017
_symmetry_space_group_name_H-M "P 2/M"
_symmetry_group_IT_number 10
_symmetry_cell_setting 'monoclinic'
loop_
_space_group_symop_operation_xyz
x,y,z
-x,y,-z
-x,-y,-z
x,-y,z
loop_
_atom_site_type_symbol
_atom_site_label
_atom_site_fract_x
_atom_site_fract_y
_atom_site_fract_z
Si Si1 0.254584 0.332423 0.856687
Si Si2 0.596088 0.333588 0.165359
Si Si3 0.140607 0.164783 0.499085
Si Si4 0.709064 0.163307 0.518999
Si Si5 0.028853 0.168918 0.888914
Si Si6 0.777327 0.168538 0.913527
O O1 0.238411 0.500000 0.855731
O O2 0.340985 0.299937 0.881587
O O3 0.170063 0.264549 0.667052
O O4 0.269586 0.256294 0.025794
O O5 0.592502 0.500000 0.195868
O O6 0.630620 0.257661 0.352264
O O7 0.500000 0.274021 0.000000
O O8 0.200408 0.190815 0.442115
O O9 0.041877 0.208170 0.325513
O O10 0.145772 0.000000 0.555764
O O11 0.724000 0.204218 0.700901
O O12 0.679812 0.000000 0.464118
O O13 0.035710 0.000000 0.918778
O O14 0.123361 0.227036 0.968344
O O15 0.000000 0.237388 0.000000
O O16 0.775358 0.000000 0.944693
#
# Coordination Sequence:
#
# PCOD8060602 Si02
#       6
#     4   4   4   4   4   4
#     4  10  21  35  50  71 102 133 163 203 252 299
#     4   9  19  37  58  75  93 125 168 206 242 297
#     4   9  16  30  52  74  97 130 172 211 243 279
#     4   9  17  30  52  79 102 126 160 205 252 292
#     4   9  15  27  50  76  99 129 173 212 236 275
#     4  10  19  32  51  76 105 134 165 203 246 290
#
# _framework density 17.718847
#
# number of rings (size 3 to 8) (size 9 to 14) (size 15 to 20)
#    0.000    2.667    1.667    0.500    0.000    2.333 
#    0.000    5.000    0.000    6.000    0.000    0.000 
#    0.000    0.000    0.000    0.000    0.000    0.000 
#
# Total GULP energy -297621.398553 kJ/mol
# GULP energy per Si atom -12400.891606 kJ/mol
# Density = 1.767852 g / cm^3
# Si number density = 17.718847 Si / 1000 Ang^3
#
#
#
# Elastic Constant Matrix: (Units=GPa)
#
#
# Indices 1 2 3 4 5 6 
#
# 1 66.5211 39.5718 64.9482 0.0000 1.7700 0.0000
# 2 39.5718 65.5864 64.4349 0.0000 -4.8171 0.0000
# 3 64.9482 64.4349 140.3154 0.0000 1.3972 0.0000
# 4 0.0000 0.0000 0.0000 9.1798 0.0000 -1.2467
# 5 1.7700 -4.8171 1.3972 0.0000 35.8496 0.0000
# 6 0.0000 0.0000 0.0000 -1.2467 0.0000 22.5299
#
#
#
# Elastic Compliance Matrix: (Units=1/GPa)
#
#
# Indices 1 2 3 4 5 6 
#
# 1 0.029739 -0.008387 -0.009892 0.000000 -0.002210 0.000000
# 2 -0.008387 0.030803 -0.010312 0.000000 0.004955 0.000000
# 3 -0.009892 -0.010312 0.016456 0.000000 -0.001539 0.000000
# 4 0.000000 0.000000 0.000000 0.109760 0.000000 0.006074
# 5 -0.002210 0.004955 -0.001539 0.000000 0.028729 0.000000
# 6 0.000000 0.000000 0.000000 0.006074 0.000000 0.044721
#
#
# Mechanical properties :
#
#
# Convention : Reuss Voigt Hill
#
# Bulk Modulus (GPa) = 50.46583 67.81473 59.14028
# Shear Modulus (GPa) = 15.43232 20.40974 17.92103
#
# Velocity S-wave (km/s) = 2.95440 3.39760 3.18372
# Velocity P-wave (km/s) = 6.33887 7.33125 6.85305
#
# Compressibility (1/GPa) = 0.01981539
#
# Stress axis : x y z
#
# Youngs Moduli (GPa) = 33.62599 32.46487 60.76744
#
# Poissons Ratio (x) = 0.27229 0.60110
# Poissons Ratio (y) = 0.28203 0.62664
# Poissons Ratio (z) = 0.33262 0.33478
#
# Static dielectric constant tensor:
#      x y z
#    x 3.195410 0.000000 0.030030 
#    y 0.000000 3.066940 0.000000 
#    z 0.030030 0.000000 3.334960 
# 
# 
# High freq. dielectric constant tensor:
#      x y z
#    x 1.670030 0.000000 -0.003080 
#    y 0.000000 1.661150 0.000000 
#    z -0.003080 0.000000 1.692000 
# 
# From -- ./inp_files/27050.got.cif
#   From: 2010.06.25/outbox.cif.g09.slc.cpg/sg10_14_cif.got.tgz:27050.got - 2010.06.27 22:07:45.
