data_PCOD8060049
_publ_section_title
;
Structure prediction by ZEFSAII (Michael W. Deem and Ramdas Pophale) SiO2 
 PCOD8060049
Probable space group: P 2/M
;
_chemical_formula_sum "Si O2"
_cell_formula_units_Z 32
_cell_length_a 26.818131
_cell_length_b 9.255067
_cell_length_c 25.476901
_cell_angle_alpha 90.000000
_cell_angle_beta 15.917069
_cell_angle_gamma 90.000000
_cell_volume 1734.181431
_symmetry_space_group_name_H-M "P 2/M"
_symmetry_group_IT_number 10
_symmetry_cell_setting 'monoclinic'
loop_
_space_group_symop_operation_xyz
x,y,z
-x,y,-z
-x,-y,-z
x,-y,z
loop_
_atom_site_type_symbol
_atom_site_label
_atom_site_fract_x
_atom_site_fract_y
_atom_site_fract_z
Si Si1 0.704361 0.828063 0.296488
Si Si2 0.350154 0.668495 0.901386
Si Si3 0.702163 0.833339 0.567172
Si Si4 0.011092 0.828771 0.908309
Si Si5 0.716568 0.666531 0.912013
Si Si6 0.047075 0.830552 0.149808
Si Si7 0.062926 0.332125 0.494063
Si Si8 0.635242 0.168238 0.753975
O O1 0.500000 0.761790 0.500000
O O2 0.808156 0.773036 0.244176
O O3 0.690990 0.000000 0.310296
O O4 0.825355 0.774642 0.124486
O O5 0.359944 0.500000 0.879049
O O6 0.550923 0.733850 0.693557
O O7 0.267790 0.700458 0.042187
O O8 0.227423 0.745086 0.982328
O O9 0.718719 0.799676 0.612114
O O10 0.892221 0.792879 0.348462
O O11 0.649316 0.000000 0.610846
O O12 0.016054 0.774559 0.843428
O O13 0.012987 0.000000 0.908662
O O14 0.664501 0.500000 0.954720
O O15 0.907020 0.707400 0.693331
O O16 0.564330 0.764462 0.039096
O O17 0.092393 0.000000 0.103352
O O18 0.115113 0.500000 0.443970
O O19 0.000000 0.287378 0.500000
O O20 0.239788 0.240133 0.328593
O O21 0.620595 0.000000 0.780757
#
# Coordination Sequence:
#
# PCOD8060049 Si02
#       8
#     4   4   4   4   4   4   4   4
#     4   8  13  23  39  59  88 124 158 194 236 282
#     4  10  20  33  51  74  99 130 166 201 239 287
#     4   9  19  34  51  73 100 131 165 199 241 293
#     4   8  15  25  38  63  94 123 157 193 236 288
#     4   9  19  36  55  73  96 129 166 201 239 288
#     4  10  19  31  49  73 103 133 160 199 247 292
#     4  10  21  36  54  75  98 127 164 204 245 290
#     4  10  20  34  53  75 100 130 162 200 245 292
#
# _framework density 18.452508999999999
#
# number of rings (size 3 to 8) (size 9 to 14) (size 15 to 20)
#    0.000    2.750    0.000    2.250    0.000    3.750 
#    0.000    6.250    0.000    0.000    0.000    1.750 
#    0.000    5.000    0.000    0.000    0.000    0.000 
#
# Total GULP energy -396806.647057 kJ/mol
# GULP energy per Si atom -12400.207721 kJ/mol
# Density = 1.841051 g / cm^3
# Si number density = 18.452509 Si / 1000 Ang^3
#
#
#
# Elastic Constant Matrix: (Units=GPa)
#
#
# Indices 1 2 3 4 5 6 
#
# 1 82.8172 32.0597 27.2428 0.0000 -25.0665 0.0000
# 2 32.0597 53.4273 25.9129 0.0000 -17.1945 0.0000
# 3 27.2428 25.9129 65.8123 0.0000 -25.0471 0.0000
# 4 0.0000 0.0000 0.0000 22.8900 0.0000 -5.2114
# 5 -25.0665 -17.1945 -25.0471 0.0000 28.2533 0.0000
# 6 0.0000 0.0000 0.0000 -5.2114 0.0000 11.1899
#
#
#
# Elastic Compliance Matrix: (Units=1/GPa)
#
#
# Indices 1 2 3 4 5 6 
#
# 1 0.018523 -0.007150 -0.000383 0.000000 0.011742 0.000000
# 2 -0.007150 0.027542 -0.005916 0.000000 0.005174 0.000000
# 3 -0.000383 -0.005916 0.024423 0.000000 0.017711 0.000000
# 4 0.000000 0.000000 0.000000 0.048869 0.000000 0.022759
# 5 0.011742 0.005174 0.017711 0.000000 0.064662 0.000000
# 6 0.000000 0.000000 0.000000 0.022759 0.000000 0.099966
#
#
# Mechanical properties :
#
#
# Convention : Reuss Voigt Hill
#
# Bulk Modulus (GPa) = 22.94092 41.38751 32.16421
# Shear Modulus (GPa) = 15.36515 20.25609 17.81062
#
# Velocity S-wave (km/s) = 2.88876 3.31681 3.11016
# Velocity P-wave (km/s) = 4.85654 6.09477 5.51055
#
# Compressibility (1/GPa) = 0.04359023
#
# Stress axis : x y z
#
# Youngs Moduli (GPa) = 53.98754 36.30881 40.94458
#
# Poissons Ratio (x) = 0.25960 0.01569
# Poissons Ratio (y) = 0.38600 0.24221
# Poissons Ratio (z) = 0.02069 0.21479
#
# Static dielectric constant tensor:
#      x y z
#    x 3.500370 0.000000 -0.001590 
#    y 0.000000 3.083550 0.000000 
#    z -0.001590 0.000000 3.406530 
# 
# 
# High freq. dielectric constant tensor:
#      x y z
#    x 1.716290 0.000000 -0.005890 
#    y 0.000000 1.684120 0.000000 
#    z -0.005890 0.000000 1.717760 
# 
# From -- ./inp_files/90590.got.cif
#   From: 2010.06.25/outbox.cif.g09.slc.cpg/sg10_46_cif.got.tgz:90590.got - 2010.06.27 22:07:45.
