data_PCOD8060346
_publ_section_title
;
Structure prediction by ZEFSAII (Michael W. Deem and Ramdas Pophale) SiO2 
 PCOD8060346
Probable space group: P 2/M
;
_chemical_formula_sum "Si O2"
_cell_formula_units_Z 32
_cell_length_a 13.870559
_cell_length_b 8.980297
_cell_length_c 13.198486
_cell_angle_alpha 90.000000
_cell_angle_beta 95.599692
_cell_angle_gamma 90.000000
_cell_volume 1636.180955
_symmetry_space_group_name_H-M "P 2/M"
_symmetry_group_IT_number 10
_symmetry_cell_setting 'monoclinic'
loop_
_space_group_symop_operation_xyz
x,y,z
-x,y,-z
-x,-y,-z
x,-y,z
loop_
_atom_site_type_symbol
_atom_site_label
_atom_site_fract_x
_atom_site_fract_y
_atom_site_fract_z
Si Si1 0.807267 0.177747 0.727387
Si Si2 0.362293 0.326878 0.189386
Si Si3 0.237270 0.670969 0.649282
Si Si4 0.582463 0.328088 0.207145
Si Si5 0.893684 0.823823 0.523749
Si Si6 0.672498 0.171029 0.026385
Si Si7 0.843680 0.163082 0.181451
Si Si8 0.041101 0.833106 0.103285
O O1 0.701025 0.248258 0.728999
O O2 0.864031 0.231580 0.632850
O O3 0.866631 0.239009 0.831762
O O4 0.799442 0.000000 0.726944
O O5 0.336979 0.500000 0.185522
O O6 0.473353 0.297360 0.231431
O O7 0.342855 0.263495 0.076245
O O8 0.225790 0.500000 0.616906
O O9 0.348686 0.712048 0.689513
O O10 0.194439 0.769722 0.555309
O O11 0.176594 0.703561 0.744191
O O12 0.598359 0.500000 0.177642
O O13 0.605166 0.229732 0.110750
O O14 0.000000 0.760718 0.500000
O O15 0.897318 0.000000 0.518187
O O16 0.785201 0.188604 0.070502
O O17 0.644990 0.000000 0.002158
O O18 0.957585 0.161953 0.178011
O O19 0.812655 0.000000 0.222923
O O20 0.070953 0.000000 0.071757
O O21 0.000000 0.745155 0.000000
#
# Coordination Sequence:
#
# PCOD8060346 Si02
#       8
#     4   4   4   4   4   4   4   4
#     4  10  21  36  55  80 107 136 177 225 265 311
#     4  11  22  36  53  73 107 151 185 218 267 324
#     4  10  20  35  56  80 105 132 172 225 269 311
#     4   9  20  37  54  76 108 147 185 220 266 321
#     4  10  21  39  62  84 108 139 173 213 268 331
#     4  10  19  31  53  84 112 141 182 228 267 310
#     4   9  17  31  52  77 106 140 175 213 265 325
#     4   9  16  29  51  76 103 137 173 208 252 310
#
# _framework density 19.557739000000002
#
# number of rings (size 3 to 8) (size 9 to 14) (size 15 to 20)
#    0.000    2.250    0.000    3.000    0.000    8.250 
#    0.000    2.500    0.000    5.250    0.000    0.000 
#    0.000    0.000    0.000    0.000    0.000    0.000 
#
# Total GULP energy -396625.290245 kJ/mol
# GULP energy per Si atom -12394.540320 kJ/mol
# Density = 1.951322 g / cm^3
# Si number density = 19.557739 Si / 1000 Ang^3
#
#
#
# Elastic Constant Matrix: (Units=GPa)
#
#
# Indices 1 2 3 4 5 6 
#
# 1 111.7037 33.9972 49.2698 0.0000 -2.8407 0.0000
# 2 33.9972 35.6292 25.2670 0.0000 -0.4048 0.0000
# 3 49.2698 25.2670 101.9808 0.0000 6.8685 0.0000
# 4 0.0000 0.0000 0.0000 25.2043 0.0000 3.1461
# 5 -2.8407 -0.4048 6.8685 0.0000 26.6755 0.0000
# 6 0.0000 0.0000 0.0000 3.1461 0.0000 22.5351
#
#
#
# Elastic Compliance Matrix: (Units=1/GPa)
#
#
# Indices 1 2 3 4 5 6 
#
# 1 0.014100 -0.010283 -0.004432 0.000000 0.002487 0.000000
# 2 -0.010283 0.041746 -0.005438 0.000000 0.000939 0.000000
# 3 -0.004432 -0.005438 0.013567 0.000000 -0.004048 0.000000
# 4 0.000000 0.000000 0.000000 0.040379 0.000000 -0.005637
# 5 0.002487 0.000939 -0.004048 0.000000 0.038809 0.000000
# 6 0.000000 0.000000 0.000000 -0.005637 0.000000 0.045162
#
#
# Mechanical properties :
#
#
# Convention : Reuss Voigt Hill
#
# Bulk Modulus (GPa) = 34.35629 51.82019 43.08824
# Shear Modulus (GPa) = 20.51099 24.26830 22.38965
#
# Velocity S-wave (km/s) = 3.24194 3.52640 3.38716
# Velocity P-wave (km/s) = 5.62301 6.56766 6.11361
#
# Compressibility (1/GPa) = 0.02910675
#
# Stress axis : x y z
#
# Youngs Moduli (GPa) = 70.92263 23.95436 73.70854
#
# Poissons Ratio (x) = 0.24632 0.32666
# Poissons Ratio (y) = 0.72929 0.40085
# Poissons Ratio (z) = 0.31432 0.13027
#
# Static dielectric constant tensor:
#      x y z
#    x 3.781960 0.000000 0.146320 
#    y 0.000000 3.422970 0.000000 
#    z 0.146320 0.000000 3.513060 
# 
# 
# High freq. dielectric constant tensor:
#      x y z
#    x 1.771260 0.000000 0.010440 
#    y 0.000000 1.740110 0.000000 
#    z 0.010440 0.000000 1.748770 
# 
# From -- ./inp_files/49775.got.cif
#   From: 2010.06.25/outbox.cif.g09.slc.cpg/sg10_25_cif.got.tgz:49775.got - 2010.06.27 22:07:45.
