data_PCOD8060731
_publ_section_title
;
Structure prediction by ZEFSAII (Michael W. Deem and Ramdas Pophale) SiO2 
 PCOD8060731
Probable space group: P 2/M
;
_chemical_formula_sum "Si O2"
_cell_formula_units_Z 22
_cell_length_a 10.772511
_cell_length_b 17.218487
_cell_length_c 6.958472
_cell_angle_alpha 90.000000
_cell_angle_beta 69.758652
_cell_angle_gamma 90.000000
_cell_volume 1210.992417
_symmetry_space_group_name_H-M "P 2/M"
_symmetry_group_IT_number 10
_symmetry_cell_setting 'monoclinic'
loop_
_space_group_symop_operation_xyz
x,y,z
-x,y,-z
-x,-y,-z
x,-y,z
loop_
_atom_site_type_symbol
_atom_site_label
_atom_site_fract_x
_atom_site_fract_y
_atom_site_fract_z
Si Si1 0.847666 0.087489 0.027062
Si Si2 0.866384 0.793771 0.684492
Si Si3 0.862344 0.328149 0.010824
Si Si4 0.579266 0.587565 0.153292
Si Si5 0.752330 0.208829 0.347019
Si Si6 0.500000 0.698046 0.500000
O O1 0.764811 0.122714 0.250728
O O2 0.797493 0.000000 0.019128
O O3 0.824153 0.135909 0.845487
O O4 0.000000 0.089407 0.000000
O O5 0.874054 0.712964 0.796119
O O6 0.758415 0.788497 0.574218
O O7 0.000000 0.813902 0.500000
O O8 0.732428 0.382434 0.071404
O O9 0.859313 0.262513 0.180006
O O10 0.000000 0.372942 0.000000
O O11 0.587745 0.500000 0.228104
O O12 0.480511 0.639798 0.332821
O O13 0.500000 0.589091 0.000000
O O14 0.613472 0.245150 0.370979
#
# Coordination Sequence:
#
# PCOD8060731 Si02
#       6
#     4   4   4   4   4   2
#     4  10  20  32  48  76 109 133 163 211 261 307
#     4  11  17  30  53  76 101 133 171 208 254 301
#     4  10  19  32  52  79 106 132 171 219 257 299
#     4  10  21  37  55  77 107 138 169 209 258 311
#     4  10  19  34  52  76 102 134 173 215 251 299
#     4  10  21  36  59  76  96 136 180 208 245 302
#
# _framework density 18.166917999999999
#
# number of rings (size 3 to 8) (size 9 to 14) (size 15 to 20)
#    0.000    1.818    3.636    2.455    0.000    1.455 
#    0.000    0.455    0.000    1.636    0.000    0.000 
#    0.000    0.000    0.000    0.000    0.000    0.000 
#
# Total GULP energy -272548.250372 kJ/mol
# GULP energy per Si atom -12388.556835 kJ/mol
# Density = 1.812557 g / cm^3
# Si number density = 18.166918 Si / 1000 Ang^3
#
#
#
# Elastic Constant Matrix: (Units=GPa)
#
#
# Indices 1 2 3 4 5 6 
#
# 1 57.0801 33.7794 23.2234 0.0000 -0.5502 0.0000
# 2 33.7794 102.7482 36.1426 0.0000 -2.1390 0.0000
# 3 23.2234 36.1426 96.3932 0.0000 9.8384 0.0000
# 4 0.0000 0.0000 0.0000 36.8780 0.0000 6.0025
# 5 -0.5502 -2.1390 9.8384 0.0000 29.9914 0.0000
# 6 0.0000 0.0000 0.0000 6.0025 0.0000 9.1549
#
#
#
# Elastic Compliance Matrix: (Units=1/GPa)
#
#
# Indices 1 2 3 4 5 6 
#
# 1 0.022533 -0.006268 -0.003182 0.000000 0.001010 0.000000
# 2 -0.006268 0.013104 -0.003608 0.000000 0.002003 0.000000
# 3 -0.003182 -0.003608 0.012960 0.000000 -0.004567 0.000000
# 4 0.000000 0.000000 0.000000 0.030356 0.000000 -0.019903
# 5 0.001010 0.002003 -0.004567 0.000000 0.035002 0.000000
# 6 0.000000 0.000000 0.000000 -0.019903 0.000000 0.122281
#
#
# Mechanical properties :
#
#
# Convention : Reuss Voigt Hill
#
# Bulk Modulus (GPa) = 44.48011 49.16805 46.82408
# Shear Modulus (GPa) = 18.52927 26.07660 22.30293
#
# Velocity S-wave (km/s) = 3.19712 3.79276 3.50761
# Velocity P-wave (km/s) = 6.17787 6.80466 6.49883
#
# Compressibility (1/GPa) = 0.02248196
#
# Stress axis : x y z
#
# Youngs Moduli (GPa) = 44.38025 76.31382 77.16313
#
# Poissons Ratio (x) = 0.47830 0.24551
# Poissons Ratio (y) = 0.27816 0.27838
# Poissons Ratio (z) = 0.14120 0.27532
#
# Static dielectric constant tensor:
#      x y z
#    x 3.278670 0.000000 -0.011040 
#    y 0.000000 3.428200 0.000000 
#    z -0.011040 0.000000 3.998620 
# 
# 
# High freq. dielectric constant tensor:
#      x y z
#    x 1.691820 0.000000 0.005350 
#    y 0.000000 1.690580 0.000000 
#    z 0.005350 0.000000 1.715420 
# 
# From -- ./inp_files/7168.got.cif
#   From: 2010.06.25/outbox.cif.g09.slc.cpg/sg10_4_cif.got.tgz:7168.got - 2010.06.27 22:07:45.
