data_PCOD8060054
_publ_section_title
;
Structure prediction by ZEFSAII (Michael W. Deem and Ramdas Pophale) SiO2 
 PCOD8060054
Probable space group: P 2/M
;
_chemical_formula_sum "Si O2"
_cell_formula_units_Z 20
_cell_length_a 11.541713
_cell_length_b 9.521374
_cell_length_c 11.309932
_cell_angle_alpha 90.000000
_cell_angle_beta 71.528374
_cell_angle_gamma 90.000000
_cell_volume 1178.849533
_symmetry_space_group_name_H-M "P 2/M"
_symmetry_group_IT_number 10
_symmetry_cell_setting 'monoclinic'
loop_
_space_group_symop_operation_xyz
x,y,z
-x,y,-z
-x,-y,-z
x,-y,z
loop_
_atom_site_type_symbol
_atom_site_label
_atom_site_fract_x
_atom_site_fract_y
_atom_site_fract_z
Si Si1 0.689310 0.338766 0.382415
Si Si2 0.558075 0.661636 0.665628
Si Si3 0.117297 0.165886 0.808864
Si Si4 0.611184 0.165835 0.879311
Si Si5 0.153279 0.165802 0.060848
O O1 0.724691 0.500000 0.349476
O O2 0.576528 0.296166 0.335059
O O3 0.654460 0.313763 0.529631
O O4 0.805350 0.242737 0.316617
O O5 0.560309 0.500000 0.706020
O O6 0.595732 0.761343 0.759298
O O7 0.975158 0.207650 0.837325
O O8 0.136405 0.000000 0.789368
O O9 0.160484 0.221101 0.923770
O O10 0.734875 0.226043 0.898842
O O11 0.617676 0.000000 0.855619
O O12 0.500000 0.206811 0.000000
O O13 0.163280 0.000000 0.050045
#
# Coordination Sequence:
#
# PCOD8060054 Si02
#       5
#     4   4   4   4   4
#     4   9  18  33  50  68  93 122 155 197 235 267
#     4   9  19  34  49  67  94 126 155 188 235 281
#     4   9  16  30  52  71  91 124 159 188 226 277
#     4  10  19  31  49  73  98 121 150 192 234 272
#     4   8  16  30  47  71 100 123 148 189 236 275
#
# _framework density 16.965693999999999
#
# number of rings (size 3 to 8) (size 9 to 14) (size 15 to 20)
#    0.000    3.000    0.000    3.600    0.000    3.600 
#    0.000    7.000    0.000    6.000    0.000    0.000 
#    0.000    0.000    0.000    0.000    0.000    0.000 
#
# Total GULP energy -247961.911446 kJ/mol
# GULP energy per Si atom -12398.095572 kJ/mol
# Density = 1.692708 g / cm^3
# Si number density = 16.965694 Si / 1000 Ang^3
#
#
#
# Elastic Constant Matrix: (Units=GPa)
#
#
# Indices 1 2 3 4 5 6 
#
# 1 125.7055 43.9489 68.1362 0.0000 -1.5715 0.0000
# 2 43.9489 45.7346 46.1653 0.0000 -5.2235 0.0000
# 3 68.1362 46.1653 97.1637 0.0000 -6.3228 0.0000
# 4 0.0000 0.0000 0.0000 13.9710 0.0000 13.9995
# 5 -1.5715 -5.2235 -6.3228 0.0000 32.7013 0.0000
# 6 0.0000 0.0000 0.0000 13.9995 0.0000 12.6555
#
#
#
# Elastic Compliance Matrix: (Units=1/GPa)
#
#
# Indices 1 2 3 4 5 6 
#
# 1 0.013925 -0.006932 -0.006583 0.000000 -0.001711 0.000000
# 2 -0.006932 0.045739 -0.016626 0.000000 0.003758 0.000000
# 3 -0.006583 -0.016626 0.022902 0.000000 0.001456 0.000000
# 4 0.000000 0.000000 0.000000 -0.659990 0.000000 0.730080
# 5 -0.001711 0.003758 0.001456 0.000000 0.031379 0.000000
# 6 0.000000 0.000000 0.000000 0.730080 0.000000 -0.728596
#
#
# Mechanical properties :
#
#
# Convention : Reuss Voigt Hill
#
# Bulk Modulus (GPa) = 44.87458 65.01163 54.94310
# Shear Modulus (GPa) = -4.14275 19.22245 7.53985
#
# Velocity S-wave (km/s) = -1.56433 3.36969 2.11041
# Velocity P-wave (km/s) = 4.82128 7.31726 6.19625
#
# Compressibility (1/GPa) = 0.02228433
#
# Stress axis : x y z
#
# Youngs Moduli (GPa) = 71.81075 21.86334 43.66362
#
# Poissons Ratio (x) = 0.15156 0.28743
# Poissons Ratio (y) = 0.49782 0.72595
# Poissons Ratio (z) = 0.47272 0.36350
#
# Static dielectric constant tensor:
#      x y z
#    x 3.443320 0.000000 -0.015470 
#    y 0.000000 2.881310 0.000000 
#    z -0.015470 0.000000 3.069810 
# 
# 
# High freq. dielectric constant tensor:
#      x y z
#    x 1.655830 0.000000 -0.008100 
#    y 0.000000 1.631480 0.000000 
#    z -0.008100 0.000000 1.652290 
# 
# From -- ./inp_files/22979.got.cif
#   From: 2010.06.25/outbox.cif.g09.slc.cpg/sg10_12_cif.got.tgz:22979.got - 2010.06.27 22:07:45.
