data_PCOD8060838
_publ_section_title
;
Structure prediction by ZEFSAII (Michael W. Deem and Ramdas Pophale) SiO2 
 PCOD8060838
Probable space group: P 2/M
;
_chemical_formula_sum "Si O2"
_cell_formula_units_Z 32
_cell_length_a 14.087895
_cell_length_b 9.483804
_cell_length_c 18.594927
_cell_angle_alpha 90.000000
_cell_angle_beta 135.808784
_cell_angle_gamma 90.000000
_cell_volume 1731.770415
_symmetry_space_group_name_H-M "P 2/M"
_symmetry_group_IT_number 10
_symmetry_cell_setting 'monoclinic'
loop_
_space_group_symop_operation_xyz
x,y,z
-x,y,-z
-x,-y,-z
x,-y,z
loop_
_atom_site_type_symbol
_atom_site_label
_atom_site_fract_x
_atom_site_fract_y
_atom_site_fract_z
Si Si1 0.094914 0.832821 0.204549
Si Si2 0.608236 0.163144 0.375549
Si Si3 0.211904 0.832896 0.993184
Si Si4 0.671353 0.660338 0.276335
Si Si5 0.850146 0.163858 0.606247
Si Si6 0.302341 0.832729 0.199811
Si Si7 0.968323 0.660927 0.402127
Si Si8 0.436130 0.665369 0.040894
O O1 0.137638 0.776260 0.306341
O O2 0.198725 0.767862 0.202202
O O3 0.943201 0.784511 0.102139
O O4 0.105497 0.000000 0.208601
O O5 0.684894 0.244257 0.353875
O O6 0.694811 0.187554 0.495267
O O7 0.454454 0.220132 0.302069
O O8 0.604789 0.000000 0.351608
O O9 0.229980 0.000000 0.993715
O O10 0.259819 0.780011 0.097664
O O11 0.299848 0.754461 0.980206
O O12 0.654694 0.500000 0.293551
O O13 0.543344 0.708857 0.160183
O O14 0.806532 0.675646 0.301257
O O15 0.957286 0.242792 0.614762
O O16 0.889836 0.000000 0.625031
O O17 0.293667 0.000000 0.197606
O O18 0.017999 0.500000 0.418934
O O19 0.000000 0.712490 0.500000
O O20 0.401060 0.500000 0.023146
O O21 0.500000 0.710309 0.000000
#
# Coordination Sequence:
#
# PCOD8060838 Si02
#       8
#     4   4   4   4   4   4   4   4
#     4   9  19  34  52  78 109 139 171 212 264 313
#     4  10  19  32  53  80 106 134 173 218 257 300
#     4  10  19  34  57  81 104 135 177 218 255 303
#     4  10  20  35  53  74 102 139 176 211 254 310
#     4  10  21  34  50  78 111 138 169 215 265 304
#     4   9  17  32  55  79 102 134 176 217 258 308
#     4  10  20  34  53  74  98 136 180 210 246 308
#     4  10  22  37  53  77 109 141 170 208 264 316
#
# _framework density 18.478200000000001
#
# number of rings (size 3 to 8) (size 9 to 14) (size 15 to 20)
#    0.000    2.250    2.500    0.375    1.750    3.000 
#    0.000    2.500    0.000    3.750    0.000    1.750 
#    0.000    0.000    0.000    0.000    0.000    0.000 
#
# Total GULP energy -396830.864458 kJ/mol
# GULP energy per Si atom -12400.964514 kJ/mol
# Density = 1.843614 g / cm^3
# Si number density = 18.478200 Si / 1000 Ang^3
#
#
#
# Elastic Constant Matrix: (Units=GPa)
#
#
# Indices 1 2 3 4 5 6 
#
# 1 146.8964 40.6089 65.5889 0.0000 0.2874 0.0000
# 2 40.6089 35.0013 29.8315 0.0000 -0.3349 0.0000
# 3 65.5889 29.8315 119.8502 0.0000 6.3175 0.0000
# 4 0.0000 0.0000 0.0000 17.7773 0.0000 0.9185
# 5 0.2874 -0.3349 6.3175 0.0000 32.2495 0.0000
# 6 0.0000 0.0000 0.0000 0.9185 0.0000 -3.2229
#
#
#
# Elastic Compliance Matrix: (Units=1/GPa)
#
#
# Indices 1 2 3 4 5 6 
#
# 1 0.011167 -0.009797 -0.003700 0.000000 0.000524 0.000000
# 2 -0.009797 0.045010 -0.005932 0.000000 0.001717 0.000000
# 3 -0.003700 -0.005932 0.011970 0.000000 -0.002374 0.000000
# 4 0.000000 0.000000 0.000000 0.055435 0.000000 0.015799
# 5 0.000524 0.001717 -0.002374 0.000000 0.031486 0.000000
# 6 0.000000 0.000000 0.000000 0.015799 0.000000 -0.305775
#
#
# Mechanical properties :
#
#
# Convention : Reuss Voigt Hill
#
# Bulk Modulus (GPa) = 34.14390 63.75627 48.95009
# Shear Modulus (GPa) = -48.97902 20.40868 -14.28517
#
# Velocity S-wave (km/s) = -5.15402 3.32697 -2.78345
# Velocity P-wave (km/s) = 4.11102 7.02401 4.02717
#
# Compressibility (1/GPa) = 0.02928781
#
# Stress axis : x y z
#
# Youngs Moduli (GPa) = 89.54878 22.21742 83.53984
#
# Poissons Ratio (x) = 0.21767 0.30911
# Poissons Ratio (y) = 0.87735 0.49556
# Poissons Ratio (z) = 0.33135 0.13179
#
# Static dielectric constant tensor:
#      x y z
#    x 3.456640 0.000000 0.053930 
#    y 0.000000 3.050660 0.000000 
#    z 0.053930 0.000000 3.632740 
# 
# 
# High freq. dielectric constant tensor:
#      x y z
#    x 1.716610 0.000000 0.007270 
#    y 0.000000 1.680150 0.000000 
#    z 0.007270 0.000000 1.731850 
# 
# From -- ./inp_files/57688.got.cif
#   From: 2010.06.25/outbox.cif.g09.slc.cpg/sg10_29_cif.got.tgz:57688.got - 2010.06.27 22:07:45.
