data_PCOD8060878
_publ_section_title
;
Structure prediction by ZEFSAII (Michael W. Deem and Ramdas Pophale) SiO2 
 PCOD8060878
Probable space group: P 2/M
;
_chemical_formula_sum "Si O2"
_cell_formula_units_Z 28
_cell_length_a 8.661252
_cell_length_b 14.087212
_cell_length_c 12.147928
_cell_angle_alpha 90.000000
_cell_angle_beta 114.538476
_cell_angle_gamma 90.000000
_cell_volume 1348.335022
_symmetry_space_group_name_H-M "P 2/M"
_symmetry_group_IT_number 10
_symmetry_cell_setting 'monoclinic'
loop_
_space_group_symop_operation_xyz
x,y,z
-x,y,-z
-x,-y,-z
x,-y,z
loop_
_atom_site_type_symbol
_atom_site_label
_atom_site_fract_x
_atom_site_fract_y
_atom_site_fract_z
Si Si1 0.477100 0.611166 0.324028
Si Si2 0.456127 0.283638 0.866579
Si Si3 0.863101 0.108438 0.714604
Si Si4 0.428039 0.893595 0.208501
Si Si5 0.782537 0.387817 0.565458
Si Si6 0.243857 0.107220 0.560231
Si Si7 0.090139 0.248559 0.684189
O O1 0.484305 0.500000 0.313252
O O2 0.443806 0.656875 0.195845
O O3 0.318451 0.639407 0.353467
O O4 0.659386 0.644416 0.428339
O O5 0.524478 0.175547 0.877967
O O6 0.256883 0.295772 0.784749
O O7 0.500000 0.323595 0.000000
O O8 0.751158 0.130553 0.788715
O O9 0.760942 0.129099 0.570972
O O10 0.019641 0.181357 0.761715
O O11 0.927777 0.000000 0.737708
O O12 0.562602 0.879806 0.346292
O O13 0.430057 0.000000 0.161191
O O14 0.822013 0.500000 0.572060
O O15 0.958988 0.331383 0.610611
O O16 0.124363 0.180370 0.590096
O O17 0.180701 0.000000 0.567513
#
# Coordination Sequence:
#
# PCOD8060878 Si02
#       7
#     4   4   4   4   4   4   4
#     4   9  20  41  65  87 116 151 184 227 283 347
#     4  11  25  41  57  82 115 156 199 236 278 333
#     4  10  19  32  53  83 116 148 188 235 285 342
#     4   9  19  36  56  78 109 156 200 230 273 334
#     4   9  20  39  64  93 119 144 180 228 289 351
#     4   9  18  31  50  82 121 152 181 227 287 346
#     4  11  22  33  56  86 119 150 185 234 294 336
#
# _framework density 20.766352000000001
#
# number of rings (size 3 to 8) (size 9 to 14) (size 15 to 20)
#    0.000    2.286    0.000    3.000    6.000    4.571 
#    0.000    4.286    0.000    3.429    0.000    0.000 
#    0.000    0.000    0.000    0.000    0.000    0.000 
#
# Total GULP energy -347158.885619 kJ/mol
# GULP energy per Si atom -12398.531629 kJ/mol
# Density = 2.071909 g / cm^3
# Si number density = 20.766352 Si / 1000 Ang^3
#
#
#
# Elastic Constant Matrix: (Units=GPa)
#
#
# Indices 1 2 3 4 5 6 
#
# 1 76.8692 37.9385 22.0888 0.0000 -5.8629 0.0000
# 2 37.9385 62.7661 30.1752 0.0000 -5.3035 0.0000
# 3 22.0888 30.1752 94.8169 0.0000 -16.2400 0.0000
# 4 0.0000 0.0000 0.0000 17.4516 0.0000 -3.5911
# 5 -5.8629 -5.3035 -16.2400 0.0000 20.9213 0.0000
# 6 0.0000 0.0000 0.0000 -3.5911 0.0000 38.5560
#
#
#
# Elastic Compliance Matrix: (Units=1/GPa)
#
#
# Indices 1 2 3 4 5 6 
#
# 1 0.018680 -0.010855 -0.000544 0.000000 0.002061 0.000000
# 2 -0.010855 0.025119 -0.005646 0.000000 -0.001057 0.000000
# 3 -0.000544 -0.005646 0.014070 0.000000 0.009338 0.000000
# 4 0.000000 0.000000 0.000000 0.058421 0.000000 0.005441
# 5 0.002061 -0.001057 0.009338 0.000000 0.055356 0.000000
# 6 0.000000 0.000000 0.000000 0.005441 0.000000 0.026443
#
#
# Mechanical properties :
#
#
# Convention : Reuss Voigt Hill
#
# Bulk Modulus (GPa) = 42.05719 46.09525 44.07622
# Shear Modulus (GPa) = 20.82414 25.00243 22.91329
#
# Velocity S-wave (km/s) = 3.17011 3.47362 3.32533
# Velocity P-wave (km/s) = 5.80483 6.19139 6.00122
#
# Compressibility (1/GPa) = 0.02377715
#
# Stress axis : x y z
#
# Youngs Moduli (GPa) = 53.53224 39.81087 71.07507
#
# Poissons Ratio (x) = 0.43217 0.03868
# Poissons Ratio (y) = 0.58112 0.40130
# Poissons Ratio (z) = 0.02913 0.22478
#
# Static dielectric constant tensor:
#      x y z
#    x 3.927110 0.000000 -0.066600 
#    y 0.000000 3.901990 0.000000 
#    z -0.066600 0.000000 3.363990 
# 
# 
# High freq. dielectric constant tensor:
#      x y z
#    x 1.821350 0.000000 -0.011320 
#    y 0.000000 1.822770 0.000000 
#    z -0.011320 0.000000 1.762080 
# 
# From -- ./inp_files/42764.got.cif
#   From: 2010.06.25/outbox.cif.g09.slc.cpg/sg10_22_cif.got.tgz:42764.got - 2010.06.27 22:07:45.
