data_PCOD8060533
_publ_section_title
;
Structure prediction by ZEFSAII (Michael W. Deem and Ramdas Pophale) SiO2 
 PCOD8060533
Probable space group: P 2/M
;
_chemical_formula_sum "Si O2"
_cell_formula_units_Z 28
_cell_length_a 11.674466
_cell_length_b 8.943683
_cell_length_c 16.949876
_cell_angle_alpha 90.000000
_cell_angle_beta 89.060040
_cell_angle_gamma 90.000000
_cell_volume 1769.544558
_symmetry_space_group_name_H-M "P 2/M"
_symmetry_group_IT_number 10
_symmetry_cell_setting 'monoclinic'
loop_
_space_group_symop_operation_xyz
x,y,z
-x,y,-z
-x,-y,-z
x,-y,z
loop_
_atom_site_type_symbol
_atom_site_label
_atom_site_fract_x
_atom_site_fract_y
_atom_site_fract_z
Si Si1 0.241104 0.824472 0.361760
Si Si2 0.632937 0.173909 0.485532
Si Si3 0.510547 0.676344 0.089673
Si Si4 0.988871 0.825851 0.408860
Si Si5 0.765946 0.676596 0.347115
Si Si6 0.609233 0.168831 0.780413
Si Si7 0.356495 0.831473 0.787785
O O1 0.298411 0.759631 0.440331
O O2 0.301680 0.757421 0.282765
O O3 0.106705 0.788062 0.362386
O O4 0.266085 0.000000 0.361457
O O5 0.500000 0.200916 0.500000
O O6 0.672058 0.264774 0.409192
O O7 0.662586 0.000000 0.471177
O O8 0.521698 0.500000 0.096190
O O9 0.397262 0.732017 0.139347
O O10 0.624263 0.751886 0.127050
O O11 0.500000 0.730235 0.000000
O O12 0.892481 0.727942 0.369045
O O13 0.000000 0.780465 0.500000
O O14 0.956395 0.000000 0.402243
O O15 0.761531 0.500000 0.343651
O O16 0.736218 0.740975 0.261430
O O17 0.481348 0.166973 0.742714
O O18 0.646508 0.000000 0.802683
O O19 0.311140 0.000000 0.800994
#
# Coordination Sequence:
#
# PCOD8060533 Si02
#       7
#     4   4   4   4   4   4   4
#     4   9  16  30  49  70  91 123 170 212 242 277
#     4  10  19  32  51  69  91 126 168 203 244 292
#     4   9  17  30  49  76 108 134 153 182 237 302
#     4  10  19  34  53  66  86 128 178 215 244 284
#     4  12  23  33  46  68 100 129 164 209 253 292
#     4   8  16  29  49  74  99 125 159 199 237 284
#     4   9  18  32  51  71  97 128 164 199 236 286
#
# _framework density 15.823278999999999
#
# number of rings (size 3 to 8) (size 9 to 14) (size 15 to 20)
#    0.857    1.571    1.429    2.571    0.000    4.000 
#    0.000    1.429    0.000    0.000    0.000    1.000 
#    0.000    8.000    0.000    0.000    0.000    0.000 
#
# Total GULP energy -347022.005731 kJ/mol
# GULP energy per Si atom -12393.643062 kJ/mol
# Density = 1.578726 g / cm^3
# Si number density = 15.823279 Si / 1000 Ang^3
#
#
#
# Elastic Constant Matrix: (Units=GPa)
#
#
# Indices 1 2 3 4 5 6 
#
# 1 68.7374 36.0856 40.5361 0.0000 11.0723 0.0000
# 2 36.0856 86.2007 51.6380 0.0000 12.8124 0.0000
# 3 40.5361 51.6380 117.0056 0.0000 15.9360 0.0000
# 4 0.0000 0.0000 0.0000 23.3995 0.0000 3.3400
# 5 11.0723 12.8124 15.9360 0.0000 17.2331 0.0000
# 6 0.0000 0.0000 0.0000 3.3400 0.0000 15.4869
#
#
#
# Elastic Compliance Matrix: (Units=1/GPa)
#
#
# Indices 1 2 3 4 5 6 
#
# 1 0.020648 -0.005421 -0.004008 0.000000 -0.005530 0.000000
# 2 -0.005421 0.017765 -0.005306 0.000000 -0.004818 0.000000
# 3 -0.004008 -0.005306 0.013030 0.000000 -0.005529 0.000000
# 4 0.000000 0.000000 0.000000 0.044093 0.000000 -0.009509
# 5 -0.005530 -0.004818 -0.005529 0.000000 0.070276 0.000000
# 6 0.000000 0.000000 0.000000 -0.009509 0.000000 0.066622
#
#
# Mechanical properties :
#
#
# Convention : Reuss Voigt Hill
#
# Bulk Modulus (GPa) = 45.50935 58.71811 52.11373
# Shear Modulus (GPa) = 18.57162 20.80283 19.68723
#
# Velocity S-wave (km/s) = 3.42963 3.62981 3.53114
# Velocity P-wave (km/s) = 6.67133 7.39977 7.04497
#
# Compressibility (1/GPa) = 0.02197351
#
# Stress axis : x y z
#
# Youngs Moduli (GPa) = 48.42998 56.29128 76.74720
#
# Poissons Ratio (x) = 0.30516 0.30760
# Poissons Ratio (y) = 0.26254 0.40720
# Poissons Ratio (z) = 0.19410 0.29867
#
# Static dielectric constant tensor:
#      x y z
#    x 2.880350 0.000000 -0.008360 
#    y 0.000000 2.847360 0.000000 
#    z -0.008360 0.000000 2.935800 
# 
# 
# High freq. dielectric constant tensor:
#      x y z
#    x 1.589620 0.000000 0.003300 
#    y 0.000000 1.596890 0.000000 
#    z 0.003300 0.000000 1.591800 
# 
# From -- ./inp_files/75745.got.cif
#   From: 2010.06.25/outbox.cif.g09.slc.cpg/sg10_38_cif.got.tgz:75745.got - 2010.06.27 22:07:45.
