data_PCOD8060823
_publ_section_title
;
Structure prediction by ZEFSAII (Michael W. Deem and Ramdas Pophale) SiO2 
 PCOD8060823
Probable space group: P 2/M
;
_chemical_formula_sum "Si O2"
_cell_formula_units_Z 32
_cell_length_a 27.147039
_cell_length_b 8.935145
_cell_length_c 22.063541
_cell_angle_alpha 90.000000
_cell_angle_beta 17.821603
_cell_angle_gamma 90.000000
_cell_volume 1637.939058
_symmetry_space_group_name_H-M "P 2/M"
_symmetry_group_IT_number 10
_symmetry_cell_setting 'monoclinic'
loop_
_space_group_symop_operation_xyz
x,y,z
-x,y,-z
-x,-y,-z
x,-y,z
loop_
_atom_site_type_symbol
_atom_site_label
_atom_site_fract_x
_atom_site_fract_y
_atom_site_fract_z
Si Si1 0.940856 0.675719 0.458703
Si Si2 0.683365 0.827785 0.432600
Si Si3 0.942335 0.676415 0.211012
Si Si4 0.007664 0.825106 0.258862
Si Si5 0.364004 0.171271 0.874476
Si Si6 0.350185 0.823576 0.133350
Si Si7 0.305739 0.674792 0.062606
Si Si8 0.838874 0.665870 0.149535
O O1 0.913883 0.500000 0.484898
O O2 0.811309 0.743427 0.655693
O O3 0.915973 0.747952 0.421959
O O4 0.116696 0.714015 0.279029
O O5 0.786921 0.725582 0.355627
O O6 0.497875 0.801521 0.666610
O O7 0.710421 0.777959 0.330798
O O8 0.735085 0.000000 0.379200
O O9 0.933332 0.500000 0.232690
O O10 0.935443 0.762190 0.281941
O O11 0.106594 0.718183 0.981702
O O12 0.972671 0.000000 0.303426
O O13 0.196089 0.785430 0.040036
O O14 0.362411 0.000000 0.898868
O O15 0.395698 0.274392 0.895875
O O16 0.385323 0.765584 0.024519
O O17 0.322318 0.000000 0.165798
O O18 0.500000 0.778058 0.000000
O O19 0.334963 0.500000 0.038634
O O20 0.762089 0.500000 0.237203
O O21 0.000000 0.662619 0.000000
#
# Coordination Sequence:
#
# PCOD8060823 Si02
#       8
#     4   4   4   4   4   4   4   4
#     4  10  21  38  59  82 107 137 176 217 259 312
#     4  10  19  32  53  79 105 136 176 220 265 314
#     4  10  20  34  52  76 106 139 176 219 265 313
#     4  10  20  36  57  79 105 139 177 216 261 311
#     4   9  20  37  55  78 108 139 173 216 263 312
#     4  11  24  39  56  81 112 143 175 214 259 306
#     4  10  21  37  59  83 105 137 179 217 257 311
#     4   8  16  31  49  71 102 138 176 217 261 312
#
# _framework density 19.536746999999998
#
# number of rings (size 3 to 8) (size 9 to 14) (size 15 to 20)
#    0.000    2.250    0.000    3.375    0.000    9.250 
#    0.000    1.875    0.000    3.750    0.000    0.000 
#    0.000    0.000    0.000    0.000    0.000    0.000 
#
# Total GULP energy -396848.390523 kJ/mol
# GULP energy per Si atom -12401.512204 kJ/mol
# Density = 1.949228 g / cm^3
# Si number density = 19.536747 Si / 1000 Ang^3
#
#
#
# Elastic Constant Matrix: (Units=GPa)
#
#
# Indices 1 2 3 4 5 6 
#
# 1 43.4179 11.6203 -17.4310 0.0000 5.8771 0.0000
# 2 11.6203 71.6885 13.9074 0.0000 2.2664 0.0000
# 3 -17.4310 13.9074 48.3843 0.0000 6.5968 0.0000
# 4 0.0000 0.0000 0.0000 32.1410 0.0000 9.4615
# 5 5.8771 2.2664 6.5968 0.0000 20.1639 0.0000
# 6 0.0000 0.0000 0.0000 9.4615 0.0000 31.2960
#
#
#
# Elastic Compliance Matrix: (Units=1/GPa)
#
#
# Indices 1 2 3 4 5 6 
#
# 1 0.033791 -0.008224 0.016490 0.000000 -0.014319 0.000000
# 2 -0.008224 0.016776 -0.008221 0.000000 0.003201 0.000000
# 3 0.016490 -0.008221 0.030878 0.000000 -0.013984 0.000000
# 4 0.000000 0.000000 0.000000 0.034152 0.000000 -0.010325
# 5 -0.014319 0.003201 -0.013984 0.000000 0.057982 0.000000
# 6 0.000000 0.000000 0.000000 -0.010325 0.000000 0.035074
#
#
# Mechanical properties :
#
#
# Convention : Reuss Voigt Hill
#
# Bulk Modulus (GPa) = 12.26455 19.96489 16.11472
# Shear Modulus (GPa) = 21.20951 27.07978 24.14465
#
# Velocity S-wave (km/s) = 3.29845 3.72707 3.51929
# Velocity P-wave (km/s) = 4.56045 5.36309 4.97797
#
# Compressibility (1/GPa) = 0.08153581
#
# Stress axis : x y z
#
# Youngs Moduli (GPa) = 29.59326 59.60921 32.38529
#
# Poissons Ratio (x) = 0.49021 -0.53403
# Poissons Ratio (y) = 0.24337 0.26624
# Poissons Ratio (z) = -0.48799 0.49005
#
# Static dielectric constant tensor:
#      x y z
#    x 3.520470 0.000000 0.267180 
#    y 0.000000 3.631550 0.000000 
#    z 0.267180 0.000000 3.596680 
# 
# 
# High freq. dielectric constant tensor:
#      x y z
#    x 1.750170 0.000000 0.020480 
#    y 0.000000 1.770320 0.000000 
#    z 0.020480 0.000000 1.755150 
# 
# From -- ./inp_files/86763.got.cif
#   From: 2010.06.25/outbox.cif.g09.slc.cpg/sg10_44_cif.got.tgz:86763.got - 2010.06.27 22:07:45.
