data_PCOD8060613
_publ_section_title
;
Structure prediction by ZEFSAII (Michael W. Deem and Ramdas Pophale) SiO2 
 PCOD8060613
Probable space group: P 2/M
;
_chemical_formula_sum "Si O2"
_cell_formula_units_Z 24
_cell_length_a 24.761090
_cell_length_b 7.911695
_cell_length_c 12.521782
_cell_angle_alpha 90.000000
_cell_angle_beta 147.343516
_cell_angle_gamma 90.000000
_cell_volume 1323.665384
_symmetry_space_group_name_H-M "P 2/M"
_symmetry_group_IT_number 10
_symmetry_cell_setting 'monoclinic'
loop_
_space_group_symop_operation_xyz
x,y,z
-x,y,-z
-x,-y,-z
x,-y,z
loop_
_atom_site_type_symbol
_atom_site_label
_atom_site_fract_x
_atom_site_fract_y
_atom_site_fract_z
Si Si1 0.117209 0.500000 0.821441
Si Si2 0.388140 0.305110 0.156553
Si Si3 0.712868 0.686277 0.222109
Si Si4 0.598136 0.194088 0.218511
Si Si5 0.398645 0.198038 0.539244
Si Si6 0.110564 0.500000 0.556540
Si Si7 0.251813 0.807903 0.112206
O O1 0.121596 0.500000 0.701789
O O2 0.002830 0.500000 0.671501
O O3 0.165564 0.671965 0.946120
O O4 0.353416 0.500000 0.111102
O O5 0.507590 0.291752 0.359001
O O6 0.340253 0.199989 0.172747
O O7 0.345575 0.227576 0.974354
O O8 0.665539 0.500000 0.159961
O O9 0.694454 0.786972 0.301327
O O10 0.831852 0.667546 0.393290
O O11 0.618634 0.272322 0.369826
O O12 0.575449 0.000000 0.200613
O O13 0.500000 0.278338 0.000000
O O14 0.299175 0.237333 0.306070
O O15 0.422344 0.000000 0.577885
O O16 0.208150 0.000000 0.039231
#
# Coordination Sequence:
#
# PCOD8060613 Si02
#       7
#     2   4   4   4   4   2   4
#     4  11  20  42  63  80 112 140 180 239 287 333
#     4  11  19  32  52  80 114 151 183 218 269 331
#     4   9  18  34  51  79 109 139 176 225 273 322
#     4  10  19  32  51  76 111 151 186 222 260 314
#     4  10  22  34  48  78 117 151 187 222 259 323
#     4   9  20  40  61  79 112 135 172 249 288 313
#     4  11  22  37  56  81 114 150 184 225 277 331
#
# _framework density 18.13147
#
# number of rings (size 3 to 8) (size 9 to 14) (size 15 to 20)
#    0.500    1.333    4.167    1.000    1.167    3.667 
#    0.000    2.500    0.000    2.000    0.000    3.500 
#    0.000    0.000    0.000    0.000    0.000    0.000 
#
# Total GULP energy -297473.007576 kJ/mol
# GULP energy per Si atom -12394.708649 kJ/mol
# Density = 1.809020 g / cm^3
# Si number density = 18.131470 Si / 1000 Ang^3
#
#
#
# Elastic Constant Matrix: (Units=GPa)
#
#
# Indices 1 2 3 4 5 6 
#
# 1 94.0536 20.6912 61.1879 0.0000 -1.7916 0.0000
# 2 20.6912 57.4953 44.6530 0.0000 1.8326 0.0000
# 3 61.1879 44.6530 118.4358 0.0000 -0.6712 0.0000
# 4 0.0000 0.0000 0.0000 17.7471 0.0000 -3.3396
# 5 -1.7916 1.8326 -0.6712 0.0000 36.1346 0.0000
# 6 0.0000 0.0000 0.0000 -3.3396 0.0000 21.5365
#
#
#
# Elastic Compliance Matrix: (Units=1/GPa)
#
#
# Indices 1 2 3 4 5 6 
#
# 1 0.016063 0.000909 -0.008638 0.000000 0.000590 0.000000
# 2 0.000909 0.024719 -0.009797 0.000000 -0.001391 0.000000
# 3 -0.008638 -0.009797 0.016602 0.000000 0.000377 0.000000
# 4 0.000000 0.000000 0.000000 0.058041 0.000000 0.009000
# 5 0.000590 -0.001391 0.000377 0.000000 0.027781 0.000000
# 6 0.000000 0.000000 0.000000 0.009000 0.000000 0.047828
#
#
# Mechanical properties :
#
#
# Convention : Reuss Voigt Hill
#
# Bulk Modulus (GPa) = 44.77950 58.11654 51.44802
# Shear Modulus (GPa) = 21.41047 24.64714 23.02881
#
# Velocity S-wave (km/s) = 3.44007 3.69095 3.56771
# Velocity P-wave (km/s) = 6.36628 7.09130 6.73855
#
# Compressibility (1/GPa) = 0.02233165
#
# Stress axis : x y z
#
# Youngs Moduli (GPa) = 62.25416 40.45527 60.23345
#
# Poissons Ratio (x) = -0.03678 0.52031
# Poissons Ratio (y) = -0.05660 0.59011
# Poissons Ratio (z) = 0.53777 0.39634
#
# Static dielectric constant tensor:
#      x y z
#    x 3.327820 0.000000 -0.220940 
#    y 0.000000 3.131350 0.000000 
#    z -0.220940 0.000000 3.301920 
# 
# 
# High freq. dielectric constant tensor:
#      x y z
#    x 1.694520 0.000000 -0.020730 
#    y 0.000000 1.688550 0.000000 
#    z -0.020730 0.000000 1.681840 
# 
# From -- ./inp_files/57346.got.cif
#   From: 2010.06.25/outbox.cif.g09.slc.cpg/sg10_29_cif.got.tgz:57346.got - 2010.06.27 22:07:45.
