data_PCOD8060301
_publ_section_title
;
Structure prediction by ZEFSAII (Michael W. Deem and Ramdas Pophale) SiO2 
 PCOD8060301
Probable space group: P 2/M
;
_chemical_formula_sum "Si O2"
_cell_formula_units_Z 28
_cell_length_a 13.365499
_cell_length_b 9.113399
_cell_length_c 14.281629
_cell_angle_alpha 90.000000
_cell_angle_beta 122.255401
_cell_angle_gamma 90.000000
_cell_volume 1471.119981
_symmetry_space_group_name_H-M "P 2/M"
_symmetry_group_IT_number 10
_symmetry_cell_setting 'monoclinic'
loop_
_space_group_symop_operation_xyz
x,y,z
-x,y,-z
-x,-y,-z
x,-y,z
loop_
_atom_site_type_symbol
_atom_site_label
_atom_site_fract_x
_atom_site_fract_y
_atom_site_fract_z
Si Si1 0.739742 0.668056 0.328505
Si Si2 0.802577 0.828171 0.743309
Si Si3 0.064907 0.166701 0.884183
Si Si4 0.498608 0.673096 0.891622
Si Si5 0.945385 0.831813 0.332803
Si Si6 0.811588 0.668490 0.565103
Si Si7 0.287338 0.172143 0.103135
O O1 0.767068 0.500000 0.314057
O O2 0.623033 0.724069 0.217324
O O3 0.849468 0.767810 0.354991
O O4 0.722622 0.682503 0.432286
O O5 0.752926 0.746947 0.626197
O O6 0.715447 0.799123 0.786626
O O7 0.934112 0.763889 0.832541
O O8 0.813263 0.000000 0.724228
O O9 0.105870 0.181139 0.797450
O O10 0.055039 0.000000 0.913240
O O11 0.166748 0.240500 0.998486
O O12 0.516283 0.500000 0.893815
O O13 0.602315 0.747258 0.885671
O O14 0.500000 0.726322 0.000000
O O15 0.065630 0.742302 0.402867
O O16 0.971166 0.000000 0.372436
O O17 0.835725 0.500000 0.602616
O O18 0.297703 0.000000 0.085574
#
# Coordination Sequence:
#
# PCOD8060301 Si02
#       7
#     4   4   4   4   4   4   4
#     4  10  21  36  52  72 101 138 175 209 252 304
#     4   9  18  33  53  78 106 134 168 211 254 298
#     4   8  15  29  50  77 107 135 162 198 251 309
#     4  10  22  39  56  75 102 134 169 212 256 299
#     4  10  19  31  52  81 108 134 166 208 256 303
#     4  10  20  34  52  74 103 138 172 207 250 304
#     4  10  19  33  55  79 103 134 171 211 255 302
#
# _framework density 19.033118999999999
#
# number of rings (size 3 to 8) (size 9 to 14) (size 15 to 20)
#    0.000    2.429    0.000    3.429    0.000    6.000 
#    0.000    3.571    0.000    8.571    0.000    0.000 
#    0.000    0.000    0.000    0.000    0.000    0.000 
#
# Total GULP energy -347145.724864 kJ/mol
# GULP energy per Si atom -12398.061602 kJ/mol
# Density = 1.898980 g / cm^3
# Si number density = 19.033119 Si / 1000 Ang^3
#
#
#
# Elastic Constant Matrix: (Units=GPa)
#
#
# Indices 1 2 3 4 5 6 
#
# 1 103.2283 38.7473 47.9305 0.0000 -20.1828 0.0000
# 2 38.7473 67.5754 40.5204 0.0000 -8.6840 0.0000
# 3 47.9305 40.5204 124.8093 0.0000 -11.7047 0.0000
# 4 0.0000 0.0000 0.0000 24.0221 0.0000 -3.6302
# 5 -20.1828 -8.6840 -11.7047 0.0000 21.6611 0.0000
# 6 0.0000 0.0000 0.0000 -3.6302 0.0000 28.7979
#
#
#
# Elastic Compliance Matrix: (Units=1/GPa)
#
#
# Indices 1 2 3 4 5 6 
#
# 1 0.015211 -0.005558 -0.003073 0.000000 0.010284 0.000000
# 2 -0.005558 0.020806 -0.004555 0.000000 0.000702 0.000000
# 3 -0.003073 -0.004555 0.010777 0.000000 0.001135 0.000000
# 4 0.000000 0.000000 0.000000 0.042437 0.000000 0.005350
# 5 0.010284 0.000702 0.001135 0.000000 0.056643 0.000000
# 6 0.000000 0.000000 0.000000 0.005350 0.000000 0.035399
#
#
# Mechanical properties :
#
#
# Convention : Reuss Voigt Hill
#
# Bulk Modulus (GPa) = 48.96125 61.11219 55.03672
# Shear Modulus (GPa) = 23.31528 26.12387 24.71957
#
# Velocity S-wave (km/s) = 3.50378 3.70881 3.60775
# Velocity P-wave (km/s) = 6.49220 7.10763 6.80687
#
# Compressibility (1/GPa) = 0.02042432
#
# Stress axis : x y z
#
# Youngs Moduli (GPa) = 65.74285 48.06194 92.78711
#
# Poissons Ratio (x) = 0.26712 0.28509
# Poissons Ratio (y) = 0.36538 0.42263
# Poissons Ratio (z) = 0.20200 0.21892
#
# Static dielectric constant tensor:
#      x y z
#    x 3.297280 0.000000 -0.128530 
#    y 0.000000 3.324210 0.000000 
#    z -0.128530 0.000000 3.744370 
# 
# 
# High freq. dielectric constant tensor:
#      x y z
#    x 1.724810 0.000000 -0.017320 
#    y 0.000000 1.721130 0.000000 
#    z -0.017320 0.000000 1.748210 
# 
# From -- ./inp_files/63927.got.cif
#   From: 2010.06.25/outbox.cif.g09.slc.cpg/sg10_32_cif.got.tgz:63927.got - 2010.06.27 22:07:45.
