data_PCOD8060245
_publ_section_title
;
Structure prediction by ZEFSAII (Michael W. Deem and Ramdas Pophale) SiO2 
 PCOD8060245
Probable space group: P 2/M
;
_chemical_formula_sum "Si O2"
_cell_formula_units_Z 32
_cell_length_a 24.071463
_cell_length_b 8.580391
_cell_length_c 31.176791
_cell_angle_alpha 90.000000
_cell_angle_beta 164.927032
_cell_angle_gamma 90.000000
_cell_volume 1674.542283
_symmetry_space_group_name_H-M "P 2/M"
_symmetry_group_IT_number 10
_symmetry_cell_setting 'monoclinic'
loop_
_space_group_symop_operation_xyz
x,y,z
-x,y,-z
-x,-y,-z
x,-y,z
loop_
_atom_site_type_symbol
_atom_site_label
_atom_site_fract_x
_atom_site_fract_y
_atom_site_fract_z
Si Si1 0.514888 0.817208 0.873705
Si Si2 0.941230 0.680691 0.166255
Si Si3 0.868899 0.827611 0.358603
Si Si4 0.640137 0.818431 0.486467
Si Si5 0.243966 0.322012 0.597812
Si Si6 0.637686 0.184181 0.641593
Si Si7 0.510406 0.321584 0.302644
Si Si8 0.906790 0.182525 0.048057
O O1 0.367245 0.765771 0.804337
O O2 0.395145 0.785405 0.739541
O O3 0.564508 0.000000 0.912750
O O4 0.732774 0.720326 0.039084
O O5 0.940141 0.500000 0.152671
O O6 0.943238 0.786130 0.125384
O O7 0.145759 0.719484 0.347587
O O8 0.000000 0.834921 0.500000
O O9 0.992385 0.717070 0.417048
O O10 0.853151 0.000000 0.326496
O O11 0.461886 0.761129 0.387595
O O12 0.547334 0.790476 0.370238
O O13 0.692171 0.000000 0.531559
O O14 0.287449 0.500000 0.643343
O O15 0.300143 0.291965 0.590170
O O16 0.500000 0.258300 0.500000
O O17 0.882995 0.238778 0.821081
O O18 0.631208 0.000000 0.632377
O O19 0.508683 0.500000 0.316803
O O20 0.286306 0.283855 0.113501
O O21 0.859798 0.000000 0.006467
#
# Coordination Sequence:
#
# PCOD8060245 Si02
#       8
#     4   4   4   4   4   4   4   4
#     4  10  19  32  53  81 112 147 190 236 279 331
#     4  12  23  36  56  86 119 149 186 237 290 340
#     4   8  16  29  47  76 111 144 185 234 278 328
#     4  11  23  41  63  84 110 151 196 234 283 346
#     4  10  19  31  51  78 114 153 186 228 285 339
#     4   9  18  36  61  88 113 141 187 242 284 332
#     4  11  24  40  55  83 123 154 189 237 287 337
#     4  11  21  37  63  87 111 150 195 236 280 339
#
# _framework density 19.109698999999999
#
# number of rings (size 3 to 8) (size 9 to 14) (size 15 to 20)
#    0.000    1.750    2.500    3.750    0.000    4.750 
#    0.000    5.625    0.000    0.750    0.000    5.250 
#    0.000    0.000    0.000    0.000    0.000    0.000 
#
# Total GULP energy -396829.262541 kJ/mol
# GULP energy per Si atom -12400.914454 kJ/mol
# Density = 1.906620 g / cm^3
# Si number density = 19.109699 Si / 1000 Ang^3
#
#
#
# Elastic Constant Matrix: (Units=GPa)
#
#
# Indices 1 2 3 4 5 6 
#
# 1 107.7285 32.2793 49.8989 0.0000 22.9125 0.0000
# 2 32.2793 57.5498 20.4333 0.0000 13.7986 0.0000
# 3 49.8989 20.4333 77.8117 0.0000 22.8176 0.0000
# 4 0.0000 0.0000 0.0000 18.8119 0.0000 -5.5289
# 5 22.9125 13.7986 22.8176 0.0000 38.5077 0.0000
# 6 0.0000 0.0000 0.0000 -5.5289 0.0000 20.4750
#
#
#
# Elastic Compliance Matrix: (Units=1/GPa)
#
#
# Indices 1 2 3 4 5 6 
#
# 1 0.014765 -0.005036 -0.007382 0.000000 -0.002607 0.000000
# 2 -0.005036 0.021611 -0.001275 0.000000 -0.003992 0.000000
# 3 -0.007382 -0.001275 0.019968 0.000000 -0.006983 0.000000
# 4 0.000000 0.000000 0.000000 0.057741 0.000000 0.015592
# 5 -0.002607 -0.003992 -0.006983 0.000000 0.033088 0.000000
# 6 0.000000 0.000000 0.000000 0.015592 0.000000 0.053050
#
#
# Mechanical properties :
#
#
# Convention : Reuss Voigt Hill
#
# Bulk Modulus (GPa) = 34.53207 49.81256 42.17232
# Shear Modulus (GPa) = 21.07393 24.92415 22.99904
#
# Velocity S-wave (km/s) = 3.32443 3.61538 3.47295
# Velocity P-wave (km/s) = 5.73109 6.59933 6.18048
#
# Compressibility (1/GPa) = 0.02895859
#
# Stress axis : x y z
#
# Youngs Moduli (GPa) = 67.72754 46.27355 50.08090
#
# Poissons Ratio (x) = 0.23302 0.36968
# Poissons Ratio (y) = 0.34105 0.06385
# Poissons Ratio (z) = 0.49994 0.05900
#
# Static dielectric constant tensor:
#      x y z
#    x 3.605330 0.000000 0.497570 
#    y 0.000000 3.367580 0.000000 
#    z 0.497570 0.000000 3.532890 
# 
# 
# High freq. dielectric constant tensor:
#      x y z
#    x 1.735430 0.000000 0.032880 
#    y 0.000000 1.738630 0.000000 
#    z 0.032880 0.000000 1.729950 
# 
# From -- ./inp_files/93716.got.cif
#   From: 2010.06.25/outbox.cif.g09.slc.cpg/sg10_47_cif.got.tgz:93716.got - 2010.06.27 22:07:45.
