data_PCOD8060814
_publ_section_title
;
Structure prediction by ZEFSAII (Michael W. Deem and Ramdas Pophale) SiO2 
 PCOD8060814
Probable space group: P 2/M
;
_chemical_formula_sum "Si O2"
_cell_formula_units_Z 24
_cell_length_a 21.164293
_cell_length_b 7.708195
_cell_length_c 29.140391
_cell_angle_alpha 90.000000
_cell_angle_beta 15.767542
_cell_angle_gamma 90.000000
_cell_volume 1291.806856
_symmetry_space_group_name_H-M "P 2/M"
_symmetry_group_IT_number 10
_symmetry_cell_setting 'monoclinic'
loop_
_space_group_symop_operation_xyz
x,y,z
-x,y,-z
-x,-y,-z
x,-y,z
loop_
_atom_site_type_symbol
_atom_site_label
_atom_site_fract_x
_atom_site_fract_y
_atom_site_fract_z
Si Si1 0.865545 0.000000 0.767591
Si Si2 0.218780 0.302436 0.519639
Si Si3 0.355669 0.198676 0.728878
Si Si4 0.484961 0.695927 0.244289
Si Si5 0.614066 0.000000 0.848089
Si Si6 0.271116 0.299629 0.301175
Si Si7 0.078302 0.197604 0.016362
O O1 0.784430 0.000000 0.772095
O O2 0.008307 0.175202 0.678318
O O3 0.653346 0.000000 0.950872
O O4 0.128088 0.500000 0.576740
O O5 0.404233 0.303269 0.432386
O O6 0.346685 0.224679 0.384598
O O7 0.208873 0.216778 0.877421
O O8 0.419472 0.000000 0.674209
O O9 0.186645 0.270626 0.805747
O O10 0.402219 0.500000 0.299580
O O11 0.406876 0.778923 0.250687
O O12 0.765714 0.706712 0.054207
O O13 0.662273 0.177383 0.787408
O O14 0.340638 0.500000 0.241391
O O15 0.000000 0.285007 0.500000
O O16 0.061527 0.000000 0.043895
#
# Coordination Sequence:
#
# PCOD8060814 Si02
#       7
#     2   4   4   4   2   4   4
#     4  11  24  40  54  76 103 131 179 222 244 305
#     4  10  19  32  53  78 107 142 172 210 259 300
#     4   8  13  25  41  67 106 140 172 207 244 300
#     4   9  18  29  47  78 109 137 171 210 256 314
#     4  11  25  40  58  77 100 139 173 209 265 303
#     4  10  21  38  58  82 109 133 167 213 258 312
#     4   8  14  22  40  68 104 143 168 200 252 304
#
# _framework density 18.578627999999998
#
# number of rings (size 3 to 8) (size 9 to 14) (size 15 to 20)
#    0.000    2.667    0.833    2.250    2.333    3.333 
#    0.000    5.000    0.000    0.000    0.000    2.333 
#    0.000    4.000    0.000    0.000    0.000    0.000 
#
# Total GULP energy -297319.429986 kJ/mol
# GULP energy per Si atom -12388.309583 kJ/mol
# Density = 1.853634 g / cm^3
# Si number density = 18.578628 Si / 1000 Ang^3
#
#
#
# Elastic Constant Matrix: (Units=GPa)
#
#
# Indices 1 2 3 4 5 6 
#
# 1 96.1891 34.7638 52.0588 0.0000 -25.5375 0.0000
# 2 34.7638 89.5049 46.4490 0.0000 -7.3846 0.0000
# 3 52.0588 46.4490 87.2069 0.0000 -19.0753 0.0000
# 4 0.0000 0.0000 0.0000 15.8762 0.0000 -16.8928
# 5 -25.5375 -7.3846 -19.0753 0.0000 27.5137 0.0000
# 6 0.0000 0.0000 0.0000 -16.8928 0.0000 -16.8186
#
#
#
# Elastic Compliance Matrix: (Units=1/GPa)
#
#
# Indices 1 2 3 4 5 6 
#
# 1 0.018066 -0.002444 -0.007023 0.000000 0.011243 0.000000
# 2 -0.002444 0.015850 -0.007720 0.000000 -0.003367 0.000000
# 3 -0.007023 -0.007720 0.021090 0.000000 0.006031 0.000000
# 4 0.000000 0.000000 0.000000 0.030447 0.000000 -0.030582
# 5 0.011243 -0.003367 0.006031 0.000000 0.050059 0.000000
# 6 0.000000 0.000000 0.000000 -0.030582 0.000000 -0.028741
#
#
# Mechanical properties :
#
#
# Convention : Reuss Voigt Hill
#
# Bulk Modulus (GPa) = 48.46832 59.93824 54.20328
# Shear Modulus (GPa) = 33.77859 14.62288 24.20073
#
# Velocity S-wave (km/s) = 4.26859 2.80854 3.61309
# Velocity P-wave (km/s) = 7.10207 6.54593 6.82966
#
# Compressibility (1/GPa) = 0.02063203
#
# Stress axis : x y z
#
# Youngs Moduli (GPa) = 55.35410 63.09026 47.41472
#
# Poissons Ratio (x) = 0.15422 0.33300
# Poissons Ratio (y) = 0.13531 0.36602
# Poissons Ratio (z) = 0.38876 0.48703
#
# Static dielectric constant tensor:
#      x y z
#    x 3.510430 0.000000 -0.388770 
#    y 0.000000 3.339770 0.000000 
#    z -0.388770 0.000000 3.060180 
# 
# 
# High freq. dielectric constant tensor:
#      x y z
#    x 1.714820 0.000000 -0.052090 
#    y 0.000000 1.718250 0.000000 
#    z -0.052090 0.000000 1.676680 
# 
# From -- ./inp_files/90021.got.cif
#   From: 2010.06.25/outbox.cif.g09.slc.cpg/sg10_46_cif.got.tgz:90021.got - 2010.06.27 22:07:45.
