data_PCOD8060305
_publ_section_title
;
Structure prediction by ZEFSAII (Michael W. Deem and Ramdas Pophale) SiO2 
 PCOD8060305
Probable space group: P 2/M
;
_chemical_formula_sum "Si O2"
_cell_formula_units_Z 28
_cell_length_a 11.664822
_cell_length_b 9.082718
_cell_length_c 15.023591
_cell_angle_alpha 90.000000
_cell_angle_beta 60.793657
_cell_angle_gamma 90.000000
_cell_volume 1389.364833
_symmetry_space_group_name_H-M "P 2/M"
_symmetry_group_IT_number 10
_symmetry_cell_setting 'monoclinic'
loop_
_space_group_symop_operation_xyz
x,y,z
-x,y,-z
-x,-y,-z
x,-y,z
loop_
_atom_site_type_symbol
_atom_site_label
_atom_site_fract_x
_atom_site_fract_y
_atom_site_fract_z
Si Si1 0.126101 0.825442 0.512608
Si Si2 0.257027 0.338962 0.188976
Si Si3 0.370383 0.324383 0.328785
Si Si4 0.634446 0.836401 0.001276
Si Si5 0.964532 0.665207 0.285313
Si Si6 0.625204 0.171906 0.200934
Si Si7 0.927394 0.171378 0.119431
O O1 0.259242 0.749165 0.430410
O O2 0.115494 0.771230 0.618611
O O3 0.000000 0.779906 0.500000
O O4 0.144335 0.000000 0.504594
O O5 0.312781 0.500000 0.144441
O O6 0.341457 0.273420 0.238212
O O7 0.107100 0.346390 0.276356
O O8 0.259142 0.244228 0.098777
O O9 0.365414 0.500000 0.342829
O O10 0.515395 0.261768 0.299030
O O11 0.619148 0.762893 0.103073
O O12 0.689401 0.000000 0.995513
O O13 0.500000 0.832748 0.000000
O O14 0.903077 0.500000 0.303215
O O15 0.980048 0.732543 0.181010
O O16 0.771439 0.201276 0.179458
O O17 0.587682 0.000000 0.219041
O O18 0.957848 0.000000 0.124456
O O19 0.000000 0.221001 0.000000
#
# Coordination Sequence:
#
# PCOD8060305 Si02
#       7
#     4   4   4   4   4   4   4
#     4  11  23  39  63  93 123 159 203 251 305 367
#     4  10  21  34  52  82 119 157 191 238 299 358
#     4  11  22  37  58  86 123 160 195 241 303 367
#     4  10  19  31  52  81 113 151 195 242 293 355
#     4  11  23  40  62  89 123 159 203 254 305 362
#     4  10  21  38  58  85 121 159 202 254 305 355
#     4  10  22  42  66  90 122 164 210 256 302 358
#
# _framework density 20.153092999999998
#
# number of rings (size 3 to 8) (size 9 to 14) (size 15 to 20)
#    0.000    1.571    2.857    2.143    0.000    5.143 
#    0.000    0.714    0.000    4.286    0.000    0.000 
#    0.000    0.000    0.000    0.000    0.000    0.000 
#
# Total GULP energy -347091.807899 kJ/mol
# GULP energy per Si atom -12396.135996 kJ/mol
# Density = 2.010722 g / cm^3
# Si number density = 20.153093 Si / 1000 Ang^3
#
#
#
# Elastic Constant Matrix: (Units=GPa)
#
#
# Indices 1 2 3 4 5 6 
#
# 1 71.7216 30.3151 29.5783 0.0000 -13.8625 0.0000
# 2 30.3151 87.8331 52.3267 0.0000 -6.0166 0.0000
# 3 29.5783 52.3267 115.0929 0.0000 -11.6470 0.0000
# 4 0.0000 0.0000 0.0000 54.3527 0.0000 -9.2288
# 5 -13.8625 -6.0166 -11.6470 0.0000 35.4115 0.0000
# 6 0.0000 0.0000 0.0000 -9.2288 0.0000 25.6663
#
#
#
# Elastic Compliance Matrix: (Units=1/GPa)
#
#
# Indices 1 2 3 4 5 6 
#
# 1 0.017748 -0.004612 -0.001904 0.000000 0.005538 0.000000
# 2 -0.004612 0.016817 -0.006573 0.000000 -0.001110 0.000000
# 3 -0.001904 -0.006573 0.012390 0.000000 0.002213 0.000000
# 4 0.000000 0.000000 0.000000 0.019595 0.000000 0.007046
# 5 0.005538 -0.001110 0.002213 0.000000 0.030947 0.000000
# 6 0.000000 0.000000 0.000000 0.007046 0.000000 0.041495
#
#
# Mechanical properties :
#
#
# Convention : Reuss Voigt Hill
#
# Bulk Modulus (GPa) = 48.12908 55.45420 51.79164
# Shear Modulus (GPa) = 29.05393 33.91461 31.48427
#
# Velocity S-wave (km/s) = 3.80104 4.10670 3.95683
# Velocity P-wave (km/s) = 6.57248 7.07551 6.82863
#
# Compressibility (1/GPa) = 0.02077746
#
# Stress axis : x y z
#
# Youngs Moduli (GPa) = 56.34534 59.46467 80.70924
#
# Poissons Ratio (x) = 0.27425 0.15366
# Poissons Ratio (y) = 0.25986 0.53048
# Poissons Ratio (z) = 0.10727 0.39085
#
# Static dielectric constant tensor:
#      x y z
#    x 3.531270 0.000000 -0.089350 
#    y 0.000000 3.667560 0.000000 
#    z -0.089350 0.000000 3.630960 
# 
# 
# High freq. dielectric constant tensor:
#      x y z
#    x 1.778280 0.000000 -0.011660 
#    y 0.000000 1.783680 0.000000 
#    z -0.011660 0.000000 1.784810 
# 
# From -- ./inp_files/49617.got.cif
#   From: 2010.06.25/outbox.cif.g09.slc.cpg/sg10_25_cif.got.tgz:49617.got - 2010.06.27 22:07:45.
