data_PCOD8060030
_publ_section_title
;
Structure prediction by ZEFSAII (Michael W. Deem and Ramdas Pophale) SiO2 
 PCOD8060030
Probable space group: P 2/M
;
_chemical_formula_sum "Si O2"
_cell_formula_units_Z 28
_cell_length_a 11.417026
_cell_length_b 8.902264
_cell_length_c 16.683455
_cell_angle_alpha 90.000000
_cell_angle_beta 119.475859
_cell_angle_gamma 90.000000
_cell_volume 1476.181325
_symmetry_space_group_name_H-M "P 2/M"
_symmetry_group_IT_number 10
_symmetry_cell_setting 'monoclinic'
loop_
_space_group_symop_operation_xyz
x,y,z
-x,y,-z
-x,-y,-z
x,-y,z
loop_
_atom_site_type_symbol
_atom_site_label
_atom_site_fract_x
_atom_site_fract_y
_atom_site_fract_z
Si Si1 0.593746 0.821330 0.291584
Si Si2 0.174971 0.823045 0.742246
Si Si3 0.895405 0.323250 0.830832
Si Si4 0.386975 0.821539 0.522364
Si Si5 0.875304 0.177651 0.656656
Si Si6 0.171741 0.826935 0.919820
Si Si7 0.312599 0.826423 0.125790
O O1 0.722155 0.751437 0.287505
O O2 0.589975 0.756093 0.380677
O O3 0.460854 0.770675 0.199292
O O4 0.604185 0.000000 0.298104
O O5 0.218844 0.774825 0.847097
O O6 0.021690 0.769412 0.673436
O O7 0.184115 0.000000 0.736156
O O8 0.896348 0.500000 0.821690
O O9 0.843543 0.251258 0.731016
O O10 0.795232 0.276169 0.866902
O O11 0.043739 0.268495 0.904825
O O12 0.500000 0.755971 0.500000
O O13 0.238891 0.770318 0.443991
O O14 0.398119 0.000000 0.527557
O O15 0.872451 0.000000 0.668653
O O16 0.124625 0.000000 0.900335
O O17 0.293288 0.804790 0.023549
O O18 0.290859 0.000000 0.143276
#
# Coordination Sequence:
#
# PCOD8060030 Si02
#       7
#     4   4   4   4   4   4   4
#     4   9  17  28  46  74 102 127 161 204 242 280
#     4   8  15  28  45  70 100 126 160 203 241 280
#     4  11  21  32  49  73  99 126 161 204 245 289
#     4   9  16  26  44  72 102 130 161 197 239 286
#     4   9  17  31  51  72  98 130 161 199 245 290
#     4   9  18  32  50  72  98 128 161 198 242 291
#     4  10  19  31  49  71  98 132 163 196 242 290
#
# _framework density 18.967860000000002
#
# number of rings (size 3 to 8) (size 9 to 14) (size 15 to 20)
#    0.000    2.714    0.000    3.429    0.000    5.714 
#    0.000    5.714    0.000    7.286    0.000    9.000 
#    0.000    0.000    0.000    0.000    0.000    0.000 
#
# Total GULP energy -347113.715983 kJ/mol
# GULP energy per Si atom -12396.918428 kJ/mol
# Density = 1.892469 g / cm^3
# Si number density = 18.967860 Si / 1000 Ang^3
#
#
#
# Elastic Constant Matrix: (Units=GPa)
#
#
# Indices 1 2 3 4 5 6 
#
# 1 137.4835 7.2482 89.9765 0.0000 -13.4596 0.0000
# 2 7.2482 27.5479 18.2535 0.0000 0.2465 0.0000
# 3 89.9765 18.2535 168.7537 0.0000 12.2486 0.0000
# 4 0.0000 0.0000 0.0000 5.3209 0.0000 -0.1373
# 5 -13.4596 0.2465 12.2486 0.0000 27.3018 0.0000
# 6 0.0000 0.0000 0.0000 -0.1373 0.0000 1.2661
#
#
#
# Elastic Compliance Matrix: (Units=1/GPa)
#
#
# Indices 1 2 3 4 5 6 
#
# 1 0.013522 0.001748 -0.008147 0.000000 0.010305 0.000000
# 2 0.001748 0.039396 -0.005406 0.000000 0.002932 0.000000
# 3 -0.008147 -0.005406 0.011517 0.000000 -0.009135 0.000000
# 4 0.000000 0.000000 0.000000 0.188464 0.000000 0.020437
# 5 0.010305 0.002932 -0.009135 0.000000 0.045780 0.000000
# 6 0.000000 0.000000 0.000000 0.020437 0.000000 0.792026
#
#
# Mechanical properties :
#
#
# Convention : Reuss Voigt Hill
#
# Bulk Modulus (GPa) = 24.49425 62.74906 43.62165
# Shear Modulus (GPa) = 4.43292 21.33157 12.88224
#
# Velocity S-wave (km/s) = 1.53041 3.35717 2.60890
# Velocity P-wave (km/s) = 4.00805 6.94126 5.66769
#
# Compressibility (1/GPa) = 0.04082591
#
# Stress axis : x y z
#
# Youngs Moduli (GPa) = 73.95333 25.38306 86.82586
#
# Poissons Ratio (x) = -0.04437 0.70735
# Poissons Ratio (y) = -0.12928 0.46940
# Poissons Ratio (z) = 0.60248 0.13723
#
# Static dielectric constant tensor:
#      x y z
#    x 3.659550 0.000000 -0.005720 
#    y 0.000000 2.892730 0.000000 
#    z -0.005720 0.000000 3.759050 
# 
# 
# High freq. dielectric constant tensor:
#      x y z
#    x 1.736540 0.000000 0.001680 
#    y 0.000000 1.674400 0.000000 
#    z 0.001680 0.000000 1.748970 
# 
# From -- ./inp_files/49144.got.cif
#   From: 2010.06.25/outbox.cif.g09.slc.cpg/sg10_25_cif.got.tgz:49144.got - 2010.06.27 22:07:45.
