data_PCOD8060716
_publ_section_title
;
Structure prediction by ZEFSAII (Michael W. Deem and Ramdas Pophale) SiO2 
 PCOD8060716
Probable space group: P 2/M
;
_chemical_formula_sum "Si O2"
_cell_formula_units_Z 28
_cell_length_a 18.963038
_cell_length_b 9.055547
_cell_length_c 9.629617
_cell_angle_alpha 90.000000
_cell_angle_beta 60.965071
_cell_angle_gamma 90.000000
_cell_volume 1445.785998
_symmetry_space_group_name_H-M "P 2/M"
_symmetry_group_IT_number 10
_symmetry_cell_setting 'monoclinic'
loop_
_space_group_symop_operation_xyz
x,y,z
-x,y,-z
-x,-y,-z
x,-y,z
loop_
_atom_site_type_symbol
_atom_site_label
_atom_site_fract_x
_atom_site_fract_y
_atom_site_fract_z
Si Si1 0.689021 0.831951 0.026694
Si Si2 0.414082 0.827387 0.626470
Si Si3 0.690316 0.173380 0.531162
Si Si4 0.849015 0.675122 0.803551
Si Si5 0.581204 0.167385 0.870044
Si Si6 0.000621 0.324577 0.158469
Si Si7 0.150659 0.675374 0.515964
O O1 0.619880 0.766191 0.194935
O O2 0.710876 0.000000 0.048403
O O3 0.769088 0.735116 0.953590
O O4 0.653875 0.824625 0.907521
O O5 0.500000 0.752836 0.500000
O O6 0.340260 0.794537 0.593604
O O7 0.431085 0.000000 0.624965
O O8 0.617547 0.237531 0.696063
O O9 0.771157 0.260600 0.484331
O O10 0.705164 0.000000 0.546081
O O11 0.845383 0.500000 0.807177
O O12 0.858539 0.731843 0.634855
O O13 0.922169 0.733351 0.829264
O O14 0.555478 0.000000 0.859291
O O15 0.500000 0.251061 0.000000
O O16 0.001245 0.500000 0.152276
O O17 0.923623 0.268232 0.319229
O O18 0.000000 0.262273 0.000000
O O19 0.156410 0.500000 0.511457
#
# Coordination Sequence:
#
# PCOD8060716 Si02
#       7
#     4   4   4   4   4   4   4
#     4  10  19  32  52  78 106 135 171 213 257 303
#     4   9  18  32  51  76 105 138 176 217 257 299
#     4  10  19  32  52  78 106 135 171 213 257 303
#     4  10  20  35  55  78 105 135 169 210 257 305
#     4   9  16  28  49  74  99 132 174 211 241 289
#     4   9  19  35  56  79 100 132 175 210 244 304
#     4  10  20  35  55  78 105 135 169 210 257 305
#
# _framework density 19.366627999999999
#
# number of rings (size 3 to 8) (size 9 to 14) (size 15 to 20)
#    0.000    2.429    1.429    1.286    2.000    5.143 
#    0.000    0.714    0.000    7.714    0.000    0.000 
#    0.000    0.000    0.000    0.000    0.000    0.000 
#
# Total GULP energy -347022.527421 kJ/mol
# GULP energy per Si atom -12393.661694 kJ/mol
# Density = 1.932255 g / cm^3
# Si number density = 19.366628 Si / 1000 Ang^3
#
#
#
# Elastic Constant Matrix: (Units=GPa)
#
#
# Indices 1 2 3 4 5 6 
#
# 1 90.2452 13.0374 35.9645 0.0000 -15.8079 0.0000
# 2 13.0374 11.2391 12.1870 0.0000 -3.0864 0.0000
# 3 35.9645 12.1870 119.8515 0.0000 -7.8804 0.0000
# 4 0.0000 0.0000 0.0000 19.1712 0.0000 -5.3743
# 5 -15.8079 -3.0864 -7.8804 0.0000 37.5358 0.0000
# 6 0.0000 0.0000 0.0000 -5.3743 0.0000 27.6456
#
#
#
# Elastic Compliance Matrix: (Units=1/GPa)
#
#
# Indices 1 2 3 4 5 6 
#
# 1 0.014891 -0.012915 -0.002852 0.000000 0.004611 0.000000
# 2 -0.012915 0.112633 -0.007429 0.000000 0.002263 0.000000
# 3 -0.002852 -0.007429 0.009973 0.000000 0.000282 0.000000
# 4 0.000000 0.000000 0.000000 0.055168 0.000000 0.010725
# 5 0.004611 0.002263 0.000282 0.000000 0.028828 0.000000
# 6 0.000000 0.000000 0.000000 0.010725 0.000000 0.038257
#
#
# Mechanical properties :
#
#
# Convention : Reuss Voigt Hill
#
# Bulk Modulus (GPa) = 10.97625 38.19041 24.58333
# Shear Modulus (GPa) = 14.85839 27.54698 21.20268
#
# Velocity S-wave (km/s) = 2.77287 3.77556 3.31237
# Velocity P-wave (km/s) = 3.99145 6.22647 5.22975
#
# Compressibility (1/GPa) = 0.09110583
#
# Stress axis : x y z
#
# Youngs Moduli (GPa) = 67.15521 8.87841 100.26671
#
# Poissons Ratio (x) = 0.11466 0.28596
# Poissons Ratio (y) = 0.86730 0.74486
# Poissons Ratio (z) = 0.19153 0.06596
#
# Static dielectric constant tensor:
#      x y z
#    x 3.606900 0.000000 -0.025420 
#    y 0.000000 2.962940 0.000000 
#    z -0.025420 0.000000 3.934210 
# 
# 
# High freq. dielectric constant tensor:
#      x y z
#    x 1.764660 0.000000 -0.001200 
#    y 0.000000 1.684650 0.000000 
#    z -0.001200 0.000000 1.777050 
# 
# From -- ./inp_files/28491.got.cif
#   From: 2010.06.25/outbox.cif.g09.slc.cpg/sg10_15_cif.got.tgz:28491.got - 2010.06.27 22:07:45.
