data_PCOD8060087
_publ_section_title
;
Structure prediction by ZEFSAII (Michael W. Deem and Ramdas Pophale) SiO2 
 PCOD8060087
Probable space group: P 2/M
;
_chemical_formula_sum "Si O2"
_cell_formula_units_Z 32
_cell_length_a 13.059782
_cell_length_b 9.183962
_cell_length_c 26.148048
_cell_angle_alpha 90.000000
_cell_angle_beta 32.671125
_cell_angle_gamma 90.000000
_cell_volume 1692.977403
_symmetry_space_group_name_H-M "P 2/M"
_symmetry_group_IT_number 10
_symmetry_cell_setting 'monoclinic'
loop_
_space_group_symop_operation_xyz
x,y,z
-x,y,-z
-x,-y,-z
x,-y,z
loop_
_atom_site_type_symbol
_atom_site_label
_atom_site_fract_x
_atom_site_fract_y
_atom_site_fract_z
Si Si1 0.050221 0.333696 0.421098
Si Si2 0.848192 0.831653 0.415133
Si Si3 0.150964 0.665679 0.977978
Si Si4 0.481596 0.327401 0.584382
Si Si5 0.488500 0.337837 0.238035
Si Si6 0.104043 0.832022 0.715630
Si Si7 0.406166 0.837244 0.712133
Si Si8 0.963554 0.161713 0.878798
O O1 0.980170 0.500000 0.444643
O O2 0.270655 0.319099 0.313915
O O3 0.000000 0.280048 0.500000
O O4 0.944905 0.235825 0.424047
O O5 0.654480 0.747924 0.481782
O O6 0.974507 0.816154 0.309594
O O7 0.806210 0.000000 0.444511
O O8 0.088638 0.500000 0.012148
O O9 0.369311 0.681730 0.869294
O O10 0.000000 0.733942 0.000000
O O11 0.147891 0.736861 0.035279
O O12 0.495019 0.500000 0.573128
O O13 0.283639 0.272148 0.645993
O O14 0.507362 0.277553 0.632280
O O15 0.519428 0.500000 0.248792
O O16 0.539049 0.209001 0.254546
O O17 0.947329 0.790366 0.825269
O O18 0.167593 0.000000 0.699471
O O19 0.182721 0.830598 0.800828
O O20 0.482897 0.000000 0.669496
O O21 0.881115 0.000000 0.920699
#
# Coordination Sequence:
#
# PCOD8060087 Si02
#       8
#     4   4   4   4   4   4   4   4
#     4  10  22  39  57  78 106 141 182 226 270 315
#     4  11  22  37  57  77 104 139 179 227 273 320
#     4  10  19  31  50  78 112 144 176 215 266 326
#     4  11  21  32  51  79 110 142 179 219 265 322
#     4  10  20  34  52  76 109 145 179 223 274 322
#     4   9  20  37  54  77 108 141 176 221 275 321
#     4  10  19  31  49  75 108 143 179 219 265 319
#     4   9  18  32  50  75 107 140 173 212 264 321
#
# _framework density 18.901610999999999
#
# number of rings (size 3 to 8) (size 9 to 14) (size 15 to 20)
#    0.000    2.000    1.250    3.750    0.000    7.000 
#    0.000    0.000    0.000    0.750    0.000    5.250 
#    0.000    0.000    0.000    0.000    0.000    0.000 
#
# Total GULP energy -396563.805660 kJ/mol
# GULP energy per Si atom -12392.618927 kJ/mol
# Density = 1.885859 g / cm^3
# Si number density = 18.901611 Si / 1000 Ang^3
#
#
#
# Elastic Constant Matrix: (Units=GPa)
#
#
# Indices 1 2 3 4 5 6 
#
# 1 71.4049 43.7903 42.9375 0.0000 29.7143 0.0000
# 2 43.7903 101.2289 41.7703 0.0000 16.2766 0.0000
# 3 42.9375 41.7703 112.5106 0.0000 21.1367 0.0000
# 4 0.0000 0.0000 0.0000 27.7789 0.0000 5.1869
# 5 29.7143 16.2766 21.1367 0.0000 33.1706 0.0000
# 6 0.0000 0.0000 0.0000 5.1869 0.0000 16.4115
#
#
#
# Elastic Compliance Matrix: (Units=1/GPa)
#
#
# Indices 1 2 3 4 5 6 
#
# 1 0.029969 -0.007772 -0.004799 0.000000 -0.019974 0.000000
# 2 -0.007772 0.014022 -0.002562 0.000000 0.001714 0.000000
# 3 -0.004799 -0.002562 0.012072 0.000000 -0.002136 0.000000
# 4 0.000000 0.000000 0.000000 0.038256 0.000000 -0.012091
# 5 -0.019974 0.001714 -0.002136 0.000000 0.048560 0.000000
# 6 0.000000 0.000000 0.000000 -0.012091 0.000000 0.064754
#
#
# Mechanical properties :
#
#
# Convention : Reuss Voigt Hill
#
# Bulk Modulus (GPa) = 38.76423 60.23784 49.50103
# Shear Modulus (GPa) = 20.28403 25.91529 23.09966
#
# Velocity S-wave (km/s) = 3.27943 3.70680 3.49965
# Velocity P-wave (km/s) = 5.90699 7.08935 6.52500
#
# Compressibility (1/GPa) = 0.02579698
#
# Stress axis : x y z
#
# Youngs Moduli (GPa) = 33.36779 71.31541 82.83675
#
# Poissons Ratio (x) = 0.55428 0.39754
# Poissons Ratio (y) = 0.25934 0.21221
# Poissons Ratio (z) = 0.16014 0.18269
#
# Static dielectric constant tensor:
#      x y z
#    x 3.292740 0.000000 0.341400 
#    y 0.000000 3.513760 0.000000 
#    z 0.341400 0.000000 3.668520 
# 
# 
# High freq. dielectric constant tensor:
#      x y z
#    x 1.705640 0.000000 0.029450 
#    y 0.000000 1.735550 0.000000 
#    z 0.029450 0.000000 1.731730 
# 
# From -- ./inp_files/93120.got.cif
#   From: 2010.06.25/outbox.cif.g09.slc.cpg/sg10_47_cif.got.tgz:93120.got - 2010.06.27 22:07:45.
