data_PCOD8060095
_publ_section_title
;
Structure prediction by ZEFSAII (Michael W. Deem and Ramdas Pophale) SiO2 
 PCOD8060095
Probable space group: P 2/M
;
_chemical_formula_sum "Si O2"
_cell_formula_units_Z 20
_cell_length_a 17.270767
_cell_length_b 7.862453
_cell_length_c 23.602453
_cell_angle_alpha 90.000000
_cell_angle_beta 19.507077
_cell_angle_gamma 90.000000
_cell_volume 1070.221172
_symmetry_space_group_name_H-M "P 2/M"
_symmetry_group_IT_number 10
_symmetry_cell_setting 'monoclinic'
loop_
_space_group_symop_operation_xyz
x,y,z
-x,y,-z
-x,-y,-z
x,-y,z
loop_
_atom_site_type_symbol
_atom_site_label
_atom_site_fract_x
_atom_site_fract_y
_atom_site_fract_z
Si Si1 0.945859 0.302169 0.974608
Si Si2 0.484786 0.688391 0.796783
Si Si3 0.853014 0.314188 0.863969
Si Si4 0.269280 0.000000 0.326627
Si Si5 0.387965 0.000000 0.016239
Si Si6 0.246040 0.193709 0.666347
O O1 0.008632 0.500000 0.924252
O O2 0.105315 0.197641 0.821899
O O3 0.672516 0.271732 0.149956
O O4 0.000000 0.235281 0.000000
O O5 0.600974 0.500000 0.711548
O O6 0.678577 0.832646 0.671526
O O7 0.312580 0.692442 0.968114
O O8 0.836557 0.500000 0.845424
O O9 0.775138 0.166674 0.874731
O O10 0.114628 0.290294 0.706094
O O11 0.000000 0.000000 0.500000
O O12 0.415072 0.000000 0.167962
O O13 0.500000 0.000000 0.000000
O O14 0.500000 0.276481 0.500000
O O15 0.271281 0.000000 0.629174
#
# Coordination Sequence:
#
# PCOD8060095 Si02
#       6
#     4   4   4   2   2   4
#     4   9  18  32  50  74 103 134 170 208 247 294
#     4   8  16  31  51  73  98 129 166 202 237 294
#     4   9  17  32  54  75  98 135 172 201 246 302
#     4  10  20  34  53  74  94 126 165 202 253 300
#     4  10  20  36  55  74 102 126 161 218 253 296
#     4  10  19  31  49  76 106 136 172 210 248 296
#
# _framework density 18.687725
#
# number of rings (size 3 to 8) (size 9 to 14) (size 15 to 20)
#    0.000    2.800    1.000    1.800    4.200    2.800 
#    0.000    2.000    0.000    2.400    0.000    0.000 
#    0.000    0.000    0.000    0.000    0.000    0.000 
#
# Total GULP energy -247909.055495 kJ/mol
# GULP energy per Si atom -12395.452775 kJ/mol
# Density = 1.864519 g / cm^3
# Si number density = 18.687725 Si / 1000 Ang^3
#
#
#
# Elastic Constant Matrix: (Units=GPa)
#
#
# Indices 1 2 3 4 5 6 
#
# 1 99.1689 48.4700 30.9406 0.0000 -34.2796 0.0000
# 2 48.4700 140.1735 55.3605 0.0000 -32.9195 0.0000
# 3 30.9406 55.3605 99.8275 0.0000 -35.1269 0.0000
# 4 0.0000 0.0000 0.0000 17.2921 0.0000 -9.9243
# 5 -34.2796 -32.9195 -35.1269 0.0000 30.2877 0.0000
# 6 0.0000 0.0000 0.0000 -9.9243 0.0000 15.2294
#
#
#
# Elastic Compliance Matrix: (Units=1/GPa)
#
#
# Indices 1 2 3 4 5 6 
#
# 1 0.017499 -0.002425 0.003316 0.000000 0.021015 0.000000
# 2 -0.002425 0.010397 -0.003385 0.000000 0.004630 0.000000
# 3 0.003316 -0.003385 0.018403 0.000000 0.021417 0.000000
# 4 0.000000 0.000000 0.000000 0.092380 0.000000 0.060200
# 5 0.021015 0.004630 0.021417 0.000000 0.086672 0.000000
# 6 0.000000 0.000000 0.000000 0.060200 0.000000 0.104892
#
#
# Mechanical properties :
#
#
# Convention : Reuss Voigt Hill
#
# Bulk Modulus (GPa) = 24.20709 67.63468 45.92089
# Shear Modulus (GPa) = 14.32660 26.18842 20.25751
#
# Velocity S-wave (km/s) = 2.77181 3.74755 3.29599
# Velocity P-wave (km/s) = 4.81929 7.41594 6.25386
#
# Compressibility (1/GPa) = 0.04131021
#
# Stress axis : x y z
#
# Youngs Moduli (GPa) = 57.14696 96.18450 54.33942
#
# Poissons Ratio (x) = 0.23326 -0.18019
# Poissons Ratio (y) = 0.13859 0.18393
# Poissons Ratio (z) = -0.18950 0.32558
#
# Static dielectric constant tensor:
#      x y z
#    x 3.234240 0.000000 -0.342150 
#    y 0.000000 3.779880 0.000000 
#    z -0.342150 0.000000 3.067320 
# 
# 
# High freq. dielectric constant tensor:
#      x y z
#    x 1.696690 0.000000 -0.031390 
#    y 0.000000 1.739820 0.000000 
#    z -0.031390 0.000000 1.698000 
# 
# From -- ./inp_files/34068.got.cif
#   From: 2010.06.25/outbox.cif.g09.slc.cpg/sg10_18_cif.got.tgz:34068.got - 2010.06.27 22:07:45.
