data_PCOD8060263
_publ_section_title
;
Structure prediction by ZEFSAII (Michael W. Deem and Ramdas Pophale) SiO2 
 PCOD8060263
Probable space group: P 2/M
;
_chemical_formula_sum "Si O2"
_cell_formula_units_Z 18
_cell_length_a 16.817788
_cell_length_b 10.713415
_cell_length_c 5.025275
_cell_angle_alpha 90.000000
_cell_angle_beta 91.352209
_cell_angle_gamma 90.000000
_cell_volume 905.181514
_symmetry_space_group_name_H-M "P 2/M"
_symmetry_group_IT_number 10
_symmetry_cell_setting 'monoclinic'
loop_
_space_group_symop_operation_xyz
x,y,z
-x,y,-z
-x,-y,-z
x,-y,z
loop_
_atom_site_type_symbol
_atom_site_label
_atom_site_fract_x
_atom_site_fract_y
_atom_site_fract_z
Si Si1 0.412673 0.143863 0.511058
Si Si2 0.148654 0.749855 0.848818
Si Si3 0.688151 0.145671 0.982098
Si Si4 0.058227 0.500000 0.756132
Si Si5 0.077426 0.143502 0.361707
O O1 0.500000 0.208081 0.500000
O O2 0.350841 0.198423 0.291329
O O3 0.422719 0.000000 0.432293
O O4 0.378692 0.162497 0.800803
O O5 0.238372 0.761715 0.960271
O O6 0.090060 0.790984 0.081367
O O7 0.120800 0.613599 0.758294
O O8 0.147046 0.837680 0.584735
O O9 0.716839 0.000000 0.964440
O O10 0.000000 0.500000 0.500000
O O11 0.000000 0.500000 0.000000
O O12 0.000000 0.203085 0.500000
O O13 0.064623 0.000000 0.294121
#
# Coordination Sequence:
#
# PCOD8060263 Si02
#       5
#     4   4   4   2   4
#     4   9  17  30  49  77 113 147 175 206 259 335
#     4  12  23  38  57  81 110 145 189 238 281 328
#     4  10  19  31  51  80 111 141 175 222 277 326
#     4  12  26  44  62  78 105 150 199 242 280 328
#     4  11  22  36  56  81 110 142 177 225 287 349
#
# _framework density 19.885514000000001
#
# number of rings (size 3 to 8) (size 9 to 14) (size 15 to 20)
#    0.000    1.333    0.000    8.000    0.000    6.222 
#    0.000    0.000    0.000    0.000    0.000    4.667 
#    0.000    0.000    0.000    0.000    0.000    0.000 
#
# Total GULP energy -223172.905091 kJ/mol
# GULP energy per Si atom -12398.494727 kJ/mol
# Density = 1.984025 g / cm^3
# Si number density = 19.885514 Si / 1000 Ang^3
#
#
#
# Elastic Constant Matrix: (Units=GPa)
#
#
# Indices 1 2 3 4 5 6 
#
# 1 100.0380 42.1086 -0.2448 0.0000 14.8221 0.0000
# 2 42.1086 63.9160 28.6314 0.0000 5.2685 0.0000
# 3 -0.2448 28.6314 94.4243 0.0000 10.4217 0.0000
# 4 0.0000 0.0000 0.0000 18.5501 0.0000 4.2475
# 5 14.8221 5.2685 10.4217 0.0000 39.1068 0.0000
# 6 0.0000 0.0000 0.0000 4.2475 0.0000 19.2801
#
#
#
# Elastic Compliance Matrix: (Units=1/GPa)
#
#
# Indices 1 2 3 4 5 6 
#
# 1 0.015824 -0.011874 0.004252 0.000000 -0.005531 0.000000
# 2 -0.011874 0.027053 -0.008581 0.000000 0.003142 0.000000
# 3 0.004252 -0.008581 0.013655 0.000000 -0.004095 0.000000
# 4 0.000000 0.000000 0.000000 0.056772 0.000000 -0.012507
# 5 -0.005531 0.003142 -0.004095 0.000000 0.028335 0.000000
# 6 0.000000 0.000000 0.000000 -0.012507 0.000000 0.054622
#
#
# Mechanical properties :
#
#
# Convention : Reuss Voigt Hill
#
# Bulk Modulus (GPa) = 41.44716 44.37431 42.91074
# Shear Modulus (GPa) = 21.12295 27.91293 24.51794
#
# Velocity S-wave (km/s) = 3.26272 3.75064 3.51516
# Velocity P-wave (km/s) = 5.92300 6.41247 6.17259
#
# Compressibility (1/GPa) = 0.02412710
#
# Stress axis : x y z
#
# Youngs Moduli (GPa) = 63.19457 36.96461 73.23177
#
# Poissons Ratio (x) = 0.43891 -0.31137
# Poissons Ratio (y) = 0.75036 0.62838
# Poissons Ratio (z) = -0.26870 0.31718
#
# Static dielectric constant tensor:
#      x y z
#    x 3.680400 0.000000 0.144690 
#    y 0.000000 3.216330 0.000000 
#    z 0.144690 0.000000 3.826530 
# 
# 
# High freq. dielectric constant tensor:
#      x y z
#    x 1.780450 0.000000 0.007660 
#    y 0.000000 1.716360 0.000000 
#    z 0.007660 0.000000 1.804340 
# 
# From -- ./inp_files/8779.got.cif
#   From: 2010.06.25/outbox.cif.g09.slc.cpg/sg10_5_cif.got.tgz:8779.got - 2010.06.27 22:07:45.
