data_PCOD8060426
_publ_section_title
;
Structure prediction by ZEFSAII (Michael W. Deem and Ramdas Pophale) SiO2 
 PCOD8060426
Probable space group: P 2/M
;
_chemical_formula_sum "Si O2"
_cell_formula_units_Z 32
_cell_length_a 29.213852
_cell_length_b 8.751632
_cell_length_c 20.293622
_cell_angle_alpha 90.000000
_cell_angle_beta 159.902644
_cell_angle_gamma 90.000000
_cell_volume 1782.835486
_symmetry_space_group_name_H-M "P 2/M"
_symmetry_group_IT_number 10
_symmetry_cell_setting 'monoclinic'
loop_
_space_group_symop_operation_xyz
x,y,z
-x,y,-z
-x,-y,-z
x,-y,z
loop_
_atom_site_type_symbol
_atom_site_label
_atom_site_fract_x
_atom_site_fract_y
_atom_site_fract_z
Si Si1 0.897026 0.681040 0.023469
Si Si2 0.351398 0.682665 0.056294
Si Si3 0.825031 0.820225 0.567720
Si Si4 0.144334 0.319635 0.176652
Si Si5 0.814249 0.324505 0.048706
Si Si6 0.350192 0.682061 0.562458
Si Si7 0.141383 0.681795 0.666663
Si Si8 0.881538 0.675833 0.510398
O O1 0.918960 0.500000 0.060567
O O2 0.812332 0.745394 0.971587
O O3 0.043352 0.752587 0.220578
O O4 0.822314 0.722808 0.854398
O O5 0.345773 0.500000 0.049844
O O6 0.500941 0.742507 0.249454
O O7 0.293034 0.750539 0.046530
O O8 0.260396 0.744532 0.873357
O O9 0.698060 0.751486 0.433835
O O10 0.813745 0.776120 0.475642
O O11 0.826256 0.000000 0.576776
O O12 0.138921 0.500000 0.178668
O O13 0.258443 0.253865 0.378625
O O14 0.000000 0.249817 0.000000
O O15 0.775589 0.500000 0.990039
O O16 0.959691 0.302615 0.276224
O O17 0.346060 0.500000 0.561210
O O18 0.133537 0.500000 0.659234
O O19 0.171550 0.732731 0.632264
O O20 0.000000 0.749778 0.500000
O O21 0.844494 0.500000 0.473891
#
# Coordination Sequence:
#
# PCOD8060426 Si02
#       8
#     4   4   4   4   4   4   4   4
#     4   9  16  29  50  72  95 125 159 194 239 289
#     4   9  16  26  44  74 103 124 155 197 237 280
#     4  11  21  32  47  69  97 124 160 205 244 281
#     4   9  15  26  46  70  95 124 163 198 232 280
#     4   8  13  23  42  71  99 121 147 187 235 279
#     4  10  19  32  49  68  96 132 162 194 238 287
#     4   9  14  24  46  78 105 122 151 197 240 278
#     4   9  16  28  50  74  98 126 155 190 239 289
#
# _framework density 17.948936
#
# number of rings (size 3 to 8) (size 9 to 14) (size 15 to 20)
#    0.000    2.750    2.500    1.875    0.000    0.000 
#    0.000    2.500    0.000   11.625    0.000    0.000 
#    0.000    5.000    0.000    0.000    0.000    0.000 
#
# Total GULP energy -396593.634734 kJ/mol
# GULP energy per Si atom -12393.551085 kJ/mol
# Density = 1.790808 g / cm^3
# Si number density = 17.948936 Si / 1000 Ang^3
#
#
#
# Elastic Constant Matrix: (Units=GPa)
#
#
# Indices 1 2 3 4 5 6 
#
# 1 159.3529 22.8645 75.9577 0.0000 1.4348 0.0000
# 2 22.8645 28.1922 14.1830 0.0000 3.4722 0.0000
# 3 75.9577 14.1830 113.6255 0.0000 -0.8306 0.0000
# 4 0.0000 0.0000 0.0000 3.1188 0.0000 -1.5746
# 5 1.4348 3.4722 -0.8306 0.0000 29.0854 0.0000
# 6 0.0000 0.0000 0.0000 -1.5746 0.0000 3.5432
#
#
#
# Elastic Compliance Matrix: (Units=1/GPa)
#
#
# Indices 1 2 3 4 5 6 
#
# 1 0.009824 -0.004968 -0.005947 0.000000 -0.000061 0.000000
# 2 -0.004968 0.041000 -0.001831 0.000000 -0.004702 0.000000
# 3 -0.005947 -0.001831 0.013012 0.000000 0.000884 0.000000
# 4 0.000000 0.000000 0.000000 0.413377 0.000000 0.183702
# 5 -0.000061 -0.004702 0.000884 0.000000 0.034971 0.000000
# 6 0.000000 0.000000 0.000000 0.183702 0.000000 0.363870
#
#
# Mechanical properties :
#
#
# Convention : Reuss Voigt Hill
#
# Bulk Modulus (GPa) = 26.08052 58.57565 42.32809
# Shear Modulus (GPa) = 5.46850 19.69384 12.58117
#
# Velocity S-wave (km/s) = 1.74737 3.31602 2.65040
# Velocity P-wave (km/s) = 4.31660 6.88235 5.74455
#
# Compressibility (1/GPa) = 0.03834279
#
# Stress axis : x y z
#
# Youngs Moduli (GPa) = 101.79577 24.39021 76.85416
#
# Poissons Ratio (x) = 0.12116 0.45708
# Poissons Ratio (y) = 0.50568 0.14074
# Poissons Ratio (z) = 0.60542 0.04467
#
# Static dielectric constant tensor:
#      x y z
#    x 3.724620 0.000000 -0.103490 
#    y 0.000000 2.710220 0.000000 
#    z -0.103490 0.000000 3.267660 
# 
# 
# High freq. dielectric constant tensor:
#      x y z
#    x 1.718010 0.000000 -0.009630 
#    y 0.000000 1.631570 0.000000 
#    z -0.009630 0.000000 1.667500 
# 
# From -- ./inp_files/54800.got.cif
#   From: 2010.06.25/outbox.cif.g09.slc.cpg/sg10_28_cif.got.tgz:54800.got - 2010.06.27 22:07:45.
