data_PCOD8060668
_publ_section_title
;
Structure prediction by ZEFSAII (Michael W. Deem and Ramdas Pophale) SiO2 
 PCOD8060668
Probable space group: P 2/M
;
_chemical_formula_sum "Si O2"
_cell_formula_units_Z 32
_cell_length_a 25.098833
_cell_length_b 9.273399
_cell_length_c 20.123750
_cell_angle_alpha 90.000000
_cell_angle_beta 157.060644
_cell_angle_gamma 90.000000
_cell_volume 1825.554829
_symmetry_space_group_name_H-M "P 2/M"
_symmetry_group_IT_number 10
_symmetry_cell_setting 'monoclinic'
loop_
_space_group_symop_operation_xyz
x,y,z
-x,y,-z
-x,-y,-z
x,-y,z
loop_
_atom_site_type_symbol
_atom_site_label
_atom_site_fract_x
_atom_site_fract_y
_atom_site_fract_z
Si Si1 0.780507 0.170756 0.624767
Si Si2 0.154039 0.831320 0.160227
Si Si3 0.681708 0.665767 0.042085
Si Si4 0.370161 0.667081 0.658782
Si Si5 0.125335 0.665931 0.856690
Si Si6 0.090562 0.829300 0.947341
Si Si7 0.845785 0.170300 0.340445
Si Si8 0.839031 0.669307 0.466856
O O1 0.757444 0.226615 0.675183
O O2 0.666283 0.245525 0.449123
O O3 0.931531 0.214279 0.772623
O O4 0.761554 0.000000 0.598681
O O5 0.176020 0.000000 0.182956
O O6 0.178959 0.773239 0.113563
O O7 0.000000 0.792881 0.000000
O O8 0.705177 0.500000 0.091270
O O9 0.747934 0.692752 0.046306
O O10 0.746980 0.772050 0.170071
O O11 0.523141 0.704856 0.855676
O O12 0.352397 0.500000 0.621233
O O13 0.272071 0.713160 0.606099
O O14 0.109094 0.500000 0.858373
O O15 0.154722 0.755188 0.956787
O O16 0.987320 0.719815 0.662480
O O17 0.104229 0.000000 0.955245
O O18 0.801079 0.243151 0.357639
O O19 0.000000 0.215146 0.500000
O O20 0.828396 0.000000 0.326721
O O21 0.836242 0.500000 0.447047
#
# Coordination Sequence:
#
# PCOD8060668 Si02
#       8
#     4   4   4   4   4   4   4   4
#     4   9  16  28  49  74 103 137 168 204 252 301
#     4   7  12  24  42  69 102 134 167 201 246 300
#     4  10  22  39  56  73 100 138 170 200 249 308
#     4  10  21  36  53  76 104 133 169 209 248 296
#     4  10  19  32  52  76 100 131 171 209 246 295
#     4   9  16  27  48  76 104 133 167 210 253 294
#     4  11  23  37  56  81 105 128 163 212 253 291
#     4  10  20  35  56  77 100 133 169 205 247 299
#
# _framework density 17.528918000000001
#
# number of rings (size 3 to 8) (size 9 to 14) (size 15 to 20)
#    0.000    2.500    2.500    1.875    0.000    3.000 
#    0.000    3.125    0.000    3.000    0.000    5.250 
#    0.000    0.000    0.000    0.000    0.000    0.000 
#
# Total GULP energy -396640.182120 kJ/mol
# GULP energy per Si atom -12395.005691 kJ/mol
# Density = 1.748902 g / cm^3
# Si number density = 17.528918 Si / 1000 Ang^3
#
#
#
# Elastic Constant Matrix: (Units=GPa)
#
#
# Indices 1 2 3 4 5 6 
#
# 1 93.5726 39.0312 46.6463 0.0000 -23.0574 0.0000
# 2 39.0312 47.0465 35.2663 0.0000 -15.3506 0.0000
# 3 46.6463 35.2663 79.5074 0.0000 -10.3916 0.0000
# 4 0.0000 0.0000 0.0000 -15.7615 0.0000 14.3173
# 5 -23.0574 -15.3506 -10.3916 0.0000 35.2614 0.0000
# 6 0.0000 0.0000 0.0000 14.3173 0.0000 16.3780
#
#
#
# Elastic Compliance Matrix: (Units=1/GPa)
#
#
# Indices 1 2 3 4 5 6 
#
# 1 0.019337 -0.008955 -0.006479 0.000000 0.006836 0.000000
# 2 -0.008955 0.039860 -0.011362 0.000000 0.008149 0.000000
# 3 -0.006479 -0.011362 0.021028 0.000000 -0.002986 0.000000
# 4 0.000000 0.000000 0.000000 -0.035364 0.000000 0.030914
# 5 0.006836 0.008149 -0.002986 0.000000 0.035498 0.000000
# 6 0.000000 0.000000 0.000000 0.030914 0.000000 0.034033
#
#
# Mechanical properties :
#
#
# Convention : Reuss Voigt Hill
#
# Bulk Modulus (GPa) = 37.54632 51.33490 44.44061
# Shear Modulus (GPa) = 28.27089 13.78777 21.02933
#
# Velocity S-wave (km/s) = 4.02034 2.80763 3.46742
# Velocity P-wave (km/s) = 6.55874 6.31346 6.43727
#
# Compressibility (1/GPa) = 0.02663377
#
# Stress axis : x y z
#
# Youngs Moduli (GPa) = 51.71551 25.08756 47.55561
#
# Poissons Ratio (x) = 0.22465 0.30812
# Poissons Ratio (y) = 0.46310 0.54031
# Poissons Ratio (z) = 0.33507 0.28504
#
# Static dielectric constant tensor:
#      x y z
#    x 3.416240 0.000000 -0.206750 
#    y 0.000000 3.050150 0.000000 
#    z -0.206750 0.000000 3.176060 
# 
# 
# High freq. dielectric constant tensor:
#      x y z
#    x 1.683760 0.000000 -0.022230 
#    y 0.000000 1.659060 0.000000 
#    z -0.022230 0.000000 1.660780 
# 
# From -- ./inp_files/86992.got.cif
#   From: 2010.06.25/outbox.cif.g09.slc.cpg/sg10_44_cif.got.tgz:86992.got - 2010.06.27 22:07:45.
