data_PCOD8060953
_publ_section_title
;
Structure prediction by ZEFSAII (Michael W. Deem and Ramdas Pophale) SiO2 
 PCOD8060953
Probable space group: P 2/M
;
_chemical_formula_sum "Si O2"
_cell_formula_units_Z 24
_cell_length_a 24.034093
_cell_length_b 9.234326
_cell_length_c 12.521133
_cell_angle_alpha 90.000000
_cell_angle_beta 151.162233
_cell_angle_gamma 90.000000
_cell_volume 1340.361420
_symmetry_space_group_name_H-M "P 2/M"
_symmetry_group_IT_number 10
_symmetry_cell_setting 'monoclinic'
loop_
_space_group_symop_operation_xyz
x,y,z
-x,y,-z
-x,-y,-z
x,-y,z
loop_
_atom_site_type_symbol
_atom_site_label
_atom_site_fract_x
_atom_site_fract_y
_atom_site_fract_z
Si Si1 0.627852 0.331803 0.490228
Si Si2 0.264352 0.170210 0.139245
Si Si3 0.368830 0.332425 0.123082
Si Si4 0.009054 0.830605 0.636818
Si Si5 0.623516 0.328494 0.241386
Si Si6 0.792660 0.329267 0.344055
O O1 0.656268 0.500000 0.557296
O O2 0.709697 0.235437 0.701446
O O3 0.494513 0.299343 0.288751
O O4 0.655034 0.284324 0.414855
O O5 0.350861 0.238756 0.198659
O O6 0.285465 0.000000 0.176029
O O7 0.133777 0.210533 0.891149
O O8 0.355345 0.500000 0.131643
O O9 0.276597 0.286136 0.878960
O O10 0.000000 0.775878 0.500000
O O11 0.915938 0.747969 0.552100
O O12 0.983062 0.000000 0.600571
O O13 0.614485 0.500000 0.214592
O O14 0.722513 0.270513 0.328635
O O15 0.500000 0.261017 0.000000
O O16 0.811945 0.500000 0.383056
#
# Coordination Sequence:
#
# PCOD8060953 Si02
#       6
#     4   4   4   4   4   4
#     4  10  20  35  56  81 112 144 173 213 267 323
#     4  11  23  37  53  75 108 147 183 220 265 317
#     4  10  19  32  54  84 112 137 170 217 270 321
#     4  10  21  38  55  73 104 146 184 220 267 314
#     4   9  16  32  57  83 110 139 172 214 265 317
#     4  10  19  32  57  88 108 131 176 224 264 313
#
# _framework density 17.905618
#
# number of rings (size 3 to 8) (size 9 to 14) (size 15 to 20)
#    0.000    2.000    3.333    1.000    0.000    4.333 
#    0.000    1.667    0.000    6.000    0.000    0.000 
#    0.000    0.000    0.000    0.000    0.000    0.000 
#
# Total GULP energy -297683.410191 kJ/mol
# GULP energy per Si atom -12403.475425 kJ/mol
# Density = 1.786486 g / cm^3
# Si number density = 17.905618 Si / 1000 Ang^3
#
#
#
# Elastic Constant Matrix: (Units=GPa)
#
#
# Indices 1 2 3 4 5 6 
#
# 1 130.7645 37.8815 39.6109 0.0000 -1.0015 0.0000
# 2 37.8815 44.3992 39.1273 0.0000 -0.5502 0.0000
# 3 39.6109 39.1273 77.0189 0.0000 -1.7545 0.0000
# 4 0.0000 0.0000 0.0000 27.9746 0.0000 -1.7286
# 5 -1.0015 -0.5502 -1.7545 0.0000 26.0431 0.0000
# 6 0.0000 0.0000 0.0000 -1.7286 0.0000 3.2458
#
#
#
# Elastic Compliance Matrix: (Units=1/GPa)
#
#
# Indices 1 2 3 4 5 6 
#
# 1 0.010253 -0.007427 -0.001497 0.000000 0.000137 0.000000
# 2 -0.007427 0.046168 -0.019649 0.000000 -0.000634 0.000000
# 3 -0.001497 -0.019649 0.023762 0.000000 0.001128 0.000000
# 4 0.000000 0.000000 0.000000 0.036963 0.000000 0.019685
# 5 0.000137 -0.000634 0.001128 0.000000 0.038466 0.000000
# 6 0.000000 0.000000 0.000000 0.019685 0.000000 0.318576
#
#
# Mechanical properties :
#
#
# Convention : Reuss Voigt Hill
#
# Bulk Modulus (GPa) = 43.40949 53.93578 48.67264
# Shear Modulus (GPa) = 9.27622 20.49023 14.88323
#
# Velocity S-wave (km/s) = 2.27857 3.38649 2.88619
# Velocity P-wave (km/s) = 5.58736 6.74379 6.19263
#
# Compressibility (1/GPa) = 0.02303644
#
# Stress axis : x y z
#
# Youngs Moduli (GPa) = 97.52769 21.66004 42.08480
#
# Poissons Ratio (x) = 0.16088 0.06300
# Poissons Ratio (y) = 0.72437 0.82692
# Poissons Ratio (z) = 0.14600 0.42560
#
# Static dielectric constant tensor:
#      x y z
#    x 3.423610 0.000000 -0.055410 
#    y 0.000000 3.064780 0.000000 
#    z -0.055410 0.000000 3.322180 
# 
# 
# High freq. dielectric constant tensor:
#      x y z
#    x 1.697890 0.000000 -0.000660 
#    y 0.000000 1.669510 0.000000 
#    z -0.000660 0.000000 1.693760 
# 
# From -- ./inp_files/45286.got.cif
#   From: 2010.06.25/outbox.cif.g09.slc.cpg/sg10_23_cif.got.tgz:45286.got - 2010.06.27 22:07:45.
