data_PCOD8060580
_publ_section_title
;
Structure prediction by ZEFSAII (Michael W. Deem and Ramdas Pophale) SiO2 
 PCOD8060580
Probable space group: P 2/M
;
_chemical_formula_sum "Si O2"
_cell_formula_units_Z 28
_cell_length_a 10.599808
_cell_length_b 9.241835
_cell_length_c 16.108655
_cell_angle_alpha 90.000000
_cell_angle_beta 109.727511
_cell_angle_gamma 90.000000
_cell_volume 1485.413976
_symmetry_space_group_name_H-M "P 2/M"
_symmetry_group_IT_number 10
_symmetry_cell_setting 'monoclinic'
loop_
_space_group_symop_operation_xyz
x,y,z
-x,y,-z
-x,-y,-z
x,-y,z
loop_
_atom_site_type_symbol
_atom_site_label
_atom_site_fract_x
_atom_site_fract_y
_atom_site_fract_z
Si Si1 0.703240 0.669087 0.415824
Si Si2 0.066208 0.169495 0.926803
Si Si3 0.015511 0.659223 0.242086
Si Si4 0.540312 0.843798 0.603218
Si Si5 0.816026 0.830065 0.597516
Si Si6 0.724094 0.656803 0.236296
Si Si7 0.360323 0.829993 0.930375
O O1 0.715548 0.500000 0.440728
O O2 0.546687 0.715425 0.377096
O O3 0.786594 0.760832 0.501107
O O4 0.757268 0.710017 0.336921
O O5 0.225439 0.213243 0.953470
O O6 0.969773 0.250568 0.839552
O O7 0.051814 0.000000 0.905986
O O8 0.000000 0.211668 0.000000
O O9 0.085866 0.500000 0.251773
O O10 0.061023 0.749102 0.332847
O O11 0.859857 0.634442 0.217905
O O12 0.500000 0.865771 0.500000
O O13 0.696599 0.802447 0.637387
O O14 0.517116 0.000000 0.643383
O O15 0.845017 0.000000 0.591000
O O16 0.649889 0.500000 0.225212
O O17 0.638070 0.768641 0.163242
O O18 0.366676 0.000000 0.922944
O O19 0.500000 0.770922 0.000000
#
# Coordination Sequence:
#
# PCOD8060580 Si02
#       7
#     4   4   4   4   4   4   4
#     4  10  19  32  51  74 103 136 174 214 255 305
#     4   9  18  35  57  78 106 139 171 214 268 316
#     4  10  20  35  54  75 103 137 174 212 255 305
#     4   8  16  31  48  67  95 131 169 210 256 301
#     4  10  20  34  51  73 103 137 175 214 258 306
#     4   9  20  36  52  74 105 139 169 207 260 309
#     4   9  18  34  56  80 104 134 176 218 257 311
#
# _framework density 18.849965000000001
#
# number of rings (size 3 to 8) (size 9 to 14) (size 15 to 20)
#    0.000    2.714    0.000    2.143    0.000    6.000 
#    2.571    2.857    0.000    0.000    0.000    0.000 
#    0.000    0.000    0.000    0.000    0.000    0.000 
#
# Total GULP energy -346874.649394 kJ/mol
# GULP energy per Si atom -12388.380336 kJ/mol
# Density = 1.880706 g / cm^3
# Si number density = 18.849965 Si / 1000 Ang^3
#
#
#
# Elastic Constant Matrix: (Units=GPa)
#
#
# Indices 1 2 3 4 5 6 
#
# 1 49.0244 29.7249 38.8792 0.0000 -4.7091 0.0000
# 2 29.7249 95.8906 65.8859 0.0000 -3.2468 0.0000
# 3 38.8792 65.8859 126.7350 0.0000 -6.8308 0.0000
# 4 0.0000 0.0000 0.0000 33.6786 0.0000 -0.4982
# 5 -4.7091 -3.2468 -6.8308 0.0000 29.1591 0.0000
# 6 0.0000 0.0000 0.0000 -0.4982 0.0000 21.1586
#
#
#
# Elastic Compliance Matrix: (Units=1/GPa)
#
#
# Indices 1 2 3 4 5 6 
#
# 1 0.028262 -0.004375 -0.006255 0.000000 0.002612 0.000000
# 2 -0.004375 0.016902 -0.007476 0.000000 -0.000576 0.000000
# 3 -0.006255 -0.007476 0.013770 0.000000 0.001383 0.000000
# 4 0.000000 0.000000 0.000000 0.029703 0.000000 0.000699
# 5 0.002612 -0.000576 0.001383 0.000000 0.034976 0.000000
# 6 0.000000 0.000000 0.000000 0.000699 0.000000 0.047278
#
#
# Mechanical properties :
#
#
# Convention : Reuss Voigt Hill
#
# Bulk Modulus (GPa) = 44.00788 60.07001 52.03895
# Shear Modulus (GPa) = 23.29083 25.94326 24.61705
#
# Velocity S-wave (km/s) = 3.51891 3.71388 3.61771
# Velocity P-wave (km/s) = 6.31723 7.09416 6.71694
#
# Compressibility (1/GPa) = 0.02272320
#
# Stress axis : x y z
#
# Youngs Moduli (GPa) = 35.38324 59.16591 72.61981
#
# Poissons Ratio (x) = 0.25883 0.45424
# Poissons Ratio (y) = 0.15479 0.54288
# Poissons Ratio (z) = 0.22133 0.44231
#
# Static dielectric constant tensor:
#      x y z
#    x 3.780950 0.000000 0.055870 
#    y 0.000000 3.726800 0.000000 
#    z 0.055870 0.000000 3.319590 
# 
# 
# High freq. dielectric constant tensor:
#      x y z
#    x 1.714830 0.000000 0.000480 
#    y 0.000000 1.739570 0.000000 
#    z 0.000480 0.000000 1.718430 
# 
# From -- ./inp_files/49080.got.cif
#   From: 2010.06.25/outbox.cif.g09.slc.cpg/sg10_25_cif.got.tgz:49080.got - 2010.06.27 22:07:45.
