data_PCOD8060998
_publ_section_title
;
Structure prediction by ZEFSAII (Michael W. Deem and Ramdas Pophale) SiO2 
 PCOD8060998
Probable space group: P 2/M
;
_chemical_formula_sum "Si O2"
_cell_formula_units_Z 28
_cell_length_a 21.939573
_cell_length_b 10.310977
_cell_length_c 19.152154
_cell_angle_alpha 90.000000
_cell_angle_beta 160.847492
_cell_angle_gamma 90.000000
_cell_volume 1421.445889
_symmetry_space_group_name_H-M "P 2/M"
_symmetry_group_IT_number 10
_symmetry_cell_setting 'monoclinic'
loop_
_space_group_symop_operation_xyz
x,y,z
-x,y,-z
-x,-y,-z
x,-y,z
loop_
_atom_site_type_symbol
_atom_site_label
_atom_site_fract_x
_atom_site_fract_y
_atom_site_fract_z
Si Si1 0.271966 0.353719 0.352001
Si Si2 0.283344 0.140590 0.254320
Si Si3 0.023244 0.149739 0.601351
Si Si4 0.232880 0.852298 0.552892
Si Si5 0.636491 0.849497 0.942461
Si Si6 0.932710 0.357363 0.728096
Si Si7 0.328559 0.276829 0.167585
O O1 0.227683 0.500000 0.278762
O O2 0.204976 0.254429 0.219429
O O3 0.152023 0.315718 0.289487
O O4 0.492230 0.347672 0.606230
O O5 0.500000 0.130215 0.500000
O O6 0.250576 0.169378 0.137166
O O7 0.191748 0.000000 0.173046
O O8 0.000000 0.216795 0.500000
O O9 0.832588 0.167155 0.438099
O O10 0.074632 0.000000 0.644997
O O11 0.193697 0.212524 0.829616
O O12 0.451219 0.824318 0.786658
O O13 0.119490 0.753219 0.382908
O O14 0.188742 0.000000 0.480342
O O15 0.611390 0.783444 0.840774
O O16 0.673944 0.000000 0.968816
O O17 0.853137 0.500000 0.620899
O O18 0.155719 0.373560 0.970907
#
# Coordination Sequence:
#
# PCOD8060998 Si02
#       7
#     4   4   4   4   4   4   4
#     4  10  22  39  56  78 111 148 188 238 288 337
#     4   9  20  36  56  81 110 146 188 237 289 337
#     4   9  18  33  55  87 123 150 180 226 280 336
#     4  10  20  35  57  85 114 150 187 229 282 334
#     4  10  19  32  55  85 115 148 188 231 279 332
#     4  11  23  37  56  85 113 146 193 240 282 336
#     4  11  20  35  58  80 109 148 193 235 284 334
#
# _framework density 19.698252
#
# number of rings (size 3 to 8) (size 9 to 14) (size 15 to 20)
#    0.000    2.000    2.857    0.857    0.000    6.000 
#    0.000    5.000    0.000    0.429    0.000    1.000 
#    0.000    0.000    0.000    0.000    0.000    0.000 
#
# Total GULP energy -347088.090139 kJ/mol
# GULP energy per Si atom -12396.003219 kJ/mol
# Density = 1.965342 g / cm^3
# Si number density = 19.698252 Si / 1000 Ang^3
#
#
#
# Elastic Constant Matrix: (Units=GPa)
#
#
# Indices 1 2 3 4 5 6 
#
# 1 144.4582 54.9237 39.9544 0.0000 -3.7123 0.0000
# 2 54.9237 93.8038 13.0662 0.0000 -7.5902 0.0000
# 3 39.9544 13.0662 66.1472 0.0000 6.4318 0.0000
# 4 0.0000 0.0000 0.0000 2.7339 0.0000 -3.4401
# 5 -3.7123 -7.5902 6.4318 0.0000 36.7563 0.0000
# 6 0.0000 0.0000 0.0000 -3.4401 0.0000 11.4243
#
#
#
# Elastic Compliance Matrix: (Units=1/GPa)
#
#
# Indices 1 2 3 4 5 6 
#
# 1 0.010437 -0.005294 -0.005345 0.000000 0.000896 0.000000
# 2 -0.005294 0.013915 0.000225 0.000000 0.002299 0.000000
# 3 -0.005345 0.000225 0.018668 0.000000 -0.003760 0.000000
# 4 0.000000 0.000000 0.000000 0.588929 0.000000 0.177338
# 5 0.000896 0.002299 -0.003760 0.000000 0.028429 0.000000
# 6 0.000000 0.000000 0.000000 0.177338 0.000000 0.140933
#
#
# Mechanical properties :
#
#
# Convention : Reuss Voigt Hill
#
# Bulk Modulus (GPa) = 45.06247 57.81086 51.43666
# Shear Modulus (GPa) = 6.02747 23.28056 14.65402
#
# Velocity S-wave (km/s) = 1.75116 3.44155 2.73046
# Velocity P-wave (km/s) = 5.19757 6.72341 6.00912
#
# Compressibility (1/GPa) = 0.02219142
#
# Stress axis : x y z
#
# Youngs Moduli (GPa) = 95.81688 71.86615 53.56871
#
# Poissons Ratio (x) = 0.38044 0.28635
# Poissons Ratio (y) = 0.50722 -0.01207
# Poissons Ratio (z) = 0.51218 -0.01619
#
# Static dielectric constant tensor:
#      x y z
#    x 3.686270 0.000000 0.047800 
#    y 0.000000 3.477480 0.000000 
#    z 0.047800 0.000000 3.640780 
# 
# 
# High freq. dielectric constant tensor:
#      x y z
#    x 1.771730 0.000000 0.015620 
#    y 0.000000 1.742550 0.000000 
#    z 0.015620 0.000000 1.762560 
# 
# From -- ./inp_files/79560.got.cif
#   From: 2010.06.25/outbox.cif.g09.slc.cpg/sg10_40_cif.got.tgz:79560.got - 2010.06.27 22:07:45.
