data_PCOD8060647
_publ_section_title
;
Structure prediction by ZEFSAII (Michael W. Deem and Ramdas Pophale) SiO2 
 PCOD8060647
Probable space group: P 2/M
;
_chemical_formula_sum "Si O2"
_cell_formula_units_Z 32
_cell_length_a 19.013999
_cell_length_b 13.982679
_cell_length_c 22.721672
_cell_angle_alpha 90.000000
_cell_angle_beta 18.745716
_cell_angle_gamma 90.000000
_cell_volume 1941.367103
_symmetry_space_group_name_H-M "P 2/M"
_symmetry_group_IT_number 10
_symmetry_cell_setting 'monoclinic'
loop_
_space_group_symop_operation_xyz
x,y,z
-x,y,-z
-x,-y,-z
x,-y,z
loop_
_atom_site_type_symbol
_atom_site_label
_atom_site_fract_x
_atom_site_fract_y
_atom_site_fract_z
Si Si1 0.444815 0.389634 0.888450
Si Si2 0.836373 0.389315 0.994785
Si Si3 0.586889 0.611783 0.605823
Si Si4 0.711736 0.301263 0.872916
Si Si5 0.314699 0.613727 0.604191
Si Si6 0.183136 0.292614 0.467408
Si Si7 0.400110 0.897440 0.014610
Si Si8 0.808833 0.108537 0.607192
O O1 0.483709 0.500000 0.844477
O O2 0.279435 0.344821 0.971213
O O3 0.682111 0.340210 0.693087
O O4 0.338831 0.376529 0.035980
O O5 0.877366 0.500000 0.949469
O O6 0.675586 0.373740 0.177828
O O7 0.078375 0.344962 0.812730
O O8 0.648440 0.500000 0.567638
O O9 0.644947 0.646848 0.494701
O O10 0.717115 0.678339 0.548492
O O11 0.932127 0.330904 0.664073
O O12 0.500000 0.299879 0.000000
O O13 0.756987 0.194989 0.864418
O O14 0.500000 0.658298 0.500000
O O15 0.327205 0.500000 0.598142
O O16 0.190106 0.178120 0.450515
O O17 0.582966 0.882039 0.820532
O O18 0.279607 0.000000 0.098229
O O19 0.500000 0.902168 0.000000
O O20 0.000000 0.140844 0.500000
O O21 0.848971 0.000000 0.553032
#
# Coordination Sequence:
#
# PCOD8060647 Si02
#       8
#     4   4   4   4   4   4   4   4
#     4  10  21  36  49  64  90 128 171 204 236 278
#     4   8  15  28  44  60  85 120 154 189 226 271
#     4   9  18  32  47  65  91 129 167 192 229 279
#     4  11  22  33  48  66  88 118 159 207 251 290
#     4   9  16  26  44  70  96 122 156 195 231 271
#     4  11  21  33  53  69  93 127 165 201 245 297
#     4   9  17  31  48  68  92 114 142 187 247 307
#     4  10  19  32  52  74  96 120 152 202 258 305
#
# _framework density 16.483229999999999
#
# number of rings (size 3 to 8) (size 9 to 14) (size 15 to 20)
#    0.000    2.375    1.250    3.375    0.000    4.250 
#    0.000    3.125    0.000    0.000    0.000    0.000 
#    0.000    0.500    0.000    5.750    0.000    5.250 
#
# Total GULP energy -396528.221265 kJ/mol
# GULP energy per Si atom -12391.506915 kJ/mol
# Density = 1.644571 g / cm^3
# Si number density = 16.483230 Si / 1000 Ang^3
#
#
#
# Elastic Constant Matrix: (Units=GPa)
#
#
# Indices 1 2 3 4 5 6 
#
# 1 65.4729 30.0618 36.4824 0.0000 -1.2162 0.0000
# 2 30.0618 52.7099 19.9478 0.0000 -4.5394 0.0000
# 3 36.4824 19.9478 122.3413 0.0000 -8.3439 0.0000
# 4 0.0000 0.0000 0.0000 17.5644 0.0000 5.6716
# 5 -1.2162 -4.5394 -8.3439 0.0000 23.6146 0.0000
# 6 0.0000 0.0000 0.0000 5.6716 0.0000 10.0246
#
#
#
# Elastic Compliance Matrix: (Units=1/GPa)
#
#
# Indices 1 2 3 4 5 6 
#
# 1 0.023536 -0.011662 -0.005315 0.000000 -0.002908 0.000000
# 2 -0.011662 0.026179 -0.000501 0.000000 0.004255 0.000000
# 3 -0.005315 -0.000501 0.010058 0.000000 0.003184 0.000000
# 4 0.000000 0.000000 0.000000 0.069659 0.000000 -0.039411
# 5 -0.002908 0.004255 0.003184 0.000000 0.044140 0.000000
# 6 0.000000 0.000000 0.000000 -0.039411 0.000000 0.122052
#
#
# Mechanical properties :
#
#
# Convention : Reuss Voigt Hill
#
# Bulk Modulus (GPa) = 40.29579 45.94534 43.12057
# Shear Modulus (GPa) = 14.75577 20.50954 17.63266
#
# Velocity S-wave (km/s) = 2.99523 3.53124 3.27423
# Velocity P-wave (km/s) = 6.03834 6.67538 6.36484
#
# Compressibility (1/GPa) = 0.02481649
#
# Stress axis : x y z
#
# Youngs Moduli (GPa) = 42.48843 38.19890 99.42690
#
# Poissons Ratio (x) = 0.44547 0.52848
# Poissons Ratio (y) = 0.49550 0.04978
# Poissons Ratio (z) = 0.22584 0.01912
#
# Static dielectric constant tensor:
#      x y z
#    x 2.937090 0.000000 0.029170 
#    y 0.000000 3.122150 0.000000 
#    z 0.029170 0.000000 3.390340 
# 
# 
# High freq. dielectric constant tensor:
#      x y z
#    x 1.601050 0.000000 0.015290 
#    y 0.000000 1.598240 0.000000 
#    z 0.015290 0.000000 1.655570 
# 
# From -- ./inp_files/85955.got.cif
#   From: 2010.06.25/outbox.cif.g09.slc.cpg/sg10_43_cif.got.tgz:85955.got - 2010.06.27 22:07:45.
