data_PCOD8060232
_publ_section_title
;
Structure prediction by ZEFSAII (Michael W. Deem and Ramdas Pophale) SiO2 
 PCOD8060232
Probable space group: P 2/M
;
_chemical_formula_sum "Si O2"
_cell_formula_units_Z 30
_cell_length_a 32.921605
_cell_length_b 8.259001
_cell_length_c 5.256230
_cell_angle_alpha 90.000000
_cell_angle_beta 105.149341
_cell_angle_gamma 90.000000
_cell_volume 1379.500178
_symmetry_space_group_name_H-M "P 2/M"
_symmetry_group_IT_number 10
_symmetry_cell_setting 'monoclinic'
loop_
_space_group_symop_operation_xyz
x,y,z
-x,y,-z
-x,-y,-z
x,-y,z
loop_
_atom_site_type_symbol
_atom_site_label
_atom_site_fract_x
_atom_site_fract_y
_atom_site_fract_z
Si Si1 0.452151 0.306658 0.421977
Si Si2 0.170742 0.689055 0.986205
Si Si3 0.951650 0.677168 0.996656
Si Si4 0.871006 0.314229 0.580495
Si Si5 0.685568 0.189848 0.298850
Si Si6 0.736456 0.189823 0.881424
Si Si7 0.971990 0.000000 0.209248
Si Si8 0.407434 0.688756 0.848797
O O1 0.500000 0.244687 0.500000
O O2 0.450261 0.500000 0.418838
O O3 0.428696 0.234734 0.631929
O O4 0.428603 0.234693 0.135387
O O5 0.160894 0.500000 0.979680
O O6 0.145066 0.768881 0.706579
O O7 0.219942 0.716920 0.036008
O O8 0.152763 0.767997 0.216671
O O9 0.939899 0.500000 0.104126
O O10 0.944548 0.832991 0.168911
O O11 0.921550 0.703386 0.701620
O O12 0.000000 0.670242 0.000000
O O13 0.857034 0.500000 0.543227
O O14 0.709988 0.242023 0.084660
O O15 0.642044 0.283528 0.233071
O O16 0.676263 0.000000 0.287745
O O17 0.712051 0.243975 0.588045
O O18 0.745737 0.000000 0.895712
O O19 0.000000 0.000000 0.500000
O O20 0.000000 0.000000 0.000000
O O21 0.417029 0.500000 0.864593
#
# Coordination Sequence:
#
# PCOD8060232 Si02
#       8
#     4   4   4   4   4   4   2   4
#     4   9  17  30  49  74 105 138 171 214 263 305
#     4  10  20  36  56  79 109 139 171 222 270 314
#     4   9  19  38  62  86 117 157 193 234 287 340
#     4   9  19  35  55  81 110 139 177 217 264 322
#     4  10  21  36  54  74 105 139 168 215 269 314
#     4  10  21  37  54  76 102 135 176 211 257 325
#     4  10  22  38  56  84 116 144 190 238 274 332
#     4  10  19  31  51  78 102 130 176 219 253 309
#
# _framework density 21.747007
#
# number of rings (size 3 to 8) (size 9 to 14) (size 15 to 20)
#    0.000    2.400    0.000    2.000    0.000    5.067 
#    2.400    4.000    0.000    2.400    0.000    0.000 
#    0.000    0.000    0.000    0.000    0.000    0.000 
#
# Total GULP energy -371831.480243 kJ/mol
# GULP energy per Si atom -12394.382675 kJ/mol
# Density = 2.169751 g / cm^3
# Si number density = 21.747007 Si / 1000 Ang^3
#
#
#
# Elastic Constant Matrix: (Units=GPa)
#
#
# Indices 1 2 3 4 5 6 
#
# 1 128.1023 -7.1554 63.0946 0.0000 4.2599 0.0000
# 2 -7.1554 61.2401 17.6179 0.0000 5.2347 0.0000
# 3 63.0946 17.6179 197.0799 0.0000 2.9883 0.0000
# 4 0.0000 0.0000 0.0000 3.9795 0.0000 -7.1957
# 5 4.2599 5.2347 2.9883 0.0000 43.9511 0.0000
# 6 0.0000 0.0000 0.0000 -7.1957 0.0000 -19.9869
#
#
#
# Elastic Compliance Matrix: (Units=1/GPa)
#
#
# Indices 1 2 3 4 5 6 
#
# 1 0.009549 0.002128 -0.003233 0.000000 -0.000959 0.000000
# 2 0.002128 0.017394 -0.002204 0.000000 -0.002128 0.000000
# 3 -0.003233 -0.002204 0.006304 0.000000 0.000147 0.000000
# 4 0.000000 0.000000 0.000000 0.152205 0.000000 -0.054797
# 5 -0.000959 -0.002128 0.000147 0.000000 0.023089 0.000000
# 6 0.000000 0.000000 0.000000 -0.054797 0.000000 -0.030305
#
#
# Mechanical properties :
#
#
# Convention : Reuss Voigt Hill
#
# Bulk Modulus (GPa) = 37.55296 59.28182 48.41739
# Shear Modulus (GPa) = 25.80903 26.44641 26.12772
#
# Velocity S-wave (km/s) = 3.44871 3.49104 3.46994
# Velocity P-wave (km/s) = 5.75880 6.60066 6.19405
#
# Compressibility (1/GPa) = 0.02662906
#
# Stress axis : x y z
#
# Youngs Moduli (GPa) = 104.71975 57.49206 158.63321
#
# Poissons Ratio (x) = -0.12233 0.51284
# Poissons Ratio (y) = -0.22282 0.34960
# Poissons Ratio (z) = 0.33854 0.12670
#
# Static dielectric constant tensor:
#      x y z
#    x 3.791470 0.000000 -0.110130 
#    y 0.000000 4.112630 0.000000 
#    z -0.110130 0.000000 4.429450 
# 
# 
# High freq. dielectric constant tensor:
#      x y z
#    x 1.854840 0.000000 0.006560 
#    y 0.000000 1.819140 0.000000 
#    z 0.006560 0.000000 1.870350 
# 
# From -- ./inp_files/13663.got.cif
#   From: 2010.06.25/outbox.cif.g09.slc.cpg/sg10_7_cif.got.tgz:13663.got - 2010.06.27 22:07:45.
