data_PCOD8060802
_publ_section_title
;
Structure prediction by ZEFSAII (Michael W. Deem and Ramdas Pophale) SiO2 
 PCOD8060802
Probable space group: P 2/M
;
_chemical_formula_sum "Si O2"
_cell_formula_units_Z 28
_cell_length_a 29.530583
_cell_length_b 8.878791
_cell_length_c 9.465776
_cell_angle_alpha 90.000000
_cell_angle_beta 142.031998
_cell_angle_gamma 90.000000
_cell_volume 1526.910000
_symmetry_space_group_name_H-M "P 2/M"
_symmetry_group_IT_number 10
_symmetry_cell_setting 'monoclinic'
loop_
_space_group_symop_operation_xyz
x,y,z
-x,y,-z
-x,-y,-z
x,-y,z
loop_
_atom_site_type_symbol
_atom_site_label
_atom_site_fract_x
_atom_site_fract_y
_atom_site_fract_z
Si Si1 0.068910 0.673164 0.069083
Si Si2 0.936269 0.180450 0.240329
Si Si3 0.214120 0.166820 0.455055
Si Si4 0.498480 0.673263 0.658726
Si Si5 0.362705 0.674448 0.810786
Si Si6 0.779430 0.164555 0.863929
Si Si7 0.622024 0.820296 0.447754
O O1 0.086708 0.500000 0.080494
O O2 0.140489 0.745314 0.320987
O O3 0.046686 0.755638 0.870904
O O4 0.000000 0.693799 0.000000
O O5 0.000000 0.238651 0.500000
O O6 0.933357 0.000000 0.223754
O O7 0.856282 0.242716 0.102101
O O8 0.287079 0.255106 0.683303
O O9 0.214144 0.152346 0.287992
O O10 0.214263 0.000000 0.524343
O O11 0.500000 0.724318 0.500000
O O12 0.473625 0.500000 0.612379
O O13 0.440727 0.776775 0.597921
O O14 0.578685 0.699130 0.921054
O O15 0.349975 0.500000 0.745108
O O16 0.393760 0.752159 0.745331
O O17 0.700930 0.244889 0.702325
O O18 0.776336 0.000000 0.926799
O O19 0.626612 0.000000 0.441883
#
# Coordination Sequence:
#
# PCOD8060802 Si02
#       7
#     4   4   4   4   4   4   4
#     4  10  20  33  50  74 105 139 173 209 251 302
#     4   9  17  31  52  75 101 135 173 213 257 303
#     4   9  17  31  52  76 101 129 166 212 256 298
#     4  10  22  38  52  70 102 140 172 205 251 307
#     4  10  19  33  55  78 100 130 168 209 254 303
#     4   7  13  27  46  70  97 123 156 202 251 294
#     4  10  19  32  53  78 102 129 168 217 258 298
#
# _framework density 18.337689000000001
#
# number of rings (size 3 to 8) (size 9 to 14) (size 15 to 20)
#    0.000    2.714    0.000    3.857    0.000    4.571 
#    0.000    2.143    0.000    3.429    0.000    0.000 
#    0.000    0.000    0.000    0.000    0.000    0.000 
#
# Total GULP energy -346980.422155 kJ/mol
# GULP energy per Si atom -12392.157934 kJ/mol
# Density = 1.829595 g / cm^3
# Si number density = 18.337689 Si / 1000 Ang^3
#
#
#
# Elastic Constant Matrix: (Units=GPa)
#
#
# Indices 1 2 3 4 5 6 
#
# 1 70.5748 36.9358 54.2124 0.0000 12.4534 0.0000
# 2 36.9358 80.9611 46.7238 0.0000 9.5287 0.0000
# 3 54.2124 46.7238 136.8070 0.0000 16.3359 0.0000
# 4 0.0000 0.0000 0.0000 22.9170 0.0000 6.9789
# 5 12.4534 9.5287 16.3359 0.0000 27.7757 0.0000
# 6 0.0000 0.0000 0.0000 6.9789 0.0000 26.2763
#
#
#
# Elastic Compliance Matrix: (Units=1/GPa)
#
#
# Indices 1 2 3 4 5 6 
#
# 1 0.023284 -0.006329 -0.006537 0.000000 -0.004424 0.000000
# 2 -0.006329 0.017249 -0.003243 0.000000 -0.001172 0.000000
# 3 -0.006537 -0.003243 0.011320 0.000000 -0.002614 0.000000
# 4 0.000000 0.000000 0.000000 0.047476 0.000000 -0.012609
# 5 -0.004424 -0.001172 -0.002614 0.000000 0.039926 0.000000
# 6 0.000000 0.000000 0.000000 -0.012609 0.000000 0.041406
#
#
# Mechanical properties :
#
#
# Convention : Reuss Voigt Hill
#
# Bulk Modulus (GPa) = 50.93191 62.67628 56.80410
# Shear Modulus (GPa) = 22.78717 25.42519 24.10618
#
# Velocity S-wave (km/s) = 3.52894 3.72761 3.62963
# Velocity P-wave (km/s) = 6.66628 7.26498 6.97206
#
# Compressibility (1/GPa) = 0.01963406
#
# Stress axis : x y z
#
# Youngs Moduli (GPa) = 42.94865 57.97568 88.34272
#
# Poissons Ratio (x) = 0.36695 0.57747
# Poissons Ratio (y) = 0.27184 0.28648
# Poissons Ratio (z) = 0.28074 0.18801
#
# Static dielectric constant tensor:
#      x y z
#    x 3.199640 0.000000 0.424760 
#    y 0.000000 3.388630 0.000000 
#    z 0.424760 0.000000 3.720870 
# 
# 
# High freq. dielectric constant tensor:
#      x y z
#    x 1.687530 0.000000 0.032910 
#    y 0.000000 1.703760 0.000000 
#    z 0.032910 0.000000 1.715230 
# 
# From -- ./inp_files/37287.got.cif
#   From: 2010.06.25/outbox.cif.g09.slc.cpg/sg10_19_cif.got.tgz:37287.got - 2010.06.27 22:07:45.
