data_PCOD8060280
_publ_section_title
;
Structure prediction by ZEFSAII (Michael W. Deem and Ramdas Pophale) SiO2 
 PCOD8060280
Probable space group: P 2/M
;
_chemical_formula_sum "Si O2"
_cell_formula_units_Z 32
_cell_length_a 11.921462
_cell_length_b 9.408478
_cell_length_c 21.776482
_cell_angle_alpha 90.000000
_cell_angle_beta 133.859203
_cell_angle_gamma 90.000000
_cell_volume 1761.159858
_symmetry_space_group_name_H-M "P 2/M"
_symmetry_group_IT_number 10
_symmetry_cell_setting 'monoclinic'
loop_
_space_group_symop_operation_xyz
x,y,z
-x,y,-z
-x,-y,-z
x,-y,z
loop_
_atom_site_type_symbol
_atom_site_label
_atom_site_fract_x
_atom_site_fract_y
_atom_site_fract_z
Si Si1 0.249056 0.167949 0.583048
Si Si2 0.913945 0.331481 0.026369
Si Si3 0.451376 0.334011 0.280933
Si Si4 0.123919 0.332867 0.216252
Si Si5 0.970059 0.832324 0.393268
Si Si6 0.570049 0.332961 0.869270
Si Si7 0.951492 0.834555 0.248385
Si Si8 0.601030 0.835065 0.096115
O O1 0.411099 0.247554 0.634806
O O2 0.167717 0.224698 0.614887
O O3 0.138493 0.210223 0.484033
O O4 0.279213 0.000000 0.596654
O O5 0.927514 0.500000 0.027348
O O6 0.999004 0.276521 0.119403
O O7 0.735412 0.283468 0.959445
O O8 0.000000 0.264458 0.000000
O O9 0.486815 0.500000 0.300074
O O10 0.294835 0.293373 0.257460
O O11 0.435774 0.289130 0.204056
O O12 0.107257 0.500000 0.221639
O O13 0.086470 0.250214 0.264506
O O14 0.949008 0.772592 0.316759
O O15 0.954172 0.000000 0.387470
O O16 0.543356 0.500000 0.867663
O O17 0.439787 0.249885 0.857687
O O18 0.783703 0.809364 0.152984
O O19 0.996273 0.000000 0.265272
O O20 0.565413 0.000000 0.094844
O O21 0.500000 0.778736 0.000000
#
# Coordination Sequence:
#
# PCOD8060280 Si02
#       8
#     4   4   4   4   4   4   4   4
#     4   9  17  33  58  80  98 125 167 210 250 301
#     4   9  15  29  51  71  94 131 173 207 241 282
#     4  10  20  33  49  76 108 131 158 207 264 301
#     4  10  20  34  52  73 101 136 173 210 247 293
#     4   8  16  33  56  79  99 127 168 210 247 293
#     4  10  19  31  52  77  99 129 172 212 246 296
#     4  10  20  35  53  72 101 138 171 203 248 300
#     4  10  21  35  50  73 107 138 162 202 259 304
#
# _framework density 18.169844000000001
#
# number of rings (size 3 to 8) (size 9 to 14) (size 15 to 20)
#    0.000    2.500    1.250    2.250    0.000    2.750 
#    0.000    3.125    0.000    4.500    0.000    0.000 
#    0.000    0.000    0.000    0.000    0.000    0.000 
#
# Total GULP energy -396791.067429 kJ/mol
# GULP energy per Si atom -12399.720857 kJ/mol
# Density = 1.812849 g / cm^3
# Si number density = 18.169844 Si / 1000 Ang^3
#
#
#
# Elastic Constant Matrix: (Units=GPa)
#
#
# Indices 1 2 3 4 5 6 
#
# 1 110.4772 40.4123 45.5767 0.0000 -1.7392 0.0000
# 2 40.4123 34.4173 26.9407 0.0000 3.0974 0.0000
# 3 45.5767 26.9407 105.1312 0.0000 4.1532 0.0000
# 4 0.0000 0.0000 0.0000 23.2091 0.0000 2.1053
# 5 -1.7392 3.0974 4.1532 0.0000 31.8946 0.0000
# 6 0.0000 0.0000 0.0000 2.1053 0.0000 32.2233
#
#
#
# Elastic Compliance Matrix: (Units=1/GPa)
#
#
# Indices 1 2 3 4 5 6 
#
# 1 0.016751 -0.017716 -0.002841 0.000000 0.003004 0.000000
# 2 -0.017716 0.055254 -0.006261 0.000000 -0.005517 0.000000
# 3 -0.002841 -0.006261 0.012394 0.000000 -0.001161 0.000000
# 4 0.000000 0.000000 0.000000 0.043343 0.000000 -0.002832
# 5 0.003004 -0.005517 -0.001161 0.000000 0.032204 0.000000
# 6 0.000000 0.000000 0.000000 -0.002832 0.000000 0.031218
#
#
# Mechanical properties :
#
#
# Convention : Reuss Voigt Hill
#
# Bulk Modulus (GPa) = 32.50585 52.87612 42.69098
# Shear Modulus (GPa) = 19.60355 26.60515 23.10435
#
# Velocity S-wave (km/s) = 3.28823 3.83070 3.56979
# Velocity P-wave (km/s) = 5.68731 6.98068 6.36692
#
# Compressibility (1/GPa) = 0.03076369
#
# Stress axis : x y z
#
# Youngs Moduli (GPa) = 59.69677 18.09811 80.68493
#
# Poissons Ratio (x) = 0.32062 0.22922
# Poissons Ratio (y) = 1.05757 0.50519
# Poissons Ratio (z) = 0.16959 0.11332
#
# Static dielectric constant tensor:
#      x y z
#    x 3.350080 0.000000 -0.075010 
#    y 0.000000 2.966310 0.000000 
#    z -0.075010 0.000000 3.535850 
# 
# 
# High freq. dielectric constant tensor:
#      x y z
#    x 1.705200 0.000000 0.002890 
#    y 0.000000 1.670240 0.000000 
#    z 0.002890 0.000000 1.706660 
# 
# From -- ./inp_files/67346.got.cif
#   From: 2010.06.25/outbox.cif.g09.slc.cpg/sg10_34_cif.got.tgz:67346.got - 2010.06.27 22:07:45.
