data_PCOD8060931
_publ_section_title
;
Structure prediction by ZEFSAII (Michael W. Deem and Ramdas Pophale) SiO2 
 PCOD8060931
Probable space group: P 2/M
;
_chemical_formula_sum "Si O2"
_cell_formula_units_Z 28
_cell_length_a 9.016647
_cell_length_b 9.139834
_cell_length_c 28.624981
_cell_angle_alpha 90.000000
_cell_angle_beta 141.362767
_cell_angle_gamma 90.000000
_cell_volume 1472.931881
_symmetry_space_group_name_H-M "P 2/M"
_symmetry_group_IT_number 10
_symmetry_cell_setting 'monoclinic'
loop_
_space_group_symop_operation_xyz
x,y,z
-x,y,-z
-x,-y,-z
x,-y,z
loop_
_atom_site_type_symbol
_atom_site_label
_atom_site_fract_x
_atom_site_fract_y
_atom_site_fract_z
Si Si1 0.266953 0.168601 0.350139
Si Si2 0.078533 0.167571 0.202040
Si Si3 0.544062 0.830400 0.782566
Si Si4 0.589372 0.327093 0.072350
Si Si5 0.942989 0.326816 0.343795
Si Si6 0.274624 0.830843 0.069877
Si Si7 0.655364 0.660696 0.491989
O O1 0.225874 0.191608 0.285430
O O2 0.533410 0.226805 0.426237
O O3 0.064920 0.254244 0.328721
O O4 0.252396 0.000000 0.361407
O O5 0.243110 0.213502 0.199387
O O6 0.850959 0.269394 0.146555
O O7 0.993911 0.000000 0.176505
O O8 0.320622 0.731846 0.714552
O O9 0.626450 0.794530 0.854867
O O10 0.474761 0.000000 0.759555
O O11 0.594513 0.500000 0.077020
O O12 0.410024 0.268048 0.066562
O O13 0.500000 0.272789 0.000000
O O14 0.942214 0.500000 0.335188
O O15 0.084308 0.287118 0.426579
O O16 0.314386 0.000000 0.066618
O O17 0.000000 0.788451 0.000000
O O18 0.500000 0.649834 0.500000
O O19 0.669341 0.500000 0.471653
#
# Coordination Sequence:
#
# PCOD8060931 Si02
#       7
#     4   4   4   4   4   4   4
#     4  10  19  32  54  82 107 136 178 224 269 317
#     4  10  22  39  57  79 109 144 181 221 266 318
#     4  10  21  37  56  79 107 140 181 225 266 313
#     4  11  24  39  57  84 114 143 177 218 265 316
#     4  10  20  34  53  78 108 142 179 220 269 323
#     4  10  21  38  61  85 108 141 182 220 264 317
#     4   8  16  31  50  74 105 140 178 219 265 319
#
# _framework density 19.009705
#
# number of rings (size 3 to 8) (size 9 to 14) (size 15 to 20)
#    0.000    2.143    0.000    3.857    0.000   11.429 
#    0.000    0.714    0.000    4.286    0.000    0.000 
#    0.000    0.000    0.000    0.000    0.000    0.000 
#
# Total GULP energy -347252.675311 kJ/mol
# GULP energy per Si atom -12401.881261 kJ/mol
# Density = 1.896644 g / cm^3
# Si number density = 19.009705 Si / 1000 Ang^3
#
#
#
# Elastic Constant Matrix: (Units=GPa)
#
#
# Indices 1 2 3 4 5 6 
#
# 1 100.0166 50.8492 54.5372 0.0000 -1.0771 0.0000
# 2 50.8492 90.3379 64.0836 0.0000 1.8323 0.0000
# 3 54.5372 64.0836 134.2037 0.0000 11.8486 0.0000
# 4 0.0000 0.0000 0.0000 30.8827 0.0000 -3.4036
# 5 -1.0771 1.8323 11.8486 0.0000 28.7963 0.0000
# 6 0.0000 0.0000 0.0000 -3.4036 0.0000 2.2645
#
#
#
# Elastic Compliance Matrix: (Units=1/GPa)
#
#
# Indices 1 2 3 4 5 6 
#
# 1 0.014952 -0.006059 -0.003389 0.000000 0.002339 0.000000
# 2 -0.006059 0.019345 -0.006897 0.000000 0.001380 0.000000
# 3 -0.003389 -0.006897 0.012550 0.000000 -0.004852 0.000000
# 4 0.000000 0.000000 0.000000 0.038809 0.000000 0.058331
# 5 0.002339 0.001380 -0.004852 0.000000 0.036723 0.000000
# 6 0.000000 0.000000 0.000000 0.058331 0.000000 0.529277
#
#
# Mechanical properties :
#
#
# Convention : Reuss Voigt Hill
#
# Bulk Modulus (GPa) = 70.64002 73.72202 72.18102
# Shear Modulus (GPa) = 7.25620 22.72791 14.99205
#
# Velocity S-wave (km/s) = 1.95586 3.46149 2.81134
# Velocity P-wave (km/s) = 6.50701 7.40549 6.97074
#
# Compressibility (1/GPa) = 0.01415628
#
# Stress axis : x y z
#
# Youngs Moduli (GPa) = 66.87898 51.69392 79.67917
#
# Poissons Ratio (x) = 0.31324 0.27006
# Poissons Ratio (y) = 0.40525 0.54952
# Poissons Ratio (z) = 0.22668 0.35652
#
# Static dielectric constant tensor:
#      x y z
#    x 3.336610 0.000000 0.025140 
#    y 0.000000 3.517190 0.000000 
#    z 0.025140 0.000000 3.844210 
# 
# 
# High freq. dielectric constant tensor:
#      x y z
#    x 1.724660 0.000000 0.002720 
#    y 0.000000 1.740100 0.000000 
#    z 0.002720 0.000000 1.756600 
# 
# From -- ./inp_files/36989.got.cif
#   From: 2010.06.25/outbox.cif.g09.slc.cpg/sg10_19_cif.got.tgz:36989.got - 2010.06.27 22:07:45.
