data_PCOD8060344
_publ_section_title
;
Structure prediction by ZEFSAII (Michael W. Deem and Ramdas Pophale) SiO2 
 PCOD8060344
Probable space group: P 2/M
;
_chemical_formula_sum "Si O2"
_cell_formula_units_Z 32
_cell_length_a 20.135365
_cell_length_b 9.064978
_cell_length_c 12.159883
_cell_angle_alpha 90.000000
_cell_angle_beta 54.777914
_cell_angle_gamma 90.000000
_cell_volume 1813.161916
_symmetry_space_group_name_H-M "P 2/M"
_symmetry_group_IT_number 10
_symmetry_cell_setting 'monoclinic'
loop_
_space_group_symop_operation_xyz
x,y,z
-x,y,-z
-x,-y,-z
x,-y,z
loop_
_atom_site_type_symbol
_atom_site_label
_atom_site_fract_x
_atom_site_fract_y
_atom_site_fract_z
Si Si1 0.738774 0.172690 0.677678
Si Si2 0.523850 0.673248 0.354835
Si Si3 0.128327 0.174056 0.620678
Si Si4 0.971812 0.825522 0.644296
Si Si5 0.708508 0.669242 0.138724
Si Si6 0.622262 0.825792 0.603470
Si Si7 0.791484 0.824712 0.858616
Si Si8 0.241178 0.328560 0.666970
O O1 0.814502 0.230477 0.533377
O O2 0.654666 0.212252 0.695770
O O3 0.742876 0.236980 0.797487
O O4 0.750358 0.000000 0.677387
O O5 0.500000 0.723662 0.500000
O O6 0.509573 0.500000 0.353842
O O7 0.615836 0.720453 0.243801
O O8 0.467468 0.758958 0.321651
O O9 0.156579 0.260388 0.703139
O O10 0.036087 0.217028 0.678322
O O11 0.138723 0.000000 0.631657
O O12 0.883865 0.763916 0.763263
O O13 0.000000 0.758052 0.500000
O O14 0.967065 0.000000 0.635273
O O15 0.711254 0.500000 0.099210
O O16 0.758530 0.693877 0.202684
O O17 0.748889 0.766570 0.007310
O O18 0.681470 0.754767 0.457024
O O19 0.620825 0.000000 0.584835
O O20 0.790424 0.000000 0.865430
O O21 0.248349 0.500000 0.628735
#
# Coordination Sequence:
#
# PCOD8060344 Si02
#       8
#     4   4   4   4   4   4   4   4
#     4   8  15  29  49  76 107 134 162 205 259 307
#     4  10  19  36  56  74 100 139 179 214 257 310
#     4   9  16  29  52  81 106 129 170 222 259 297
#     4   9  15  28  54  82 106 135 172 214 261 308
#     4  10  22  38  53  71 103 142 176 213 259 309
#     4  10  19  31  53  84 108 127 165 221 265 301
#     4  10  19  33  55  79 104 139 176 209 257 316
#     4  10  19  34  52  72 103 143 176 207 260 315
#
# _framework density 17.648727999999998
#
# number of rings (size 3 to 8) (size 9 to 14) (size 15 to 20)
#    0.000    2.500    2.500    1.500    0.000    1.750 
#    0.000    5.000    0.000    8.250    0.000    0.000 
#    0.000    0.000    0.000    0.000    0.000    0.000 
#
# Total GULP energy -396698.215597 kJ/mol
# GULP energy per Si atom -12396.819237 kJ/mol
# Density = 1.760856 g / cm^3
# Si number density = 17.648728 Si / 1000 Ang^3
#
#
#
# Elastic Constant Matrix: (Units=GPa)
#
#
# Indices 1 2 3 4 5 6 
#
# 1 160.4623 50.4045 68.9207 0.0000 2.3237 0.0000
# 2 50.4045 47.3272 33.3151 0.0000 2.6146 0.0000
# 3 68.9207 33.3151 103.0242 0.0000 -0.3863 0.0000
# 4 0.0000 0.0000 0.0000 12.1441 0.0000 -9.2226
# 5 2.3237 2.6146 -0.3863 0.0000 23.3467 0.0000
# 6 0.0000 0.0000 0.0000 -9.2226 0.0000 12.5015
#
#
#
# Elastic Compliance Matrix: (Units=1/GPa)
#
#
# Indices 1 2 3 4 5 6 
#
# 1 0.010785 -0.008280 -0.004539 0.000000 -0.000221 0.000000
# 2 -0.008280 0.033955 -0.005453 0.000000 -0.003069 0.000000
# 3 -0.004539 -0.005453 0.014511 0.000000 0.001303 0.000000
# 4 0.000000 0.000000 0.000000 0.187248 0.000000 0.138135
# 5 -0.000221 -0.003069 0.001303 0.000000 0.043220 0.000000
# 6 0.000000 0.000000 0.000000 0.138135 0.000000 0.181895
#
#
# Mechanical properties :
#
#
# Convention : Reuss Voigt Hill
#
# Bulk Modulus (GPa) = 44.03439 68.45493 56.24466
# Shear Modulus (GPa) = 9.69507 20.14337 14.91922
#
# Velocity S-wave (km/s) = 2.34633 3.38205 2.91063
# Velocity P-wave (km/s) = 5.68727 7.35681 6.57524
#
# Compressibility (1/GPa) = 0.02270953
#
# Stress axis : x y z
#
# Youngs Moduli (GPa) = 92.71817 29.45038 68.91385
#
# Poissons Ratio (x) = 0.24384 0.31277
# Poissons Ratio (y) = 0.76767 0.37578
# Poissons Ratio (z) = 0.42081 0.16059
#
# Static dielectric constant tensor:
#      x y z
#    x 3.658380 0.000000 0.056920 
#    y 0.000000 3.028010 0.000000 
#    z 0.056920 0.000000 3.058770 
# 
# 
# High freq. dielectric constant tensor:
#      x y z
#    x 1.702570 0.000000 0.005310 
#    y 0.000000 1.656540 0.000000 
#    z 0.005310 0.000000 1.653050 
# 
# From -- ./inp_files/55276.got.cif
#   From: 2010.06.25/outbox.cif.g09.slc.cpg/sg10_28_cif.got.tgz:55276.got - 2010.06.27 22:07:45.
