data_PCOD8060965
_publ_section_title
;
Structure prediction by ZEFSAII (Michael W. Deem and Ramdas Pophale) SiO2 
 PCOD8060965
Probable space group: P 2/M
;
_chemical_formula_sum "Si O2"
_cell_formula_units_Z 32
_cell_length_a 12.637578
_cell_length_b 18.196122
_cell_length_c 15.014225
_cell_angle_alpha 90.000000
_cell_angle_beta 29.532670
_cell_angle_gamma 90.000000
_cell_volume 1701.852174
_symmetry_space_group_name_H-M "P 2/M"
_symmetry_group_IT_number 10
_symmetry_cell_setting 'monoclinic'
loop_
_space_group_symop_operation_xyz
x,y,z
-x,y,-z
-x,-y,-z
x,-y,z
loop_
_atom_site_type_symbol
_atom_site_label
_atom_site_fract_x
_atom_site_fract_y
_atom_site_fract_z
Si Si1 0.129540 0.586333 0.995618
Si Si2 0.068802 0.689952 0.723532
Si Si3 0.491412 0.306145 0.703071
Si Si4 0.899547 0.802591 0.712482
Si Si5 0.701095 0.913327 0.987749
Si Si6 0.918645 0.078701 0.158118
Si Si7 0.671163 0.806046 0.699416
Si Si8 0.289806 0.224734 0.701431
O O1 0.148503 0.500000 0.992773
O O2 0.370542 0.618013 0.811433
O O3 0.000000 0.606651 0.000000
O O4 0.024841 0.615192 0.165450
O O5 0.294607 0.674646 0.509339
O O6 0.089017 0.740230 0.797262
O O7 0.908529 0.732924 0.773457
O O8 0.545060 0.264835 0.755454
O O9 0.318369 0.251855 0.781392
O O10 0.763753 0.779148 0.725938
O O11 0.139928 0.826962 0.508479
O O12 0.780822 0.873467 0.839810
O O13 0.477647 0.877874 0.183858
O O14 0.665105 0.000000 0.996359
O O15 0.881437 0.897332 0.928600
O O16 0.727664 0.137265 0.296994
O O17 0.826412 0.000000 0.258940
O O18 0.000000 0.070887 0.000000
O O19 0.500000 0.254069 0.500000
#
# Coordination Sequence:
#
# PCOD8060965 Si02
#       8
#     4   4   4   4   4   4   4   4
#     4  11  23  36  56  87 119 150 175 208 270 335
#     4  10  20  37  58  83 111 143 180 226 272 321
#     4  10  21  36  58  85 110 142 183 227 271 322
#     4  10  21  39  58  82 109 142 191 236 274 325
#     4  11  22  36  54  78 112 150 186 232 290 334
#     4  10  21  34  49  75 110 146 183 228 281 333
#     4  10  22  37  59  83 107 144 191 235 275 324
#     4  10  19  32  55  79 102 139 184 224 273 319
#
# _framework density 18.803042999999999
#
# number of rings (size 3 to 8) (size 9 to 14) (size 15 to 20)
#    0.000    1.750    2.500    1.875    1.750    2.250 
#    0.000    2.500    0.000    1.500    0.000    3.500 
#    0.000    0.000    0.000    0.000    0.000    0.000 
#
# Total GULP energy -396596.903997 kJ/mol
# GULP energy per Si atom -12393.653250 kJ/mol
# Density = 1.876025 g / cm^3
# Si number density = 18.803043 Si / 1000 Ang^3
#
#
#
# Elastic Constant Matrix: (Units=GPa)
#
#
# Indices 1 2 3 4 5 6 
#
# 1 111.7223 51.4547 33.8423 0.0000 6.9440 0.0000
# 2 51.4547 127.4784 58.6056 0.0000 -0.5404 0.0000
# 3 33.8423 58.6056 87.7238 0.0000 7.7145 0.0000
# 4 0.0000 0.0000 0.0000 24.9489 0.0000 -1.2549
# 5 6.9440 -0.5404 7.7145 0.0000 19.3950 0.0000
# 6 0.0000 0.0000 0.0000 -1.2549 0.0000 24.0665
#
#
#
# Elastic Compliance Matrix: (Units=1/GPa)
#
#
# Indices 1 2 3 4 5 6 
#
# 1 0.011442 -0.003971 -0.001442 0.000000 -0.003634 0.000000
# 2 -0.003971 0.012926 -0.007524 0.000000 0.004775 0.000000
# 3 -0.001442 -0.007524 0.017570 0.000000 -0.006682 0.000000
# 4 0.000000 0.000000 0.000000 0.040187 0.000000 0.002096
# 5 -0.003634 0.004775 -0.006682 0.000000 0.055651 0.000000
# 6 0.000000 0.000000 0.000000 0.002096 0.000000 0.041661
#
#
# Mechanical properties :
#
#
# Convention : Reuss Voigt Hill
#
# Bulk Modulus (GPa) = 62.24583 68.30329 65.27456
# Shear Modulus (GPa) = 23.73428 25.88354 24.80891
#
# Velocity S-wave (km/s) = 3.55668 3.71423 3.63631
# Velocity P-wave (km/s) = 7.07408 7.40260 7.24021
#
# Compressibility (1/GPa) = 0.01606533
#
# Stress axis : x y z
#
# Youngs Moduli (GPa) = 87.39539 77.36095 56.91676
#
# Poissons Ratio (x) = 0.30721 0.08206
# Poissons Ratio (y) = 0.34706 0.42822
# Poissons Ratio (z) = 0.12600 0.58204
#
# Static dielectric constant tensor:
#      x y z
#    x 3.565720 0.000000 0.025000 
#    y 0.000000 3.578710 0.000000 
#    z 0.025000 0.000000 3.417810 
# 
# 
# High freq. dielectric constant tensor:
#      x y z
#    x 1.737490 0.000000 0.001300 
#    y 0.000000 1.709000 0.000000 
#    z 0.001300 0.000000 1.732350 
# 
# From -- ./inp_files/51941.got.cif
#   From: 2010.06.25/outbox.cif.g09.slc.cpg/sg10_26_cif.got.tgz:51941.got - 2010.06.27 22:07:45.
