data_PCOD8060858
_publ_section_title
;
Structure prediction by ZEFSAII (Michael W. Deem and Ramdas Pophale) SiO2 
 PCOD8060858
Probable space group: P 2/M
;
_chemical_formula_sum "Si O2"
_cell_formula_units_Z 32
_cell_length_a 14.293138
_cell_length_b 8.714808
_cell_length_c 12.199589
_cell_angle_alpha 90.000000
_cell_angle_beta 81.347594
_cell_angle_gamma 90.000000
_cell_volume 1502.310311
_symmetry_space_group_name_H-M "P 2/M"
_symmetry_group_IT_number 10
_symmetry_cell_setting 'monoclinic'
loop_
_space_group_symop_operation_xyz
x,y,z
-x,y,-z
-x,-y,-z
x,-y,z
loop_
_atom_site_type_symbol
_atom_site_label
_atom_site_fract_x
_atom_site_fract_y
_atom_site_fract_z
Si Si1 0.708283 0.319835 0.212960
Si Si2 0.291825 0.680951 0.029586
Si Si3 0.908259 0.170884 0.443105
Si Si4 0.386475 0.670085 0.225021
Si Si5 0.469435 0.683915 0.625546
Si Si6 0.916669 0.320337 0.216374
Si Si7 0.893519 0.819266 0.850799
Si Si8 0.819148 0.327998 0.648586
O O1 0.718859 0.500000 0.226404
O O2 0.636192 0.260138 0.320149
O O3 0.813521 0.248907 0.204188
O O4 0.667426 0.282265 0.098351
O O5 0.280769 0.500000 0.053955
O O6 0.363296 0.749908 0.110404
O O7 0.186254 0.749365 0.055951
O O8 0.931804 0.284522 0.340710
O O9 0.825521 0.246363 0.529826
O O10 0.000000 0.160348 0.500000
O O11 0.878809 0.000000 0.407752
O O12 0.426113 0.500000 0.193334
O O13 0.462653 0.753608 0.290390
O O14 0.291158 0.663011 0.310155
O O15 0.500000 0.748177 0.500000
O O16 0.477175 0.500000 0.622489
O O17 0.921682 0.500000 0.191550
O O18 0.001789 0.240474 0.133001
O O19 0.873697 0.771139 0.729451
O O20 0.891406 0.000000 0.861254
O O21 0.862544 0.500000 0.638928
#
# Coordination Sequence:
#
# PCOD8060858 Si02
#       8
#     4   4   4   4   4   4   4   4
#     4   9  20  35  53  80 111 149 189 235 286 334
#     4   9  18  36  57  81 114 144 188 237 278 332
#     4  11  22  34  50  76 111 150 192 234 279 329
#     4   8  16  29  51  82 110 144 178 223 284 335
#     4   9  17  30  50  81 121 148 174 226 290 342
#     4  11  22  35  53  78 109 149 194 232 283 335
#     4  11  21  35  54  80 112 145 186 228 282 337
#     4  10  19  32  53  81 111 145 188 231 277 330
#
# _framework density 21.300525
#
# number of rings (size 3 to 8) (size 9 to 14) (size 15 to 20)
#    0.000    2.250    1.250    3.000    1.750    1.500 
#    0.000    6.250    0.000    0.000    0.000   17.500 
#    0.000    0.000    0.000    0.000    0.000    0.000 
#
# Total GULP energy -396536.889530 kJ/mol
# GULP energy per Si atom -12391.777798 kJ/mol
# Density = 2.125204 g / cm^3
# Si number density = 21.300525 Si / 1000 Ang^3
#
#
#
# Elastic Constant Matrix: (Units=GPa)
#
#
# Indices 1 2 3 4 5 6 
#
# 1 113.1285 13.4319 50.2187 0.0000 7.6748 0.0000
# 2 13.4319 55.7518 16.7844 0.0000 -0.2762 0.0000
# 3 50.2187 16.7844 106.9042 0.0000 -9.6550 0.0000
# 4 0.0000 0.0000 0.0000 9.2201 0.0000 -4.2998
# 5 7.6748 -0.2762 -9.6550 0.0000 25.9319 0.0000
# 6 0.0000 0.0000 0.0000 -4.2998 0.0000 4.7984
#
#
#
# Elastic Compliance Matrix: (Units=1/GPa)
#
#
# Indices 1 2 3 4 5 6 
#
# 1 0.012030 -0.001121 -0.005999 0.000000 -0.005806 0.000000
# 2 -0.001121 0.018953 -0.002484 0.000000 -0.000391 0.000000
# 3 -0.005999 -0.002484 0.013163 0.000000 0.006650 0.000000
# 4 0.000000 0.000000 0.000000 0.186319 0.000000 0.166958
# 5 -0.005806 -0.000391 0.006650 0.000000 0.042753 0.000000
# 6 0.000000 0.000000 0.000000 0.166958 0.000000 0.358013
#
#
# Mechanical properties :
#
#
# Convention : Reuss Voigt Hill
#
# Bulk Modulus (GPa) = 40.10260 48.51717 44.30989
# Shear Modulus (GPa) = 7.59012 21.01338 14.30175
#
# Velocity S-wave (km/s) = 1.88973 3.14430 2.59400
# Velocity P-wave (km/s) = 4.86100 6.00075 5.46070
#
# Compressibility (1/GPa) = 0.02493604
#
# Stress axis : x y z
#
# Youngs Moduli (GPa) = 83.12802 52.76290 75.97019
#
# Poissons Ratio (x) = 0.05914 0.45577
# Poissons Ratio (y) = 0.09317 0.18875
# Poissons Ratio (z) = 0.49871 0.13109
#
# Static dielectric constant tensor:
#      x y z
#    x 4.031070 0.000000 -0.009140 
#    y 0.000000 3.490470 0.000000 
#    z -0.009140 0.000000 3.988920 
# 
# 
# High freq. dielectric constant tensor:
#      x y z
#    x 1.835790 0.000000 -0.004740 
#    y 0.000000 1.782020 0.000000 
#    z -0.004740 0.000000 1.839030 
# 
# From -- ./inp_files/49976.got.cif
#   From: 2010.06.25/outbox.cif.g09.slc.cpg/sg10_25_cif.got.tgz:49976.got - 2010.06.27 22:07:45.
