data_PCOD8060769
_publ_section_title
;
Structure prediction by ZEFSAII (Michael W. Deem and Ramdas Pophale) SiO2 
 PCOD8060769
Probable space group: P 2/M
;
_chemical_formula_sum "Si O2"
_cell_formula_units_Z 30
_cell_length_a 23.921767
_cell_length_b 11.985325
_cell_length_c 5.237095
_cell_angle_alpha 90.000000
_cell_angle_beta 88.117854
_cell_angle_gamma 90.000000
_cell_volume 1500.718228
_symmetry_space_group_name_H-M "P 2/M"
_symmetry_group_IT_number 10
_symmetry_cell_setting 'monoclinic'
loop_
_space_group_symop_operation_xyz
x,y,z
-x,y,-z
-x,-y,-z
x,-y,z
loop_
_atom_site_type_symbol
_atom_site_label
_atom_site_fract_x
_atom_site_fract_y
_atom_site_fract_z
Si Si1 0.937892 0.368773 0.500541
Si Si2 0.598763 0.795230 0.443658
Si Si3 0.754848 0.242311 0.038141
Si Si4 0.462233 0.000000 0.753433
Si Si5 0.545224 0.623966 0.779267
Si Si6 0.870692 0.367852 0.005519
Si Si7 0.713644 0.872018 0.560622
Si Si8 0.346894 0.378797 0.921985
O O1 0.943655 0.500000 0.527450
O O2 0.901572 0.326266 0.745099
O O3 0.000000 0.314969 0.500000
O O4 0.909328 0.336163 0.239166
O O5 0.575371 0.888748 0.252297
O O6 0.546549 0.727533 0.580071
O O7 0.646567 0.849066 0.620007
O O8 0.633519 0.705092 0.290979
O O9 0.739409 0.195084 0.318430
O O10 0.712874 0.341634 0.960820
O O11 0.815766 0.294204 0.039520
O O12 0.748270 0.151324 0.814510
O O13 0.500000 0.000000 0.500000
O O14 0.500000 0.000000 0.000000
O O15 0.529397 0.500000 0.669387
O O16 0.500000 0.656939 0.000000
O O17 0.608525 0.617316 0.859945
O O18 0.856618 0.500000 0.002752
O O19 0.721476 0.000000 0.489504
O O20 0.341180 0.500000 0.794443
#
# Coordination Sequence:
#
# PCOD8060769 Si02
#       8
#     4   4   4   2   4   4   4   4
#     4   9  17  30  50  79 123 175 214 244 287 345
#     4  11  24  44  65  87 121 154 199 247 313 374
#     4  11  22  38  61  89 123 156 202 248 306 360
#     4  12  32  46  68  92 118 150 194 256 309 370
#     4  10  22  40  65  93 122 157 200 248 301 372
#     4  10  19  32  52  85 127 167 206 249 294 350
#     4  11  23  42  64  86 113 157 197 252 305 373
#     4  10  22  38  60  89 121 156 196 239 303 370
#
# _framework density 19.990428999999999
#
# number of rings (size 3 to 8) (size 9 to 14) (size 15 to 20)
#    0.000    1.600    2.000    2.400    3.733    1.600 
#    0.000    3.333    0.000    1.200    0.000    0.000 
#    0.000   37.333    0.000    0.000    0.000    0.000 
#
# Total GULP energy -371798.170532 kJ/mol
# GULP energy per Si atom -12393.272351 kJ/mol
# Density = 1.994493 g / cm^3
# Si number density = 19.990429 Si / 1000 Ang^3
#
#
#
# Elastic Constant Matrix: (Units=GPa)
#
#
# Indices 1 2 3 4 5 6 
#
# 1 107.3994 42.6099 22.2826 0.0000 -10.2942 0.0000
# 2 42.6099 104.3053 23.7738 0.0000 -5.7080 0.0000
# 3 22.2826 23.7738 89.2596 0.0000 -8.3209 0.0000
# 4 0.0000 0.0000 0.0000 33.6196 0.0000 4.9998
# 5 -10.2942 -5.7080 -8.3209 0.0000 29.5092 0.0000
# 6 0.0000 0.0000 0.0000 4.9998 0.0000 28.9475
#
#
#
# Elastic Compliance Matrix: (Units=1/GPa)
#
#
# Indices 1 2 3 4 5 6 
#
# 1 0.011569 -0.004231 -0.001501 0.000000 0.002794 0.000000
# 2 -0.004231 0.011799 -0.002065 0.000000 0.000224 0.000000
# 3 -0.001501 -0.002065 0.012367 0.000000 0.002564 0.000000
# 4 0.000000 0.000000 0.000000 0.030529 0.000000 -0.005273
# 5 0.002794 0.000224 0.002564 0.000000 0.035629 0.000000
# 6 0.000000 0.000000 0.000000 -0.005273 0.000000 0.035456
#
#
# Mechanical properties :
#
#
# Convention : Reuss Voigt Hill
#
# Bulk Modulus (GPa) = 49.65153 53.14409 51.39781
# Shear Modulus (GPa) = 31.31736 32.56845 31.94290
#
# Velocity S-wave (km/s) = 3.96235 4.04072 4.00172
# Velocity P-wave (km/s) = 6.76943 6.95790 6.86431
#
# Compressibility (1/GPa) = 0.02014037
#
# Stress axis : x y z
#
# Youngs Moduli (GPa) = 86.43906 84.75520 80.86008
#
# Poissons Ratio (x) = 0.35860 0.12134
# Poissons Ratio (y) = 0.36573 0.16701
# Poissons Ratio (z) = 0.12971 0.17505
#
# Static dielectric constant tensor:
#      x y z
#    x 3.859040 0.000000 0.022200 
#    y 0.000000 3.897570 0.000000 
#    z 0.022200 0.000000 3.629510 
# 
# 
# High freq. dielectric constant tensor:
#      x y z
#    x 1.776740 0.000000 0.003760 
#    y 0.000000 1.764970 0.000000 
#    z 0.003760 0.000000 1.782460 
# 
# From -- ./inp_files/12429.got.cif
#   From: 2010.06.25/outbox.cif.g09.slc.cpg/sg10_7_cif.got.tgz:12429.got - 2010.06.27 22:07:45.
