data_PCOD8060181
_publ_section_title
;
Structure prediction by ZEFSAII (Michael W. Deem and Ramdas Pophale) SiO2 
 PCOD8060181
Probable space group: P 2/M
;
_chemical_formula_sum "Si O2"
_cell_formula_units_Z 32
_cell_length_a 29.308426
_cell_length_b 9.270023
_cell_length_c 12.438025
_cell_angle_alpha 90.000000
_cell_angle_beta 149.876633
_cell_angle_gamma 90.000000
_cell_volume 1695.939559
_symmetry_space_group_name_H-M "P 2/M"
_symmetry_group_IT_number 10
_symmetry_cell_setting 'monoclinic'
loop_
_space_group_symop_operation_xyz
x,y,z
-x,y,-z
-x,-y,-z
x,-y,z
loop_
_atom_site_type_symbol
_atom_site_label
_atom_site_fract_x
_atom_site_fract_y
_atom_site_fract_z
Si Si1 0.837802 0.664633 0.978681
Si Si2 0.702966 0.669330 0.521293
Si Si3 0.030734 0.664451 0.442944
Si Si4 0.690175 0.670188 0.254786
Si Si5 0.796248 0.167744 0.284783
Si Si6 0.491262 0.661850 0.811358
Si Si7 0.438727 0.662451 0.468922
Si Si8 0.267212 0.165595 0.075690
O O1 0.807641 0.500000 0.937563
O O2 0.782202 0.728783 0.762337
O O3 0.819072 0.755464 0.048492
O O4 0.946506 0.674737 0.186793
O O5 0.693652 0.500000 0.524114
O O6 0.732076 0.701146 0.458055
O O7 0.602560 0.738957 0.340550
O O8 0.067630 0.500000 0.523070
O O9 0.106265 0.768183 0.547264
O O10 0.000000 0.712960 0.500000
O O11 0.690389 0.500000 0.227268
O O12 0.752381 0.751720 0.296173
O O13 0.586178 0.732527 0.044431
O O14 0.808645 0.000000 0.338983
O O15 0.730356 0.187502 0.047688
O O16 0.489869 0.500000 0.854866
O O17 0.497588 0.664263 0.696049
O O18 0.500000 0.728271 0.500000
O O19 0.406636 0.500000 0.374813
O O20 0.353022 0.764059 0.308640
O O21 0.263416 0.000000 0.100237
#
# Coordination Sequence:
#
# PCOD8060181 Si02
#       8
#     4   4   4   4   4   4   4   4
#     4  10  19  35  59  85 112 138 174 227 278 324
#     4   9  17  32  57  86 113 142 181 232 281 319
#     4  10  20  35  60  89 110 138 182 228 275 331
#     4  10  20  35  58  84 109 144 191 233 270 322
#     4  11  24  39  55  78 114 152 182 224 280 332
#     4   9  16  29  53  84 112 140 181 231 276 318
#     4  10  19  31  50  77 109 146 184 225 274 324
#     4  11  22  34  51  77 110 147 181 217 270 331
#
# _framework density 18.868597000000001
#
# number of rings (size 3 to 8) (size 9 to 14) (size 15 to 20)
#    0.000    2.000    2.500    1.875    0.000    5.000 
#    0.000    1.875    0.000    4.500    0.000    0.000 
#    0.000    0.000    0.000    0.000    0.000    0.000 
#
# Total GULP energy -396638.279562 kJ/mol
# GULP energy per Si atom -12394.946236 kJ/mol
# Density = 1.882565 g / cm^3
# Si number density = 18.868597 Si / 1000 Ang^3
#
#
#
# Elastic Constant Matrix: (Units=GPa)
#
#
# Indices 1 2 3 4 5 6 
#
# 1 96.8610 37.1471 46.9564 0.0000 -6.6136 0.0000
# 2 37.1471 65.7518 31.2977 0.0000 0.3251 0.0000
# 3 46.9564 31.2977 100.8568 0.0000 1.3077 0.0000
# 4 0.0000 0.0000 0.0000 -1.7328 0.0000 -9.2721
# 5 -6.6136 0.3251 1.3077 0.0000 25.8578 0.0000
# 6 0.0000 0.0000 0.0000 -9.2721 0.0000 9.7458
#
#
#
# Elastic Compliance Matrix: (Units=1/GPa)
#
#
# Indices 1 2 3 4 5 6 
#
# 1 0.015648 -0.006298 -0.005388 0.000000 0.004354 0.000000
# 2 -0.006298 0.020379 -0.003370 0.000000 -0.001697 0.000000
# 3 -0.005388 -0.003370 0.013495 0.000000 -0.002018 0.000000
# 4 0.000000 0.000000 0.000000 -0.094749 0.000000 -0.090144
# 5 0.004354 -0.001697 -0.002018 0.000000 0.039910 0.000000
# 6 0.000000 0.000000 0.000000 -0.090144 0.000000 0.016846
#
#
# Mechanical properties :
#
#
# Convention : Reuss Voigt Hill
#
# Bulk Modulus (GPa) = 51.51398 54.91910 53.21654
# Shear Modulus (GPa) = 103.92534 16.64538 60.28536
#
# Velocity S-wave (km/s) = 7.42954 2.97336 5.65857
# Velocity P-wave (km/s) = 10.04779 6.39978 8.42363
#
# Compressibility (1/GPa) = 0.01941221
#
# Stress axis : x y z
#
# Youngs Moduli (GPa) = 63.90403 49.06972 74.09963
#
# Poissons Ratio (x) = 0.30903 0.39923
# Poissons Ratio (y) = 0.40245 0.24971
# Poissons Ratio (z) = 0.34429 0.16536
#
# Static dielectric constant tensor:
#      x y z
#    x 3.377700 0.000000 -0.012940 
#    y 0.000000 3.142650 0.000000 
#    z -0.012940 0.000000 3.622740 
# 
# 
# High freq. dielectric constant tensor:
#      x y z
#    x 1.726160 0.000000 -0.003050 
#    y 0.000000 1.692340 0.000000 
#    z -0.003050 0.000000 1.740820 
# 
# From -- ./inp_files/49847.got.cif
#   From: 2010.06.25/outbox.cif.g09.slc.cpg/sg10_25_cif.got.tgz:49847.got - 2010.06.27 22:07:45.
