data_PCOD8060086
_publ_section_title
;
Structure prediction by ZEFSAII (Michael W. Deem and Ramdas Pophale) SiO2 
 PCOD8060086
Probable space group: P 2/M
;
_chemical_formula_sum "Si O2"
_cell_formula_units_Z 24
_cell_length_a 11.971910
_cell_length_b 8.736444
_cell_length_c 27.230518
_cell_angle_alpha 90.000000
_cell_angle_beta 152.376520
_cell_angle_gamma 90.000000
_cell_volume 1320.544050
_symmetry_space_group_name_H-M "P 2/M"
_symmetry_group_IT_number 10
_symmetry_cell_setting 'monoclinic'
loop_
_space_group_symop_operation_xyz
x,y,z
-x,y,-z
-x,-y,-z
x,-y,z
loop_
_atom_site_type_symbol
_atom_site_label
_atom_site_fract_x
_atom_site_fract_y
_atom_site_fract_z
Si Si1 0.341266 0.677717 0.812237
Si Si2 0.120244 0.318786 0.997945
Si Si3 0.851233 0.820062 0.614104
Si Si4 0.076506 0.325615 0.181494
Si Si5 0.734995 0.835582 0.120624
Si Si6 0.399148 0.676092 0.392484
O O1 0.316581 0.500000 0.789366
O O2 0.604581 0.743257 0.899302
O O3 0.312414 0.701585 0.859058
O O4 0.119447 0.770106 0.700974
O O5 0.135241 0.500000 0.008065
O O6 0.000000 0.247712 0.000000
O O7 0.946151 0.272664 0.884195
O O8 0.662882 0.744644 0.503165
O O9 0.797482 0.763467 0.649266
O O10 0.818081 0.000000 0.597559
O O11 0.981768 0.500000 0.148185
O O12 0.338344 0.311154 0.310187
O O13 0.920614 0.213164 0.152301
O O14 0.816404 0.000000 0.177152
O O15 0.500000 0.872119 0.000000
O O16 0.394607 0.500000 0.407567
#
# Coordination Sequence:
#
# PCOD8060086 Si02
#       6
#     4   4   4   4   4   4
#     4  11  20  32  53  76 104 139 174 213 257 312
#     4   9  19  35  55  79 103 132 173 220 266 308
#     4  11  21  32  48  73 108 143 173 209 256 311
#     4  10  19  32  53  77 104 137 171 211 257 310
#     4  11  21  30  45  74 109 139 168 206 254 315
#     4  10  19  31  49  75 107 140 175 210 250 310
#
# _framework density 18.174327999999999
#
# number of rings (size 3 to 8) (size 9 to 14) (size 15 to 20)
#    0.000    1.667    3.333    4.000    0.000    1.333 
#    0.000    0.000    0.000    5.500    0.000    7.000 
#    0.000    0.000    0.000    0.000    0.000    0.000 
#
# Total GULP energy -297320.820965 kJ/mol
# GULP energy per Si atom -12388.367540 kJ/mol
# Density = 1.813296 g / cm^3
# Si number density = 18.174328 Si / 1000 Ang^3
#
#
#
# Elastic Constant Matrix: (Units=GPa)
#
#
# Indices 1 2 3 4 5 6 
#
# 1 93.6343 21.2318 65.6414 0.0000 -5.6748 0.0000
# 2 21.2318 75.9433 31.9284 0.0000 1.5958 0.0000
# 3 65.6414 31.9284 138.2643 0.0000 -5.1644 0.0000
# 4 0.0000 0.0000 0.0000 15.4036 0.0000 4.1290
# 5 -5.6748 1.5958 -5.1644 0.0000 16.9051 0.0000
# 6 0.0000 0.0000 0.0000 4.1290 0.0000 6.1768
#
#
#
# Elastic Compliance Matrix: (Units=1/GPa)
#
#
# Indices 1 2 3 4 5 6 
#
# 1 0.016338 -0.001586 -0.007263 0.000000 0.003415 0.000000
# 2 -0.001586 0.014837 -0.002777 0.000000 -0.002781 0.000000
# 3 -0.007263 -0.002777 0.011370 0.000000 0.001298 0.000000
# 4 0.000000 0.000000 0.000000 0.079092 0.000000 -0.052870
# 5 0.003415 -0.002781 0.001298 0.000000 0.060959 0.000000
# 6 0.000000 0.000000 0.000000 -0.052870 0.000000 0.197237
#
#
# Mechanical properties :
#
#
# Convention : Reuss Voigt Hill
#
# Bulk Modulus (GPa) = 51.83052 60.60501 56.21777
# Shear Modulus (GPa) = 12.20953 20.29980 16.25466
#
# Velocity S-wave (km/s) = 2.59472 3.34570 2.99385
# Velocity P-wave (km/s) = 6.12840 6.95298 6.55367
#
# Compressibility (1/GPa) = 0.01929365
#
# Stress axis : x y z
#
# Youngs Moduli (GPa) = 61.20746 67.39840 87.94874
#
# Poissons Ratio (x) = 0.10690 0.63874
# Poissons Ratio (y) = 0.09708 0.24425
# Poissons Ratio (z) = 0.44453 0.18718
#
# Static dielectric constant tensor:
#      x y z
#    x 3.162720 0.000000 0.017750 
#    y 0.000000 3.305970 0.000000 
#    z 0.017750 0.000000 3.692680 
# 
# 
# High freq. dielectric constant tensor:
#      x y z
#    x 1.646090 0.000000 -0.002860 
#    y 0.000000 1.702790 0.000000 
#    z -0.002860 0.000000 1.727750 
# 
# From -- ./inp_files/52621.got.cif
#   From: 2010.06.25/outbox.cif.g09.slc.cpg/sg10_27_cif.got.tgz:52621.got - 2010.06.27 22:07:45.
