data_PCOD8060703
_publ_section_title
;
Structure prediction by ZEFSAII (Michael W. Deem and Ramdas Pophale) SiO2 
 PCOD8060703
Probable space group: P 2/M
;
_chemical_formula_sum "Si O2"
_cell_formula_units_Z 32
_cell_length_a 30.643456
_cell_length_b 8.914861
_cell_length_c 13.000093
_cell_angle_alpha 90.000000
_cell_angle_beta 152.640917
_cell_angle_gamma 90.000000
_cell_volume 1632.098387
_symmetry_space_group_name_H-M "P 2/M"
_symmetry_group_IT_number 10
_symmetry_cell_setting 'monoclinic'
loop_
_space_group_symop_operation_xyz
x,y,z
-x,y,-z
-x,-y,-z
x,-y,z
loop_
_atom_site_type_symbol
_atom_site_label
_atom_site_fract_x
_atom_site_fract_y
_atom_site_fract_z
Si Si1 0.124275 0.822094 0.059721
Si Si2 0.395836 0.178643 0.316679
Si Si3 0.068842 0.676211 0.376061
Si Si4 0.667223 0.669014 0.165416
Si Si5 0.842987 0.330423 0.659251
Si Si6 0.756564 0.825152 0.168769
Si Si7 0.508349 0.834130 0.137809
Si Si8 0.683128 0.174542 0.633784
O O1 0.129432 0.777570 0.190298
O O2 0.214488 0.757860 0.184006
O O3 0.119316 0.000000 0.044122
O O4 0.031860 0.752753 0.812808
O O5 0.500000 0.242154 0.500000
O O6 0.365028 0.243471 0.364038
O O7 0.402524 0.000000 0.331293
O O8 0.311869 0.233325 0.065395
O O9 0.060469 0.500000 0.373857
O O10 0.101421 0.716804 0.328203
O O11 0.143271 0.737524 0.616899
O O12 0.677616 0.500000 0.142137
O O13 0.730419 0.682652 0.401009
O O14 0.700928 0.793901 0.156830
O O15 0.558600 0.703352 0.961124
O O16 0.870924 0.500000 0.749225
O O17 0.778603 0.000000 0.203382
O O18 0.614524 0.792943 0.393924
O O19 0.481297 0.000000 0.125689
O O20 0.500000 0.838710 0.000000
O O21 0.698089 0.000000 0.685411
#
# Coordination Sequence:
#
# PCOD8060703 Si02
#       8
#     4   4   4   4   4   4   4   4
#     4  11  21  33  53  79 107 140 179 224 267 312
#     4   9  17  32  57  84 107 135 171 216 271 322
#     4  10  21  37  55  76 108 145 177 217 269 319
#     4  10  20  33  50  75 109 144 174 213 269 326
#     4   9  19  34  51  73 105 145 180 212 260 318
#     4  10  19  33  57  83 102 129 177 226 264 310
#     4  10  19  32  52  77 106 142 182 222 262 308
#     4   9  19  34  51  78 112 139 172 222 275 321
#
# _framework density 19.606662
#
# number of rings (size 3 to 8) (size 9 to 14) (size 15 to 20)
#    0.000    2.250    0.000    4.125    0.000    7.750 
#    0.000    1.875    0.000   13.500    0.000    0.000 
#    0.000    0.000    0.000    0.000    0.000    0.000 
#
# Total GULP energy -396669.234502 kJ/mol
# GULP energy per Si atom -12395.913578 kJ/mol
# Density = 1.956204 g / cm^3
# Si number density = 19.606662 Si / 1000 Ang^3
#
#
#
# Elastic Constant Matrix: (Units=GPa)
#
#
# Indices 1 2 3 4 5 6 
#
# 1 84.4123 25.8260 73.3457 0.0000 14.8281 0.0000
# 2 25.8260 57.2617 45.2391 0.0000 6.0151 0.0000
# 3 73.3457 45.2391 166.1998 0.0000 14.3193 0.0000
# 4 0.0000 0.0000 0.0000 18.8591 0.0000 9.3719
# 5 14.8281 6.0151 14.3193 0.0000 36.5371 0.0000
# 6 0.0000 0.0000 0.0000 9.3719 0.0000 11.0951
#
#
#
# Elastic Compliance Matrix: (Units=1/GPa)
#
#
# Indices 1 2 3 4 5 6 
#
# 1 0.020262 -0.002419 -0.007875 0.000000 -0.004738 0.000000
# 2 -0.002419 0.022600 -0.005018 0.000000 -0.000772 0.000000
# 3 -0.007875 -0.005018 0.010879 0.000000 -0.000242 0.000000
# 4 0.000000 0.000000 0.000000 0.091385 0.000000 -0.077192
# 5 -0.004738 -0.000772 -0.000242 0.000000 0.029514 0.000000
# 6 0.000000 0.000000 0.000000 -0.077192 0.000000 0.155334
#
#
# Mechanical properties :
#
#
# Convention : Reuss Voigt Hill
#
# Bulk Modulus (GPa) = 43.25788 66.29948 54.77868
# Shear Modulus (GPa) = 13.57581 24.19579 18.88580
#
# Velocity S-wave (km/s) = 2.63422 3.51673 3.10697
# Velocity P-wave (km/s) = 5.60026 7.09775 6.39300
#
# Compressibility (1/GPa) = 0.02311718
#
# Stress axis : x y z
#
# Youngs Moduli (GPa) = 49.35441 44.24792 91.92263
#
# Poissons Ratio (x) = 0.10704 0.72389
# Poissons Ratio (y) = 0.11939 0.46122
# Poissons Ratio (z) = 0.38866 0.22202
#
# Static dielectric constant tensor:
#      x y z
#    x 3.548050 0.000000 0.177110 
#    y 0.000000 3.362450 0.000000 
#    z 0.177110 0.000000 3.861390 
# 
# 
# High freq. dielectric constant tensor:
#      x y z
#    x 1.741790 0.000000 0.010980 
#    y 0.000000 1.738400 0.000000 
#    z 0.010980 0.000000 1.779560 
# 
# From -- ./inp_files/58251.got.cif
#   From: 2010.06.25/outbox.cif.g09.slc.cpg/sg10_30_cif.got.tgz:58251.got - 2010.06.27 22:07:45.
