data_PCOD8060744
_publ_section_title
;
Structure prediction by ZEFSAII (Michael W. Deem and Ramdas Pophale) SiO2 
 PCOD8060744
Probable space group: P 2/M
;
_chemical_formula_sum "Si O2"
_cell_formula_units_Z 32
_cell_length_a 21.817919
_cell_length_b 8.890490
_cell_length_c 28.255842
_cell_angle_alpha 90.000000
_cell_angle_beta 161.060696
_cell_angle_gamma 90.000000
_cell_volume 1778.896811
_symmetry_space_group_name_H-M "P 2/M"
_symmetry_group_IT_number 10
_symmetry_cell_setting 'monoclinic'
loop_
_space_group_symop_operation_xyz
x,y,z
-x,y,-z
-x,-y,-z
x,-y,z
loop_
_atom_site_type_symbol
_atom_site_label
_atom_site_fract_x
_atom_site_fract_y
_atom_site_fract_z
Si Si1 0.883440 0.676970 0.058745
Si Si2 0.190817 0.676781 0.661467
Si Si3 0.172781 0.678025 0.349304
Si Si4 0.928299 0.321168 0.896761
Si Si5 0.701186 0.172118 0.163637
Si Si6 0.588694 0.322863 0.916322
Si Si7 0.878351 0.172581 0.195028
Si Si8 0.461777 0.177945 0.418382
O O1 0.893284 0.500000 0.064898
O O2 0.051151 0.734485 0.215350
O O3 0.919357 0.735490 0.031578
O O4 0.680966 0.727313 0.933059
O O5 0.169676 0.500000 0.650454
O O6 0.218383 0.736915 0.733938
O O7 0.367428 0.718891 0.756258
O O8 0.000000 0.747305 0.500000
O O9 0.201067 0.500000 0.371172
O O10 0.374246 0.758142 0.495286
O O11 0.062631 0.731219 0.315768
O O12 0.902761 0.500000 0.877190
O O13 0.730390 0.246561 0.740978
O O14 0.000000 0.264840 0.000000
O O15 0.853236 0.187195 0.232828
O O16 0.671943 0.000000 0.158033
O O17 0.500000 0.239331 0.000000
O O18 0.622707 0.500000 0.949454
O O19 0.690418 0.235558 0.032914
O O20 0.906351 0.000000 0.200052
O O21 0.500000 0.230791 0.500000
O O22 0.453455 0.000000 0.408098
#
# Coordination Sequence:
#
# PCOD8060744 Si02
#       8
#     4   4   4   4   4   4   4   4
#     4   8  15  29  50  75 101 133 174 223 268 318
#     4  10  21  35  52  78 110 144 185 232 275 317
#     4  10  19  33  55  80 108 141 179 223 276 323
#     4  10  20  35  55  79 108 144 187 228 274 328
#     4  10  20  35  54  78 107 141 178 218 271 327
#     4   9  17  31  51  74 102 139 181 221 270 323
#     4  10  19  32  52  79 111 137 173 226 273 323
#     4  11  22  35  54  81 111 143 181 224 274 322
#
# _framework density 17.988676000000002
#
# number of rings (size 3 to 8) (size 9 to 14) (size 15 to 20)
#    0.000    2.250    2.500    1.875    0.000    2.250 
#    0.000    1.250    0.000    3.000    0.000    0.000 
#    0.000    0.000    0.000    0.000    0.000    0.000 
#
# Total GULP energy -396723.444583 kJ/mol
# GULP energy per Si atom -12397.607643 kJ/mol
# Density = 1.794773 g / cm^3
# Si number density = 17.988676 Si / 1000 Ang^3
#
#
#
# Elastic Constant Matrix: (Units=GPa)
#
#
# Indices 1 2 3 4 5 6 
#
# 1 133.4067 28.6157 76.8220 0.0000 10.0189 0.0000
# 2 28.6157 31.1894 34.1820 0.0000 -0.8630 0.0000
# 3 76.8220 34.1820 132.9519 0.0000 7.5804 0.0000
# 4 0.0000 0.0000 0.0000 18.4641 0.0000 7.2248
# 5 10.0189 -0.8630 7.5804 0.0000 24.9324 0.0000
# 6 0.0000 0.0000 0.0000 7.2248 0.0000 -5.4440
#
#
#
# Elastic Compliance Matrix: (Units=1/GPa)
#
#
# Indices 1 2 3 4 5 6 
#
# 1 0.011959 -0.005152 -0.005395 0.000000 -0.003344 0.000000
# 2 -0.005152 0.047513 -0.009617 0.000000 0.006639 0.000000
# 3 -0.005395 -0.009617 0.013236 0.000000 -0.002189 0.000000
# 4 0.000000 0.000000 0.000000 0.035648 0.000000 0.047309
# 5 -0.003344 0.006639 -0.002189 0.000000 0.042348 0.000000
# 6 0.000000 0.000000 0.000000 0.047309 0.000000 -0.120904
#
#
# Mechanical properties :
#
#
# Convention : Reuss Voigt Hill
#
# Bulk Modulus (GPa) = 30.88353 64.08749 47.48551
# Shear Modulus (GPa) = 61.78948 18.11903 39.95426
#
# Velocity S-wave (km/s) = 5.86717 3.17716 4.71794
# Velocity P-wave (km/s) = 7.94379 7.01163 7.49222
#
# Compressibility (1/GPa) = 0.03237972
#
# Stress axis : x y z
#
# Youngs Moduli (GPa) = 83.62190 21.04696 75.55122
#
# Poissons Ratio (x) = 0.10843 0.40757
# Poissons Ratio (y) = 0.43082 0.72659
# Poissons Ratio (z) = 0.45111 0.20241
#
# Static dielectric constant tensor:
#      x y z
#    x 3.775780 0.000000 0.244700 
#    y 0.000000 3.198620 0.000000 
#    z 0.244700 0.000000 3.269430 
# 
# 
# High freq. dielectric constant tensor:
#      x y z
#    x 1.704470 0.000000 0.022890 
#    y 0.000000 1.685790 0.000000 
#    z 0.022890 0.000000 1.676060 
# 
# From -- ./inp_files/86920.got.cif
#   From: 2010.06.25/outbox.cif.g09.slc.cpg/sg10_44_cif.got.tgz:86920.got - 2010.06.27 22:07:45.
