data_PCOD8060237
_publ_section_title
;
Structure prediction by ZEFSAII (Michael W. Deem and Ramdas Pophale) SiO2 
 PCOD8060237
Probable space group: P 2/M
;
_chemical_formula_sum "Si O2"
_cell_formula_units_Z 28
_cell_length_a 8.747472
_cell_length_b 31.391498
_cell_length_c 5.138061
_cell_angle_alpha 90.000000
_cell_angle_beta 110.514241
_cell_angle_gamma 90.000000
_cell_volume 1321.420711
_symmetry_space_group_name_H-M "P 2/M"
_symmetry_group_IT_number 10
_symmetry_cell_setting 'monoclinic'
loop_
_space_group_symop_operation_xyz
x,y,z
-x,y,-z
-x,-y,-z
x,-y,z
loop_
_atom_site_type_symbol
_atom_site_label
_atom_site_fract_x
_atom_site_fract_y
_atom_site_fract_z
Si Si1 0.693702 0.402523 0.605364
Si Si2 0.892256 0.680733 0.692375
Si Si3 0.689735 0.235451 0.604210
Si Si4 0.806291 0.048246 0.852110
Si Si5 0.305801 0.452300 0.892253
Si Si6 0.811375 0.906961 0.352169
Si Si7 0.311567 0.817745 0.892280
O O1 0.500000 0.398641 0.500000
O O2 0.761062 0.356263 0.574291
O O3 0.757345 0.434261 0.419234
O O4 0.758932 0.421664 0.916212
O O5 0.798542 0.723475 0.716321
O O6 0.000000 0.687477 0.500000
O O7 0.000000 0.666965 0.000000
O O8 0.500000 0.248230 0.500000
O O9 0.729579 0.218483 0.341346
O O10 0.734971 0.200023 0.849914
O O11 0.733182 0.079325 0.582576
O O12 0.753722 0.000000 0.758574
O O13 0.729968 0.063818 0.079461
O O14 0.000000 0.052430 0.000000
O O15 0.237322 0.500000 0.893087
O O16 0.500000 0.453307 0.000000
O O17 0.793185 0.858229 0.255204
O O18 0.000000 0.917743 0.500000
O O19 0.500000 0.831222 0.000000
#
# Coordination Sequence:
#
# PCOD8060237 Si02
#       7
#     4   4   4   4   4   4   4
#     4  10  20  36  59  84 114 152 189 229 278 333
#     4  12  25  40  59  85 116 147 183 232 283 327
#     4  10  22  41  61  81 107 145 188 223 270 336
#     4   9  17  30  49  74 104 139 180 221 261 310
#     4   9  17  31  56  88 114 142 190 242 276 312
#     4  10  19  31  51  78 105 137 176 221 269 317
#     4  10  21  37  58  81 108 141 177 223 274 329
#
# _framework density 21.189316999999999
#
# number of rings (size 3 to 8) (size 9 to 14) (size 15 to 20)
#    0.000    2.000    0.000    3.857    0.000    5.143 
#    0.000    5.714    0.000   11.143    0.000    0.000 
#    0.000    0.000    0.000    0.000    0.000    0.000 
#
# Total GULP energy -347166.845936 kJ/mol
# GULP energy per Si atom -12398.815926 kJ/mol
# Density = 2.114109 g / cm^3
# Si number density = 21.189317 Si / 1000 Ang^3
#
#
#
# Elastic Constant Matrix: (Units=GPa)
#
#
# Indices 1 2 3 4 5 6 
#
# 1 43.1055 31.3533 35.7768 0.0000 -20.5050 0.0000
# 2 31.3533 119.0137 39.5676 0.0000 -7.4491 0.0000
# 3 35.7768 39.5676 122.5902 0.0000 -32.1953 0.0000
# 4 0.0000 0.0000 0.0000 37.7238 0.0000 -3.4221
# 5 -20.5050 -7.4491 -32.1953 0.0000 25.2457 0.0000
# 6 0.0000 0.0000 0.0000 -3.4221 0.0000 16.3499
#
#
#
# Elastic Compliance Matrix: (Units=1/GPa)
#
#
# Indices 1 2 3 4 5 6 
#
# 1 0.047988 -0.009873 -0.002025 0.000000 0.033480 0.000000
# 2 -0.009873 0.011490 -0.003071 0.000000 -0.008546 0.000000
# 3 -0.002025 -0.003071 0.013637 0.000000 0.014840 0.000000
# 4 0.000000 0.000000 0.000000 0.027022 0.000000 0.005656
# 5 0.033480 -0.008546 0.014840 0.000000 0.083207 0.000000
# 6 0.000000 0.000000 0.000000 0.005656 0.000000 0.062346
#
#
# Mechanical properties :
#
#
# Convention : Reuss Voigt Hill
#
# Bulk Modulus (GPa) = 23.16180 55.34496 39.25338
# Shear Modulus (GPa) = 17.24021 27.73133 22.48577
#
# Velocity S-wave (km/s) = 2.85551 3.62158 3.26112
# Velocity P-wave (km/s) = 4.67189 6.60785 5.72234
#
# Compressibility (1/GPa) = 0.04317455
#
# Stress axis : x y z
#
# Youngs Moduli (GPa) = 20.83876 87.03504 73.33047
#
# Poissons Ratio (x) = 0.85930 0.14851
# Poissons Ratio (y) = 0.20574 0.22523
# Poissons Ratio (z) = 0.04220 0.26732
#
# Static dielectric constant tensor:
#      x y z
#    x 3.601220 0.000000 -0.292390 
#    y 0.000000 3.716230 0.000000 
#    z -0.292390 0.000000 4.106920 
# 
# 
# High freq. dielectric constant tensor:
#      x y z
#    x 1.799860 0.000000 -0.022250 
#    y 0.000000 1.836260 0.000000 
#    z -0.022250 0.000000 1.845240 
# 
# From -- ./inp_files/5548.got.cif
#   From: 2010.06.25/outbox.cif.g09.slc.cpg/sg10_3_cif.got.tgz:5548.got - 2010.06.27 22:07:45.
