data_PCOD8060834
_publ_section_title
;
Structure prediction by ZEFSAII (Michael W. Deem and Ramdas Pophale) SiO2 
 PCOD8060834
Probable space group: P 2/M
;
_chemical_formula_sum "Si O2"
_cell_formula_units_Z 28
_cell_length_a 13.161997
_cell_length_b 12.516677
_cell_length_c 9.689819
_cell_angle_alpha 90.000000
_cell_angle_beta 72.225137
_cell_angle_gamma 90.000000
_cell_volume 1520.140038
_symmetry_space_group_name_H-M "P 2/M"
_symmetry_group_IT_number 10
_symmetry_cell_setting 'monoclinic'
loop_
_space_group_symop_operation_xyz
x,y,z
-x,y,-z
-x,-y,-z
x,-y,z
loop_
_atom_site_type_symbol
_atom_site_label
_atom_site_fract_x
_atom_site_fract_y
_atom_site_fract_z
Si Si1 0.901367 0.500000 0.141737
Si Si2 0.725533 0.878419 0.052915
Si Si3 0.199003 0.716308 0.766562
Si Si4 0.580121 0.621681 0.342114
Si Si5 0.722252 0.125031 0.736337
Si Si6 0.879219 0.731986 0.494184
Si Si7 0.893648 0.500000 0.463586
Si Si8 0.496215 0.222985 0.844080
O O1 0.837554 0.608982 0.139200
O O2 0.931457 0.500000 0.289851
O O3 0.000000 0.500000 0.000000
O O4 0.801989 0.807999 0.117542
O O5 0.601125 0.859126 0.137708
O O6 0.752710 0.000000 0.075226
O O7 0.750532 0.850986 0.883460
O O8 0.317628 0.692902 0.660515
O O9 0.125396 0.755683 0.668923
O O10 0.500000 0.628945 0.500000
O O11 0.614998 0.500000 0.298021
O O12 0.521356 0.668383 0.232584
O O13 0.805989 0.186834 0.606963
O O14 0.603092 0.163505 0.750735
O O15 0.730950 0.000000 0.698835
O O16 0.832102 0.609832 0.528608
O O17 0.000000 0.741885 0.500000
O O18 0.000000 0.500000 0.500000
O O19 0.500000 0.259801 0.000000
#
# Coordination Sequence:
#
# PCOD8060834 Si02
#       8
#     2   4   4   4   4   4   2   4
#     4  10  20  34  55  77 103 142 177 217 267 312
#     4   9  19  35  57  81 108 142 178 222 273 323
#     4  10  20  36  55  80 112 140 182 224 268 325
#     4  10  19  32  53  79 112 146 174 212 268 325
#     4  10  20  36  56  80 109 143 184 224 268 319
#     4  10  21  37  57  78 107 142 184 227 270 318
#     4   8  18  36  54  75 101 130 173 223 266 316
#     4   9  18  34  54  79 109 141 178 218 265 321
#
# _framework density 18.419356000000001
#
# number of rings (size 3 to 8) (size 9 to 14) (size 15 to 20)
#    0.000    2.429    0.714    1.286    0.000    6.286 
#    1.286    0.000    0.000    6.857    0.000    0.000 
#    0.000    0.000    0.000    0.000    0.000    0.000 
#
# Total GULP energy -347068.050100 kJ/mol
# GULP energy per Si atom -12395.287504 kJ/mol
# Density = 1.837743 g / cm^3
# Si number density = 18.419356 Si / 1000 Ang^3
#
#
#
# Elastic Constant Matrix: (Units=GPa)
#
#
# Indices 1 2 3 4 5 6 
#
# 1 82.8997 40.2692 45.3488 0.0000 12.3340 0.0000
# 2 40.2692 100.7630 62.4214 0.0000 9.3518 0.0000
# 3 45.3488 62.4214 80.1957 0.0000 1.4552 0.0000
# 4 0.0000 0.0000 0.0000 26.9884 0.0000 16.1488
# 5 12.3340 9.3518 1.4552 0.0000 34.9899 0.0000
# 6 0.0000 0.0000 0.0000 16.1488 0.0000 4.9445
#
#
#
# Elastic Compliance Matrix: (Units=1/GPa)
#
#
# Indices 1 2 3 4 5 6 
#
# 1 0.018739 -0.000845 -0.009831 0.000000 -0.005971 0.000000
# 2 -0.000845 0.019941 -0.014963 0.000000 -0.004409 0.000000
# 3 -0.009831 -0.014963 0.029562 0.000000 0.006235 0.000000
# 4 0.000000 0.000000 0.000000 -0.038829 0.000000 0.126817
# 5 -0.005971 -0.004409 0.006235 0.000000 0.031604 0.000000
# 6 0.000000 0.000000 0.000000 0.126817 0.000000 -0.211941
#
#
# Mechanical properties :
#
#
# Convention : Reuss Voigt Hill
#
# Bulk Modulus (GPa) = 58.94661 62.21524 60.58093
# Shear Modulus (GPa) = -53.19618 21.10581 -16.04519
#
# Velocity S-wave (km/s) = -5.37990 3.38871 -2.95465
# Velocity P-wave (km/s) = 2.55324 7.01153 4.61750
#
# Compressibility (1/GPa) = 0.01696450
#
# Stress axis : x y z
#
# Youngs Moduli (GPa) = 53.36395 50.14837 33.82680
#
# Poissons Ratio (x) = 0.04237 0.33254
# Poissons Ratio (y) = 0.04509 0.50617
# Poissons Ratio (z) = 0.52460 0.75039
#
# Static dielectric constant tensor:
#      x y z
#    x 3.551720 0.000000 0.238040 
#    y 0.000000 4.417600 0.000000 
#    z 0.238040 0.000000 3.305960 
# 
# 
# High freq. dielectric constant tensor:
#      x y z
#    x 1.710570 0.000000 0.011940 
#    y 0.000000 1.719470 0.000000 
#    z 0.011940 0.000000 1.706670 
# 
# From -- ./inp_files/28267.got.cif
#   From: 2010.06.25/outbox.cif.g09.slc.cpg/sg10_15_cif.got.tgz:28267.got - 2010.06.27 22:07:45.
