data_PCOD8060808
_publ_section_title
;
Structure prediction by ZEFSAII (Michael W. Deem and Ramdas Pophale) SiO2 
 PCOD8060808
Probable space group: P 2/M
;
_chemical_formula_sum "Si O2"
_cell_formula_units_Z 32
_cell_length_a 12.302943
_cell_length_b 9.407278
_cell_length_c 15.095137
_cell_angle_alpha 90.000000
_cell_angle_beta 92.466787
_cell_angle_gamma 90.000000
_cell_volume 1745.450025
_symmetry_space_group_name_H-M "P 2/M"
_symmetry_group_IT_number 10
_symmetry_cell_setting 'monoclinic'
loop_
_space_group_symop_operation_xyz
x,y,z
-x,y,-z
-x,-y,-z
x,-y,z
loop_
_atom_site_type_symbol
_atom_site_label
_atom_site_fract_x
_atom_site_fract_y
_atom_site_fract_z
Si Si1 0.755528 0.166957 0.063244
Si Si2 0.966939 0.831232 0.169733
Si Si3 0.551288 0.666031 0.095654
Si Si4 0.379990 0.335496 0.237766
Si Si5 0.205327 0.833528 0.134954
Si Si6 0.605910 0.665455 0.558209
Si Si7 0.972204 0.831551 0.366360
Si Si8 0.821872 0.831654 0.518140
O O1 0.870363 0.224586 0.104103
O O2 0.661971 0.247653 0.113142
O O3 0.742596 0.000000 0.079649
O O4 0.746880 0.204164 0.959372
O O5 0.952414 0.768295 0.268085
O O6 0.081094 0.779863 0.133298
O O7 0.964177 0.000000 0.172582
O O8 0.578199 0.500000 0.099029
O O9 0.474556 0.712386 0.173931
O O10 0.500000 0.710429 0.000000
O O11 0.351809 0.500000 0.222187
O O12 0.272068 0.246517 0.213105
O O13 0.416957 0.303492 0.339122
O O14 0.212630 0.000000 0.155874
O O15 0.500000 0.715142 0.500000
O O16 0.630099 0.500000 0.542637
O O17 0.708711 0.752712 0.527594
O O18 0.872684 0.783759 0.425529
O O19 0.090571 0.781039 0.405168
O O20 0.975539 0.000000 0.365991
O O21 0.800768 0.000000 0.521592
#
# Coordination Sequence:
#
# PCOD8060808 Si02
#       8
#     4   4   4   4   4   4   4   4
#     4  10  20  32  50  77 106 134 167 211 255 297
#     4   9  17  30  48  74 108 140 166 199 253 308
#     4  10  20  36  55  72  97 135 174 210 251 300
#     4  10  21  37  56  75  98 134 175 210 251 304
#     4  10  19  32  53  78 104 133 169 210 251 299
#     4  10  22  38  53  73 104 137 167 207 259 306
#     4   8  15  29  51  77 104 134 167 206 251 301
#     4   9  17  32  55  79 101 130 171 212 250 296
#
# _framework density 18.333379999999998
#
# number of rings (size 3 to 8) (size 9 to 14) (size 15 to 20)
#    0.000    2.500    1.250    1.875    0.000    5.000 
#    0.000    1.875    0.000    3.000    0.000    0.000 
#    0.000    0.000    0.000    0.000    0.000    0.000 
#
# Total GULP energy -396788.112717 kJ/mol
# GULP energy per Si atom -12399.628522 kJ/mol
# Density = 1.829165 g / cm^3
# Si number density = 18.333380 Si / 1000 Ang^3
#
#
#
# Elastic Constant Matrix: (Units=GPa)
#
#
# Indices 1 2 3 4 5 6 
#
# 1 154.9210 50.6594 63.6280 0.0000 -1.3956 0.0000
# 2 50.6594 36.3156 32.8841 0.0000 0.4237 0.0000
# 3 63.6280 32.8841 96.5238 0.0000 4.5682 0.0000
# 4 0.0000 0.0000 0.0000 19.5998 0.0000 1.0143
# 5 -1.3956 0.4237 4.5682 0.0000 31.7536 0.0000
# 6 0.0000 0.0000 0.0000 1.0143 0.0000 -5.7494
#
#
#
# Elastic Compliance Matrix: (Units=1/GPa)
#
#
# Indices 1 2 3 4 5 6 
#
# 1 0.012622 -0.014511 -0.003436 0.000000 0.001243 0.000000
# 2 -0.014511 0.056569 -0.009706 0.000000 0.000004 0.000000
# 3 -0.003436 -0.009706 0.016042 0.000000 -0.002329 0.000000
# 4 0.000000 0.000000 0.000000 0.050559 0.000000 0.008919
# 5 0.001243 0.000004 -0.002329 0.000000 0.031882 0.000000
# 6 0.000000 0.000000 0.000000 0.008919 0.000000 -0.172357
#
#
# Mechanical properties :
#
#
# Convention : Reuss Voigt Hill
#
# Bulk Modulus (GPa) = 33.41563 64.67818 49.04690
# Shear Modulus (GPa) = 82.50819 18.49339 50.50079
#
# Velocity S-wave (km/s) = 6.71581 3.17949 5.25410
# Velocity P-wave (km/s) = 8.85451 6.98816 7.97611
#
# Compressibility (1/GPa) = 0.02992611
#
# Stress axis : x y z
#
# Youngs Moduli (GPa) = 79.22416 17.67766 62.33672
#
# Poissons Ratio (x) = 0.25653 0.21417
# Poissons Ratio (y) = 1.14966 0.60506
# Poissons Ratio (z) = 0.27218 0.17159
#
# Static dielectric constant tensor:
#      x y z
#    x 3.401470 0.000000 0.001250 
#    y 0.000000 3.014430 0.000000 
#    z 0.001250 0.000000 3.678620 
# 
# 
# High freq. dielectric constant tensor:
#      x y z
#    x 1.716750 0.000000 -0.004830 
#    y 0.000000 1.674340 0.000000 
#    z -0.004830 0.000000 1.720070 
# 
# From -- ./inp_files/49951.got.cif
#   From: 2010.06.25/outbox.cif.g09.slc.cpg/sg10_25_cif.got.tgz:49951.got - 2010.06.27 22:07:45.
