data_PCOD8060805
_publ_section_title
;
Structure prediction by ZEFSAII (Michael W. Deem and Ramdas Pophale) SiO2 
 PCOD8060805
Probable space group: P 2/M
;
_chemical_formula_sum "Si O2"
_cell_formula_units_Z 20
_cell_length_a 22.050089
_cell_length_b 7.330936
_cell_length_c 8.850940
_cell_angle_alpha 90.000000
_cell_angle_beta 48.133089
_cell_angle_gamma 90.000000
_cell_volume 1065.464137
_symmetry_space_group_name_H-M "P 2/M"
_symmetry_group_IT_number 10
_symmetry_cell_setting 'monoclinic'
loop_
_space_group_symop_operation_xyz
x,y,z
-x,y,-z
-x,-y,-z
x,-y,z
loop_
_atom_site_type_symbol
_atom_site_label
_atom_site_fract_x
_atom_site_fract_y
_atom_site_fract_z
Si Si1 0.929765 0.000000 0.742994
Si Si2 0.815912 0.296195 0.476904
Si Si3 0.741566 0.000000 0.056718
Si Si4 0.265651 0.000000 0.574955
Si Si5 0.592427 0.000000 0.894547
Si Si6 0.003764 0.290420 0.819785
Si Si7 0.322364 0.289074 0.053430
O O1 0.000000 0.000000 0.500000
O O2 0.060705 0.178596 0.169814
O O3 0.164067 0.000000 0.154937
O O4 0.818186 0.500000 0.406750
O O5 0.905264 0.240691 0.387019
O O6 0.760075 0.277793 0.714986
O O7 0.785504 0.176084 0.388601
O O8 0.726109 0.000000 0.260085
O O9 0.696363 0.818227 0.070019
O O10 0.353371 0.000000 0.347526
O O11 0.608382 0.817450 0.966921
O O12 0.500000 0.000000 0.000000
O O13 0.981050 0.500000 0.832409
O O14 0.000000 0.233800 0.000000
O O15 0.348661 0.500000 0.979369
#
# Coordination Sequence:
#
# PCOD8060805 Si02
#       7
#     2   4   2   2   2   4   4
#     4  12  23  32  47  72 103 138 174 214 256 294
#     4   9  17  32  52  70  93 132 178 215 249 295
#     4  11  22  33  49  75 106 139 170 204 248 299
#     4  10  19  32  53  78 103 130 164 210 254 294
#     4   9  19  37  61  85 101 121 162 206 246 297
#     4  10  20  33  49  69  95 130 174 223 264 292
#     4   9  19  36  55  74 102 138 167 195 241 302
#
# _framework density 18.771163999999999
#
# number of rings (size 3 to 8) (size 9 to 14) (size 15 to 20)
#    0.000    2.200    0.000    3.900    0.000    2.400 
#    0.000    2.000    0.000    1.200    0.000    0.000 
#    0.000    0.000    0.000    0.000    0.000    0.000 
#
# Total GULP energy -247961.364212 kJ/mol
# GULP energy per Si atom -12398.068211 kJ/mol
# Density = 1.872844 g / cm^3
# Si number density = 18.771164 Si / 1000 Ang^3
#
#
#
# Elastic Constant Matrix: (Units=GPa)
#
#
# Indices 1 2 3 4 5 6 
#
# 1 97.4351 56.7449 26.3677 0.0000 0.9668 0.0000
# 2 56.7449 137.9964 27.4938 0.0000 8.7508 0.0000
# 3 26.3677 27.4938 42.4458 0.0000 11.7117 0.0000
# 4 0.0000 0.0000 0.0000 26.3851 0.0000 17.6218
# 5 0.9668 8.7508 11.7117 0.0000 34.0369 0.0000
# 6 0.0000 0.0000 0.0000 17.6218 0.0000 33.3387
#
#
#
# Elastic Compliance Matrix: (Units=1/GPa)
#
#
# Indices 1 2 3 4 5 6 
#
# 1 0.015035 -0.004994 -0.007007 0.000000 0.003268 0.000000
# 2 -0.004994 0.009982 -0.002977 0.000000 -0.001400 0.000000
# 3 -0.007007 -0.002977 0.032677 0.000000 -0.010279 0.000000
# 4 0.000000 0.000000 0.000000 0.058580 0.000000 -0.030963
# 5 0.003268 -0.001400 -0.010279 0.000000 0.033184 0.000000
# 6 0.000000 0.000000 0.000000 -0.030963 0.000000 0.046362
#
#
# Mechanical properties :
#
#
# Convention : Reuss Voigt Hill
#
# Bulk Modulus (GPa) = 36.05137 55.45446 45.75292
# Shear Modulus (GPa) = 21.27459 29.90352 25.58906
#
# Velocity S-wave (km/s) = 3.37020 3.99564 3.69617
# Velocity P-wave (km/s) = 5.86445 7.13396 6.53013
#
# Compressibility (1/GPa) = 0.02773820
#
# Stress axis : x y z
#
# Youngs Moduli (GPa) = 66.50978 100.18030 30.60246
#
# Poissons Ratio (x) = 0.50028 0.21443
# Poissons Ratio (y) = 0.33214 0.09111
# Poissons Ratio (z) = 0.46604 0.29826
#
# Static dielectric constant tensor:
#      x y z
#    x 3.260260 0.000000 0.015340 
#    y 0.000000 3.816060 0.000000 
#    z 0.015340 0.000000 3.253900 
# 
# 
# High freq. dielectric constant tensor:
#      x y z
#    x 1.714370 0.000000 0.006120 
#    y 0.000000 1.744490 0.000000 
#    z 0.006120 0.000000 1.712570 
# 
# From -- ./inp_files/31174.got.cif
#   From: 2010.06.25/outbox.cif.g09.slc.cpg/sg10_16_cif.got.tgz:31174.got - 2010.06.27 22:07:45.
