data_PCOD8060645
_publ_section_title
;
Structure prediction by ZEFSAII (Michael W. Deem and Ramdas Pophale) SiO2 
 PCOD8060645
Probable space group: P 2/M
;
_chemical_formula_sum "Si O2"
_cell_formula_units_Z 32
_cell_length_a 31.264020
_cell_length_b 9.434696
_cell_length_c 11.996732
_cell_angle_alpha 90.000000
_cell_angle_beta 29.898219
_cell_angle_gamma 90.000000
_cell_volume 1763.870479
_symmetry_space_group_name_H-M "P 2/M"
_symmetry_group_IT_number 10
_symmetry_cell_setting 'monoclinic'
loop_
_space_group_symop_operation_xyz
x,y,z
-x,y,-z
-x,-y,-z
x,-y,z
loop_
_atom_site_type_symbol
_atom_site_label
_atom_site_fract_x
_atom_site_fract_y
_atom_site_fract_z
Si Si1 0.295340 0.338878 0.826959
Si Si2 0.609625 0.337208 0.018507
Si Si3 0.594137 0.662790 0.799925
Si Si4 0.465700 0.164885 0.454709
Si Si5 0.091659 0.835686 0.657878
Si Si6 0.224275 0.336421 0.223724
Si Si7 0.894035 0.835384 0.121968
Si Si8 0.245020 0.664155 0.695510
O O1 0.331810 0.500000 0.750009
O O2 0.371690 0.228044 0.657364
O O3 0.241293 0.315336 0.836733
O O4 0.232570 0.310734 0.072861
O O5 0.588460 0.500000 0.097184
O O6 0.526836 0.242832 0.229366
O O7 0.631543 0.320019 0.839245
O O8 0.689936 0.280849 0.908467
O O9 0.582022 0.500000 0.792514
O O10 0.665096 0.728186 0.555694
O O11 0.500000 0.736811 0.000000
O O12 0.500000 0.193513 0.500000
O O13 0.462639 0.000000 0.431540
O O14 0.142370 0.748524 0.450798
O O15 0.121431 0.791047 0.714672
O O16 0.111005 0.000000 0.594890
O O17 0.991618 0.803114 0.867763
O O18 0.209834 0.500000 0.286143
O O19 0.834759 0.745487 0.175324
O O20 0.872751 0.000000 0.153847
O O21 0.236918 0.500000 0.679325
#
# Coordination Sequence:
#
# PCOD8060645 Si02
#       8
#     4   4   4   4   4   4   4   4
#     4  10  21  37  55  76 106 145 182 220 267 317
#     4  10  19  32  52  74 102 139 175 217 271 323
#     4   9  17  30  49  75 104 134 171 215 260 310
#     4  11  22  34  50  75 105 139 182 226 263 308
#     4   9  19  36  58  81 108 140 173 213 266 323
#     4  10  20  33  52  80 107 135 178 225 267 313
#     4   9  19  37  58  81 108 140 175 213 264 324
#     4  10  20  35  57  81 106 140 182 221 264 316
#
# _framework density 18.141921
#
# number of rings (size 3 to 8) (size 9 to 14) (size 15 to 20)
#    0.000    2.250    1.250    2.625    0.000    6.000 
#    0.000    2.500    0.000    5.250    0.000    0.000 
#    0.000    0.000    0.000    0.000    0.000    0.000 
#
# Total GULP energy -396848.869034 kJ/mol
# GULP energy per Si atom -12401.527157 kJ/mol
# Density = 1.810063 g / cm^3
# Si number density = 18.141921 Si / 1000 Ang^3
#
#
#
# Elastic Constant Matrix: (Units=GPa)
#
#
# Indices 1 2 3 4 5 6 
#
# 1 117.7521 43.8919 58.3830 0.0000 -0.1347 0.0000
# 2 43.8919 63.3337 52.3181 0.0000 -2.5859 0.0000
# 3 58.3830 52.3181 118.1819 0.0000 7.4618 0.0000
# 4 0.0000 0.0000 0.0000 26.1910 0.0000 -6.6858
# 5 -0.1347 -2.5859 7.4618 0.0000 27.4983 0.0000
# 6 0.0000 0.0000 0.0000 -6.6858 0.0000 18.1293
#
#
#
# Elastic Compliance Matrix: (Units=1/GPa)
#
#
# Indices 1 2 3 4 5 6 
#
# 1 0.012384 -0.005481 -0.003726 0.000000 0.000556 0.000000
# 2 -0.005481 0.028140 -0.010088 0.000000 0.005357 0.000000
# 3 -0.003726 -0.010088 0.015088 0.000000 -0.005061 0.000000
# 4 0.000000 0.000000 0.000000 0.042149 0.000000 0.015544
# 5 0.000556 0.005357 -0.005061 0.000000 0.038246 0.000000
# 6 0.000000 0.000000 0.000000 0.015544 0.000000 0.060892
#
#
# Mechanical properties :
#
#
# Convention : Reuss Voigt Hill
#
# Bulk Modulus (GPa) = 58.75205 67.60598 63.17902
# Shear Modulus (GPa) = 20.73296 24.00870 22.37083
#
# Velocity S-wave (km/s) = 3.38423 3.64178 3.51536
# Velocity P-wave (km/s) = 6.90838 7.41818 7.16781
#
# Compressibility (1/GPa) = 0.01702068
#
# Stress axis : x y z
#
# Youngs Moduli (GPa) = 80.75090 35.53659 66.27959
#
# Poissons Ratio (x) = 0.19479 0.24697
# Poissons Ratio (y) = 0.44263 0.66861
# Poissons Ratio (z) = 0.30090 0.35848
#
# Static dielectric constant tensor:
#      x y z
#    x 3.370260 0.000000 0.111050 
#    y 0.000000 3.166310 0.000000 
#    z 0.111050 0.000000 3.329380 
# 
# 
# High freq. dielectric constant tensor:
#      x y z
#    x 1.704120 0.000000 0.007400 
#    y 0.000000 1.683670 0.000000 
#    z 0.007400 0.000000 1.701960 
# 
# From -- ./inp_files/55344.got.cif
#   From: 2010.06.25/outbox.cif.g09.slc.cpg/sg10_28_cif.got.tgz:55344.got - 2010.06.27 22:07:45.
