data_PCOD8060350
_publ_section_title
;
Structure prediction by ZEFSAII (Michael W. Deem and Ramdas Pophale) SiO2 
 PCOD8060350
Probable space group: P 2/M
;
_chemical_formula_sum "Si O2"
_cell_formula_units_Z 30
_cell_length_a 31.099938
_cell_length_b 9.521837
_cell_length_c 18.666718
_cell_angle_alpha 90.000000
_cell_angle_beta 17.044072
_cell_angle_gamma 90.000000
_cell_volume 1620.222776
_symmetry_space_group_name_H-M "P 2/M"
_symmetry_group_IT_number 10
_symmetry_cell_setting 'monoclinic'
loop_
_space_group_symop_operation_xyz
x,y,z
-x,y,-z
-x,-y,-z
x,-y,z
loop_
_atom_site_type_symbol
_atom_site_label
_atom_site_fract_x
_atom_site_fract_y
_atom_site_fract_z
Si Si1 0.700056 0.655807 0.805146
Si Si2 0.968867 0.338213 0.752770
Si Si3 0.702705 0.835706 0.424963
Si Si4 0.936419 0.167380 0.938209
Si Si5 0.755191 0.839481 0.497572
Si Si6 0.141893 0.662083 0.227648
Si Si7 0.626472 0.165244 0.057775
Si Si8 0.500000 0.261567 0.000000
O O1 0.707921 0.500000 0.827965
O O2 0.860138 0.701444 0.523999
O O3 0.588837 0.645327 0.915473
O O4 0.649098 0.770629 0.943124
O O5 0.948185 0.500000 0.807375
O O6 0.892895 0.239641 0.932723
O O7 0.889842 0.304853 0.804058
O O8 0.722161 0.766409 0.473173
O O9 0.540704 0.804874 0.652879
O O10 0.727856 0.000000 0.392930
O O11 0.822204 0.775914 0.179445
O O12 0.097290 0.225837 0.703690
O O13 0.929397 0.000000 0.939492
O O14 0.617200 0.832042 0.770565
O O15 0.791668 0.000000 0.425044
O O16 0.185317 0.500000 0.170710
O O17 0.000000 0.700853 0.500000
O O18 0.273946 0.761122 0.041563
O O19 0.661825 0.000000 0.997506
#
# Coordination Sequence:
#
# PCOD8060350 Si02
#       8
#     4   4   4   4   4   4   4   2
#     4  11  22  37  55  80 117 157 184 218 277 340
#     4  10  21  38  58  80 112 147 183 229 279 329
#     4   9  19  36  55  79 114 151 188 229 276 327
#     4  10  20  36  59  81 107 151 197 229 269 326
#     4  10  19  31  53  84 116 147 184 230 278 329
#     4  10  20  38  60  82 111 150 183 220 282 348
#     4  11  22  36  58  87 114 143 183 238 282 323
#     4  12  20  32  54  86 117 150 181 230 271 334
#
# _framework density 18.515972000000001
#
# number of rings (size 3 to 8) (size 9 to 14) (size 15 to 20)
#    0.000    1.733    4.000    1.200    0.000    3.467 
#    0.000    2.000    0.000    4.800    0.000    0.000 
#    0.000    0.000    0.000    0.000    0.000    0.000 
#
# Total GULP energy -371964.626962 kJ/mol
# GULP energy per Si atom -12398.820899 kJ/mol
# Density = 1.847383 g / cm^3
# Si number density = 18.515972 Si / 1000 Ang^3
#
#
#
# Elastic Constant Matrix: (Units=GPa)
#
#
# Indices 1 2 3 4 5 6 
#
# 1 135.9606 45.7560 73.7955 0.0000 1.1366 0.0000
# 2 45.7560 61.0130 42.6673 0.0000 -0.7534 0.0000
# 3 73.7955 42.6673 127.3497 0.0000 12.0570 0.0000
# 4 0.0000 0.0000 0.0000 17.0536 0.0000 -0.2859
# 5 1.1366 -0.7534 12.0570 0.0000 31.7610 0.0000
# 6 0.0000 0.0000 0.0000 -0.2859 0.0000 28.2627
#
#
#
# Elastic Compliance Matrix: (Units=1/GPa)
#
#
# Indices 1 2 3 4 5 6 
#
# 1 0.012008 -0.005255 -0.005337 0.000000 0.001472 0.000000
# 2 -0.005255 0.024054 -0.005275 0.000000 0.002761 0.000000
# 3 -0.005337 -0.005275 0.013180 0.000000 -0.004938 0.000000
# 4 0.000000 0.000000 0.000000 0.058649 0.000000 0.000593
# 5 0.001472 0.002761 -0.004938 0.000000 0.033372 0.000000
# 6 0.000000 0.000000 0.000000 0.000593 0.000000 0.035388
#
#
# Mechanical properties :
#
#
# Convention : Reuss Voigt Hill
#
# Bulk Modulus (GPa) = 57.11877 72.08455 64.60166
# Shear Modulus (GPa) = 23.34026 26.22241 24.78134
#
# Velocity S-wave (km/s) = 3.55427 3.76733 3.66235
# Velocity P-wave (km/s) = 6.91080 7.61178 7.26975
#
# Compressibility (1/GPa) = 0.01750738
#
# Stress axis : x y z
#
# Youngs Moduli (GPa) = 83.27766 41.57296 75.87240
#
# Poissons Ratio (x) = 0.21846 0.40493
# Poissons Ratio (y) = 0.43761 0.40026
# Poissons Ratio (z) = 0.44446 0.21932
#
# Static dielectric constant tensor:
#      x y z
#    x 3.537400 0.000000 -0.053770 
#    y 0.000000 3.099250 0.000000 
#    z -0.053770 0.000000 3.516280 
# 
# 
# High freq. dielectric constant tensor:
#      x y z
#    x 1.727820 0.000000 -0.004820 
#    y 0.000000 1.692600 0.000000 
#    z -0.004820 0.000000 1.716040 
# 
# From -- ./inp_files/80708.got.cif
#   From: 2010.06.25/outbox.cif.g09.slc.cpg/sg10_41_cif.got.tgz:80708.got - 2010.06.27 22:07:45.
