data_PCOD8060329
_publ_section_title
;
Structure prediction by ZEFSAII (Michael W. Deem and Ramdas Pophale) SiO2 
 PCOD8060329
Probable space group: P 2/M
;
_chemical_formula_sum "Si O2"
_cell_formula_units_Z 32
_cell_length_a 14.292296
_cell_length_b 8.872265
_cell_length_c 19.488877
_cell_angle_alpha 90.000000
_cell_angle_beta 46.693250
_cell_angle_gamma 90.000000
_cell_volume 1798.336240
_symmetry_space_group_name_H-M "P 2/M"
_symmetry_group_IT_number 10
_symmetry_cell_setting 'monoclinic'
loop_
_space_group_symop_operation_xyz
x,y,z
-x,y,-z
-x,-y,-z
x,-y,z
loop_
_atom_site_type_symbol
_atom_site_label
_atom_site_fract_x
_atom_site_fract_y
_atom_site_fract_z
Si Si1 0.363273 0.675256 0.865921
Si Si2 0.979235 0.675996 0.340435
Si Si3 0.873088 0.677664 0.101333
Si Si4 0.747235 0.824449 0.951903
Si Si5 0.125647 0.177014 0.480274
Si Si6 0.017418 0.325898 0.814665
Si Si7 0.349016 0.325014 0.283771
Si Si8 0.252279 0.176794 0.203364
O O1 0.338742 0.500000 0.889701
O O2 0.257074 0.744966 0.866933
O O3 0.505310 0.703413 0.763759
O O4 0.353013 0.750903 0.945612
O O5 0.008222 0.500000 0.337587
O O6 0.874239 0.735101 0.447240
O O7 0.926944 0.706148 0.289423
O O8 0.106632 0.772110 0.289416
O O9 0.870185 0.500000 0.092615
O O10 0.877603 0.719239 0.180272
O O11 0.000000 0.744035 0.000000
O O12 0.703873 0.786216 0.896100
O O13 0.890015 0.766894 0.894172
O O14 0.746851 0.000000 0.965103
O O15 0.253837 0.225374 0.376794
O O16 0.000000 0.223782 0.500000
O O17 0.129395 0.000000 0.492215
O O18 0.978325 0.500000 0.842052
O O19 0.310425 0.500000 0.308557
O O20 0.343468 0.270897 0.207721
O O21 0.261316 0.000000 0.215658
#
# Coordination Sequence:
#
# PCOD8060329 Si02
#       8
#     4   4   4   4   4   4   4   4
#     4  10  21  36  53  76 105 139 177 215 258 307
#     4  10  19  31  53  82 107 130 169 219 260 299
#     4   9  15  29  56  80 103 136 173 212 256 306
#     4  10  20  32  49  74 106 142 176 213 252 301
#     4  11  22  36  56  78 103 137 173 209 259 316
#     4   9  17  31  53  80 106 136 171 212 260 305
#     4  11  23  36  53  77 104 135 175 221 260 299
#     4  10  20  34  50  72 105 143 178 207 252 311
#
# _framework density 17.794225999999998
#
# number of rings (size 3 to 8) (size 9 to 14) (size 15 to 20)
#    0.000    2.000    2.500    1.875    0.000    4.000 
#    0.000    3.750    0.000    0.750    0.000    5.250 
#    0.000    0.000    0.000    0.000    0.000    0.000 
#
# Total GULP energy -396763.556926 kJ/mol
# GULP energy per Si atom -12398.861154 kJ/mol
# Density = 1.775373 g / cm^3
# Si number density = 17.794226 Si / 1000 Ang^3
#
#
#
# Elastic Constant Matrix: (Units=GPa)
#
#
# Indices 1 2 3 4 5 6 
#
# 1 103.7058 21.1870 49.0128 0.0000 4.1675 0.0000
# 2 21.1870 39.3691 25.4875 0.0000 1.6628 0.0000
# 3 49.0128 25.4875 94.2396 0.0000 7.0541 0.0000
# 4 0.0000 0.0000 0.0000 25.7748 0.0000 6.7161
# 5 4.1675 1.6628 7.0541 0.0000 24.2729 0.0000
# 6 0.0000 0.0000 0.0000 6.7161 0.0000 9.6264
#
#
#
# Elastic Compliance Matrix: (Units=1/GPa)
#
#
# Indices 1 2 3 4 5 6 
#
# 1 0.013112 -0.003205 -0.005930 0.000000 -0.000308 0.000000
# 2 -0.003205 0.031578 -0.006903 0.000000 0.000393 0.000000
# 3 -0.005930 -0.006903 0.015794 0.000000 -0.003099 0.000000
# 4 0.000000 0.000000 0.000000 0.047418 0.000000 -0.033082
# 5 -0.000308 0.000393 -0.003099 0.000000 0.042125 0.000000
# 6 0.000000 0.000000 0.000000 -0.033082 0.000000 0.126962
#
#
# Mechanical properties :
#
#
# Convention : Reuss Voigt Hill
#
# Bulk Modulus (GPa) = 35.19978 47.63213 41.41595
# Shear Modulus (GPa) = 15.69693 21.37663 18.53678
#
# Velocity S-wave (km/s) = 2.97330 3.46977 3.23109
# Velocity P-wave (km/s) = 5.62244 6.54819 6.10290
#
# Compressibility (1/GPa) = 0.02840927
#
# Stress axis : x y z
#
# Youngs Moduli (GPa) = 76.26474 31.66801 63.31455
#
# Poissons Ratio (x) = 0.10148 0.37544
# Poissons Ratio (y) = 0.24440 0.43706
# Poissons Ratio (z) = 0.45223 0.21861
#
# Static dielectric constant tensor:
#      x y z
#    x 3.505190 0.000000 0.210730 
#    y 0.000000 3.233100 0.000000 
#    z 0.210730 0.000000 3.220890 
# 
# 
# High freq. dielectric constant tensor:
#      x y z
#    x 1.678430 0.000000 0.017410 
#    y 0.000000 1.684780 0.000000 
#    z 0.017410 0.000000 1.675230 
# 
# From -- ./inp_files/66030.got.cif
#   From: 2010.06.25/outbox.cif.g09.slc.cpg/sg10_34_cif.got.tgz:66030.got - 2010.06.27 22:07:45.
