data_PCOD8060312
_publ_section_title
;
Structure prediction by ZEFSAII (Michael W. Deem and Ramdas Pophale) SiO2 
 PCOD8060312
Probable space group: P 2/M
;
_chemical_formula_sum "Si O2"
_cell_formula_units_Z 32
_cell_length_a 32.404389
_cell_length_b 8.886223
_cell_length_c 12.704720
_cell_angle_alpha 90.000000
_cell_angle_beta 152.907298
_cell_angle_gamma 90.000000
_cell_volume 1666.131292
_symmetry_space_group_name_H-M "P 2/M"
_symmetry_group_IT_number 10
_symmetry_cell_setting 'monoclinic'
loop_
_space_group_symop_operation_xyz
x,y,z
-x,y,-z
-x,-y,-z
x,-y,z
loop_
_atom_site_type_symbol
_atom_site_label
_atom_site_fract_x
_atom_site_fract_y
_atom_site_fract_z
Si Si1 0.289918 0.327520 0.201639
Si Si2 0.312378 0.322414 0.850139
Si Si3 0.002853 0.675662 0.627865
Si Si4 0.175700 0.177463 0.120299
Si Si5 0.263682 0.324010 0.507318
Si Si6 0.415050 0.161798 0.738662
Si Si7 0.801716 0.322238 0.216141
Si Si8 0.483513 0.670166 0.699554
O O1 0.258920 0.500000 0.149510
O O2 0.259168 0.237571 0.237107
O O3 0.398812 0.321272 0.425376
O O4 0.239844 0.256347 0.986627
O O5 0.300574 0.500000 0.820217
O O6 0.276756 0.260473 0.656204
O O7 0.249972 0.251859 0.800498
O O8 0.417110 0.280735 0.116432
O O9 0.024635 0.500000 0.688039
O O10 0.000000 0.723684 0.500000
O O11 0.907361 0.718558 0.464584
O O12 0.079838 0.766944 0.861060
O O13 0.186617 0.236300 0.265722
O O14 0.175015 0.000000 0.117006
O O15 0.240882 0.500000 0.455463
O O16 0.357008 0.294340 0.658355
O O17 0.454482 0.211282 0.718570
O O18 0.361384 0.000000 0.605403
O O19 0.500000 0.126268 0.000000
O O20 0.786288 0.500000 0.178328
O O21 0.491492 0.500000 0.762716
#
# Coordination Sequence:
#
# PCOD8060312 Si02
#       8
#     4   4   4   4   4   4   4   4
#     4  10  19  33  56  85 116 150 183 228 282 335
#     4   9  19  34  54  83 114 151 194 235 272 324
#     4  10  19  36  63  89 112 144 183 231 286 338
#     4  12  24  36  55  86 119 145 180 236 293 342
#     4  11  21  35  56  80 112 150 193 237 282 328
#     4  11  21  31  48  77 111 148 190 234 280 326
#     4   9  18  35  58  84 115 145 186 234 281 335
#     4  10  19  31  52  82 115 151 190 229 274 326
#
# _framework density 19.206168999999999
#
# number of rings (size 3 to 8) (size 9 to 14) (size 15 to 20)
#    0.000    1.750    3.750    1.875    0.000    1.250 
#    0.000    3.125    0.000    8.250    0.000    1.750 
#    0.000    0.000    0.000    0.000    0.000    0.000 
#
# Total GULP energy -396533.594745 kJ/mol
# GULP energy per Si atom -12391.674836 kJ/mol
# Density = 1.916246 g / cm^3
# Si number density = 19.206169 Si / 1000 Ang^3
#
#
#
# Elastic Constant Matrix: (Units=GPa)
#
#
# Indices 1 2 3 4 5 6 
#
# 1 100.7500 20.8472 49.3105 0.0000 7.8880 0.0000
# 2 20.8472 58.4720 38.4611 0.0000 -4.0397 0.0000
# 3 49.3105 38.4611 142.1587 0.0000 5.7487 0.0000
# 4 0.0000 0.0000 0.0000 9.1407 0.0000 -1.1205
# 5 7.8880 -4.0397 5.7487 0.0000 27.2556 0.0000
# 6 0.0000 0.0000 0.0000 -1.1205 0.0000 5.7096
#
#
#
# Elastic Compliance Matrix: (Units=1/GPa)
#
#
# Indices 1 2 3 4 5 6 
#
# 1 0.012386 -0.002304 -0.003544 0.000000 -0.003179 0.000000
# 2 -0.002304 0.021747 -0.005287 0.000000 0.005005 0.000000
# 3 -0.003544 -0.005287 0.009768 0.000000 -0.001818 0.000000
# 4 0.000000 0.000000 0.000000 0.112097 0.000000 0.022000
# 5 -0.003179 0.005005 -0.001818 0.000000 0.038735 0.000000
# 6 0.000000 0.000000 0.000000 0.022000 0.000000 0.179460
#
#
# Mechanical properties :
#
#
# Convention : Reuss Voigt Hill
#
# Bulk Modulus (GPa) = 46.23236 57.62425 51.92831
# Shear Modulus (GPa) = 12.38624 21.27199 16.82911
#
# Velocity S-wave (km/s) = 2.54226 3.33161 2.96334
# Velocity P-wave (km/s) = 5.72200 6.69833 6.22933
#
# Compressibility (1/GPa) = 0.02162987
#
# Stress axis : x y z
#
# Youngs Moduli (GPa) = 80.73669 45.98333 102.37847
#
# Poissons Ratio (x) = 0.10596 0.36287
# Poissons Ratio (y) = 0.18604 0.54125
# Poissons Ratio (z) = 0.28616 0.24310
#
# Static dielectric constant tensor:
#      x y z
#    x 3.587100 0.000000 -0.101850 
#    y 0.000000 3.241250 0.000000 
#    z -0.101850 0.000000 3.763940 
# 
# 
# High freq. dielectric constant tensor:
#      x y z
#    x 1.723020 0.000000 -0.004440 
#    y 0.000000 1.718000 0.000000 
#    z -0.004440 0.000000 1.766300 
# 
# From -- ./inp_files/58319.got.cif
#   From: 2010.06.25/outbox.cif.g09.slc.cpg/sg10_30_cif.got.tgz:58319.got - 2010.06.27 22:07:45.
