data_PCOD8060356
_publ_section_title
;
Structure prediction by ZEFSAII (Michael W. Deem and Ramdas Pophale) SiO2 
 PCOD8060356
Probable space group: P 2/M
;
_chemical_formula_sum "Si O2"
_cell_formula_units_Z 32
_cell_length_a 22.444926
_cell_length_b 9.367846
_cell_length_c 14.999741
_cell_angle_alpha 90.000000
_cell_angle_beta 148.426664
_cell_angle_gamma 90.000000
_cell_volume 1651.325131
_symmetry_space_group_name_H-M "P 2/M"
_symmetry_group_IT_number 10
_symmetry_cell_setting 'monoclinic'
loop_
_space_group_symop_operation_xyz
x,y,z
-x,y,-z
-x,-y,-z
x,-y,z
loop_
_atom_site_type_symbol
_atom_site_label
_atom_site_fract_x
_atom_site_fract_y
_atom_site_fract_z
Si Si1 0.831447 0.834953 0.428696
Si Si2 0.566477 0.664075 0.669837
Si Si3 0.091821 0.161892 0.751712
Si Si4 0.265028 0.669455 0.851382
Si Si5 0.872171 0.170191 0.840390
Si Si6 0.782148 0.837612 0.913206
Si Si7 0.267311 0.166566 0.507810
Si Si8 0.511471 0.663435 0.236830
O O1 0.750394 0.735218 0.266301
O O2 0.809800 0.801337 0.504641
O O3 0.961027 0.797555 0.568655
O O4 0.804294 0.000000 0.373485
O O5 0.500000 0.725749 0.500000
O O6 0.600211 0.500000 0.698503
O O7 0.681457 0.750062 0.829714
O O8 0.487950 0.684361 0.655923
O O9 0.171080 0.268483 0.798386
O O10 0.116385 0.000000 0.750399
O O11 0.112534 0.173388 0.884359
O O12 0.250223 0.500000 0.829956
O O13 0.390568 0.713711 0.043702
O O14 0.816239 0.226705 0.860708
O O15 0.799524 0.227331 0.663774
O O16 0.876847 0.000000 0.845482
O O17 0.000000 0.232050 0.000000
O O18 0.741482 0.000000 0.849694
O O19 0.388209 0.242330 0.675802
O O20 0.291796 0.000000 0.527007
O O21 0.534663 0.500000 0.240314
#
# Coordination Sequence:
#
# PCOD8060356 Si02
#       8
#     4   4   4   4   4   4   4   4
#     4  10  22  39  58  83 114 147 186 233 288 340
#     4  10  20  35  54  76 107 148 185 222 275 330
#     4  10  20  36  58  85 117 148 180 229 289 342
#     4  11  23  39  59  83 111 147 191 235 283 335
#     4   9  17  32  55  84 117 149 183 226 276 329
#     4  10  19  31  54  85 111 141 182 225 271 326
#     4  10  21  37  59  85 113 149 191 232 275 332
#     4  10  22  39  56  78 113 150 185 232 284 333
#
# _framework density 19.378378000000001
#
# number of rings (size 3 to 8) (size 9 to 14) (size 15 to 20)
#    0.000    2.000    1.250    2.250    0.000    7.750 
#    0.000    2.500    0.000    3.000    0.000    0.000 
#    0.000    0.000    0.000    0.000    0.000    0.000 
#
# Total GULP energy -396888.276119 kJ/mol
# GULP energy per Si atom -12402.758629 kJ/mol
# Density = 1.933427 g / cm^3
# Si number density = 19.378378 Si / 1000 Ang^3
#
#
#
# Elastic Constant Matrix: (Units=GPa)
#
#
# Indices 1 2 3 4 5 6 
#
# 1 85.2484 34.3904 34.7932 0.0000 1.6827 0.0000
# 2 34.3904 56.4268 41.3070 0.0000 6.4837 0.0000
# 3 34.7932 41.3070 113.7300 0.0000 -0.3272 0.0000
# 4 0.0000 0.0000 0.0000 3.6229 0.0000 -24.7634
# 5 1.6827 6.4837 -0.3272 0.0000 38.7644 0.0000
# 6 0.0000 0.0000 0.0000 -24.7634 0.0000 -2.9644
#
#
#
# Elastic Compliance Matrix: (Units=1/GPa)
#
#
# Indices 1 2 3 4 5 6 
#
# 1 0.015847 -0.008434 -0.001782 0.000000 0.000708 0.000000
# 2 -0.008434 0.029304 -0.008076 0.000000 -0.004603 0.000000
# 3 -0.001782 -0.008076 0.012276 0.000000 0.001532 0.000000
# 4 0.000000 0.000000 0.000000 0.004751 0.000000 -0.039687
# 5 0.000708 -0.004603 0.001532 0.000000 0.026549 0.000000
# 6 0.000000 0.000000 0.000000 -0.039687 0.000000 -0.005806
#
#
# Mechanical properties :
#
#
# Convention : Reuss Voigt Hill
#
# Bulk Modulus (GPa) = 47.98484 52.93185 50.45835
# Shear Modulus (GPa) = 39.54063 17.54555 28.54309
#
# Velocity S-wave (km/s) = 4.52204 3.01228 3.84205
# Velocity P-wave (km/s) = 7.21671 6.28273 6.76585
#
# Compressibility (1/GPa) = 0.02083991
#
# Stress axis : x y z
#
# Youngs Moduli (GPa) = 63.10532 34.12544 81.46170
#
# Poissons Ratio (x) = 0.28783 0.14520
# Poissons Ratio (y) = 0.53226 0.65789
# Poissons Ratio (z) = 0.11248 0.27560
#
# Static dielectric constant tensor:
#      x y z
#    x 3.497000 0.000000 -0.144660 
#    y 0.000000 3.302940 0.000000 
#    z -0.144660 0.000000 3.688710 
# 
# 
# High freq. dielectric constant tensor:
#      x y z
#    x 1.758340 0.000000 -0.008630 
#    y 0.000000 1.729870 0.000000 
#    z -0.008630 0.000000 1.765800 
# 
# From -- ./inp_files/71710.got.cif
#   From: 2010.06.25/outbox.cif.g09.slc.cpg/sg10_36_cif.got.tgz:71710.got - 2010.06.27 22:07:45.
