data_PCOD8060782
_publ_section_title
;
Structure prediction by ZEFSAII (Michael W. Deem and Ramdas Pophale) SiO2 
 PCOD8060782
Probable space group: P 2/M
;
_chemical_formula_sum "Si O2"
_cell_formula_units_Z 32
_cell_length_a 23.113364
_cell_length_b 9.067760
_cell_length_c 28.560526
_cell_angle_alpha 90.000000
_cell_angle_beta 17.407691
_cell_angle_gamma 90.000000
_cell_volume 1790.794672
_symmetry_space_group_name_H-M "P 2/M"
_symmetry_group_IT_number 10
_symmetry_cell_setting 'monoclinic'
loop_
_space_group_symop_operation_xyz
x,y,z
-x,y,-z
-x,-y,-z
x,-y,z
loop_
_atom_site_type_symbol
_atom_site_label
_atom_site_fract_x
_atom_site_fract_y
_atom_site_fract_z
Si Si1 0.159704 0.672997 0.338511
Si Si2 0.671303 0.831455 0.193465
Si Si3 0.938445 0.832329 0.152157
Si Si4 0.460929 0.832684 0.975360
Si Si5 0.913171 0.672622 0.712403
Si Si6 0.271081 0.830816 0.594812
Si Si7 0.337810 0.673866 0.704527
Si Si8 0.760652 0.170231 0.485899
O O1 0.198506 0.500000 0.314422
O O2 0.365059 0.755206 0.187904
O O3 0.086310 0.712378 0.343096
O O4 0.000000 0.726618 0.500000
O O5 0.723962 0.730899 0.196901
O O6 0.464403 0.793124 0.330544
O O7 0.668469 0.000000 0.213541
O O8 0.833566 0.803512 0.029269
O O9 0.899443 0.802008 0.236832
O O10 0.817891 0.723191 0.213139
O O11 0.883290 0.000000 0.180900
O O12 0.442170 0.000000 0.971641
O O13 0.500000 0.826278 0.000000
O O14 0.257053 0.749713 0.125992
O O15 0.888477 0.500000 0.739006
O O16 0.117435 0.726335 0.574336
O O17 0.452201 0.734288 0.471421
O O18 0.193499 0.787812 0.603426
O O19 0.341080 0.000000 0.540123
O O20 0.345252 0.500000 0.699527
O O21 0.810365 0.000000 0.458182
#
# Coordination Sequence:
#
# PCOD8060782 Si02
#       8
#     4   4   4   4   4   4   4   4
#     4   9  18  33  52  76 108 139 165 198 242 291
#     4   9  19  35  53  71  94 128 166 203 244 294
#     4  10  19  33  53  73  94 124 163 204 250 302
#     4   9  17  30  50  76 103 130 164 204 240 276
#     4  10  19  32  53  76  99 133 170 200 239 292
#     4   9  19  35  53  71  94 127 165 205 247 293
#     4  11  21  31  47  73 102 129 159 199 249 301
#     4   9  18  34  52  70  96 129 167 207 243 285
#
# _framework density 17.869160999999998
#
# number of rings (size 3 to 8) (size 9 to 14) (size 15 to 20)
#    0.000    2.500    0.000    3.375    0.000    8.250 
#    0.000    1.250    0.000    1.500    0.000    0.000 
#    0.000    0.000    0.000    0.000    0.000    0.000 
#
# Total GULP energy -396778.347588 kJ/mol
# GULP energy per Si atom -12399.323362 kJ/mol
# Density = 1.782849 g / cm^3
# Si number density = 17.869161 Si / 1000 Ang^3
#
#
#
# Elastic Constant Matrix: (Units=GPa)
#
#
# Indices 1 2 3 4 5 6 
#
# 1 67.8834 39.0270 68.4845 0.0000 -4.0903 0.0000
# 2 39.0270 89.3035 52.2545 0.0000 -0.0663 0.0000
# 3 68.4845 52.2545 133.9650 0.0000 24.2050 0.0000
# 4 0.0000 0.0000 0.0000 16.7660 0.0000 -8.9379
# 5 -4.0903 -0.0663 24.2050 0.0000 27.3848 0.0000
# 6 0.0000 0.0000 0.0000 -8.9379 0.0000 16.3928
#
#
#
# Elastic Compliance Matrix: (Units=1/GPa)
#
#
# Indices 1 2 3 4 5 6 
#
# 1 0.048482 -0.004111 -0.029142 0.000000 0.032989 0.000000
# 2 -0.004111 0.015735 -0.004679 0.000000 0.003560 0.000000
# 3 -0.029142 -0.004679 0.029723 0.000000 -0.030635 0.000000
# 4 0.000000 0.000000 0.000000 0.084085 0.000000 0.045846
# 5 0.032989 0.003560 -0.030635 0.000000 0.068531 0.000000
# 6 0.000000 0.000000 0.000000 0.045846 0.000000 0.086000
#
#
# Mechanical properties :
#
#
# Convention : Reuss Voigt Hill
#
# Bulk Modulus (GPa) = 55.32240 67.85378 61.58809
# Shear Modulus (GPa) = 12.06436 20.86778 16.46607
#
# Velocity S-wave (km/s) = 2.60118 3.42103 3.03888
# Velocity P-wave (km/s) = 6.32839 7.32527 6.84500
#
# Compressibility (1/GPa) = 0.01807586
#
# Stress axis : x y z
#
# Youngs Moduli (GPa) = 20.62619 63.55275 33.64454
#
# Poissons Ratio (x) = 0.26128 0.98045
# Poissons Ratio (y) = 0.08480 0.15743
# Poissons Ratio (z) = 0.60108 0.29737
#
# Static dielectric constant tensor:
#      x y z
#    x 3.086100 0.000000 0.151440 
#    y 0.000000 3.268800 0.000000 
#    z 0.151440 0.000000 3.514860 
# 
# 
# High freq. dielectric constant tensor:
#      x y z
#    x 1.662870 0.000000 0.005730 
#    y 0.000000 1.688880 0.000000 
#    z 0.005730 0.000000 1.699970 
# 
# From -- ./inp_files/86906.got.cif
#   From: 2010.06.25/outbox.cif.g09.slc.cpg/sg10_44_cif.got.tgz:86906.got - 2010.06.27 22:07:45.
