data_PCOD8060496
_publ_section_title
;
Structure prediction by ZEFSAII (Michael W. Deem and Ramdas Pophale) SiO2 
 PCOD8060496
Probable space group: P 2/M
;
_chemical_formula_sum "Si O2"
_cell_formula_units_Z 32
_cell_length_a 21.045786
_cell_length_b 8.659208
_cell_length_c 15.435357
_cell_angle_alpha 90.000000
_cell_angle_beta 42.208551
_cell_angle_gamma 90.000000
_cell_volume 1889.818654
_symmetry_space_group_name_H-M "P 2/M"
_symmetry_group_IT_number 10
_symmetry_cell_setting 'monoclinic'
loop_
_space_group_symop_operation_xyz
x,y,z
-x,y,-z
-x,-y,-z
x,-y,z
loop_
_atom_site_type_symbol
_atom_site_label
_atom_site_fract_x
_atom_site_fract_y
_atom_site_fract_z
Si Si1 0.782402 0.180754 0.062309
Si Si2 0.099124 0.818476 0.222572
Si Si3 0.890540 0.678899 0.110329
Si Si4 0.882119 0.819569 0.444343
Si Si5 0.400206 0.819229 0.510214
Si Si6 0.774118 0.679056 0.396814
Si Si7 0.887718 0.326450 0.614820
Si Si8 0.596625 0.681200 0.307103
O O1 0.838415 0.216220 0.093241
O O2 0.683135 0.270770 0.158283
O O3 0.761635 0.000000 0.078877
O O4 0.843904 0.237772 0.918882
O O5 0.147005 0.740365 0.258195
O O6 0.990439 0.767235 0.320114
O O7 0.104791 0.000000 0.230828
O O8 0.874983 0.500000 0.101503
O O9 0.849547 0.718461 0.245941
O O10 0.000000 0.724207 0.000000
O O11 0.817836 0.723770 0.444146
O O12 0.848733 0.777425 0.575335
O O13 0.868116 0.000000 0.441724
O O14 0.321253 0.777389 0.519568
O O15 0.502645 0.769762 0.370563
O O16 0.376992 0.726484 0.621334
O O17 0.399739 0.000000 0.531355
O O18 0.747027 0.500000 0.423972
O O19 0.849433 0.500000 0.642589
O O20 0.000000 0.320506 0.500000
O O21 0.578459 0.500000 0.319870
#
# Coordination Sequence:
#
# PCOD8060496 Si02
#       8
#     4   4   4   4   4   4   4   4
#     4  11  21  33  50  73 100 133 171 209 248 297
#     4   9  19  33  49  72 102 135 170 209 251 295
#     4  10  21  34  47  66  98 138 173 206 245 291
#     4  10  19  32  50  72 101 136 171 209 251 297
#     4  11  21  35  54  74  96 126 166 210 255 301
#     4  11  21  33  49  72 102 134 169 208 249 297
#     4   9  17  30  49  72  97 128 167 211 255 298
#     4  11  21  35  53  73  98 128 164 209 257 300
#
# _framework density 16.932842000000001
#
# number of rings (size 3 to 8) (size 9 to 14) (size 15 to 20)
#    0.000    1.750    1.250    5.250    0.000    3.750 
#    0.000    0.000    0.000    0.000    0.000    0.875 
#    0.000    7.000    0.000    0.000    0.000    0.000 
#
# Total GULP energy -396926.653166 kJ/mol
# GULP energy per Si atom -12403.957911 kJ/mol
# Density = 1.689430 g / cm^3
# Si number density = 16.932842 Si / 1000 Ang^3
#
#
#
# Elastic Constant Matrix: (Units=GPa)
#
#
# Indices 1 2 3 4 5 6 
#
# 1 88.8113 24.4535 46.0472 0.0000 2.0424 0.0000
# 2 24.4535 65.1185 18.0699 0.0000 -1.5151 0.0000
# 3 46.0472 18.0699 52.1876 0.0000 -4.1159 0.0000
# 4 0.0000 0.0000 0.0000 23.8730 0.0000 0.8768
# 5 2.0424 -1.5151 -4.1159 0.0000 25.6208 0.0000
# 6 0.0000 0.0000 0.0000 0.8768 0.0000 31.1963
#
#
#
# Elastic Compliance Matrix: (Units=1/GPa)
#
#
# Indices 1 2 3 4 5 6 
#
# 1 0.021895 -0.003173 -0.018608 0.000000 -0.004922 0.000000
# 2 -0.003173 0.017449 -0.003181 0.000000 0.000774 0.000000
# 3 -0.018608 -0.003181 0.037256 0.000000 0.007280 0.000000
# 4 0.000000 0.000000 0.000000 0.041932 0.000000 -0.001179
# 5 -0.004922 0.000774 0.007280 0.000000 0.040639 0.000000
# 6 0.000000 0.000000 0.000000 -0.001179 0.000000 0.032088
#
#
# Mechanical properties :
#
#
# Convention : Reuss Voigt Hill
#
# Bulk Modulus (GPa) = 37.48784 42.58429 40.03607
# Shear Modulus (GPa) = 19.99409 23.97446 21.98428
#
# Velocity S-wave (km/s) = 3.43999 3.76687 3.60713
# Velocity P-wave (km/s) = 6.16159 6.64248 6.40655
#
# Compressibility (1/GPa) = 0.02667532
#
# Stress axis : x y z
#
# Youngs Moduli (GPa) = 45.67316 57.31044 26.84131
#
# Poissons Ratio (x) = 0.18184 0.49947
# Poissons Ratio (y) = 0.14492 0.08538
# Poissons Ratio (z) = 0.84989 0.18231
#
# Static dielectric constant tensor:
#      x y z
#    x 3.070030 0.000000 -0.004670 
#    y 0.000000 3.209320 0.000000 
#    z -0.004670 0.000000 3.219650 
# 
# 
# High freq. dielectric constant tensor:
#      x y z
#    x 1.637900 0.000000 0.001610 
#    y 0.000000 1.666350 0.000000 
#    z 0.001610 0.000000 1.634700 
# 
# From -- ./inp_files/69981.got.cif
#   From: 2010.06.25/outbox.cif.g09.slc.cpg/sg10_35_cif.got.tgz:69981.got - 2010.06.27 22:07:45.
