data_PCOD8060118
_publ_section_title
;
Structure prediction by ZEFSAII (Michael W. Deem and Ramdas Pophale) SiO2 
 PCOD8060118
Probable space group: P 2/M
;
_chemical_formula_sum "Si O2"
_cell_formula_units_Z 24
_cell_length_a 20.031396
_cell_length_b 9.218344
_cell_length_c 9.521110
_cell_angle_alpha 90.000000
_cell_angle_beta 130.518336
_cell_angle_gamma 90.000000
_cell_volume 1336.529297
_symmetry_space_group_name_H-M "P 2/M"
_symmetry_group_IT_number 10
_symmetry_cell_setting 'monoclinic'
loop_
_space_group_symop_operation_xyz
x,y,z
-x,y,-z
-x,-y,-z
x,-y,z
loop_
_atom_site_type_symbol
_atom_site_label
_atom_site_fract_x
_atom_site_fract_y
_atom_site_fract_z
Si Si1 0.248922 0.166294 0.162887
Si Si2 0.215362 0.330088 0.537098
Si Si3 0.722686 0.832647 0.114400
Si Si4 0.633118 0.669728 0.472769
Si Si5 0.902343 0.168642 0.831795
Si Si6 0.478761 0.169228 0.128678
O O1 0.326130 0.266209 0.329210
O O2 0.157019 0.200866 0.112972
O O3 0.277454 0.000000 0.226072
O O4 0.235920 0.198940 0.981013
O O5 0.198517 0.500000 0.524643
O O6 0.224325 0.265416 0.704336
O O7 0.303230 0.292804 0.570464
O O8 0.131710 0.258370 0.347968
O O9 0.733166 0.000000 0.173706
O O10 0.620659 0.789715 0.971524
O O11 0.620038 0.500000 0.475289
O O12 0.539210 0.742046 0.318324
O O13 0.900723 0.000000 0.788356
O O14 0.000000 0.222150 0.000000
O O15 0.498584 0.000000 0.176798
O O16 0.500000 0.218956 0.000000
#
# Coordination Sequence:
#
# PCOD8060118 Si02
#       6
#     4   4   4   4   4   4
#     4   9  19  35  54  75 102 132 166 209 255 299
#     4  10  20  33  52  77 104 135 168 204 250 302
#     4  10  20  34  52  75 102 135 171 210 252 292
#     4  10  20  33  50  73 102 137 174 210 249 295
#     4   9  18  35  59  81  99 126 166 208 249 300
#     4  10  19  31  50  73  99 134 177 215 245 285
#
# _framework density 17.956956000000002
#
# number of rings (size 3 to 8) (size 9 to 14) (size 15 to 20)
#    0.000    2.333    1.667    1.000    0.000    4.000 
#    0.000    4.167    0.000    5.000    0.000    0.000 
#    0.000    0.000    0.000    0.000    0.000    0.000 
#
# Total GULP energy -297709.853646 kJ/mol
# GULP energy per Si atom -12404.577235 kJ/mol
# Density = 1.791609 g / cm^3
# Si number density = 17.956956 Si / 1000 Ang^3
#
#
#
# Elastic Constant Matrix: (Units=GPa)
#
#
# Indices 1 2 3 4 5 6 
#
# 1 73.7371 36.2747 62.2753 0.0000 2.1654 0.0000
# 2 36.2747 80.2466 74.8527 0.0000 3.8332 0.0000
# 3 62.2753 74.8527 146.4068 0.0000 7.1345 0.0000
# 4 0.0000 0.0000 0.0000 8.6956 0.0000 -2.8682
# 5 2.1654 3.8332 7.1345 0.0000 29.1679 0.0000
# 6 0.0000 0.0000 0.0000 -2.8682 0.0000 15.6547
#
#
#
# Elastic Compliance Matrix: (Units=1/GPa)
#
#
# Indices 1 2 3 4 5 6 
#
# 1 0.021390 -0.002263 -0.007973 0.000000 0.000660 0.000000
# 2 -0.002263 0.024063 -0.011329 0.000000 -0.000223 0.000000
# 3 -0.007973 -0.011329 0.016104 0.000000 -0.001858 0.000000
# 4 0.000000 0.000000 0.000000 0.122397 0.000000 0.022425
# 5 0.000660 -0.000223 -0.001858 0.000000 0.034719 0.000000
# 6 0.000000 0.000000 0.000000 0.022425 0.000000 0.067987
#
#
# Mechanical properties :
#
#
# Convention : Reuss Voigt Hill
#
# Bulk Modulus (GPa) = 54.27102 71.91069 63.09085
# Shear Modulus (GPa) = 14.88391 19.16948 17.02670
#
# Velocity S-wave (km/s) = 2.88213 3.27084 3.08262
# Velocity P-wave (km/s) = 6.43148 7.37548 6.91960
#
# Compressibility (1/GPa) = 0.01842604
#
# Stress axis : x y z
#
# Youngs Moduli (GPa) = 46.75174 41.55814 62.09461
#
# Poissons Ratio (x) = 0.09405 0.49510
# Poissons Ratio (y) = 0.10580 0.70347
# Poissons Ratio (z) = 0.37277 0.47081
#
# Static dielectric constant tensor:
#      x y z
#    x 3.236020 0.000000 -0.031810 
#    y 0.000000 3.246910 0.000000 
#    z -0.031810 0.000000 3.251280 
# 
# 
# High freq. dielectric constant tensor:
#      x y z
#    x 1.678470 0.000000 -0.003050 
#    y 0.000000 1.692880 0.000000 
#    z -0.003050 0.000000 1.695830 
# 
# From -- ./inp_files/26999.got.cif
#   From: 2010.06.25/outbox.cif.g09.slc.cpg/sg10_14_cif.got.tgz:26999.got - 2010.06.27 22:07:45.
