data_PCOD8060871
_publ_section_title
;
Structure prediction by ZEFSAII (Michael W. Deem and Ramdas Pophale) SiO2 
 PCOD8060871
Probable space group: P 2/M
;
_chemical_formula_sum "Si O2"
_cell_formula_units_Z 32
_cell_length_a 23.145781
_cell_length_b 9.515838
_cell_length_c 14.209551
_cell_angle_alpha 90.000000
_cell_angle_beta 147.763889
_cell_angle_gamma 90.000000
_cell_volume 1669.398317
_symmetry_space_group_name_H-M "P 2/M"
_symmetry_group_IT_number 10
_symmetry_cell_setting 'monoclinic'
loop_
_space_group_symop_operation_xyz
x,y,z
-x,y,-z
-x,-y,-z
x,-y,z
loop_
_atom_site_type_symbol
_atom_site_label
_atom_site_fract_x
_atom_site_fract_y
_atom_site_fract_z
Si Si1 0.815459 0.833568 0.465322
Si Si2 0.400604 0.161366 0.917536
Si Si3 0.977269 0.166485 0.360468
Si Si4 0.253484 0.837078 0.425995
Si Si5 0.418160 0.664379 0.308782
Si Si6 0.108886 0.336032 0.096716
Si Si7 0.497362 0.842137 0.248514
Si Si8 0.169255 0.663161 0.972406
O O1 0.713018 0.767747 0.268224
O O2 0.923584 0.775589 0.565847
O O3 0.808836 0.788820 0.565250
O O4 0.815691 0.000000 0.454980
O O5 0.396186 0.000000 0.876781
O O6 0.500000 0.236424 0.000000
O O7 0.416487 0.173245 0.050013
O O8 0.000000 0.208434 0.500000
O O9 0.872577 0.244680 0.173323
O O10 0.958206 0.000000 0.325509
O O11 0.209813 0.747480 0.278866
O O12 0.380507 0.806716 0.614716
O O13 0.231306 0.000000 0.374185
O O14 0.500000 0.724428 0.500000
O O15 0.434792 0.500000 0.319554
O O16 0.452194 0.732747 0.259023
O O17 0.294631 0.701786 0.164322
O O18 0.130910 0.500000 0.143481
O O19 0.103214 0.301928 0.977465
O O20 0.000000 0.286772 0.000000
O O21 0.492298 0.000000 0.282741
O O22 0.156563 0.500000 0.927873
#
# Coordination Sequence:
#
# PCOD8060871 Si02
#       8
#     4   4   4   4   4   4   4   4
#     4   9  17  31  51  77 113 148 179 217 269 329
#     4   9  15  28  51  79 110 144 177 216 268 326
#     4  10  22  37  56  84 113 145 187 231 273 319
#     4  10  19  32  53  83 112 140 176 220 274 331
#     4  10  22  40  59  78 108 151 188 221 274 338
#     4  10  21  37  58  81 105 138 183 227 271 323
#     4  10  20  32  54  85 109 136 181 229 271 319
#     4  10  22  40  59  80 109 147 187 225 274 334
#
# _framework density 19.168582000000001
#
# number of rings (size 3 to 8) (size 9 to 14) (size 15 to 20)
#    0.000    2.250    1.250    1.500    1.750    3.250 
#    0.000    0.000    0.000    1.125    0.000    0.000 
#    0.000    0.000    0.000    0.000    0.000    0.000 
#
# Total GULP energy -396787.634630 kJ/mol
# GULP energy per Si atom -12399.613582 kJ/mol
# Density = 1.912495 g / cm^3
# Si number density = 19.168582 Si / 1000 Ang^3
#
#
#
# Elastic Constant Matrix: (Units=GPa)
#
#
# Indices 1 2 3 4 5 6 
#
# 1 106.3719 29.4167 32.1367 0.0000 0.3580 0.0000
# 2 29.4167 33.5694 40.1770 0.0000 -4.6731 0.0000
# 3 32.1367 40.1770 116.2336 0.0000 -8.2448 0.0000
# 4 0.0000 0.0000 0.0000 22.8662 0.0000 0.9735
# 5 0.3580 -4.6731 -8.2448 0.0000 28.0214 0.0000
# 6 0.0000 0.0000 0.0000 0.9735 0.0000 25.4867
#
#
#
# Elastic Compliance Matrix: (Units=1/GPa)
#
#
# Indices 1 2 3 4 5 6 
#
# 1 0.012536 -0.011846 0.000487 0.000000 -0.001992 0.000000
# 2 -0.011846 0.062317 -0.017890 0.000000 0.005280 0.000000
# 3 0.000487 -0.017890 0.014748 0.000000 0.001350 0.000000
# 4 0.000000 0.000000 0.000000 0.043804 0.000000 -0.001673
# 5 -0.001992 0.005280 0.001350 0.000000 0.036990 0.000000
# 6 0.000000 0.000000 0.000000 -0.001673 0.000000 0.039300
#
#
# Mechanical properties :
#
#
# Convention : Reuss Voigt Hill
#
# Bulk Modulus (GPa) = 32.15146 51.07063 41.61104
# Shear Modulus (GPa) = 17.94933 25.57115 21.76024
#
# Velocity S-wave (km/s) = 3.06337 3.65638 3.37293
# Velocity P-wave (km/s) = 5.41496 6.67279 6.07651
#
# Compressibility (1/GPa) = 0.03110279
#
# Stress axis : x y z
#
# Youngs Moduli (GPa) = 79.76712 16.04706 67.80422
#
# Poissons Ratio (x) = 0.19010 -0.03304
# Poissons Ratio (y) = 0.94494 1.21305
# Poissons Ratio (z) = -0.03887 0.28709
#
# Static dielectric constant tensor:
#      x y z
#    x 3.623370 0.000000 0.200530 
#    y 0.000000 3.124140 0.000000 
#    z 0.200530 0.000000 3.781790 
# 
# 
# High freq. dielectric constant tensor:
#      x y z
#    x 1.752970 0.000000 0.001850 
#    y 0.000000 1.705360 0.000000 
#    z 0.001850 0.000000 1.757820 
# 
# From -- ./inp_files/71617.got.cif
#   From: 2010.06.25/outbox.cif.g09.slc.cpg/sg10_36_cif.got.tgz:71617.got - 2010.06.27 22:07:45.
