data_PCOD8060386
_publ_section_title
;
Structure prediction by ZEFSAII (Michael W. Deem and Ramdas Pophale) SiO2 
 PCOD8060386
Probable space group: P 2/M
;
_chemical_formula_sum "Si O2"
_cell_formula_units_Z 32
_cell_length_a 27.587557
_cell_length_b 9.566040
_cell_length_c 14.007134
_cell_angle_alpha 90.000000
_cell_angle_beta 150.161502
_cell_angle_gamma 90.000000
_cell_volume 1839.236114
_symmetry_space_group_name_H-M "P 2/M"
_symmetry_group_IT_number 10
_symmetry_cell_setting 'monoclinic'
loop_
_space_group_symop_operation_xyz
x,y,z
-x,y,-z
-x,-y,-z
x,-y,z
loop_
_atom_site_type_symbol
_atom_site_label
_atom_site_fract_x
_atom_site_fract_y
_atom_site_fract_z
Si Si1 0.865423 0.839433 0.031519
Si Si2 0.104656 0.157608 0.224459
Si Si3 0.799837 0.658672 0.296012
Si Si4 0.955319 0.341668 0.717152
Si Si5 0.889203 0.837720 0.291583
Si Si6 0.629281 0.664662 0.138677
Si Si7 0.587968 0.335342 0.277812
Si Si8 0.274849 0.841053 0.368880
O O1 0.856650 0.806782 0.128062
O O2 0.944141 0.740629 0.117063
O O3 0.898763 0.000000 0.071317
O O4 0.761421 0.812792 0.801858
O O5 0.116968 0.267193 0.331445
O O6 0.184160 0.192665 0.281532
O O7 0.116446 0.000000 0.283890
O O8 0.000000 0.180599 0.000000
O O9 0.772763 0.500000 0.219740
O O10 0.902688 0.660708 0.525592
O O11 0.812293 0.752261 0.223528
O O12 0.715245 0.725070 0.218788
O O13 0.976031 0.500000 0.785833
O O14 0.000000 0.787656 0.500000
O O15 0.879499 0.000000 0.301787
O O16 0.642020 0.500000 0.168067
O O17 0.633883 0.721027 0.255929
O O18 0.526096 0.703047 0.915128
O O19 0.603940 0.500000 0.316352
O O20 0.636412 0.259241 0.451041
O O21 0.310766 0.000000 0.441622
#
# Coordination Sequence:
#
# PCOD8060386 Si02
#       8
#     4   4   4   4   4   4   4   4
#     4  10  20  36  51  66  98 139 171 202 248 306
#     4  10  19  32  47  64  95 139 172 194 238 299
#     4  10  20  33  51  75 105 132 162 209 264 307
#     4  11  21  30  46  74 102 129 165 209 248 290
#     4  10  20  34  54  74  95 132 180 217 249 299
#     4   8  16  33  55  78 103 136 165 199 255 309
#     4   9  17  33  57  78 102 133 170 205 243 303
#     4  10  20  33  50  71  99 135 169 204 251 299
#
# _framework density 17.398527000000001
#
# number of rings (size 3 to 8) (size 9 to 14) (size 15 to 20)
#    0.000    2.250    2.500    1.875    0.000    3.500 
#    0.000    2.500    0.000    0.750    0.000    5.250 
#    0.000    0.000    0.000    0.000    0.000    0.000 
#
# Total GULP energy -396757.205090 kJ/mol
# GULP energy per Si atom -12398.662659 kJ/mol
# Density = 1.735893 g / cm^3
# Si number density = 17.398527 Si / 1000 Ang^3
#
#
#
# Elastic Constant Matrix: (Units=GPa)
#
#
# Indices 1 2 3 4 5 6 
#
# 1 83.2285 38.1930 35.9445 0.0000 -8.6965 0.0000
# 2 38.1930 67.9464 36.2840 0.0000 -9.6081 0.0000
# 3 35.9445 36.2840 96.4183 0.0000 -12.8371 0.0000
# 4 0.0000 0.0000 0.0000 26.8351 0.0000 -3.1619
# 5 -8.6965 -9.6081 -12.8371 0.0000 26.3336 0.0000
# 6 0.0000 0.0000 0.0000 -3.1619 0.0000 25.2360
#
#
#
# Elastic Compliance Matrix: (Units=1/GPa)
#
#
# Indices 1 2 3 4 5 6 
#
# 1 0.017095 -0.007659 -0.003327 0.000000 0.001229 0.000000
# 2 -0.007659 0.022170 -0.005077 0.000000 0.003085 0.000000
# 3 -0.003327 -0.005077 0.014041 0.000000 0.003893 0.000000
# 4 0.000000 0.000000 0.000000 0.037823 0.000000 0.004739
# 5 0.001229 0.003085 0.003893 0.000000 0.041404 0.000000
# 6 0.000000 0.000000 0.000000 0.004739 0.000000 0.040220
#
#
# Mechanical properties :
#
#
# Convention : Reuss Voigt Hill
#
# Bulk Modulus (GPa) = 47.21489 52.04848 49.63169
# Shear Modulus (GPa) = 23.59183 24.82573 24.20878
#
# Velocity S-wave (km/s) = 3.68634 3.78151 3.73423
# Velocity P-wave (km/s) = 6.73164 7.00335 6.86884
#
# Compressibility (1/GPa) = 0.02117976
#
# Stress axis : x y z
#
# Youngs Moduli (GPa) = 58.49669 45.10635 71.22077
#
# Poissons Ratio (x) = 0.34545 0.23697
# Poissons Ratio (y) = 0.44800 0.36160
# Poissons Ratio (z) = 0.19463 0.22901
#
# Static dielectric constant tensor:
#      x y z
#    x 3.270930 0.000000 -0.062630 
#    y 0.000000 3.140800 0.000000 
#    z -0.062630 0.000000 3.226540 
# 
# 
# High freq. dielectric constant tensor:
#      x y z
#    x 1.654910 0.000000 -0.009540 
#    y 0.000000 1.661040 0.000000 
#    z -0.009540 0.000000 1.662980 
# 
# From -- ./inp_files/66070.got.cif
#   From: 2010.06.25/outbox.cif.g09.slc.cpg/sg10_34_cif.got.tgz:66070.got - 2010.06.27 22:07:45.
