data_PCOD8060114
_publ_section_title
;
Structure prediction by ZEFSAII (Michael W. Deem and Ramdas Pophale) SiO2 
 PCOD8060114
Probable space group: P 2/M
;
_chemical_formula_sum "Si O2"
_cell_formula_units_Z 32
_cell_length_a 17.720236
_cell_length_b 9.033646
_cell_length_c 24.125130
_cell_angle_alpha 90.000000
_cell_angle_beta 27.996075
_cell_angle_gamma 90.000000
_cell_volume 1812.823676
_symmetry_space_group_name_H-M "P 2/M"
_symmetry_group_IT_number 10
_symmetry_cell_setting 'monoclinic'
loop_
_space_group_symop_operation_xyz
x,y,z
-x,y,-z
-x,-y,-z
x,-y,z
loop_
_atom_site_type_symbol
_atom_site_label
_atom_site_fract_x
_atom_site_fract_y
_atom_site_fract_z
Si Si1 0.732841 0.173878 0.232977
Si Si2 0.146051 0.174934 0.370676
Si Si3 0.957377 0.175055 0.391352
Si Si4 0.983823 0.176467 0.870935
Si Si5 0.082948 0.325232 0.696111
Si Si6 0.549714 0.673405 0.528258
Si Si7 0.699071 0.825213 0.131984
Si Si8 0.347173 0.824252 0.337538
O O1 0.560075 0.244639 0.356263
O O2 0.775382 0.216603 0.142094
O O3 0.868622 0.234577 0.186668
O O4 0.715655 0.000000 0.251294
O O5 0.306582 0.226828 0.299801
O O6 0.000000 0.244121 0.500000
O O7 0.115056 0.219312 0.326603
O O8 0.136336 0.000000 0.380533
O O9 0.986222 0.263173 0.316219
O O10 0.791997 0.227108 0.529097
O O11 0.952121 0.000000 0.382754
O O12 0.988455 0.250971 0.808029
O O13 0.989596 0.000000 0.861190
O O14 0.819582 0.231976 0.006382
O O15 0.058370 0.500000 0.715254
O O16 0.268494 0.278952 0.578971
O O17 0.500000 0.729550 0.500000
O O18 0.522207 0.500000 0.552564
O O19 0.520692 0.754392 0.240292
O O20 0.683898 0.000000 0.136890
O O21 0.355535 0.000000 0.335116
#
# Coordination Sequence:
#
# PCOD8060114 Si02
#       8
#     4   4   4   4   4   4   4   4
#     4  10  19  31  50  73  94 118 154 197 238 278
#     4   7  11  21  41  71 101 124 144 177 227 279
#     4   9  16  28  49  76 101 121 149 187 230 281
#     4  10  20  33  48  66  92 126 161 195 232 272
#     4  11  22  34  48  66  93 126 160 194 231 275
#     4  10  20  34  48  64  92 125 153 187 232 276
#     4   9  17  29  46  70  97 122 152 195 237 272
#     4   8  13  24  46  75 102 123 147 184 232 280
#
# _framework density 17.65202
#
# number of rings (size 3 to 8) (size 9 to 14) (size 15 to 20)
#    0.000    2.750    1.250    3.000    0.000    3.750 
#    0.000    0.625    0.000    6.375    0.000    5.250 
#    0.000    0.000    0.000    0.000    0.000    0.000 
#
# Total GULP energy -396500.936676 kJ/mol
# GULP energy per Si atom -12390.654271 kJ/mol
# Density = 1.761184 g / cm^3
# Si number density = 17.652020 Si / 1000 Ang^3
#
#
#
# Elastic Constant Matrix: (Units=GPa)
#
#
# Indices 1 2 3 4 5 6 
#
# 1 123.0159 20.5973 42.8298 0.0000 18.6008 0.0000
# 2 20.5973 21.7510 18.7802 0.0000 8.0428 0.0000
# 3 42.8298 18.7802 90.4642 0.0000 19.6564 0.0000
# 4 0.0000 0.0000 0.0000 6.0781 0.0000 -6.6462
# 5 18.6008 8.0428 19.6564 0.0000 24.0761 0.0000
# 6 0.0000 0.0000 0.0000 -6.6462 0.0000 7.1501
#
#
#
# Elastic Compliance Matrix: (Units=1/GPa)
#
#
# Indices 1 2 3 4 5 6 
#
# 1 0.010788 -0.006227 -0.002986 0.000000 -0.003817 0.000000
# 2 -0.006227 0.062212 -0.007898 0.000000 -0.009524 0.000000
# 3 -0.002986 -0.007898 0.015843 0.000000 -0.007990 0.000000
# 4 0.000000 0.000000 0.000000-10.018574 0.000000 -9.312608
# 5 -0.003817 -0.009524 -0.007990 0.000000 0.054189 0.000000
# 6 0.000000 0.000000 0.000000 -9.312608 0.000000 -8.516530
#
#
# Mechanical properties :
#
#
# Convention : Reuss Voigt Hill
#
# Bulk Modulus (GPa) = 18.30711 44.40508 31.35610
# Shear Modulus (GPa) = -0.27263 17.66242 8.69490
#
# Velocity S-wave (km/s) = -0.39343 3.16664 2.22180
# Velocity P-wave (km/s) = 3.19175 6.21133 4.93801
#
# Compressibility (1/GPa) = 0.05462358
#
# Stress axis : x y z
#
# Youngs Moduli (GPa) = 92.69330 16.07403 63.11839
#
# Poissons Ratio (x) = 0.10009 0.18844
# Poissons Ratio (y) = 0.57718 0.49849
# Poissons Ratio (z) = 0.27674 0.12695
#
# Static dielectric constant tensor:
#      x y z
#    x 3.682830 0.000000 -0.119950 
#    y 0.000000 2.798300 0.000000 
#    z -0.119950 0.000000 3.240530 
# 
# 
# High freq. dielectric constant tensor:
#      x y z
#    x 1.697990 0.000000 0.003510 
#    y 0.000000 1.636400 0.000000 
#    z 0.003510 0.000000 1.659240 
# 
# From -- ./inp_files/88563.got.cif
#   From: 2010.06.25/outbox.cif.g09.slc.cpg/sg10_45_cif.got.tgz:88563.got - 2010.06.27 22:07:45.
