data_PCOD8060448
_publ_section_title
;
Structure prediction by ZEFSAII (Michael W. Deem and Ramdas Pophale) SiO2 
 PCOD8060448
Probable space group: P 2/M
;
_chemical_formula_sum "Si O2"
_cell_formula_units_Z 32
_cell_length_a 20.881445
_cell_length_b 8.702720
_cell_length_c 14.205027
_cell_angle_alpha 90.000000
_cell_angle_beta 47.762902
_cell_angle_gamma 90.000000
_cell_volume 1911.200061
_symmetry_space_group_name_H-M "P 2/M"
_symmetry_group_IT_number 10
_symmetry_cell_setting 'monoclinic'
loop_
_space_group_symop_operation_xyz
x,y,z
-x,y,-z
-x,-y,-z
x,-y,z
loop_
_atom_site_type_symbol
_atom_site_label
_atom_site_fract_x
_atom_site_fract_y
_atom_site_fract_z
Si Si1 0.831634 0.320671 0.781373
Si Si2 0.502315 0.182675 0.103077
Si Si3 0.007154 0.828039 0.604306
Si Si4 0.596291 0.318415 0.503371
Si Si5 0.673217 0.821604 0.039365
Si Si6 0.817270 0.679511 0.579582
Si Si7 0.662518 0.181281 0.619509
Si Si8 0.410847 0.821075 0.684567
O O1 0.849691 0.500000 0.767012
O O2 0.918163 0.238612 0.734036
O O3 0.808453 0.270907 0.697601
O O4 0.754759 0.276611 0.926949
O O5 0.589342 0.240609 0.067002
O O6 0.419059 0.245250 0.240826
O O7 0.499689 0.000000 0.104607
O O8 0.500000 0.250152 0.000000
O O9 0.000000 0.827567 0.500000
O O10 0.087952 0.721963 0.554072
O O11 0.021303 0.000000 0.629347
O O12 0.597416 0.500000 0.493122
O O13 0.662477 0.263357 0.518189
O O14 0.628015 0.246480 0.373251
O O15 0.499991 0.262341 0.623670
O O16 0.659083 0.794496 0.164337
O O17 0.689881 0.000000 0.999648
O O18 0.800025 0.500000 0.582051
O O19 0.749073 0.777725 0.588825
O O20 0.656777 0.000000 0.610028
O O21 0.432482 0.000000 0.651533
#
# Coordination Sequence:
#
# PCOD8060448 Si02
#       8
#     4   4   4   4   4   4   4   4
#     4  10  20  32  48  72 104 136 164 203 252 298
#     4   9  17  29  45  66  94 129 168 205 238 276
#     4   9  17  31  51  72  94 127 170 210 246 289
#     4  11  21  33  50  72  98 126 161 208 259 302
#     4  10  19  32  49  71  97 130 170 209 244 288
#     4  10  20  33  48  72 104 134 165 205 252 296
#     4  11  20  33  51  71  97 132 171 207 245 293
#     4  10  19  34  53  71  94 126 168 211 251 294
#
# _framework density 16.743407000000001
#
# number of rings (size 3 to 8) (size 9 to 14) (size 15 to 20)
#    0.000    2.000    1.250    4.500    0.000    5.000 
#    0.000    0.000    0.000    2.625    0.000    0.875 
#    0.000    7.000    0.000    0.000    0.000    0.000 
#
# Total GULP energy -396865.408190 kJ/mol
# GULP energy per Si atom -12402.044006 kJ/mol
# Density = 1.670530 g / cm^3
# Si number density = 16.743407 Si / 1000 Ang^3
#
#
#
# Elastic Constant Matrix: (Units=GPa)
#
#
# Indices 1 2 3 4 5 6 
#
# 1 64.9529 16.5474 56.8620 0.0000 3.7953 0.0000
# 2 16.5474 37.7924 24.9180 0.0000 9.3851 0.0000
# 3 56.8620 24.9180 91.2286 0.0000 -4.1215 0.0000
# 4 0.0000 0.0000 0.0000 22.4345 0.0000 -2.2316
# 5 3.7953 9.3851 -4.1215 0.0000 26.1011 0.0000
# 6 0.0000 0.0000 0.0000 -2.2316 0.0000 25.5389
#
#
#
# Elastic Compliance Matrix: (Units=1/GPa)
#
#
# Indices 1 2 3 4 5 6 
#
# 1 0.035898 0.002102 -0.023386 0.000000 -0.009669 0.000000
# 2 0.002102 0.037544 -0.012276 0.000000 -0.015744 0.000000
# 3 -0.023386 -0.012276 0.029454 0.000000 0.012466 0.000000
# 4 0.000000 0.000000 0.000000 0.044965 0.000000 0.003929
# 5 -0.009669 -0.015744 0.012466 0.000000 0.047348 0.000000
# 6 0.000000 0.000000 0.000000 0.003929 0.000000 0.039499
#
#
# Mechanical properties :
#
#
# Convention : Reuss Voigt Hill
#
# Bulk Modulus (GPa) = 27.95164 43.40320 35.67742
# Shear Modulus (GPa) = 15.93608 21.19131 18.56369
#
# Velocity S-wave (km/s) = 3.08844 3.56146 3.33335
# Velocity P-wave (km/s) = 5.42663 6.54911 6.01411
#
# Compressibility (1/GPa) = 0.03577608
#
# Stress axis : x y z
#
# Youngs Moduli (GPa) = 27.85668 26.63557 33.95113
#
# Poissons Ratio (x) = -0.05600 0.79398
# Poissons Ratio (y) = -0.05857 0.41680
# Poissons Ratio (z) = 0.65146 0.32699
#
# Static dielectric constant tensor:
#      x y z
#    x 3.090510 0.000000 0.024370 
#    y 0.000000 3.105730 0.000000 
#    z 0.024370 0.000000 3.116790 
# 
# 
# High freq. dielectric constant tensor:
#      x y z
#    x 1.628420 0.000000 -0.002600 
#    y 0.000000 1.648490 0.000000 
#    z -0.002600 0.000000 1.630410 
# 
# From -- ./inp_files/66061.got.cif
#   From: 2010.06.25/outbox.cif.g09.slc.cpg/sg10_34_cif.got.tgz:66061.got - 2010.06.27 22:07:45.
