data_PCOD8060929
_publ_section_title
;
Structure prediction by ZEFSAII (Michael W. Deem and Ramdas Pophale) SiO2 
 PCOD8060929
Probable space group: P 2/M
;
_chemical_formula_sum "Si O2"
_cell_formula_units_Z 32
_cell_length_a 32.006044
_cell_length_b 9.174452
_cell_length_c 13.619876
_cell_angle_alpha 90.000000
_cell_angle_beta 154.620087
_cell_angle_gamma 90.000000
_cell_volume 1714.178751
_symmetry_space_group_name_H-M "P 2/M"
_symmetry_group_IT_number 10
_symmetry_cell_setting 'monoclinic'
loop_
_space_group_symop_operation_xyz
x,y,z
-x,y,-z
-x,-y,-z
x,-y,z
loop_
_atom_site_type_symbol
_atom_site_label
_atom_site_fract_x
_atom_site_fract_y
_atom_site_fract_z
Si Si1 0.008712 0.336793 0.301985
Si Si2 0.834873 0.169390 0.015095
Si Si3 0.303393 0.666876 0.622251
Si Si4 0.332554 0.831188 0.488738
Si Si5 0.695659 0.167837 0.067451
Si Si6 0.553474 0.830354 0.928698
Si Si7 0.813415 0.332382 0.171253
Si Si8 0.170037 0.664039 0.508478
O O1 0.966404 0.500000 0.225663
O O2 0.094858 0.309046 0.562945
O O3 0.055239 0.317567 0.290900
O O4 0.923208 0.221167 0.133345
O O5 0.733359 0.202067 0.745636
O O6 0.848585 0.000000 0.066609
O O7 0.839012 0.255730 0.124548
O O8 0.332791 0.500000 0.667807
O O9 0.290756 0.742938 0.491490
O O10 0.197903 0.679657 0.452976
O O11 0.388718 0.738406 0.867813
O O12 0.441571 0.781032 0.694192
O O13 0.328815 0.000000 0.509461
O O14 0.715704 0.262506 0.012250
O O15 0.773432 0.209332 0.315308
O O16 0.707677 0.000000 0.063289
O O17 0.590793 0.198521 0.896043
O O18 0.566670 0.000000 0.983850
O O19 0.791512 0.500000 0.103619
O O20 0.201970 0.500000 0.612863
#
# Coordination Sequence:
#
# PCOD8060929 Si02
#       8
#     4   4   4   4   4   4   4   4
#     4   9  18  34  55  76 100 132 165 200 252 311
#     4  11  23  36  51  73 101 134 174 216 250 289
#     4  10  19  32  54  82 105 129 168 213 252 295
#     4  10  22  38  51  69 103 142 174 206 251 302
#     4   9  16  28  51  80 102 125 164 209 248 291
#     4   9  18  34  55  76 102 137 170 203 250 304
#     4  10  20  35  55  77 103 134 164 201 255 311
#     4   8  16  31  50  75 106 133 159 200 254 305
#
# _framework density 18.667831
#
# number of rings (size 3 to 8) (size 9 to 14) (size 15 to 20)
#    0.000    2.500    0.000    3.000    0.000    8.000 
#    0.000    1.250    0.000    7.500    0.000    0.000 
#    0.000    0.000    0.000    0.000    0.000    0.000 
#
# Total GULP energy -396652.685376 kJ/mol
# GULP energy per Si atom -12395.396418 kJ/mol
# Density = 1.862534 g / cm^3
# Si number density = 18.667831 Si / 1000 Ang^3
#
#
#
# Elastic Constant Matrix: (Units=GPa)
#
#
# Indices 1 2 3 4 5 6 
#
# 1 100.6586 44.3729 15.9236 0.0000 19.9376 0.0000
# 2 44.3729 89.4172 26.3533 0.0000 5.9983 0.0000
# 3 15.9236 26.3533 30.4497 0.0000 3.9643 0.0000
# 4 0.0000 0.0000 0.0000 12.3733 0.0000 2.4175
# 5 19.9376 5.9983 3.9643 0.0000 7.7578 0.0000
# 6 0.0000 0.0000 0.0000 2.4175 0.0000 35.4935
#
#
#
# Elastic Compliance Matrix: (Units=1/GPa)
#
#
# Indices 1 2 3 4 5 6 
#
# 1 0.025442 -0.009394 0.002563 0.000000 -0.059433 0.000000
# 2 -0.009394 0.018690 -0.013417 0.000000 0.016548 0.000000
# 3 0.002563 -0.013417 0.045657 0.000000 -0.019544 0.000000
# 4 0.000000 0.000000 0.000000 0.081910 0.000000 -0.005579
# 5 -0.059433 0.016548 -0.019544 0.000000 0.278840 0.000000
# 6 0.000000 0.000000 0.000000 -0.005579 0.000000 0.028554
#
#
# Mechanical properties :
#
#
# Convention : Reuss Voigt Hill
#
# Bulk Modulus (GPa) = 20.28695 43.75834 32.02265
# Shear Modulus (GPa) = 9.32802 20.04996 14.68899
#
# Velocity S-wave (km/s) = 2.23779 3.28081 2.80815
# Velocity P-wave (km/s) = 4.19140 6.15167 5.26359
#
# Compressibility (1/GPa) = 0.04929276
#
# Stress axis : x y z
#
# Youngs Moduli (GPa) = 39.30457 53.50594 21.90232
#
# Poissons Ratio (x) = 0.50264 -0.05614
# Poissons Ratio (y) = 0.36923 0.29386
# Poissons Ratio (z) = -0.10074 0.71789
#
# Static dielectric constant tensor:
#      x y z
#    x 3.842390 0.000000 0.225550 
#    y 0.000000 3.518160 0.000000 
#    z 0.225550 0.000000 3.047390 
# 
# 
# High freq. dielectric constant tensor:
#      x y z
#    x 1.746280 0.000000 0.013670 
#    y 0.000000 1.733070 0.000000 
#    z 0.013670 0.000000 1.676060 
# 
# From -- ./inp_files/58344.got.cif
#   From: 2010.06.25/outbox.cif.g09.slc.cpg/sg10_30_cif.got.tgz:58344.got - 2010.06.27 22:07:45.
