data_PCOD8060179
_publ_section_title
;
Structure prediction by ZEFSAII (Michael W. Deem and Ramdas Pophale) SiO2 
 PCOD8060179
Probable space group: P 2/M
;
_chemical_formula_sum "Si O2"
_cell_formula_units_Z 24
_cell_length_a 19.469122
_cell_length_b 8.747173
_cell_length_c 22.235940
_cell_angle_alpha 90.000000
_cell_angle_beta 160.404449
_cell_angle_gamma 90.000000
_cell_volume 1270.002829
_symmetry_space_group_name_H-M "P 2/M"
_symmetry_group_IT_number 10
_symmetry_cell_setting 'monoclinic'
loop_
_space_group_symop_operation_xyz
x,y,z
-x,y,-z
-x,-y,-z
x,-y,z
loop_
_atom_site_type_symbol
_atom_site_label
_atom_site_fract_x
_atom_site_fract_y
_atom_site_fract_z
Si Si1 0.327437 0.180780 0.903551
Si Si2 0.954153 0.679626 0.529608
Si Si3 0.486193 0.679760 0.155755
Si Si4 0.583435 0.181517 0.660179
Si Si5 0.265904 0.817689 0.087548
Si Si6 0.189378 0.818528 0.268162
O O1 0.103955 0.236371 0.699317
O O2 0.328910 0.000000 0.906157
O O3 0.500000 0.244261 0.000000
O O4 0.372704 0.240775 0.007051
O O5 0.991375 0.500000 0.566610
O O6 0.723391 0.728222 0.354801
O O7 0.000000 0.735854 0.500000
O O8 0.463919 0.500000 0.128837
O O9 0.382499 0.733611 0.131021
O O10 0.635411 0.242678 0.769021
O O11 0.747443 0.242491 0.746134
O O12 0.356160 0.238119 0.454496
O O13 0.592941 0.000000 0.668269
O O14 0.283107 0.000000 0.094114
O O15 0.031922 0.758727 0.894431
O O16 0.185734 0.000000 0.262460
#
# Coordination Sequence:
#
# PCOD8060179 Si02
#       6
#     4   4   4   4   4   4
#     4  11  23  38  61  89 113 137 175 233 290 333
#     4  10  21  39  62  83 107 146 189 226 269 330
#     4  11  24  40  57  80 113 153 192 227 274 338
#     4   8  14  26  47  75 105 138 177 223 271 321
#     4  10  19  31  50  77 109 140 178 228 279 322
#     4   8  14  26  47  76 106 137 177 222 272 324
#
# _framework density 18.897594999999999
#
# number of rings (size 3 to 8) (size 9 to 14) (size 15 to 20)
#    0.000    2.333    1.667    2.500    0.000    5.667 
#    0.000    1.667    0.000    2.000    0.000    2.333 
#    0.000    0.000    0.000    0.000    0.000    0.000 
#
# Total GULP energy -297583.391457 kJ/mol
# GULP energy per Si atom -12399.307977 kJ/mol
# Density = 1.885458 g / cm^3
# Si number density = 18.897595 Si / 1000 Ang^3
#
#
#
# Elastic Constant Matrix: (Units=GPa)
#
#
# Indices 1 2 3 4 5 6 
#
# 1 126.9750 20.8104 94.6897 0.0000 7.4365 0.0000
# 2 20.8104 31.4656 33.1786 0.0000 -3.7248 0.0000
# 3 94.6897 33.1786 167.2892 0.0000 -2.4769 0.0000
# 4 0.0000 0.0000 0.0000 -7.4645 0.0000 -7.7341
# 5 7.4365 -3.7248 -2.4769 0.0000 30.4218 0.0000
# 6 0.0000 0.0000 0.0000 -7.7341 0.0000 17.4554
#
#
#
# Elastic Compliance Matrix: (Units=1/GPa)
#
#
# Indices 1 2 3 4 5 6 
#
# 1 0.014195 -0.001719 -0.007758 0.000000 -0.004312 0.000000
# 2 -0.001719 0.040956 -0.007078 0.000000 0.004858 0.000000
# 3 -0.007758 -0.007078 0.011802 0.000000 0.001991 0.000000
# 4 0.000000 0.000000 0.000000 -0.091816 0.000000 -0.040682
# 5 -0.004312 0.004858 0.001991 0.000000 0.034682 0.000000
# 6 0.000000 0.000000 0.000000 -0.040682 0.000000 0.039264
#
#
# Mechanical properties :
#
#
# Convention : Reuss Voigt Hill
#
# Bulk Modulus (GPa) = 29.54724 69.23191 49.38957
# Shear Modulus (GPa) = 53.49176 19.88595 36.68885
#
# Velocity S-wave (km/s) = 5.32612 3.24744 4.41098
# Velocity P-wave (km/s) = 7.31388 7.12573 7.22041
#
# Compressibility (1/GPa) = 0.03384411
#
# Stress axis : x y z
#
# Youngs Moduli (GPa) = 70.44772 24.41651 84.73148
#
# Poissons Ratio (x) = 0.04196 0.65732
# Poissons Ratio (y) = 0.12107 0.59974
# Poissons Ratio (z) = 0.54651 0.17282
#
# Static dielectric constant tensor:
#      x y z
#    x 3.593500 0.000000 -0.063330 
#    y 0.000000 3.055660 0.000000 
#    z -0.063330 0.000000 3.807170 
# 
# 
# High freq. dielectric constant tensor:
#      x y z
#    x 1.739050 0.000000 -0.004820 
#    y 0.000000 1.695310 0.000000 
#    z -0.004820 0.000000 1.749600 
# 
# From -- ./inp_files/90060.got.cif
#   From: 2010.06.25/outbox.cif.g09.slc.cpg/sg10_46_cif.got.tgz:90060.got - 2010.06.27 22:07:45.
