data_PCOD8060480
_publ_section_title
;
Structure prediction by ZEFSAII (Michael W. Deem and Ramdas Pophale) SiO2 
 PCOD8060480
Probable space group: P 2/M
;
_chemical_formula_sum "Si O2"
_cell_formula_units_Z 28
_cell_length_a 15.795335
_cell_length_b 8.774360
_cell_length_c 14.789135
_cell_angle_alpha 90.000000
_cell_angle_beta 45.973551
_cell_angle_gamma 90.000000
_cell_volume 1473.762368
_symmetry_space_group_name_H-M "P 2/M"
_symmetry_group_IT_number 10
_symmetry_cell_setting 'monoclinic'
loop_
_space_group_symop_operation_xyz
x,y,z
-x,y,-z
-x,-y,-z
x,-y,z
loop_
_atom_site_type_symbol
_atom_site_label
_atom_site_fract_x
_atom_site_fract_y
_atom_site_fract_z
Si Si1 0.296895 0.322555 0.445213
Si Si2 0.525964 0.327295 0.375997
Si Si3 0.394400 0.678674 0.182143
Si Si4 0.641215 0.181427 0.979833
Si Si5 0.859832 0.819034 0.935444
Si Si6 0.770449 0.820429 0.190464
Si Si7 0.881262 0.819035 0.292781
O O1 0.283537 0.500000 0.477031
O O2 0.414264 0.258710 0.406126
O O3 0.307201 0.290612 0.330775
O O4 0.182933 0.238411 0.569303
O O5 0.500000 0.318724 0.500000
O O6 0.551629 0.500000 0.325518
O O7 0.636776 0.224372 0.270142
O O8 0.404644 0.500000 0.153162
O O9 0.340139 0.766799 0.137307
O O10 0.524520 0.741800 0.108143
O O11 0.753028 0.242492 0.953196
O O12 0.627605 0.000000 0.994065
O O13 0.984239 0.759317 0.804477
O O14 0.856748 0.000000 0.936153
O O15 0.846993 0.761278 0.048505
O O16 0.819012 0.750676 0.248545
O O17 0.778934 0.000000 0.190590
O O18 0.876984 0.000000 0.294378
#
# Coordination Sequence:
#
# PCOD8060480 Si02
#       7
#     4   4   4   4   4   4   4
#     4  10  21  36  52  74 105 141 172 206 256 306
#     4  10  19  32  50  71 104 138 165 205 254 302
#     4  10  20  35  56  79 106 134 165 209 261 310
#     4  10  19  34  57  81 105 131 167 213 257 304
#     4   9  19  35  53  76 105 136 170 212 259 301
#     4  10  19  32  53  78 103 134 174 214 252 301
#     4  10  20  34  53  75 103 139 175 211 250 299
#
# _framework density 18.998992000000001
#
# number of rings (size 3 to 8) (size 9 to 14) (size 15 to 20)
#    0.000    2.143    1.429    3.000    0.000    3.714 
#    0.000    3.571    0.000    6.000    0.000    0.000 
#    0.000    0.000    0.000    0.000    0.000    0.000 
#
# Total GULP energy -347196.280109 kJ/mol
# GULP energy per Si atom -12399.867147 kJ/mol
# Density = 1.895575 g / cm^3
# Si number density = 18.998992 Si / 1000 Ang^3
#
#
#
# Elastic Constant Matrix: (Units=GPa)
#
#
# Indices 1 2 3 4 5 6 
#
# 1 74.5195 15.7909 51.8283 0.0000 -7.8066 0.0000
# 2 15.7909 32.7663 25.6073 0.0000 -1.3507 0.0000
# 3 51.8283 25.6073 145.2797 0.0000 -6.8067 0.0000
# 4 0.0000 0.0000 0.0000 4.1874 0.0000 22.2378
# 5 -7.8066 -1.3507 -6.8067 0.0000 26.8333 0.0000
# 6 0.0000 0.0000 0.0000 22.2378 0.0000 0.2338
#
#
#
# Elastic Compliance Matrix: (Units=1/GPa)
#
#
# Indices 1 2 3 4 5 6 
#
# 1 0.018732 -0.004393 -0.005731 0.000000 0.003775 0.000000
# 2 -0.004393 0.036426 -0.004886 0.000000 -0.000684 0.000000
# 3 -0.005731 -0.004886 0.009816 0.000000 0.000577 0.000000
# 4 0.000000 0.000000 0.000000 -0.000474 0.000000 0.045058
# 5 0.003775 -0.000684 0.000577 0.000000 0.038477 0.000000
# 6 0.000000 0.000000 0.000000 0.045058 0.000000 -0.008484
#
#
# Mechanical properties :
#
#
# Convention : Reuss Voigt Hill
#
# Bulk Modulus (GPa) = 28.60832 48.77984 38.69408
# Shear Modulus (GPa) = 36.72058 16.87349 26.79704
#
# Velocity S-wave (km/s) = 4.40109 2.98338 3.75966
# Velocity P-wave (km/s) = 6.39661 6.13173 6.26557
#
# Compressibility (1/GPa) = 0.03495486
#
# Stress axis : x y z
#
# Youngs Moduli (GPa) = 53.38526 27.45295 101.87341
#
# Poissons Ratio (x) = 0.12059 0.58388
# Poissons Ratio (y) = 0.23450 0.49770
# Poissons Ratio (z) = 0.30597 0.13412
#
# Static dielectric constant tensor:
#      x y z
#    x 3.590820 0.000000 0.017220 
#    y 0.000000 3.247630 0.000000 
#    z 0.017220 0.000000 3.568520 
# 
# 
# High freq. dielectric constant tensor:
#      x y z
#    x 1.733260 0.000000 0.005160 
#    y 0.000000 1.716880 0.000000 
#    z 0.005160 0.000000 1.745310 
# 
# From -- ./inp_files/66403.got.cif
#   From: 2010.06.25/outbox.cif.g09.slc.cpg/sg10_34_cif.got.tgz:66403.got - 2010.06.27 22:07:45.
