data_PCOD8060002
_publ_section_title
;
Structure prediction by ZEFSAII (Michael W. Deem and Ramdas Pophale) SiO2 
 PCOD8060002
Probable space group: P 2/M
;
_chemical_formula_sum "Si O2"
_cell_formula_units_Z 24
_cell_length_a 7.045961
_cell_length_b 18.706781
_cell_length_c 8.992555
_cell_angle_alpha 90.000000
_cell_angle_beta 121.956648
_cell_angle_gamma 90.000000
_cell_volume 1005.652746
_symmetry_space_group_name_H-M "P 2/M"
_symmetry_group_IT_number 10
_symmetry_cell_setting 'monoclinic'
loop_
_space_group_symop_operation_xyz
x,y,z
-x,y,-z
-x,-y,-z
x,-y,z
loop_
_atom_site_type_symbol
_atom_site_label
_atom_site_fract_x
_atom_site_fract_y
_atom_site_fract_z
Si Si1 0.502388 0.081283 0.266106
Si Si2 0.266865 0.672390 0.989845
Si Si3 0.130649 0.081274 0.362127
Si Si4 0.177687 0.836165 0.954307
Si Si5 0.414048 0.579646 0.301356
Si Si6 0.140850 0.421139 0.688133
O O1 0.329088 0.092700 0.327623
O O2 0.755615 0.098812 0.429487
O O3 0.491822 0.000000 0.203490
O O4 0.426526 0.134595 0.100685
O O5 0.262383 0.640281 0.157293
O O6 0.500000 0.674579 0.000000
O O7 0.169919 0.751189 0.952667
O O8 0.103623 0.622525 0.823771
O O9 0.913714 0.131687 0.239989
O O10 0.043396 0.000000 0.323014
O O11 0.000000 0.866041 0.000000
O O12 0.500000 0.605628 0.500000
O O13 0.304366 0.500000 0.271633
O O14 0.606590 0.572662 0.259064
O O15 0.039001 0.500000 0.675747
O O16 0.000000 0.382400 0.500000
#
# Coordination Sequence:
#
# PCOD8060002 Si02
#       6
#     4   4   4   4   4   4
#     4   8  14  27  48  74 102 134 176 225 272 315
#     4  10  21  37  51  76 113 150 178 212 274 335
#     4   8  14  27  48  74 102 135 177 225 271 315
#     4  10  19  31  48  78 108 140 179 225 270 316
#     4   9  18  35  58  81 103 136 181 228 271 312
#     4   9  18  35  58  79 102 139 185 223 263 322
#
# _framework density 23.865096999999999
#
# number of rings (size 3 to 8) (size 9 to 14) (size 15 to 20)
#    0.000    3.000    0.000    2.000    0.000    5.333 
#   12.000    0.000    0.000    7.000    0.000    2.333 
#    0.000    0.000    0.000    0.000    0.000    1.333 
#
# Total GULP energy -297352.017628 kJ/mol
# GULP energy per Si atom -12389.667401 kJ/mol
# Density = 2.381078 g / cm^3
# Si number density = 23.865097 Si / 1000 Ang^3
#
#
#
# Elastic Constant Matrix: (Units=GPa)
#
#
# Indices 1 2 3 4 5 6 
#
# 1 18.1423 4.5873 19.9763 0.0000 -8.9055 0.0000
# 2 4.5873 163.8061 122.9925 0.0000 11.8035 0.0000
# 3 19.9763 122.9925 219.2003 0.0000 13.6070 0.0000
# 4 0.0000 0.0000 0.0000 -327.3628 0.0000 -118.5599
# 5 -8.9055 11.8035 13.6070 0.0000 36.6020 0.0000
# 6 0.0000 0.0000 0.0000 -118.5599 0.0000 -25.8489
#
#
#
# Elastic Compliance Matrix: (Units=1/GPa)
#
#
# Indices 1 2 3 4 5 6 
#
# 1 0.076164 0.004392 -0.010715 0.000000 0.021098 0.000000
# 2 0.004392 0.010857 -0.006491 0.000000 -0.000019 0.000000
# 3 -0.010715 -0.006491 0.009430 0.000000 -0.004020 0.000000
# 4 0.000000 0.000000 0.000000 0.004620 0.000000 -0.021192
# 5 0.021098 -0.000019 -0.004020 0.000000 0.033955 0.000000
# 6 0.000000 0.000000 0.000000 -0.021192 0.000000 0.058515
#
#
# Mechanical properties :
#
#
# Convention : Reuss Voigt Hill
#
# Bulk Modulus (GPa) = 14.11958 77.36230 45.74094
# Shear Modulus (GPa) = 20.59502 -46.41577 -12.91038
#
# Velocity S-wave (km/s) = 2.94083 -4.41491 -2.32841
# Velocity P-wave (km/s) = 4.17859 2.54917 3.46113
#
# Compressibility (1/GPa) = 0.07082364
#
# Stress axis : x y z
#
# Youngs Moduli (GPa) = 13.12949 92.10932 106.04496
#
# Poissons Ratio (x) = -0.40456 1.13629
# Poissons Ratio (y) = -0.05767 0.68831
# Poissons Ratio (z) = 0.14069 0.59785
#
# Static dielectric constant tensor:
#      x y z
#    x 4.042340 0.000000 0.152720 
#    y 0.000000 4.080170 0.000000 
#    z 0.152720 0.000000 4.942170 
# 
# 
# High freq. dielectric constant tensor:
#      x y z
#    x 1.949430 0.000000 -0.001500 
#    y 0.000000 1.914330 0.000000 
#    z -0.001500 0.000000 1.957720 
# 
# From -- ./inp_files/20270.got.cif
#   From: 2010.06.25/outbox.cif.g09.slc.cpg/sg10_11_cif.got.tgz:20270.got - 2010.06.27 22:07:45.
