data_PCOD8060978
_publ_section_title
;
Structure prediction by ZEFSAII (Michael W. Deem and Ramdas Pophale) SiO2 
 PCOD8060978
Probable space group: P 2/M
;
_chemical_formula_sum "Si O2"
_cell_formula_units_Z 32
_cell_length_a 14.095251
_cell_length_b 9.130403
_cell_length_c 20.271955
_cell_angle_alpha 90.000000
_cell_angle_beta 43.344353
_cell_angle_gamma 90.000000
_cell_volume 1790.704714
_symmetry_space_group_name_H-M "P 2/M"
_symmetry_group_IT_number 10
_symmetry_cell_setting 'monoclinic'
loop_
_space_group_symop_operation_xyz
x,y,z
-x,y,-z
-x,-y,-z
x,-y,z
loop_
_atom_site_type_symbol
_atom_site_label
_atom_site_fract_x
_atom_site_fract_y
_atom_site_fract_z
Si Si1 0.411353 0.668673 0.368012
Si Si2 0.575647 0.333534 0.787751
Si Si3 0.413250 0.172959 0.980145
Si Si4 0.873205 0.332372 0.684059
Si Si5 0.144624 0.829604 0.544707
Si Si6 0.872830 0.832966 0.294095
Si Si7 0.574266 0.830260 0.396049
Si Si8 0.856289 0.329661 0.845191
O O1 0.389062 0.500000 0.398296
O O2 0.471398 0.685173 0.263912
O O3 0.264875 0.748935 0.444802
O O4 0.523049 0.738483 0.360038
O O5 0.550369 0.500000 0.825593
O O6 0.490685 0.221286 0.874921
O O7 0.738545 0.297105 0.709268
O O8 0.394026 0.000000 0.989531
O O9 0.500000 0.225316 0.000000
O O10 0.263598 0.247129 0.055022
O O11 0.921234 0.500000 0.652755
O O12 0.837220 0.295212 0.777814
O O13 0.996815 0.230962 0.595259
O O14 0.166471 0.795713 0.610840
O O15 0.152184 0.000000 0.524623
O O16 0.738293 0.805648 0.317746
O O17 0.995056 0.729686 0.205804
O O18 0.924030 0.000000 0.263299
O O19 0.500000 0.773897 0.500000
O O20 0.535800 0.000000 0.404225
O O21 0.847073 0.500000 0.866545
#
# Coordination Sequence:
#
# PCOD8060978 Si02
#       8
#     4   4   4   4   4   4   4   4
#     4  11  23  36  53  79 110 145 184 227 269 317
#     4  10  22  39  55  75 109 149 184 220 270 323
#     4  11  22  35  56  84 110 139 180 227 270 316
#     4   9  18  33  52  75 105 144 185 220 259 317
#     4  10  19  33  52  75 108 146 182 222 266 318
#     4   9  18  33  54  79 109 141 177 222 269 320
#     4  10  19  36  58  80 107 144 182 221 273 323
#     4  10  19  32  55  82 109 141 177 220 270 320
#
# _framework density 17.870059000000001
#
# number of rings (size 3 to 8) (size 9 to 14) (size 15 to 20)
#    0.000    2.000    2.500    1.500    0.000    4.250 
#    0.000    2.500    0.000    0.750    0.000    5.250 
#    0.000    0.000    0.000    0.000    0.000    0.000 
#
# Total GULP energy -396940.330880 kJ/mol
# GULP energy per Si atom -12404.385340 kJ/mol
# Density = 1.782939 g / cm^3
# Si number density = 17.870059 Si / 1000 Ang^3
#
#
#
# Elastic Constant Matrix: (Units=GPa)
#
#
# Indices 1 2 3 4 5 6 
#
# 1 85.5203 42.5382 39.2413 0.0000 -1.6947 0.0000
# 2 42.5382 96.3845 53.2322 0.0000 -5.8268 0.0000
# 3 39.2413 53.2322 82.2483 0.0000 -8.1068 0.0000
# 4 0.0000 0.0000 0.0000 33.2518 0.0000 -5.9386
# 5 -1.6947 -5.8268 -8.1068 0.0000 20.6817 0.0000
# 6 0.0000 0.0000 0.0000 -5.9386 0.0000 28.3545
#
#
#
# Elastic Compliance Matrix: (Units=1/GPa)
#
#
# Indices 1 2 3 4 5 6 
#
# 1 0.016186 -0.004498 -0.004999 0.000000 -0.001900 0.000000
# 2 -0.004498 0.017401 -0.009018 0.000000 0.000999 0.000000
# 3 -0.004999 -0.009018 0.020896 0.000000 0.005241 0.000000
# 4 0.000000 0.000000 0.000000 0.031242 0.000000 0.006543
# 5 -0.001900 0.000999 0.005241 0.000000 0.050532 0.000000
# 6 0.000000 0.000000 0.000000 0.006543 0.000000 0.036638
#
#
# Mechanical properties :
#
#
# Convention : Reuss Voigt Hill
#
# Bulk Modulus (GPa) = 57.29083 59.35294 58.32189
# Shear Modulus (GPa) = 23.17570 25.06703 24.12136
#
# Velocity S-wave (km/s) = 3.60516 3.74938 3.67798
# Velocity P-wave (km/s) = 7.03270 7.21315 7.12349
#
# Compressibility (1/GPa) = 0.01745480
#
# Stress axis : x y z
#
# Youngs Moduli (GPa) = 61.78005 57.46823 47.85532
#
# Poissons Ratio (x) = 0.25847 0.23923
# Poissons Ratio (y) = 0.27787 0.43155
# Poissons Ratio (z) = 0.30884 0.51823
#
# Static dielectric constant tensor:
#      x y z
#    x 3.214260 0.000000 -0.128130 
#    y 0.000000 3.340120 0.000000 
#    z -0.128130 0.000000 3.113040 
# 
# 
# High freq. dielectric constant tensor:
#      x y z
#    x 1.679420 0.000000 -0.015120 
#    y 0.000000 1.698370 0.000000 
#    z -0.015120 0.000000 1.677390 
# 
# From -- ./inp_files/58365.got.cif
#   From: 2010.06.25/outbox.cif.g09.slc.cpg/sg10_30_cif.got.tgz:58365.got - 2010.06.27 22:07:45.
