data_PCOD8060283
_publ_section_title
;
Structure prediction by ZEFSAII (Michael W. Deem and Ramdas Pophale) SiO2 
 PCOD8060283
Probable space group: P 2/M
;
_chemical_formula_sum "Si O2"
_cell_formula_units_Z 26
_cell_length_a 9.014753
_cell_length_b 12.124042
_cell_length_c 26.341827
_cell_angle_alpha 90.000000
_cell_angle_beta 28.971352
_cell_angle_gamma 90.000000
_cell_volume 1394.525338
_symmetry_space_group_name_H-M "P 2/M"
_symmetry_group_IT_number 10
_symmetry_cell_setting 'monoclinic'
loop_
_space_group_symop_operation_xyz
x,y,z
-x,y,-z
-x,-y,-z
x,-y,z
loop_
_atom_site_type_symbol
_atom_site_label
_atom_site_fract_x
_atom_site_fract_y
_atom_site_fract_z
Si Si1 0.357351 0.261112 0.903836
Si Si2 0.377578 0.500000 0.283478
Si Si3 0.651899 0.870147 0.903504
Si Si4 0.350369 0.869722 0.704007
Si Si5 0.657546 0.500000 0.506888
Si Si6 0.646243 0.500000 0.094738
Si Si7 0.394319 0.260405 0.282388
Si Si8 0.792273 0.286289 0.514992
O O1 0.470059 0.170630 0.909057
O O2 0.425954 0.381803 0.909890
O O3 0.537937 0.243932 0.797074
O O4 0.000000 0.244874 0.000000
O O5 0.449010 0.500000 0.203638
O O6 0.501466 0.384262 0.269642
O O7 0.017304 0.500000 0.394096
O O8 0.005395 0.835012 0.794105
O O9 0.617590 0.000000 0.914320
O O10 0.500000 0.820342 0.000000
O O11 0.422597 0.828366 0.739280
O O12 0.575209 0.814962 0.595520
O O13 0.401583 0.000000 0.686697
O O14 0.500000 0.500000 0.500000
O O15 0.574724 0.388017 0.562380
O O16 0.000000 0.500000 0.000000
O O17 0.026504 0.246599 0.400552
O O18 0.000000 0.325907 0.500000
#
# Coordination Sequence:
#
# PCOD8060283 Si02
#       8
#     4   2   4   4   2   2   4   4
#     4  10  19  34  57  81 105 137 175 214 258 312
#     4   8  16  31  48  74 106 135 168 211 258 296
#     4  10  22  39  55  74 104 137 172 219 267 307
#     4  10  21  36  53  76 107 139 171 214 267 313
#     4  10  19  31  52  78 104 136 178 222 255 297
#     4   8  16  30  49  76 107 131 156 203 261 305
#     4   9  18  33  55  78 104 137 177 216 251 306
#     4   9  19  34  53  77 108 142 175 212 259 312
#
# _framework density 18.644337
#
# number of rings (size 3 to 8) (size 9 to 14) (size 15 to 20)
#    0.000    2.615    0.000    1.154    0.000    9.231 
#    0.000    1.154    0.000    2.308    0.000    0.000 
#    0.000    0.000    0.000    0.000    0.000    0.000 
#
# Total GULP energy -322136.459984 kJ/mol
# GULP energy per Si atom -12389.863846 kJ/mol
# Density = 1.860190 g / cm^3
# Si number density = 18.644337 Si / 1000 Ang^3
#
#
#
# Elastic Constant Matrix: (Units=GPa)
#
#
# Indices 1 2 3 4 5 6 
#
# 1 92.8128 45.4386 46.6360 0.0000 2.4409 0.0000
# 2 45.4386 77.6181 41.3417 0.0000 -5.4516 0.0000
# 3 46.6360 41.3417 94.9235 0.0000 18.6376 0.0000
# 4 0.0000 0.0000 0.0000 26.4807 0.0000 2.1011
# 5 2.4409 -5.4516 18.6376 0.0000 24.7527 0.0000
# 6 0.0000 0.0000 0.0000 2.1011 0.0000 26.2551
#
#
#
# Elastic Compliance Matrix: (Units=1/GPa)
#
#
# Indices 1 2 3 4 5 6 
#
# 1 0.016877 -0.006901 -0.005469 0.000000 0.000934 0.000000
# 2 -0.006901 0.022474 -0.008805 0.000000 0.012260 0.000000
# 3 -0.005469 -0.008805 0.020338 0.000000 -0.016713 0.000000
# 4 0.000000 0.000000 0.000000 0.038005 0.000000 -0.003041
# 5 0.000934 0.012260 -0.016713 0.000000 0.055592 0.000000
# 6 0.000000 0.000000 0.000000 -0.003041 0.000000 0.038331
#
#
# Mechanical properties :
#
#
# Convention : Reuss Voigt Hill
#
# Bulk Modulus (GPa) = 57.67414 59.13189 58.40301
# Shear Modulus (GPa) = 20.85534 24.29359 22.57446
#
# Velocity S-wave (km/s) = 3.34816 3.61363 3.48342
# Velocity P-wave (km/s) = 6.77849 7.01396 6.89723
#
# Compressibility (1/GPa) = 0.01733879
#
# Stress axis : x y z
#
# Youngs Moduli (GPa) = 59.25395 44.49520 49.16870
#
# Poissons Ratio (x) = 0.30706 0.26891
# Poissons Ratio (y) = 0.40891 0.43292
# Poissons Ratio (z) = 0.32407 0.39177
#
# Static dielectric constant tensor:
#      x y z
#    x 3.095540 0.000000 0.083540 
#    y 0.000000 3.775300 0.000000 
#    z 0.083540 0.000000 3.746980 
# 
# 
# High freq. dielectric constant tensor:
#      x y z
#    x 1.687050 0.000000 0.009930 
#    y 0.000000 1.731590 0.000000 
#    z 0.009930 0.000000 1.739520 
# 
# From -- ./inp_files/92285.got.cif
#   From: 2010.06.25/outbox.cif.g09.slc.cpg/sg10_47_cif.got.tgz:92285.got - 2010.06.27 22:07:45.
