data_PCOD8060507
_publ_section_title
;
Structure prediction by ZEFSAII (Michael W. Deem and Ramdas Pophale) SiO2 
 PCOD8060507
Probable space group: P 2/M
;
_chemical_formula_sum "Si O2"
_cell_formula_units_Z 32
_cell_length_a 11.724244
_cell_length_b 9.097419
_cell_length_c 21.317737
_cell_angle_alpha 90.000000
_cell_angle_beta 52.786539
_cell_angle_gamma 90.000000
_cell_volume 1810.792856
_symmetry_space_group_name_H-M "P 2/M"
_symmetry_group_IT_number 10
_symmetry_cell_setting 'monoclinic'
loop_
_space_group_symop_operation_xyz
x,y,z
-x,y,-z
-x,-y,-z
x,-y,z
loop_
_atom_site_type_symbol
_atom_site_label
_atom_site_fract_x
_atom_site_fract_y
_atom_site_fract_z
Si Si1 0.427105 0.326797 0.665369
Si Si2 0.785787 0.171202 0.069160
Si Si3 0.002038 0.173670 0.101867
Si Si4 0.060202 0.670874 0.618080
Si Si5 0.485388 0.169432 0.772478
Si Si6 0.297376 0.171114 0.462473
Si Si7 0.200743 0.166797 0.353508
Si Si8 0.892426 0.330085 0.255863
O O1 0.452036 0.500000 0.652234
O O2 0.438138 0.277543 0.733444
O O3 0.547627 0.246771 0.583666
O O4 0.272692 0.278032 0.690625
O O5 0.870595 0.230416 0.102117
O O6 0.616135 0.205389 0.133631
O O7 0.818094 0.000000 0.057093
O O8 0.851347 0.230465 0.981689
O O9 0.991353 0.245580 0.173493
O O10 0.000169 0.000000 0.113004
O O11 0.085838 0.500000 0.595672
O O12 0.195569 0.759877 0.548268
O O13 0.043156 0.702735 0.697314
O O14 0.915754 0.720174 0.632011
O O15 0.651899 0.192900 0.734469
O O16 0.463003 0.000000 0.757518
O O17 0.229279 0.199068 0.416873
O O18 0.316292 0.000000 0.469827
O O19 0.144961 0.000000 0.362947
O O20 0.900179 0.500000 0.235627
#
# Coordination Sequence:
#
# PCOD8060507 Si02
#       8
#     4   4   4   4   4   4   4   4
#     4  10  19  32  50  73 102 133 165 199 243 298
#     4   8  14  26  48  79 106 128 160 203 248 291
#     4   9  16  28  50  76 102 133 168 201 239 295
#     4  11  23  37  52  70  97 135 172 206 247 294
#     4   9  16  30  52  76 105 132 158 202 256 296
#     4  10  21  37  56  77 100 123 158 211 259 297
#     4   9  19  34  53  76  99 125 161 209 253 292
#     4  10  22  36  48  69 105 140 167 202 245 291
#
# _framework density 17.671817000000001
#
# number of rings (size 3 to 8) (size 9 to 14) (size 15 to 20)
#    0.000    2.500    1.250    3.000    0.000    6.000 
#    0.000    4.375    0.000    0.750    0.000    5.250 
#    0.000    0.000    0.000    0.000    0.000    0.000 
#
# Total GULP energy -396689.542113 kJ/mol
# GULP energy per Si atom -12396.548191 kJ/mol
# Density = 1.763160 g / cm^3
# Si number density = 17.671817 Si / 1000 Ang^3
#
#
#
# Elastic Constant Matrix: (Units=GPa)
#
#
# Indices 1 2 3 4 5 6 
#
# 1 20.6546 17.4445 11.8060 0.0000 2.6625 0.0000
# 2 17.4445 62.4217 39.3209 0.0000 1.8214 0.0000
# 3 11.8060 39.3209 121.8499 0.0000 -8.5397 0.0000
# 4 0.0000 0.0000 0.0000 24.2532 0.0000 2.8865
# 5 2.6625 1.8214 -8.5397 0.0000 20.1033 0.0000
# 6 0.0000 0.0000 0.0000 2.8865 0.0000 20.4620
#
#
#
# Elastic Compliance Matrix: (Units=1/GPa)
#
#
# Indices 1 2 3 4 5 6 
#
# 1 0.064471 -0.016980 -0.001296 0.000000 -0.007551 0.000000
# 2 -0.016980 0.025024 -0.006628 0.000000 -0.002834 0.000000
# 3 -0.001296 -0.006628 0.010849 0.000000 0.005381 0.000000
# 4 0.000000 0.000000 0.000000 0.041936 0.000000 -0.005916
# 5 -0.007551 -0.002834 0.005381 0.000000 0.053285 0.000000
# 6 0.000000 0.000000 0.000000 -0.005916 0.000000 0.049705
#
#
# Mechanical properties :
#
#
# Convention : Reuss Voigt Hill
#
# Bulk Modulus (GPa) = 19.78909 38.00767 28.89838
# Shear Modulus (GPa) = 16.02955 22.05404 19.04179
#
# Velocity S-wave (km/s) = 3.01502 3.53651 3.28613
# Velocity P-wave (km/s) = 4.83145 6.18304 5.54856
#
# Compressibility (1/GPa) = 0.05053289
#
# Stress axis : x y z
#
# Youngs Moduli (GPa) = 15.51087 39.96233 92.17856
#
# Poissons Ratio (x) = 0.67857 0.11949
# Poissons Ratio (y) = 0.26338 0.61100
# Poissons Ratio (z) = 0.02011 0.26489
#
# Static dielectric constant tensor:
#      x y z
#    x 3.053440 0.000000 -0.214370 
#    y 0.000000 3.162840 0.000000 
#    z -0.214370 0.000000 3.494400 
# 
# 
# High freq. dielectric constant tensor:
#      x y z
#    x 1.652070 0.000000 -0.018520 
#    y 0.000000 1.674510 0.000000 
#    z -0.018520 0.000000 1.693620 
# 
# From -- ./inp_files/54921.got.cif
#   From: 2010.06.25/outbox.cif.g09.slc.cpg/sg10_28_cif.got.tgz:54921.got - 2010.06.27 22:07:45.
