data_PCOD8060670
_publ_section_title
;
Structure prediction by ZEFSAII (Michael W. Deem and Ramdas Pophale) SiO2 
 PCOD8060670
Probable space group: P 2/M
;
_chemical_formula_sum "Si O2"
_cell_formula_units_Z 24
_cell_length_a 10.422174
_cell_length_b 8.455474
_cell_length_c 13.753908
_cell_angle_alpha 90.000000
_cell_angle_beta 101.072537
_cell_angle_gamma 90.000000
_cell_volume 1189.492571
_symmetry_space_group_name_H-M "P 2/M"
_symmetry_group_IT_number 10
_symmetry_cell_setting 'monoclinic'
loop_
_space_group_symop_operation_xyz
x,y,z
-x,y,-z
-x,-y,-z
x,-y,z
loop_
_atom_site_type_symbol
_atom_site_label
_atom_site_fract_x
_atom_site_fract_y
_atom_site_fract_z
Si Si1 0.776275 0.811120 0.111198
Si Si2 0.390036 0.315801 0.559674
Si Si3 0.054561 0.812059 0.221751
Si Si4 0.720866 0.811200 0.886760
Si Si5 0.443492 0.185943 0.776791
Si Si6 0.880076 0.814143 0.552322
O O1 0.667336 0.742525 0.168684
O O2 0.915871 0.743729 0.166082
O O3 0.777361 0.000000 0.112797
O O4 0.745862 0.747854 0.998948
O O5 0.500000 0.257228 0.500000
O O6 0.405617 0.500000 0.583618
O O7 0.410602 0.221525 0.661401
O O8 0.247176 0.280929 0.497824
O O9 0.166314 0.744433 0.167149
O O10 0.082072 0.755219 0.334940
O O11 0.051901 0.000000 0.217183
O O12 0.583479 0.742446 0.827924
O O13 0.721041 0.000000 0.885349
O O14 0.447424 0.000000 0.792280
O O15 0.000000 0.770772 0.500000
O O16 0.848436 0.000000 0.544237
#
# Coordination Sequence:
#
# PCOD8060670 Si02
#       6
#     4   4   4   4   4   4
#     4   9  16  27  45  72 104 132 161 203 254 307
#     4  11  24  39  54  75 105 142 182 222 265 313
#     4   9  16  26  43  70 103 135 164 200 252 309
#     4   9  16  26  44  72 103 133 165 203 251 306
#     4  10  19  32  52  76 101 131 169 214 261 307
#     4  10  20  35  56  82 110 139 175 220 267 315
#
# _framework density 20.176670999999999
#
# number of rings (size 3 to 8) (size 9 to 14) (size 15 to 20)
#    0.000    2.333    0.000    3.500    0.000    9.667 
#    0.000    0.000    0.000    2.000    0.000    0.000 
#    0.000    8.000    0.000    0.000    0.000    0.000 
#
# Total GULP energy -297639.921030 kJ/mol
# GULP energy per Si atom -12401.663376 kJ/mol
# Density = 2.013075 g / cm^3
# Si number density = 20.176671 Si / 1000 Ang^3
#
#
#
# Elastic Constant Matrix: (Units=GPa)
#
#
# Indices 1 2 3 4 5 6 
#
# 1 204.6207 8.6840 97.8915 0.0000 -4.6542 0.0000
# 2 8.6840 6.4748 -1.4288 0.0000 -1.6482 0.0000
# 3 97.8915 -1.4288 180.0887 0.0000 -5.3345 0.0000
# 4 0.0000 0.0000 0.0000 -2.3044 0.0000 -1.1550
# 5 -4.6542 -1.6482 -5.3345 0.0000 49.7985 0.0000
# 6 0.0000 0.0000 0.0000 -1.1550 0.0000 13.1591
#
#
#
# Elastic Compliance Matrix: (Units=1/GPa)
#
#
# Indices 1 2 3 4 5 6 
#
# 1 0.007270 -0.010669 -0.004040 0.000000 -0.000106 0.000000
# 2 -0.010669 0.171763 0.007324 0.000000 0.005472 0.000000
# 3 -0.004040 0.007324 0.007828 0.000000 0.000703 0.000000
# 4 0.000000 0.000000 0.000000 -0.415665 0.000000 -0.036483
# 5 -0.000106 0.005472 0.000703 0.000000 0.020327 0.000000
# 6 0.000000 0.000000 0.000000 -0.036483 0.000000 0.072791
#
#
# Mechanical properties :
#
#
# Convention : Reuss Voigt Hill
#
# Bulk Modulus (GPa) = 5.81087 66.83086 36.32086
# Shear Modulus (GPa) = -78.67280 31.19982 -23.73649
#
# Velocity S-wave (km/s) = -6.25113 3.93661 -3.43364
# Velocity P-wave (km/s) = 7.01540 7.33875 1.52338
#
# Compressibility (1/GPa) = 0.17209139
#
# Stress axis : x y z
#
# Youngs Moduli (GPa) = 137.55135 5.82199 127.75352
#
# Poissons Ratio (x) = 0.06211 0.51607
# Poissons Ratio (y) = 1.46753 -0.93569
# Poissons Ratio (z) = 0.55565 -0.04264
#
# Static dielectric constant tensor:
#      x y z
#    x 4.127650 0.000000 0.399960 
#    y 0.000000 2.947380 0.000000 
#    z 0.399960 0.000000 5.536150 
# 
# 
# High freq. dielectric constant tensor:
#      x y z
#    x 1.810480 0.000000 -0.000840 
#    y 0.000000 1.720910 0.000000 
#    z -0.000840 0.000000 1.806550 
# 
# From -- ./inp_files/60363.got.cif
#   From: 2010.06.25/outbox.cif.g09.slc.cpg/sg10_31_cif.got.tgz:60363.got - 2010.06.27 22:07:45.
