data_PCOD8060741
_publ_section_title
;
Structure prediction by ZEFSAII (Michael W. Deem and Ramdas Pophale) SiO2 
 PCOD8060741
Probable space group: P 2/M
;
_chemical_formula_sum "Si O2"
_cell_formula_units_Z 24
_cell_length_a 11.160327
_cell_length_b 8.600320
_cell_length_c 23.638596
_cell_angle_alpha 90.000000
_cell_angle_beta 145.036615
_cell_angle_gamma 90.000000
_cell_volume 1300.193159
_symmetry_space_group_name_H-M "P 2/M"
_symmetry_group_IT_number 10
_symmetry_cell_setting 'monoclinic'
loop_
_space_group_symop_operation_xyz
x,y,z
-x,y,-z
-x,-y,-z
x,-y,z
loop_
_atom_site_type_symbol
_atom_site_label
_atom_site_fract_x
_atom_site_fract_y
_atom_site_fract_z
Si Si1 0.868161 0.179770 0.319858
Si Si2 0.252407 0.181317 0.955721
Si Si3 0.521201 0.179452 0.279942
Si Si4 0.921946 0.681068 0.908549
Si Si5 0.311991 0.318600 0.859653
Si Si6 0.824550 0.675205 0.479689
O O1 0.680237 0.209584 0.290465
O O2 0.828707 0.278433 0.248490
O O3 0.086729 0.237626 0.430850
O O4 0.888045 0.000000 0.311623
O O5 0.222497 0.226642 0.878831
O O6 0.042739 0.222304 0.907803
O O7 0.300013 0.000000 0.979037
O O8 0.447750 0.271755 0.059032
O O9 0.322314 0.285404 0.191127
O O10 0.624135 0.231409 0.379092
O O11 0.455652 0.000000 0.258781
O O12 0.965780 0.500000 0.916096
O O13 0.000000 0.736569 0.000000
O O14 0.298999 0.500000 0.867663
O O15 0.758366 0.500000 0.470180
O O16 0.000000 0.673768 0.500000
#
# Coordination Sequence:
#
# PCOD8060741 Si02
#       6
#     4   4   4   4   4   4
#     4  10  19  32  52  79 108 137 174 216 259 306
#     4  11  22  37  55  76 104 137 174 214 259 307
#     4  10  20  33  51  76 107 141 174 213 260 308
#     4  11  23  37  54  77 106 139 174 212 256 308
#     4  11  21  35  55  78 105 136 173 215 259 306
#     4   9  17  30  49  74 104 137 173 214 260 306
#
# _framework density 18.458794999999999
#
# number of rings (size 3 to 8) (size 9 to 14) (size 15 to 20)
#    0.000    1.667    0.000    7.000    0.000    8.000 
#    0.000    0.000    0.000    1.000    0.000    7.000 
#    0.000    0.000    0.000    0.000    0.000    0.000 
#
# Total GULP energy -297719.786197 kJ/mol
# GULP energy per Si atom -12404.991092 kJ/mol
# Density = 1.841678 g / cm^3
# Si number density = 18.458795 Si / 1000 Ang^3
#
#
#
# Elastic Constant Matrix: (Units=GPa)
#
#
# Indices 1 2 3 4 5 6 
#
# 1 51.7749 23.8009 32.9257 0.0000 -3.2830 0.0000
# 2 23.8009 80.6016 22.8483 0.0000 -3.3247 0.0000
# 3 32.9257 22.8483 130.4064 0.0000 -16.2835 0.0000
# 4 0.0000 0.0000 0.0000 35.7187 0.0000 -0.7515
# 5 -3.2830 -3.3247 -16.2835 0.0000 21.8720 0.0000
# 6 0.0000 0.0000 0.0000 -0.7515 0.0000 26.3277
#
#
#
# Elastic Compliance Matrix: (Units=1/GPa)
#
#
# Indices 1 2 3 4 5 6 
#
# 1 0.025528 -0.006017 -0.005542 0.000000 -0.001209 0.000000
# 2 -0.006017 0.014475 -0.000943 0.000000 0.000595 0.000000
# 3 -0.005542 -0.000943 0.010045 0.000000 0.006503 0.000000
# 4 0.000000 0.000000 0.000000 0.028013 0.000000 0.000800
# 5 -0.001209 0.000595 0.006503 0.000000 0.050471 0.000000
# 6 0.000000 0.000000 0.000000 0.000800 0.000000 0.038006
#
#
# Mechanical properties :
#
#
# Convention : Reuss Voigt Hill
#
# Bulk Modulus (GPa) = 39.92887 46.88143 43.40515
# Shear Modulus (GPa) = 25.01371 28.99756 27.00563
#
# Velocity S-wave (km/s) = 3.68518 3.96780 3.82910
# Velocity P-wave (km/s) = 6.30759 6.81500 6.56620
#
# Compressibility (1/GPa) = 0.02504454
#
# Stress axis : x y z
#
# Youngs Moduli (GPa) = 39.17224 69.08347 99.55344
#
# Poissons Ratio (x) = 0.41568 0.55175
# Poissons Ratio (y) = 0.23570 0.09384
# Poissons Ratio (z) = 0.21710 0.06512
#
# Static dielectric constant tensor:
#      x y z
#    x 3.100920 0.000000 -0.129550 
#    y 0.000000 3.527580 0.000000 
#    z -0.129550 0.000000 3.488530 
# 
# 
# High freq. dielectric constant tensor:
#      x y z
#    x 1.681970 0.000000 -0.013710 
#    y 0.000000 1.735300 0.000000 
#    z -0.013710 0.000000 1.722430 
# 
# From -- ./inp_files/54601.got.cif
#   From: 2010.06.25/outbox.cif.g09.slc.cpg/sg10_28_cif.got.tgz:54601.got - 2010.06.27 22:07:45.
