data_PCOD8060473
_publ_section_title
;
Structure prediction by ZEFSAII (Michael W. Deem and Ramdas Pophale) SiO2 
 PCOD8060473
Probable space group: P 2/M
;
_chemical_formula_sum "Si O2"
_cell_formula_units_Z 32
_cell_length_a 19.321904
_cell_length_b 9.471555
_cell_length_c 21.943879
_cell_angle_alpha 90.000000
_cell_angle_beta 151.682075
_cell_angle_gamma 90.000000
_cell_volume 1905.004480
_symmetry_space_group_name_H-M "P 2/M"
_symmetry_group_IT_number 10
_symmetry_cell_setting 'monoclinic'
loop_
_space_group_symop_operation_xyz
x,y,z
-x,y,-z
-x,-y,-z
x,-y,z
loop_
_atom_site_type_symbol
_atom_site_label
_atom_site_fract_x
_atom_site_fract_y
_atom_site_fract_z
Si Si1 0.853086 0.835705 0.020009
Si Si2 0.163132 0.831512 0.627005
Si Si3 0.307468 0.167242 0.987496
Si Si4 0.335831 0.832047 0.876642
Si Si5 0.410777 0.665447 0.370825
Si Si6 0.924039 0.664649 0.878308
Si Si7 0.553483 0.165138 0.719913
Si Si8 0.593218 0.167566 0.272805
O O1 0.817655 0.788324 0.061844
O O2 0.995379 0.748301 0.112562
O O3 0.891608 0.000000 0.045618
O O4 0.715078 0.800244 0.870139
O O5 0.240605 0.770121 0.747572
O O6 0.252187 0.780723 0.635584
O O7 0.000000 0.768831 0.500000
O O8 0.158874 0.000000 0.625672
O O9 0.268306 0.219587 0.889018
O O10 0.322884 0.000000 0.000112
O O11 0.463701 0.229592 0.130033
O O12 0.336854 0.000000 0.872890
O O13 0.500000 0.773769 0.000000
O O14 0.500000 0.708196 0.500000
O O15 0.423266 0.500000 0.366488
O O16 0.243754 0.711485 0.250953
O O17 0.478218 0.747741 0.365742
O O18 0.941033 0.500000 0.877981
O O19 0.000000 0.708172 0.000000
O O20 0.433455 0.213774 0.677587
O O21 0.538258 0.000000 0.693347
O O22 0.584603 0.000000 0.263837
#
# Coordination Sequence:
#
# PCOD8060473 Si02
#       8
#     4   4   4   4   4   4   4   4
#     4   9  17  28  45  70  96 120 148 188 232 271
#     4   9  15  21  31  51  79 111 145 178 214 255
#     4   8  13  22  36  56  82 111 145 181 217 258
#     4   9  13  19  33  50  71 104 142 175 208 250
#     4  10  21  36  51  68  92 120 150 188 229 268
#     4  10  19  32  50  70  90 114 148 189 228 267
#     4   9  17  29  47  69  93 122 152 184 227 276
#     4   8  13  23  37  55  82 113 144 178 217 261
#
# _framework density 16.79786
#
# number of rings (size 3 to 8) (size 9 to 14) (size 15 to 20)
#    0.000    3.000    2.500    1.500    0.000    1.000 
#    0.000    1.250    0.000    3.000    0.000    0.000 
#    0.000    2.000    0.000    0.125    0.000    0.125 
#
# Total GULP energy -396575.681784 kJ/mol
# GULP energy per Si atom -12392.990056 kJ/mol
# Density = 1.675963 g / cm^3
# Si number density = 16.797860 Si / 1000 Ang^3
#
#
#
# Elastic Constant Matrix: (Units=GPa)
#
#
# Indices 1 2 3 4 5 6 
#
# 1 175.7268 36.5628 77.6276 0.0000 -0.4367 0.0000
# 2 36.5628 19.3282 19.9374 0.0000 -1.0581 0.0000
# 3 77.6276 19.9374 109.8682 0.0000 0.1130 0.0000
# 4 0.0000 0.0000 0.0000 10.4491 0.0000 0.5573
# 5 -0.4367 -1.0581 0.1130 0.0000 27.5232 0.0000
# 6 0.0000 0.0000 0.0000 0.5573 0.0000 -0.2914
#
#
#
# Elastic Compliance Matrix: (Units=1/GPa)
#
#
# Indices 1 2 3 4 5 6 
#
# 1 0.011276 -0.016161 -0.005034 0.000000 -0.000422 0.000000
# 2 -0.016161 0.086987 -0.004370 0.000000 0.003106 0.000000
# 3 -0.005034 -0.004370 0.013452 0.000000 -0.000303 0.000000
# 4 0.000000 0.000000 0.000000 0.086845 0.000000 0.166063
# 5 -0.000422 0.003106 -0.000303 0.000000 0.036447 0.000000
# 6 0.000000 0.000000 0.000000 0.166063 0.000000 -3.113660
#
#
# Mechanical properties :
#
#
# Convention : Reuss Voigt Hill
#
# Bulk Modulus (GPa) = 16.50566 63.68652 40.09609
# Shear Modulus (GPa) = -1.78105 18.92253 8.57074
#
# Velocity S-wave (km/s) = -1.03082 3.35996 2.26127
# Velocity P-wave (km/s) = 2.90355 7.28342 5.54431
#
# Compressibility (1/GPa) = 0.06058529
#
# Stress axis : x y z
#
# Youngs Moduli (GPa) = 88.68487 11.49597 74.33945
#
# Poissons Ratio (x) = 0.18579 0.37422
# Poissons Ratio (y) = 1.43323 0.32485
# Poissons Ratio (z) = 0.44643 0.05024
#
# Static dielectric constant tensor:
#      x y z
#    x 3.503390 0.000000 -0.009490 
#    y 0.000000 2.581700 0.000000 
#    z -0.009490 0.000000 3.105210 
# 
# 
# High freq. dielectric constant tensor:
#      x y z
#    x 1.666860 0.000000 0.000350 
#    y 0.000000 1.584980 0.000000 
#    z 0.000350 0.000000 1.625550 
# 
# From -- ./inp_files/85794.got.cif
#   From: 2010.06.25/outbox.cif.g09.slc.cpg/sg10_43_cif.got.tgz:85794.got - 2010.06.27 22:07:45.
