data_PCOD8060958
_publ_section_title
;
Structure prediction by ZEFSAII (Michael W. Deem and Ramdas Pophale) SiO2 
 PCOD8060958
Probable space group: P 2/M
;
_chemical_formula_sum "Si O2"
_cell_formula_units_Z 28
_cell_length_a 11.539226
_cell_length_b 9.132468
_cell_length_c 15.100283
_cell_angle_alpha 90.000000
_cell_angle_beta 115.036026
_cell_angle_gamma 90.000000
_cell_volume 1441.777342
_symmetry_space_group_name_H-M "P 2/M"
_symmetry_group_IT_number 10
_symmetry_cell_setting 'monoclinic'
loop_
_space_group_symop_operation_xyz
x,y,z
-x,y,-z
-x,-y,-z
x,-y,z
loop_
_atom_site_type_symbol
_atom_site_label
_atom_site_fract_x
_atom_site_fract_y
_atom_site_fract_z
Si Si1 0.799990 0.674056 0.957765
Si Si2 0.455796 0.333181 0.389826
Si Si3 0.824024 0.333674 0.644891
Si Si4 0.481809 0.326956 0.096049
Si Si5 0.028349 0.326035 0.144763
Si Si6 0.387146 0.827693 0.707264
Si Si7 0.139830 0.171456 0.521381
O O1 0.793659 0.500000 0.954167
O O2 0.656818 0.735239 0.919649
O O3 0.867767 0.736562 0.891703
O O4 0.885672 0.723857 0.070607
O O5 0.500000 0.275760 0.500000
O O6 0.503857 0.500000 0.390390
O O7 0.302918 0.324502 0.336161
O O8 0.513075 0.232075 0.332377
O O9 0.849733 0.500000 0.623034
O O10 0.938128 0.272435 0.744982
O O11 0.809787 0.238083 0.553347
O O12 0.494958 0.500000 0.115185
O O13 0.588872 0.247839 0.190195
O O14 0.500000 0.284584 0.000000
O O15 0.040236 0.500000 0.145631
O O16 0.241708 0.790099 0.631042
O O17 0.407922 0.000000 0.722668
O O18 0.000000 0.236400 0.500000
O O19 0.129983 0.000000 0.502705
#
# Coordination Sequence:
#
# PCOD8060958 Si02
#       7
#     4   4   4   4   4   4   4
#     4   8  14  28  48  73 105 136 167 210 265 321
#     4  10  19  33  56  85 117 144 173 222 280 329
#     4  10  19  32  54  85 112 139 177 222 271 323
#     4  10  21  36  56  80 107 140 179 226 281 330
#     4   8  14  25  47  76 104 133 167 210 260 315
#     4  11  23  38  58  81 108 146 189 230 272 326
#     4  10  23  41  55  71 104 148 186 220 267 324
#
# _framework density 19.420475
#
# number of rings (size 3 to 8) (size 9 to 14) (size 15 to 20)
#    0.000    2.429    1.429    2.143    0.000    5.429 
#    0.000    1.429    0.000    0.857    0.000    3.000 
#    0.000    0.000    0.000    0.000    0.000    0.000 
#
# Total GULP energy -347112.665316 kJ/mol
# GULP energy per Si atom -12396.880904 kJ/mol
# Density = 1.937627 g / cm^3
# Si number density = 19.420475 Si / 1000 Ang^3
#
#
#
# Elastic Constant Matrix: (Units=GPa)
#
#
# Indices 1 2 3 4 5 6 
#
# 1 86.6930 31.2352 45.6764 0.0000 8.8507 0.0000
# 2 31.2352 41.0187 50.2239 0.0000 0.1188 0.0000
# 3 45.6764 50.2239 164.7537 0.0000 9.0290 0.0000
# 4 0.0000 0.0000 0.0000 15.0438 0.0000 0.8830
# 5 8.8507 0.1188 9.0290 0.0000 28.7591 0.0000
# 6 0.0000 0.0000 0.0000 0.8830 0.0000 17.3538
#
#
#
# Elastic Compliance Matrix: (Units=1/GPa)
#
#
# Indices 1 2 3 4 5 6 
#
# 1 0.016662 -0.011715 -0.000783 0.000000 -0.004833 0.000000
# 2 -0.011715 0.047509 -0.011622 0.000000 0.007058 0.000000
# 3 -0.000783 -0.011622 0.009986 0.000000 -0.002846 0.000000
# 4 0.000000 0.000000 0.000000 0.066672 0.000000 -0.003393
# 5 -0.004833 0.007058 -0.002846 0.000000 0.037123 0.000000
# 6 0.000000 0.000000 0.000000 -0.003393 0.000000 0.057797
#
#
# Mechanical properties :
#
#
# Convention : Reuss Voigt Hill
#
# Bulk Modulus (GPa) = 38.58462 60.74848 49.66655
# Shear Modulus (GPa) = 17.08657 23.25333 20.16995
#
# Velocity S-wave (km/s) = 2.96940 3.46405 3.22622
# Velocity P-wave (km/s) = 5.62739 6.88099 6.28552
#
# Compressibility (1/GPa) = 0.02591707
#
# Stress axis : x y z
#
# Youngs Moduli (GPa) = 60.01721 21.04853 100.14399
#
# Poissons Ratio (x) = 0.24658 0.07844
# Poissons Ratio (y) = 0.70308 1.16386
# Poissons Ratio (z) = 0.04701 0.24462
#
# Static dielectric constant tensor:
#      x y z
#    x 3.604100 0.000000 0.256030 
#    y 0.000000 3.115730 0.000000 
#    z 0.256030 0.000000 3.853300 
# 
# 
# High freq. dielectric constant tensor:
#      x y z
#    x 1.747370 0.000000 0.013560 
#    y 0.000000 1.709260 0.000000 
#    z 0.013560 0.000000 1.775090 
# 
# From -- ./inp_files/63394.got.cif
#   From: 2010.06.25/outbox.cif.g09.slc.cpg/sg10_32_cif.got.tgz:63394.got - 2010.06.27 22:07:45.
