data_PCOD8060477
_publ_section_title
;
Structure prediction by ZEFSAII (Michael W. Deem and Ramdas Pophale) SiO2 
 PCOD8060477
Probable space group: P 2/M
;
_chemical_formula_sum "Si O2"
_cell_formula_units_Z 32
_cell_length_a 23.046415
_cell_length_b 9.020191
_cell_length_c 31.580683
_cell_angle_alpha 90.000000
_cell_angle_beta 164.353720
_cell_angle_gamma 90.000000
_cell_volume 1770.589559
_symmetry_space_group_name_H-M "P 2/M"
_symmetry_group_IT_number 10
_symmetry_cell_setting 'monoclinic'
loop_
_space_group_symop_operation_xyz
x,y,z
-x,y,-z
-x,-y,-z
x,-y,z
loop_
_atom_site_type_symbol
_atom_site_label
_atom_site_fract_x
_atom_site_fract_y
_atom_site_fract_z
Si Si1 0.860898 0.825610 0.442633
Si Si2 0.408890 0.170967 0.480300
Si Si3 0.029410 0.836236 0.389704
Si Si4 0.536862 0.166069 0.733996
Si Si5 0.091568 0.171613 0.857895
Si Si6 0.027233 0.665840 0.729707
Si Si7 0.582263 0.323881 0.851307
Si Si8 0.480211 0.333761 0.613077
O O1 0.000331 0.783673 0.582503
O O2 0.641458 0.734292 0.286907
O O3 0.000000 0.780065 0.500000
O O4 0.803125 0.000000 0.402747
O O5 0.500000 0.231732 0.500000
O O6 0.527041 0.259579 0.600739
O O7 0.154455 0.195408 0.302070
O O8 0.468973 0.000000 0.529001
O O9 0.281708 0.840924 0.558007
O O10 0.911777 0.726321 0.274251
O O11 0.930774 0.000000 0.313803
O O12 0.631557 0.259827 0.839415
O O13 0.602448 0.243384 0.735887
O O14 0.633863 0.000000 0.803279
O O15 0.133005 0.228343 0.839243
O O16 0.160861 0.000000 0.909344
O O17 0.228022 0.271688 0.985127
O O18 0.120146 0.500000 0.799604
O O19 0.772456 0.666295 0.555683
O O20 0.575588 0.500000 0.844033
O O21 0.571955 0.500000 0.676972
#
# Coordination Sequence:
#
# PCOD8060477 Si02
#       8
#     4   4   4   4   4   4   4   4
#     4   9  18  33  52  73  98 129 164 198 234 282
#     4   9  18  32  50  72  97 127 163 200 238 285
#     4   8  14  25  43  67  92 119 153 192 232 274
#     4   9  16  28  46  67  92 123 160 198 236 279
#     4  10  19  32  50  70  95 127 161 196 237 285
#     4   9  16  26  42  66  94 121 153 194 236 277
#     4  11  21  32  48  72 101 128 158 197 241 286
#     4   9  16  26  43  69  97 123 154 195 242 285
#
# _framework density 18.073077000000001
#
# number of rings (size 3 to 8) (size 9 to 14) (size 15 to 20)
#    0.000    2.750    0.000    3.375    0.000    7.000 
#    0.000    0.000    0.000    1.500    0.000   10.500 
#    0.000    0.000    0.000    0.000    0.000    0.000 
#
# Total GULP energy -396739.188783 kJ/mol
# GULP energy per Si atom -12398.099649 kJ/mol
# Density = 1.803194 g / cm^3
# Si number density = 18.073077 Si / 1000 Ang^3
#
#
#
# Elastic Constant Matrix: (Units=GPa)
#
#
# Indices 1 2 3 4 5 6 
#
# 1 144.5918 63.0295 37.4516 0.0000 -37.2362 0.0000
# 2 63.0295 128.9815 37.9290 0.0000 -21.2549 0.0000
# 3 37.4516 37.9290 46.3404 0.0000 -24.1968 0.0000
# 4 0.0000 0.0000 0.0000 25.1267 0.0000 -10.9332
# 5 -37.2362 -21.2549 -24.1968 0.0000 24.5968 0.0000
# 6 0.0000 0.0000 0.0000 -10.9332 0.0000 22.0313
#
#
#
# Elastic Compliance Matrix: (Units=1/GPa)
#
#
# Indices 1 2 3 4 5 6 
#
# 1 0.012684 -0.003922 0.002500 0.000000 0.018271 0.000000
# 2 -0.003922 0.011442 -0.008498 0.000000 -0.004410 0.000000
# 3 0.002500 -0.008498 0.050698 0.000000 0.046315 0.000000
# 4 0.000000 0.000000 0.000000 0.050759 0.000000 0.025189
# 5 0.018271 -0.004410 0.046315 0.000000 0.110067 0.000000
# 6 0.000000 0.000000 0.000000 0.025189 0.000000 0.057890
#
#
# Mechanical properties :
#
#
# Convention : Reuss Voigt Hill
#
# Bulk Modulus (GPa) = 18.18734 66.30374 42.24554
# Shear Modulus (GPa) = 15.07349 26.45121 20.76235
#
# Velocity S-wave (km/s) = 2.89109 3.82981 3.39307
# Velocity P-wave (km/s) = 4.60756 7.50485 6.22705
#
# Compressibility (1/GPa) = 0.05498329
#
# Stress axis : x y z
#
# Youngs Moduli (GPa) = 78.84195 87.39740 19.72461
#
# Poissons Ratio (x) = 0.34281 -0.04932
# Poissons Ratio (y) = 0.30925 0.16762
# Poissons Ratio (z) = -0.19712 0.74270
#
# Static dielectric constant tensor:
#      x y z
#    x 3.505780 0.000000 -0.396150 
#    y 0.000000 3.495260 0.000000 
#    z -0.396150 0.000000 2.948520 
# 
# 
# High freq. dielectric constant tensor:
#      x y z
#    x 1.695870 0.000000 -0.040070 
#    y 0.000000 1.708800 0.000000 
#    z -0.040070 0.000000 1.655340 
# 
# From -- ./inp_files/56398.got.cif
#   From: 2010.06.25/outbox.cif.g09.slc.cpg/sg10_29_cif.got.tgz:56398.got - 2010.06.27 22:07:45.
