data_PCOD8060509
_publ_section_title
;
Structure prediction by ZEFSAII (Michael W. Deem and Ramdas Pophale) SiO2 
 PCOD8060509
Probable space group: P 2/M
;
_chemical_formula_sum "Si O2"
_cell_formula_units_Z 32
_cell_length_a 17.838851
_cell_length_b 8.849447
_cell_length_c 29.562494
_cell_angle_alpha 90.000000
_cell_angle_beta 156.773960
_cell_angle_gamma 90.000000
_cell_volume 1840.418114
_symmetry_space_group_name_H-M "P 2/M"
_symmetry_group_IT_number 10
_symmetry_cell_setting 'monoclinic'
loop_
_space_group_symop_operation_xyz
x,y,z
-x,y,-z
-x,-y,-z
x,-y,z
loop_
_atom_site_type_symbol
_atom_site_label
_atom_site_fract_x
_atom_site_fract_y
_atom_site_fract_z
Si Si1 0.525623 0.822772 0.789331
Si Si2 0.083286 0.676467 0.227791
Si Si3 0.804978 0.322911 0.610828
Si Si4 0.717584 0.329029 0.971630
Si Si5 0.955296 0.676695 0.600687
Si Si6 0.304367 0.672449 0.738991
Si Si7 0.432610 0.821789 0.373173
Si Si8 0.458529 0.322510 0.658661
O O1 0.332882 0.763686 0.707599
O O2 0.547719 0.746930 0.752983
O O3 0.517227 0.000000 0.778468
O O4 0.709401 0.774227 0.921627
O O5 0.126069 0.500000 0.242789
O O6 0.083775 0.711971 0.281445
O O7 0.236492 0.777963 0.287806
O O8 0.876808 0.727033 0.094895
O O9 0.760439 0.500000 0.579786
O O10 0.932641 0.262597 0.639575
O O11 0.603329 0.238484 0.499223
O O12 0.762635 0.500000 0.981210
O O13 0.507186 0.321545 0.878459
O O14 0.993380 0.500000 0.624263
O O15 0.765812 0.715841 0.467599
O O16 0.138434 0.749745 0.677187
O O17 0.251065 0.500000 0.696684
O O18 0.435474 0.748922 0.325253
O O19 0.448686 0.000000 0.377538
O O20 0.495078 0.500000 0.678051
#
# Coordination Sequence:
#
# PCOD8060509 Si02
#       8
#     4   4   4   4   4   4   4   4
#     4  10  19  32  50  73 103 134 166 206 248 294
#     4  10  19  34  55  76  98 131 173 210 250 296
#     4   9  18  33  53  77 104 133 166 207 250 295
#     4   8  17  33  52  72  97 132 171 211 247 288
#     4   8  15  29  51  76 101 130 166 205 248 292
#     4   8  15  31  51  71 100 134 168 204 244 292
#     4  11  22  34  50  76 106 133 163 203 251 302
#     4  10  19  34  54  75 101 133 166 205 251 298
#
# _framework density 17.387353999999998
#
# number of rings (size 3 to 8) (size 9 to 14) (size 15 to 20)
#    0.750    2.000    0.000    3.375    0.000    3.000 
#    0.000    6.875    0.000    7.500    0.000    0.875 
#    0.000    0.000    0.000    0.000    0.000    0.000 
#
# Total GULP energy -396553.713987 kJ/mol
# GULP energy per Si atom -12392.303562 kJ/mol
# Density = 1.734778 g / cm^3
# Si number density = 17.387354 Si / 1000 Ang^3
#
#
#
# Elastic Constant Matrix: (Units=GPa)
#
#
# Indices 1 2 3 4 5 6 
#
# 1 78.7779 34.2636 35.7456 0.0000 -19.4824 0.0000
# 2 34.2636 78.2079 27.1549 0.0000 -9.6373 0.0000
# 3 35.7456 27.1549 67.2877 0.0000 -24.8268 0.0000
# 4 0.0000 0.0000 0.0000 11.3809 0.0000 -1.1815
# 5 -19.4824 -9.6373 -24.8268 0.0000 21.8843 0.0000
# 6 0.0000 0.0000 0.0000 -1.1815 0.0000 9.9066
#
#
#
# Elastic Compliance Matrix: (Units=1/GPa)
#
#
# Indices 1 2 3 4 5 6 
#
# 1 0.019720 -0.005874 -0.004442 0.000000 0.009930 0.000000
# 2 -0.005874 0.016622 -0.004844 0.000000 -0.003404 0.000000
# 3 -0.004442 -0.004844 0.029118 0.000000 0.026946 0.000000
# 4 0.000000 0.000000 0.000000 0.088968 0.000000 0.010611
# 5 0.009930 -0.003404 0.026946 0.000000 0.083605 0.000000
# 6 0.000000 0.000000 0.000000 0.010611 0.000000 0.102208
#
#
# Mechanical properties :
#
#
# Convention : Reuss Voigt Hill
#
# Bulk Modulus (GPa) = 28.45616 46.51131 37.48374
# Shear Modulus (GPa) = 13.07967 17.10832 15.09400
#
# Velocity S-wave (km/s) = 2.74570 3.14020 2.94955
# Velocity P-wave (km/s) = 5.14328 6.32108 5.76235
#
# Compressibility (1/GPa) = 0.03514178
#
# Stress axis : x y z
#
# Youngs Moduli (GPa) = 50.71064 60.16107 34.34303
#
# Poissons Ratio (x) = 0.35336 0.15254
# Poissons Ratio (y) = 0.29785 0.16635
# Poissons Ratio (z) = 0.22524 0.29141
#
# Static dielectric constant tensor:
#      x y z
#    x 3.331810 0.000000 0.005830 
#    y 0.000000 3.040270 0.000000 
#    z 0.005830 0.000000 3.203630 
# 
# 
# High freq. dielectric constant tensor:
#      x y z
#    x 1.667320 0.000000 -0.004170 
#    y 0.000000 1.656180 0.000000 
#    z -0.004170 0.000000 1.656690 
# 
# From -- ./inp_files/93144.got.cif
#   From: 2010.06.25/outbox.cif.g09.slc.cpg/sg10_47_cif.got.tgz:93144.got - 2010.06.27 22:07:45.
