data_PCOD8060038
_publ_section_title
;
Structure prediction by ZEFSAII (Michael W. Deem and Ramdas Pophale) SiO2 
 PCOD8060038
Probable space group: P 2/M
;
_chemical_formula_sum "Si O2"
_cell_formula_units_Z 28
_cell_length_a 17.628940
_cell_length_b 9.285458
_cell_length_c 18.696739
_cell_angle_alpha 90.000000
_cell_angle_beta 30.291153
_cell_angle_gamma 90.000000
_cell_volume 1543.709463
_symmetry_space_group_name_H-M "P 2/M"
_symmetry_group_IT_number 10
_symmetry_cell_setting 'monoclinic'
loop_
_space_group_symop_operation_xyz
x,y,z
-x,y,-z
-x,-y,-z
x,-y,z
loop_
_atom_site_type_symbol
_atom_site_label
_atom_site_fract_x
_atom_site_fract_y
_atom_site_fract_z
Si Si1 0.706158 0.332269 0.195444
Si Si2 0.543139 0.663833 0.882453
Si Si3 0.142605 0.162111 0.042032
Si Si4 0.161129 0.830285 0.335248
Si Si5 0.593014 0.344435 0.496266
Si Si6 0.179418 0.164964 0.762667
Si Si7 0.253904 0.165230 0.101981
O O1 0.744313 0.500000 0.171775
O O2 0.745174 0.274411 0.085596
O O3 0.527470 0.301883 0.345320
O O4 0.800581 0.252053 0.180387
O O5 0.557024 0.500000 0.842646
O O6 0.701452 0.745322 0.738364
O O7 0.500000 0.666738 0.000000
O O8 0.403098 0.744670 0.959597
O O9 0.198601 0.000000 0.981160
O O10 0.136977 0.189284 0.131970
O O11 0.984303 0.188531 0.134368
O O12 0.168014 0.789659 0.245060
O O13 0.000000 0.781590 0.500000
O O14 0.184763 0.000000 0.328748
O O15 0.500000 0.361286 0.500000
O O16 0.669259 0.500000 0.451461
O O17 0.715268 0.220393 0.387572
O O18 0.217400 0.000000 0.748225
O O19 0.305683 0.000000 0.066821
#
# Coordination Sequence:
#
# PCOD8060038 Si02
#       7
#     4   4   4   4   4   4   4
#     4  10  20  33  50  71  95 127 168 209 249 298
#     4   9  17  30  50  75 101 128 159 195 236 285
#     4  10  21  34  48  70  99 129 163 207 252 292
#     4   9  17  31  54  80 102 129 166 202 239 289
#     4   8  16  31  48  67  91 119 156 201 246 293
#     4  10  19  31  49  72  97 127 166 209 252 296
#     4   9  18  34  52  70  98 133 166 201 243 291
#
# _framework density 18.138128999999999
#
# number of rings (size 3 to 8) (size 9 to 14) (size 15 to 20)
#    0.000    2.714    0.000    2.571    0.000    8.571 
#    0.000    1.429    0.000    3.429    0.000    0.000 
#    0.000    0.000    0.000    0.000    0.000    0.000 
#
# Total GULP energy -347009.617672 kJ/mol
# GULP energy per Si atom -12393.200631 kJ/mol
# Density = 1.809685 g / cm^3
# Si number density = 18.138129 Si / 1000 Ang^3
#
#
#
# Elastic Constant Matrix: (Units=GPa)
#
#
# Indices 1 2 3 4 5 6 
#
# 1 54.4117 28.5639 27.3759 0.0000 12.3197 0.0000
# 2 28.5639 84.4018 56.6950 0.0000 4.6061 0.0000
# 3 27.3759 56.6950 114.2694 0.0000 11.1547 0.0000
# 4 0.0000 0.0000 0.0000 31.1085 0.0000 2.8195
# 5 12.3197 4.6061 11.1547 0.0000 12.2089 0.0000
# 6 0.0000 0.0000 0.0000 2.8195 0.0000 7.0019
#
#
#
# Elastic Compliance Matrix: (Units=1/GPa)
#
#
# Indices 1 2 3 4 5 6 
#
# 1 0.028532 -0.008015 -0.000377 0.000000 -0.025422 0.000000
# 2 -0.008015 0.020047 -0.008868 0.000000 0.008627 0.000000
# 3 -0.000377 -0.008868 0.014139 0.000000 -0.009192 0.000000
# 4 0.000000 0.000000 0.000000 0.033363 0.000000 -0.013434
# 5 -0.025422 0.008627 -0.009192 0.000000 0.112704 0.000000
# 6 0.000000 0.000000 0.000000 -0.013434 0.000000 0.148228
#
#
# Mechanical properties :
#
#
# Convention : Reuss Voigt Hill
#
# Bulk Modulus (GPa) = 35.46540 53.15029 44.30784
# Shear Modulus (GPa) = 12.47091 19.42707 15.94899
#
# Velocity S-wave (km/s) = 2.62497 3.27626 2.96853
# Velocity P-wave (km/s) = 5.36495 6.60897 6.01919
#
# Compressibility (1/GPa) = 0.02819649
#
# Stress axis : x y z
#
# Youngs Moduli (GPa) = 35.04853 49.88291 70.72706
#
# Poissons Ratio (x) = 0.39983 0.02666
# Poissons Ratio (y) = 0.28093 0.62723
# Poissons Ratio (z) = 0.01321 0.44237
#
# Static dielectric constant tensor:
#      x y z
#    x 3.136840 0.000000 0.135970 
#    y 0.000000 3.512410 0.000000 
#    z 0.135970 0.000000 4.453690 
# 
# 
# High freq. dielectric constant tensor:
#      x y z
#    x 1.671070 0.000000 -0.000440 
#    y 0.000000 1.708930 0.000000 
#    z -0.000440 0.000000 1.699610 
# 
# From -- ./inp_files/85612.got.cif
#   From: 2010.06.25/outbox.cif.g09.slc.cpg/sg10_43_cif.got.tgz:85612.got - 2010.06.27 22:07:45.
