data_PCOD8060445
_publ_section_title
;
Structure prediction by ZEFSAII (Michael W. Deem and Ramdas Pophale) SiO2 
 PCOD8060445
Probable space group: P 2/M
;
_chemical_formula_sum "Si O2"
_cell_formula_units_Z 32
_cell_length_a 17.307079
_cell_length_b 8.970706
_cell_length_c 23.294991
_cell_angle_alpha 90.000000
_cell_angle_beta 31.821168
_cell_angle_gamma 90.000000
_cell_volume 1906.978540
_symmetry_space_group_name_H-M "P 2/M"
_symmetry_group_IT_number 10
_symmetry_cell_setting 'monoclinic'
loop_
_space_group_symop_operation_xyz
x,y,z
-x,y,-z
-x,-y,-z
x,-y,z
loop_
_atom_site_type_symbol
_atom_site_label
_atom_site_fract_x
_atom_site_fract_y
_atom_site_fract_z
Si Si1 0.439163 0.675739 0.977767
Si Si2 0.267760 0.172037 0.414452
Si Si3 0.373296 0.324730 0.457984
Si Si4 0.396675 0.164744 0.620169
Si Si5 0.162254 0.176391 0.682461
Si Si6 0.895430 0.324671 0.804701
Si Si7 0.942464 0.828083 0.656337
Si Si8 0.667585 0.824873 0.754829
O O1 0.460251 0.500000 0.961873
O O2 0.525580 0.746966 0.870651
O O3 0.500000 0.737765 0.000000
O O4 0.270539 0.723338 0.077726
O O5 0.354354 0.275039 0.404461
O O6 0.319330 0.224378 0.319306
O O7 0.093614 0.195646 0.527396
O O8 0.307877 0.000000 0.401021
O O9 0.354202 0.500000 0.476307
O O10 0.537244 0.279082 0.375219
O O11 0.250410 0.244237 0.573327
O O12 0.500000 0.156879 0.500000
O O13 0.238038 0.216838 0.695873
O O14 0.385985 0.000000 0.655001
O O15 0.999053 0.243880 0.786012
O O16 0.157960 0.000000 0.675657
O O17 0.917424 0.500000 0.795922
O O18 0.942731 0.274882 0.711734
O O19 0.813115 0.773531 0.696396
O O20 0.922020 0.000000 0.687874
O O21 0.647153 0.000000 0.773120
#
# Coordination Sequence:
#
# PCOD8060445 Si02
#       8
#     4   4   4   4   4   4   4   4
#     4  10  21  37  52  69  99 134 166 209 261 301
#     4  10  20  34  50  71 103 136 168 208 252 295
#     4  11  20  29  46  73 103 134 167 199 239 296
#     4   8  16  30  47  67  96 133 165 195 242 296
#     4  10  19  32  49  71 100 132 165 204 249 295
#     4  11  21  32  50  74 100 132 170 206 249 301
#     4  10  19  32  51  72  99 132 166 207 254 295
#     4  10  21  35  53  75  95 128 178 218 247 292
#
# _framework density 16.780472
#
# number of rings (size 3 to 8) (size 9 to 14) (size 15 to 20)
#    0.000    2.000    2.500    3.000    0.000    6.000 
#    0.000    0.000    0.000    2.250    0.000    0.875 
#    0.000    7.000    0.000    0.000    0.000    0.000 
#
# Total GULP energy -396820.824408 kJ/mol
# GULP energy per Si atom -12400.650763 kJ/mol
# Density = 1.674228 g / cm^3
# Si number density = 16.780472 Si / 1000 Ang^3
#
#
#
# Elastic Constant Matrix: (Units=GPa)
#
#
# Indices 1 2 3 4 5 6 
#
# 1 107.7609 43.4740 51.0538 0.0000 -28.4274 0.0000
# 2 43.4740 66.5577 36.6331 0.0000 -13.9882 0.0000
# 3 51.0538 36.6331 95.0668 0.0000 -9.6920 0.0000
# 4 0.0000 0.0000 0.0000 18.4484 0.0000 -7.6793
# 5 -28.4274 -13.9882 -9.6920 0.0000 24.8424 0.0000
# 6 0.0000 0.0000 0.0000 -7.6793 0.0000 16.5166
#
#
#
# Elastic Compliance Matrix: (Units=1/GPa)
#
#
# Indices 1 2 3 4 5 6 
#
# 1 0.018601 -0.005351 -0.006316 0.000000 0.015808 0.000000
# 2 -0.005351 0.022358 -0.005293 0.000000 0.004401 0.000000
# 3 -0.006316 -0.005293 0.015527 0.000000 -0.004150 0.000000
# 4 0.000000 0.000000 0.000000 0.067214 0.000000 0.031251
# 5 0.015808 0.004401 -0.004150 0.000000 0.059202 0.000000
# 6 0.000000 0.000000 0.000000 0.031251 0.000000 0.075075
#
#
# Mechanical properties :
#
#
# Convention : Reuss Voigt Hill
#
# Bulk Modulus (GPa) = 44.31369 59.07859 51.69614
# Shear Modulus (GPa) = 16.69897 21.17643 18.93770
#
# Velocity S-wave (km/s) = 3.15801 3.55627 3.36304
# Velocity P-wave (km/s) = 6.30576 7.22122 6.77896
#
# Compressibility (1/GPa) = 0.02256639
#
# Stress axis : x y z
#
# Youngs Moduli (GPa) = 53.76043 44.72660 64.40332
#
# Poissons Ratio (x) = 0.23935 0.40675
# Poissons Ratio (y) = 0.28769 0.34089
# Poissons Ratio (z) = 0.33953 0.23674
#
# Static dielectric constant tensor:
#      x y z
#    x 3.493060 0.000000 -0.323780 
#    y 0.000000 3.117030 0.000000 
#    z -0.323780 0.000000 2.991590 
# 
# 
# High freq. dielectric constant tensor:
#      x y z
#    x 1.650730 0.000000 -0.020870 
#    y 0.000000 1.646890 0.000000 
#    z -0.020870 0.000000 1.613020 
# 
# From -- ./inp_files/52749.got.cif
#   From: 2010.06.25/outbox.cif.g09.slc.cpg/sg10_27_cif.got.tgz:52749.got - 2010.06.27 22:07:45.
