data_PCOD8060770
_publ_section_title
;
Structure prediction by ZEFSAII (Michael W. Deem and Ramdas Pophale) SiO2 
 PCOD8060770
Probable space group: P 2/M
;
_chemical_formula_sum "Si O2"
_cell_formula_units_Z 32
_cell_length_a 21.916123
_cell_length_b 9.018258
_cell_length_c 28.264541
_cell_angle_alpha 90.000000
_cell_angle_beta 162.796429
_cell_angle_gamma 90.000000
_cell_volume 1652.261950
_symmetry_space_group_name_H-M "P 2/M"
_symmetry_group_IT_number 10
_symmetry_cell_setting 'monoclinic'
loop_
_space_group_symop_operation_xyz
x,y,z
-x,y,-z
-x,-y,-z
x,-y,z
loop_
_atom_site_type_symbol
_atom_site_label
_atom_site_fract_x
_atom_site_fract_y
_atom_site_fract_z
Si Si1 0.084261 0.662436 0.792603
Si Si2 0.135795 0.677089 0.534068
Si Si3 0.506577 0.676282 0.741582
Si Si4 0.767465 0.168930 0.297548
Si Si5 0.329909 0.171623 0.413432
Si Si6 0.605191 0.665602 0.443340
Si Si7 0.904125 0.323156 0.093820
Si Si8 0.622251 0.165709 0.048242
O O1 0.183573 0.500000 0.862234
O O2 0.142660 0.729406 0.887144
O O3 0.167403 0.756946 0.810575
O O4 0.842844 0.655706 0.605986
O O5 0.107326 0.500000 0.511210
O O6 0.302614 0.732011 0.618522
O O7 0.217022 0.727405 0.645339
O O8 0.913366 0.760171 0.363712
O O9 0.505901 0.500000 0.742554
O O10 0.506505 0.730738 0.686629
O O11 0.718326 0.734586 0.922833
O O12 0.840008 0.000000 0.360870
O O13 0.528187 0.169065 0.107898
O O14 0.500000 0.199158 0.500000
O O15 0.424651 0.232265 0.532909
O O16 0.123392 0.252602 0.241939
O O17 0.278192 0.000000 0.382498
O O18 0.521872 0.500000 0.393308
O O19 0.930762 0.500000 0.111531
O O20 0.680030 0.000000 0.107722
O O21 0.500000 0.247670 0.000000
#
# Coordination Sequence:
#
# PCOD8060770 Si02
#       8
#     4   4   4   4   4   4   4   4
#     4   9  18  32  52  76 101 133 176 223 266 314
#     4  10  19  32  53  73  95 129 168 213 267 319
#     4   9  18  33  55  82 110 136 171 223 271 314
#     4  10  20  34  47  65  96 131 175 221 264 315
#     4  10  21  38  59  84 114 146 179 213 251 304
#     4   9  19  36  57  83 112 140 176 219 267 321
#     4   9  18  35  59  84 109 139 176 216 262 315
#     4  10  22  35  46  64  95 135 176 219 266 313
#
# _framework density 19.367387999999998
#
# number of rings (size 3 to 8) (size 9 to 14) (size 15 to 20)
#    0.000    2.500    0.000    3.375    1.750    5.250 
#    0.000    3.750    0.000    3.750    0.000    0.000 
#    0.000    0.000    0.000    0.000    0.000    0.000 
#
# Total GULP energy -396546.802346 kJ/mol
# GULP energy per Si atom -12392.087573 kJ/mol
# Density = 1.932331 g / cm^3
# Si number density = 19.367388 Si / 1000 Ang^3
#
#
#
# Elastic Constant Matrix: (Units=GPa)
#
#
# Indices 1 2 3 4 5 6 
#
# 1 107.0158 35.0840 35.2283 0.0000 4.2981 0.0000
# 2 35.0840 61.1187 14.7168 0.0000 11.1647 0.0000
# 3 35.2283 14.7168 55.9078 0.0000 -7.5965 0.0000
# 4 0.0000 0.0000 0.0000 17.4403 0.0000 4.0507
# 5 4.2981 11.1647 -7.5965 0.0000 29.5963 0.0000
# 6 0.0000 0.0000 0.0000 4.0507 0.0000 26.3377
#
#
#
# Elastic Compliance Matrix: (Units=1/GPa)
#
#
# Indices 1 2 3 4 5 6 
#
# 1 0.013738 -0.005805 -0.007359 0.000000 -0.001694 0.000000
# 2 -0.005805 0.021992 -0.003258 0.000000 -0.008289 0.000000
# 3 -0.007359 -0.003258 0.024549 0.000000 0.008599 0.000000
# 4 0.000000 0.000000 0.000000 0.059463 0.000000 -0.009145
# 5 -0.001694 -0.008289 0.008599 0.000000 0.039368 0.000000
# 6 0.000000 0.000000 0.000000 -0.009145 0.000000 0.039375
#
#
# Mechanical properties :
#
#
# Convention : Reuss Voigt Hill
#
# Bulk Modulus (GPa) = 36.44681 43.78895 40.11788
# Shear Modulus (GPa) = 20.79236 23.94240 22.36738
#
# Velocity S-wave (km/s) = 3.28010 3.51981 3.40207
# Velocity P-wave (km/s) = 5.76237 6.25919 6.01591
#
# Compressibility (1/GPa) = 0.02743724
#
# Stress axis : x y z
#
# Youngs Moduli (GPa) = 72.79190 45.47042 40.73432
#
# Poissons Ratio (x) = 0.26394 0.29975
# Poissons Ratio (y) = 0.42252 0.13271
# Poissons Ratio (z) = 0.53565 0.14814
#
# Static dielectric constant tensor:
#      x y z
#    x 3.544360 0.000000 -0.112210 
#    y 0.000000 3.441480 0.000000 
#    z -0.112210 0.000000 3.622320 
# 
# 
# High freq. dielectric constant tensor:
#      x y z
#    x 1.747370 0.000000 -0.008440 
#    y 0.000000 1.735150 0.000000 
#    z -0.008440 0.000000 1.751510 
# 
# From -- ./inp_files/93707.got.cif
#   From: 2010.06.25/outbox.cif.g09.slc.cpg/sg10_47_cif.got.tgz:93707.got - 2010.06.27 22:07:45.
