data_PCOD8060995
_publ_section_title
;
Structure prediction by ZEFSAII (Michael W. Deem and Ramdas Pophale) SiO2 
 PCOD8060995
Probable space group: P 2/M
;
_chemical_formula_sum "Si O2"
_cell_formula_units_Z 30
_cell_length_a 11.778305
_cell_length_b 18.371495
_cell_length_c 8.723902
_cell_angle_alpha 90.000000
_cell_angle_beta 58.459868
_cell_angle_gamma 90.000000
_cell_volume 1608.856474
_symmetry_space_group_name_H-M "P 2/M"
_symmetry_group_IT_number 10
_symmetry_cell_setting 'monoclinic'
loop_
_space_group_symop_operation_xyz
x,y,z
-x,y,-z
-x,-y,-z
x,-y,z
loop_
_atom_site_type_symbol
_atom_site_label
_atom_site_fract_x
_atom_site_fract_y
_atom_site_fract_z
Si Si1 0.902233 0.210880 0.781667
Si Si2 0.310974 0.701616 0.876444
Si Si3 0.500000 0.729013 0.000000
Si Si4 0.275979 0.778656 0.359704
Si Si5 0.860941 0.920417 0.019565
Si Si6 0.142135 0.583668 0.829919
Si Si7 0.648529 0.166416 0.370126
Si Si8 0.903499 0.667378 0.431011
O O1 0.853624 0.194539 0.643226
O O2 0.038848 0.257811 0.688535
O O3 0.805740 0.261421 0.947965
O O4 0.905422 0.131613 0.851114
O O5 0.258576 0.629395 0.829368
O O6 0.367156 0.756688 0.707808
O O7 0.424069 0.680988 0.923712
O O8 0.404589 0.784358 0.160190
O O9 0.289474 0.823882 0.505235
O O10 0.243737 0.692347 0.409979
O O11 0.744175 0.887588 0.208992
O O12 0.809637 0.000000 0.998254
O O13 0.000000 0.933197 0.000000
O O14 0.182283 0.500000 0.820937
O O15 0.122857 0.601578 0.664881
O O16 0.000000 0.602567 0.000000
O O17 0.500000 0.133659 0.500000
O O18 0.000000 0.640050 0.500000
#
# Coordination Sequence:
#
# PCOD8060995 Si02
#       8
#     4   4   2   4   4   4   4   4
#     4   9  19  33  56  82 111 146 183 234 279 334
#     4  10  19  34  57  81 113 148 185 237 281 335
#     4  10  20  34  53  82 111 140 194 238 282 330
#     4  10  19  32  55  85 108 138 189 240 280 326
#     4  10  22  38  57  83 119 157 186 225 288 349
#     4  11  22  35  55  86 120 151 185 231 294 353
#     4  11  20  34  61  87 110 144 194 247 279 329
#     4  10  19  33  56  85 113 144 188 240 286 332
#
# _framework density 18.646784
#
# number of rings (size 3 to 8) (size 9 to 14) (size 15 to 20)
#    0.000    1.867    4.000    0.800    1.867    0.533 
#    0.000    1.000    0.000    9.600    0.000    0.000 
#    0.000    0.000    0.000    0.000    0.000    0.000 
#
# Total GULP energy -371647.500175 kJ/mol
# GULP energy per Si atom -12388.250006 kJ/mol
# Density = 1.860434 g / cm^3
# Si number density = 18.646784 Si / 1000 Ang^3
#
#
#
# Elastic Constant Matrix: (Units=GPa)
#
#
# Indices 1 2 3 4 5 6 
#
# 1 84.6618 37.4736 15.4985 0.0000 12.2314 0.0000
# 2 37.4736 83.7162 18.3721 0.0000 8.7085 0.0000
# 3 15.4985 18.3721 62.9334 0.0000 6.8076 0.0000
# 4 0.0000 0.0000 0.0000 9.6051 0.0000 -2.2331
# 5 12.2314 8.7085 6.8076 0.0000 39.6521 0.0000
# 6 0.0000 0.0000 0.0000 -2.2331 0.0000 18.1076
#
#
#
# Elastic Compliance Matrix: (Units=1/GPa)
#
#
# Indices 1 2 3 4 5 6 
#
# 1 0.015283 -0.006163 -0.001631 0.000000 -0.003081 0.000000
# 2 -0.006163 0.015440 -0.002882 0.000000 -0.000995 0.000000
# 3 -0.001631 -0.002882 0.017332 0.000000 -0.001839 0.000000
# 4 0.000000 0.000000 0.000000 0.107185 0.000000 0.013218
# 5 -0.003081 -0.000995 -0.001839 0.000000 0.026704 0.000000
# 6 0.000000 0.000000 0.000000 0.013218 0.000000 0.056855
#
#
# Mechanical properties :
#
#
# Convention : Reuss Voigt Hill
#
# Bulk Modulus (GPa) = 37.44951 41.55551 39.50251
# Shear Modulus (GPa) = 18.58376 24.13745 21.36060
#
# Velocity S-wave (km/s) = 3.16035 3.60176 3.38825
# Velocity P-wave (km/s) = 5.78311 6.29531 6.04464
#
# Compressibility (1/GPa) = 0.02670262
#
# Stress axis : x y z
#
# Youngs Moduli (GPa) = 65.43124 64.76824 57.69712
#
# Poissons Ratio (x) = 0.39914 0.09413
# Poissons Ratio (y) = 0.40323 0.16628
# Poissons Ratio (z) = 0.10675 0.18666
#
# Static dielectric constant tensor:
#      x y z
#    x 3.612810 0.000000 -0.042090 
#    y 0.000000 3.283340 0.000000 
#    z -0.042090 0.000000 4.501890 
# 
# 
# High freq. dielectric constant tensor:
#      x y z
#    x 1.731830 0.000000 0.002010 
#    y 0.000000 1.676030 0.000000 
#    z 0.002010 0.000000 1.743190 
# 
# From -- ./inp_files/25846.got.cif
#   From: 2010.06.25/outbox.cif.g09.slc.cpg/sg10_13_cif.got.tgz:25846.got - 2010.06.27 22:07:45.
