data_PCOD8060238
_publ_section_title
;
Structure prediction by ZEFSAII (Michael W. Deem and Ramdas Pophale) SiO2 
 PCOD8060238
Probable space group: P 2/M
;
_chemical_formula_sum "Si O2"
_cell_formula_units_Z 18
_cell_length_a 9.007002
_cell_length_b 20.190444
_cell_length_c 8.543422
_cell_angle_alpha 90.000000
_cell_angle_beta 34.118433
_cell_angle_gamma 90.000000
_cell_volume 871.460250
_symmetry_space_group_name_H-M "P 2/M"
_symmetry_group_IT_number 10
_symmetry_cell_setting 'monoclinic'
loop_
_space_group_symop_operation_xyz
x,y,z
-x,y,-z
-x,-y,-z
x,-y,z
loop_
_atom_site_type_symbol
_atom_site_label
_atom_site_fract_x
_atom_site_fract_y
_atom_site_fract_z
Si Si1 0.063229 0.714624 0.123799
Si Si2 0.705478 0.500000 0.684952
Si Si3 0.972629 0.144337 0.340695
Si Si4 0.430073 0.631094 0.382686
Si Si5 0.467792 0.075033 0.842664
O O1 0.063037 0.781790 0.221324
O O2 0.835041 0.672333 0.401095
O O3 0.335671 0.673396 0.903354
O O4 0.000000 0.731718 0.000000
O O5 0.637923 0.563220 0.640924
O O6 0.000000 0.500000 0.500000
O O7 0.500000 0.500000 0.000000
O O8 0.000000 0.131994 0.500000
O O9 0.668878 0.123131 0.569699
O O10 0.166904 0.097026 0.070253
O O11 0.500000 0.614517 0.500000
O O12 0.517127 0.000000 0.744142
O O13 0.500000 0.082572 0.000000
#
# Coordination Sequence:
#
# PCOD8060238 Si02
#       5
#     4   2   4   4   4
#     4  10  21  37  58  81 108 146 188 227 269 325
#     4  12  25  40  61  92 120 144 180 234 287 318
#     4  10  19  31  51  78 105 137 177 227 280 322
#     4  10  22  41  61  81 111 154 192 220 267 339
#     4   9  17  30  49  74 104 139 180 222 269 330
#
# _framework density 20.654986000000001
#
# number of rings (size 3 to 8) (size 9 to 14) (size 15 to 20)
#    0.000    2.000    0.000    3.667    0.000    5.333 
#    0.000    4.444    0.000    4.000    0.000    0.000 
#    0.000    0.000    0.000    0.000    0.000    0.000 
#
# Total GULP energy -223094.380957 kJ/mol
# GULP energy per Si atom -12394.132275 kJ/mol
# Density = 2.060797 g / cm^3
# Si number density = 20.654986 Si / 1000 Ang^3
#
#
#
# Elastic Constant Matrix: (Units=GPa)
#
#
# Indices 1 2 3 4 5 6 
#
# 1 38.4814 25.6228 19.3274 0.0000 -41.5434 0.0000
# 2 25.6228 158.1771 104.8991 0.0000 5.5368 0.0000
# 3 19.3274 104.8991 233.4389 0.0000 14.8801 0.0000
# 4 0.0000 0.0000 0.0000 59.6902 0.0000 38.3053
# 5 -41.5434 5.5368 14.8801 0.0000 89.2623 0.0000
# 6 0.0000 0.0000 0.0000 38.3053 0.0000 91.3568
#
#
#
# Elastic Compliance Matrix: (Units=1/GPa)
#
#
# Indices 1 2 3 4 5 6 
#
# 1 0.072750 -0.010734 -0.003437 0.000000 0.035097 0.000000
# 2 -0.010734 0.010591 -0.003548 0.000000 -0.005061 0.000000
# 3 -0.003437 -0.003548 0.006318 0.000000 -0.002433 0.000000
# 4 0.000000 0.000000 0.000000 0.022920 0.000000 -0.009610
# 5 0.035097 -0.005061 -0.002433 0.000000 0.028257 0.000000
# 6 0.000000 0.000000 0.000000 -0.009610 0.000000 0.014976
#
#
# Mechanical properties :
#
#
# Convention : Reuss Voigt Hill
#
# Bulk Modulus (GPa) = 18.44305 81.08845 49.76575
# Shear Modulus (GPa) = 23.88660 66.74507 45.31584
#
# Velocity S-wave (km/s) = 3.40436 5.69073 4.68903
# Velocity P-wave (km/s) = 4.93978 9.08422 7.31178
#
# Compressibility (1/GPa) = 0.05422097
#
# Stress axis : x y z
#
# Youngs Moduli (GPa) = 13.74573 94.42215 158.28596
#
# Poissons Ratio (x) = 1.01350 0.54405
# Poissons Ratio (y) = 0.14754 0.56157
# Poissons Ratio (z) = 0.04725 0.33499
#
# Static dielectric constant tensor:
#      x y z
#    x 3.425380 0.000000 -0.210570 
#    y 0.000000 3.754180 0.000000 
#    z -0.210570 0.000000 4.254820 
# 
# 
# High freq. dielectric constant tensor:
#      x y z
#    x 1.772060 0.000000 -0.012000 
#    y 0.000000 1.819330 0.000000 
#    z -0.012000 0.000000 1.835820 
# 
# From -- ./inp_files/4110.got.cif
#   From: 2010.06.25/outbox.cif.g09.slc.cpg/sg10_3_cif.got.tgz:4110.got - 2010.06.27 22:07:45.
