data_PCOD8060891
_publ_section_title
;
Structure prediction by ZEFSAII (Michael W. Deem and Ramdas Pophale) SiO2 
 PCOD8060891
Probable space group: P 2/M
;
_chemical_formula_sum "Si O2"
_cell_formula_units_Z 24
_cell_length_a 8.833741
_cell_length_b 10.491235
_cell_length_c 24.589233
_cell_angle_alpha 90.000000
_cell_angle_beta 149.425997
_cell_angle_gamma 90.000000
_cell_volume 1159.140299
_symmetry_space_group_name_H-M "P 2/M"
_symmetry_group_IT_number 10
_symmetry_cell_setting 'monoclinic'
loop_
_space_group_symop_operation_xyz
x,y,z
-x,y,-z
-x,-y,-z
x,-y,z
loop_
_atom_site_type_symbol
_atom_site_label
_atom_site_fract_x
_atom_site_fract_y
_atom_site_fract_z
Si Si1 0.258992 0.642958 0.711860
Si Si2 0.325470 0.645074 0.611338
Si Si3 0.504934 0.644114 0.902090
Si Si4 0.842219 0.139575 0.617552
Si Si5 0.907275 0.236650 0.752903
Si Si6 0.791807 0.139053 0.054577
O O1 0.119869 0.500000 0.673320
O O2 0.421916 0.659354 0.704420
O O3 0.492202 0.663197 0.832977
O O4 0.001521 0.747492 0.634775
O O5 0.297758 0.500000 0.584549
O O6 0.582113 0.700677 0.652497
O O7 0.000000 0.709849 0.500000
O O8 0.609388 0.500000 0.948869
O O9 0.179230 0.663221 0.828789
O O10 0.749663 0.746422 0.998307
O O11 0.500000 0.159249 0.500000
O O12 0.914097 0.141404 0.704106
O O13 0.948546 0.000000 0.629557
O O14 0.939182 0.165185 0.820478
O O15 0.845292 0.000000 0.042662
O O16 0.500000 0.130709 0.000000
#
# Coordination Sequence:
#
# PCOD8060891 Si02
#       6
#     4   4   4   4   4   4
#     4   9  19  35  53  76 107 140 175 217 265 316
#     4  10  20  34  53  79 111 145 180 219 265 316
#     4   9  18  32  53  80 105 132 172 219 265 314
#     4  10  20  34  53  77 104 137 179 223 266 314
#     4  10  19  32  54  78 107 139 176 219 265 312
#     4   9  18  32  52  77 104 134 170 216 267 315
#
# _framework density 20.704999999999998
#
# number of rings (size 3 to 8) (size 9 to 14) (size 15 to 20)
#    0.000    2.500    0.000    2.000    0.000    8.667 
#    0.000    2.500    0.000    8.500    0.000    0.000 
#    0.000    0.000    0.000    0.000    0.000    0.000 
#
# Total GULP energy -297416.433402 kJ/mol
# GULP energy per Si atom -12392.351392 kJ/mol
# Density = 2.065787 g / cm^3
# Si number density = 20.705000 Si / 1000 Ang^3
#
#
#
# Elastic Constant Matrix: (Units=GPa)
#
#
# Indices 1 2 3 4 5 6 
#
# 1 40.4800 8.8724 2.1546 0.0000 -5.6677 0.0000
# 2 8.8724 122.6791 19.8018 0.0000 -8.5478 0.0000
# 3 2.1546 19.8018 70.1220 0.0000 -10.8259 0.0000
# 4 0.0000 0.0000 0.0000 23.9890 0.0000 -6.9948
# 5 -5.6677 -8.5478 -10.8259 0.0000 27.1059 0.0000
# 6 0.0000 0.0000 0.0000 -6.9948 0.0000 4.6238
#
#
#
# Elastic Compliance Matrix: (Units=1/GPa)
#
#
# Indices 1 2 3 4 5 6 
#
# 1 0.025735 -0.001579 0.000436 0.000000 0.005057 0.000000
# 2 -0.001579 0.008725 -0.002176 0.000000 0.001552 0.000000
# 3 0.000436 -0.002176 0.015741 0.000000 0.005692 0.000000
# 4 0.000000 0.000000 0.000000 0.074585 0.000000 0.112830
# 5 0.005057 0.001552 0.005692 0.000000 0.040712 0.000000
# 6 0.000000 0.000000 0.000000 0.112830 0.000000 0.386957
#
#
# Mechanical properties :
#
#
# Convention : Reuss Voigt Hill
#
# Bulk Modulus (GPa) = 22.95564 32.77096 27.86330
# Shear Modulus (GPa) = 8.71668 24.64056 16.67862
#
# Velocity S-wave (km/s) = 2.05404 3.45349 2.84128
# Velocity P-wave (km/s) = 4.09103 5.63596 4.92446
#
# Compressibility (1/GPa) = 0.04356228
#
# Stress axis : x y z
#
# Youngs Moduli (GPa) = 38.85827 114.61468 63.53010
#
# Poissons Ratio (x) = 0.18100 -0.02770
# Poissons Ratio (y) = 0.06136 0.13822
# Poissons Ratio (z) = -0.01694 0.24936
#
# Static dielectric constant tensor:
#      x y z
#    x 3.435020 0.000000 -0.261140 
#    y 0.000000 3.956820 0.000000 
#    z -0.261140 0.000000 3.893100 
# 
# 
# High freq. dielectric constant tensor:
#      x y z
#    x 1.777640 0.000000 -0.022580 
#    y 0.000000 1.808760 0.000000 
#    z -0.022580 0.000000 1.810240 
# 
# From -- ./inp_files/53716.got.cif
#   From: 2010.06.25/outbox.cif.g09.slc.cpg/sg10_27_cif.got.tgz:53716.got - 2010.06.27 22:07:45.
