data_PCOD8060572
_publ_section_title
;
Structure prediction by ZEFSAII (Michael W. Deem and Ramdas Pophale) SiO2 
 PCOD8060572
Probable space group: P 2/M
;
_chemical_formula_sum "Si O2"
_cell_formula_units_Z 28
_cell_length_a 18.802064
_cell_length_b 8.784480
_cell_length_c 14.981988
_cell_angle_alpha 90.000000
_cell_angle_beta 38.216648
_cell_angle_gamma 90.000000
_cell_volume 1530.829128
_symmetry_space_group_name_H-M "P 2/M"
_symmetry_group_IT_number 10
_symmetry_cell_setting 'monoclinic'
loop_
_space_group_symop_operation_xyz
x,y,z
-x,y,-z
-x,-y,-z
x,-y,z
loop_
_atom_site_type_symbol
_atom_site_label
_atom_site_fract_x
_atom_site_fract_y
_atom_site_fract_z
Si Si1 0.024840 0.823663 0.578351
Si Si2 0.331916 0.823997 0.831989
Si Si3 0.067555 0.666259 0.802537
Si Si4 0.127843 0.317509 0.123558
Si Si5 0.224466 0.668555 0.474982
Si Si6 0.724345 0.681798 0.300207
Si Si7 0.596292 0.175929 0.588437
O O1 0.152909 0.761737 0.471816
O O2 0.000000 0.795184 0.500000
O O3 0.926870 0.734569 0.729485
O O4 0.019362 0.000000 0.610183
O O5 0.308858 0.732103 0.764868
O O6 0.461437 0.799528 0.736273
O O7 0.303984 0.000000 0.842807
O O8 0.252897 0.756106 0.988695
O O9 0.031503 0.500000 0.872691
O O10 0.149849 0.653260 0.636742
O O11 0.145581 0.744823 0.803072
O O12 0.950622 0.746320 0.882906
O O13 0.133467 0.500000 0.116997
O O14 0.253281 0.500000 0.409155
O O15 0.342116 0.754281 0.385057
O O16 0.723861 0.500000 0.307933
O O17 0.631151 0.744839 0.461451
O O18 0.629871 0.000000 0.547437
#
# Coordination Sequence:
#
# PCOD8060572 Si02
#       7
#     4   4   4   4   4   4   4
#     4  10  20  35  58  86 112 135 160 196 248 310
#     4  11  23  35  47  69 104 142 178 218 264 310
#     4   7  14  29  47  69  96 126 162 208 256 297
#     4  10  20  35  54  75 102 136 174 214 257 306
#     4   9  17  31  53  79 104 131 168 212 253 297
#     4  10  19  32  51  73  98 132 179 228 265 300
#     4  10  20  34  51  71 101 140 179 219 261 305
#
# _framework density 18.290741000000001
#
# number of rings (size 3 to 8) (size 9 to 14) (size 15 to 20)
#    0.000    2.429    0.000    4.714    0.000    5.714 
#    0.000    5.000    0.000    0.857    0.000    6.000 
#    0.000    0.000    0.000    0.000    0.000    0.000 
#
# Total GULP energy -347015.774614 kJ/mol
# GULP energy per Si atom -12393.420522 kJ/mol
# Density = 1.824911 g / cm^3
# Si number density = 18.290741 Si / 1000 Ang^3
#
#
#
# Elastic Constant Matrix: (Units=GPa)
#
#
# Indices 1 2 3 4 5 6 
#
# 1 103.2760 45.4026 38.8802 0.0000 -5.9682 0.0000
# 2 45.4026 96.5248 39.1743 0.0000 -7.7263 0.0000
# 3 38.8802 39.1743 76.5643 0.0000 -13.9280 0.0000
# 4 0.0000 0.0000 0.0000 21.3029 0.0000 -1.7555
# 5 -5.9682 -7.7263 -13.9280 0.0000 17.6837 0.0000
# 6 0.0000 0.0000 0.0000 -1.7555 0.0000 28.9049
#
#
#
# Elastic Compliance Matrix: (Units=1/GPa)
#
#
# Indices 1 2 3 4 5 6 
#
# 1 0.013349 -0.004461 -0.004705 0.000000 -0.001150 0.000000
# 2 -0.004461 0.014570 -0.005025 0.000000 0.000902 0.000000
# 3 -0.004705 -0.005025 0.020232 0.000000 0.012152 0.000000
# 4 0.000000 0.000000 0.000000 0.047178 0.000000 0.002865
# 5 -0.001150 0.000902 0.012152 0.000000 0.066126 0.000000
# 6 0.000000 0.000000 0.000000 0.002865 0.000000 0.034770
#
#
# Mechanical properties :
#
#
# Convention : Reuss Voigt Hill
#
# Bulk Modulus (GPa) = 50.58828 58.14216 54.36522
# Shear Modulus (GPa) = 21.62638 23.77214 22.69926
#
# Velocity S-wave (km/s) = 3.44229 3.60902 3.52664
# Velocity P-wave (km/s) = 6.59674 7.01594 6.80957
#
# Compressibility (1/GPa) = 0.01976742
#
# Stress axis : x y z
#
# Youngs Moduli (GPa) = 74.91141 68.63296 49.42667
#
# Poissons Ratio (x) = 0.30620 0.23257
# Poissons Ratio (y) = 0.33421 0.24838
# Poissons Ratio (z) = 0.35248 0.34489
#
# Static dielectric constant tensor:
#      x y z
#    x 3.564000 0.000000 -0.329660 
#    y 0.000000 3.461440 0.000000 
#    z -0.329660 0.000000 3.197450 
# 
# 
# High freq. dielectric constant tensor:
#      x y z
#    x 1.707240 0.000000 -0.020770 
#    y 0.000000 1.711090 0.000000 
#    z -0.020770 0.000000 1.682420 
# 
# From -- ./inp_files/54649.got.cif
#   From: 2010.06.25/outbox.cif.g09.slc.cpg/sg10_28_cif.got.tgz:54649.got - 2010.06.27 22:07:45.
