data_PCOD8060430
_publ_section_title
;
Structure prediction by ZEFSAII (Michael W. Deem and Ramdas Pophale) SiO2 
 PCOD8060430
Probable space group: P 2/M
;
_chemical_formula_sum "Si O2"
_cell_formula_units_Z 32
_cell_length_a 12.755087
_cell_length_b 8.847808
_cell_length_c 21.104357
_cell_angle_alpha 90.000000
_cell_angle_beta 126.568345
_cell_angle_gamma 90.000000
_cell_volume 1912.873056
_symmetry_space_group_name_H-M "P 2/M"
_symmetry_group_IT_number 10
_symmetry_cell_setting 'monoclinic'
loop_
_space_group_symop_operation_xyz
x,y,z
-x,y,-z
-x,-y,-z
x,-y,z
loop_
_atom_site_type_symbol
_atom_site_label
_atom_site_fract_x
_atom_site_fract_y
_atom_site_fract_z
Si Si1 0.479855 0.324163 0.189368
Si Si2 0.949586 0.322533 0.336428
Si Si3 0.793635 0.821324 0.903623
Si Si4 0.277414 0.821649 0.664514
Si Si5 0.956683 0.178173 0.080957
Si Si6 0.116961 0.166745 0.492518
Si Si7 0.587177 0.324457 0.091068
Si Si8 0.865852 0.179116 0.183108
O O1 0.496614 0.500000 0.210249
O O2 0.336551 0.270883 0.156692
O O3 0.576885 0.231521 0.269426
O O4 0.505732 0.288524 0.124971
O O5 0.939370 0.500000 0.326518
O O6 0.819084 0.263387 0.322704
O O7 0.957975 0.250246 0.270012
O O8 0.080915 0.280029 0.422620
O O9 0.895262 0.778823 0.884330
O O10 0.764513 0.000000 0.894741
O O11 0.854522 0.762444 0.991764
O O12 0.243451 0.780802 0.578710
O O13 0.260968 0.000000 0.670116
O O14 0.919106 0.245311 0.135737
O O15 0.943184 0.000000 0.076898
O O16 0.000000 0.161138 0.500000
O O17 0.138973 0.000000 0.471140
O O18 0.626766 0.500000 0.101277
O O19 0.716389 0.224988 0.138765
O O20 0.500000 0.275174 0.000000
O O21 0.877132 0.000000 0.190594
#
# Coordination Sequence:
#
# PCOD8060430 Si02
#       8
#     4   4   4   4   4   4   4   4
#     4  11  21  31  46  71 102 131 162 198 241 291
#     4  11  20  30  45  69 100 131 160 194 241 289
#     4   9  17  34  55  71  93 123 164 211 253 288
#     4  10  19  32  49  69  95 129 164 199 237 282
#     4   8  17  33  53  74  92 121 165 214 251 283
#     4   8  16  30  47  67  92 124 162 197 233 280
#     4  10  21  34  45  63  97 134 162 195 242 290
#     4  11  20  31  49  71  96 127 167 203 239 288
#
# _framework density 16.728764000000002
#
# number of rings (size 3 to 8) (size 9 to 14) (size 15 to 20)
#    0.000    2.250    1.250    4.500    0.000    3.500 
#    0.000    3.125    0.000    0.000    0.000    0.875 
#    0.000    7.000    0.000    0.000    0.000    0.000 
#
# Total GULP energy -396761.186065 kJ/mol
# GULP energy per Si atom -12398.787065 kJ/mol
# Density = 1.669069 g / cm^3
# Si number density = 16.728764 Si / 1000 Ang^3
#
#
#
# Elastic Constant Matrix: (Units=GPa)
#
#
# Indices 1 2 3 4 5 6 
#
# 1 60.5092 20.2937 30.6476 0.0000 3.5317 0.0000
# 2 20.2937 68.2622 36.0448 0.0000 -1.9713 0.0000
# 3 30.6476 36.0448 116.8228 0.0000 4.6110 0.0000
# 4 0.0000 0.0000 0.0000 23.4564 0.0000 1.0260
# 5 3.5317 -1.9713 4.6110 0.0000 19.3309 0.0000
# 6 0.0000 0.0000 0.0000 1.0260 0.0000 12.9713
#
#
#
# Elastic Compliance Matrix: (Units=1/GPa)
#
#
# Indices 1 2 3 4 5 6 
#
# 1 0.020020 -0.003983 -0.003899 0.000000 -0.003134 0.000000
# 2 -0.003983 0.018479 -0.004805 0.000000 0.003758 0.000000
# 3 -0.003899 -0.004805 0.011162 0.000000 -0.002440 0.000000
# 4 0.000000 0.000000 0.000000 0.042780 0.000000 -0.003384
# 5 -0.003134 0.003758 -0.002440 0.000000 0.053268 0.000000
# 6 0.000000 0.000000 0.000000 -0.003384 0.000000 0.077361
#
#
# Mechanical properties :
#
#
# Convention : Reuss Voigt Hill
#
# Bulk Modulus (GPa) = 41.17614 46.61849 43.89732
# Shear Modulus (GPa) = 19.48997 21.72559 20.60778
#
# Velocity S-wave (km/s) = 3.41700 3.60765 3.51362
# Velocity P-wave (km/s) = 6.34313 6.72914 6.53898
#
# Compressibility (1/GPa) = 0.02428591
#
# Stress axis : x y z
#
# Youngs Moduli (GPa) = 49.94925 54.11445 89.59100
#
# Poissons Ratio (x) = 0.21555 0.34936
# Poissons Ratio (y) = 0.19896 0.43049
# Poissons Ratio (z) = 0.19478 0.26002
#
# Static dielectric constant tensor:
#      x y z
#    x 2.993370 0.000000 -0.154540 
#    y 0.000000 3.041560 0.000000 
#    z -0.154540 0.000000 3.553750 
# 
# 
# High freq. dielectric constant tensor:
#      x y z
#    x 1.606510 0.000000 -0.001390 
#    y 0.000000 1.641000 0.000000 
#    z -0.001390 0.000000 1.654800 
# 
# From -- ./inp_files/83374.got.cif
#   From: 2010.06.25/outbox.cif.g09.slc.cpg/sg10_42_cif.got.tgz:83374.got - 2010.06.27 22:07:45.
