data_PCOD8060880
_publ_section_title
;
Structure prediction by ZEFSAII (Michael W. Deem and Ramdas Pophale) SiO2 
 PCOD8060880
Probable space group: P 2/M
;
_chemical_formula_sum "Si O2"
_cell_formula_units_Z 32
_cell_length_a 10.864526
_cell_length_b 9.021775
_cell_length_c 29.336836
_cell_angle_alpha 90.000000
_cell_angle_beta 146.053541
_cell_angle_gamma 90.000000
_cell_volume 1605.740715
_symmetry_space_group_name_H-M "P 2/M"
_symmetry_group_IT_number 10
_symmetry_cell_setting 'monoclinic'
loop_
_space_group_symop_operation_xyz
x,y,z
-x,y,-z
-x,-y,-z
x,-y,z
loop_
_atom_site_type_symbol
_atom_site_label
_atom_site_fract_x
_atom_site_fract_y
_atom_site_fract_z
Si Si1 0.702966 0.671280 0.030941
Si Si2 0.681605 0.829251 0.677147
Si Si3 0.478412 0.826762 0.104965
Si Si4 0.460704 0.826387 0.204685
Si Si5 0.082684 0.334416 0.758642
Si Si6 0.904420 0.665463 0.344931
Si Si7 0.197788 0.671408 0.198017
Si Si8 0.650303 0.828677 0.504378
O O1 0.672783 0.500000 0.008101
O O2 0.937281 0.696111 0.128218
O O3 0.500000 0.725671 0.000000
O O4 0.711907 0.769099 0.987364
O O5 0.658015 0.737755 0.716484
O O6 0.467819 0.806104 0.580307
O O7 0.887908 0.773168 0.712168
O O8 0.716958 0.000000 0.700508
O O9 0.416598 0.790605 0.138075
O O10 0.692074 0.735969 0.154286
O O11 0.522224 0.000000 0.111974
O O12 0.691085 0.759840 0.293617
O O13 0.260686 0.752973 0.170589
O O14 0.466588 0.000000 0.215898
O O15 0.054794 0.500000 0.771308
O O16 0.082647 0.342824 0.704886
O O17 0.884496 0.500000 0.359374
O O18 0.123816 0.740465 0.431441
O O19 0.256410 0.500000 0.210688
O O20 0.500000 0.767096 0.500000
O O21 0.704666 0.000000 0.531050
#
# Coordination Sequence:
#
# PCOD8060880 Si02
#       8
#     4   4   4   4   4   4   4   4
#     4  10  22  40  61  87 121 156 189 234 295 354
#     4  11  22  36  57  84 117 156 196 238 291 350
#     4  10  21  36  59  88 115 151 197 244 290 342
#     4  10  22  41  62  84 116 156 200 244 291 347
#     4  10  19  32  53  83 119 154 189 235 291 349
#     4  10  20  34  57  87 118 152 193 242 291 341
#     4  11  24  41  61  85 116 155 198 244 292 346
#     4  10  20  35  56  86 123 157 191 236 292 354
#
# _framework density 19.928498000000001
#
# number of rings (size 3 to 8) (size 9 to 14) (size 15 to 20)
#    0.000    1.750    1.250    3.000    0.000    6.500 
#    0.000    3.125    0.000    3.750    0.000    0.000 
#    0.000    0.000    0.000    0.000    0.000    0.000 
#
# Total GULP energy -396894.693545 kJ/mol
# GULP energy per Si atom -12402.959173 kJ/mol
# Density = 1.988314 g / cm^3
# Si number density = 19.928498 Si / 1000 Ang^3
#
#
#
# Elastic Constant Matrix: (Units=GPa)
#
#
# Indices 1 2 3 4 5 6 
#
# 1 77.7809 47.4476 25.7999 0.0000 10.0795 0.0000
# 2 47.4476 111.6042 56.6488 0.0000 -7.0155 0.0000
# 3 25.7999 56.6488 86.1981 0.0000 0.6253 0.0000
# 4 0.0000 0.0000 0.0000 33.8112 0.0000 -0.9141
# 5 10.0795 -7.0155 0.6253 0.0000 15.4179 0.0000
# 6 0.0000 0.0000 0.0000 -0.9141 0.0000 33.5988
#
#
#
# Elastic Compliance Matrix: (Units=1/GPa)
#
#
# Indices 1 2 3 4 5 6 
#
# 1 0.021668 -0.010791 0.000745 0.000000 -0.019106 0.000000
# 2 -0.010791 0.019499 -0.009703 0.000000 0.016321 0.000000
# 3 0.000745 -0.009703 0.017796 0.000000 -0.005624 0.000000
# 4 0.000000 0.000000 0.000000 0.029598 0.000000 0.000805
# 5 -0.019106 0.016321 -0.005624 0.000000 0.085005 0.000000
# 6 0.000000 0.000000 0.000000 0.000805 0.000000 0.029785
#
#
# Mechanical properties :
#
#
# Convention : Reuss Voigt Hill
#
# Bulk Modulus (GPa) = 51.37568 59.48619 55.43094
# Shear Modulus (GPa) = 20.05308 26.27804 23.16556
#
# Velocity S-wave (km/s) = 3.17559 3.63522 3.41315
# Velocity P-wave (km/s) = 6.26752 6.89451 6.58848
#
# Compressibility (1/GPa) = 0.01946446
#
# Stress axis : x y z
#
# Youngs Moduli (GPa) = 46.15035 51.28398 56.19277
#
# Poissons Ratio (x) = 0.55342 -0.04187
# Poissons Ratio (y) = 0.49802 0.54525
# Poissons Ratio (z) = -0.03438 0.49762
#
# Static dielectric constant tensor:
#      x y z
#    x 3.485720 0.000000 -0.032300 
#    y 0.000000 3.760850 0.000000 
#    z -0.032300 0.000000 3.630260 
# 
# 
# High freq. dielectric constant tensor:
#      x y z
#    x 1.762430 0.000000 -0.003300 
#    y 0.000000 1.787520 0.000000 
#    z -0.003300 0.000000 1.778260 
# 
# From -- ./inp_files/95099.got.cif
#   From: 2010.06.25/outbox.cif.g09.slc.cpg/sg10_48_cif.got.tgz:95099.got - 2010.06.27 22:07:45.
