data_PCOD8060621
_publ_section_title
;
Structure prediction by ZEFSAII (Michael W. Deem and Ramdas Pophale) SiO2 
 PCOD8060621
Probable space group: P 2/M
;
_chemical_formula_sum "Si O2"
_cell_formula_units_Z 30
_cell_length_a 14.182184
_cell_length_b 12.638733
_cell_length_c 21.774260
_cell_angle_alpha 90.000000
_cell_angle_beta 23.617121
_cell_angle_gamma 90.000000
_cell_volume 1563.600371
_symmetry_space_group_name_H-M "P 2/M"
_symmetry_group_IT_number 10
_symmetry_cell_setting 'monoclinic'
loop_
_space_group_symop_operation_xyz
x,y,z
-x,y,-z
-x,-y,-z
x,-y,z
loop_
_atom_site_type_symbol
_atom_site_label
_atom_site_fract_x
_atom_site_fract_y
_atom_site_fract_z
Si Si1 0.286798 0.248794 0.087132
Si Si2 0.273994 0.884555 0.887349
Si Si3 0.500000 0.220309 0.500000
Si Si4 0.431932 0.879426 0.175650
Si Si5 0.506837 0.817107 0.361981
Si Si6 0.998085 0.875716 0.645490
Si Si7 0.934085 0.686449 0.103026
Si Si8 0.921261 0.618492 0.241965
O O1 0.143870 0.160252 0.209871
O O2 0.137626 0.350750 0.156425
O O3 0.500000 0.294635 0.000000
O O4 0.378554 0.191730 0.971809
O O5 0.510896 0.863041 0.786416
O O6 0.354103 0.891835 0.768438
O O7 0.168673 0.000000 0.967275
O O8 0.073893 0.798410 0.019686
O O9 0.485019 0.147065 0.570507
O O10 0.276137 0.295554 0.626383
O O11 0.161173 0.850022 0.319925
O O12 0.470848 0.000000 0.131190
O O13 0.650029 0.705555 0.273912
O O14 0.238259 0.807727 0.499115
O O15 0.061048 0.000000 0.613278
O O16 0.002421 0.619408 0.121949
O O17 0.000000 0.625776 0.000000
O O18 0.838251 0.500000 0.308381
#
# Coordination Sequence:
#
# PCOD8060621 Si02
#       8
#     4   4   2   4   4   4   4   4
#     4  10  19  34  54  78 108 137 169 215 271 317
#     4  10  19  33  53  78 108 144 177 211 256 308
#     4  10  21  40  53  74 108 142 173 218 273 316
#     4   9  18  32  53  77 105 141 176 211 258 311
#     4  10  20  33  52  72 108 140 176 213 249 307
#     4  10  19  32  51  77 107 141 179 214 250 308
#     4   9  20  36  54  76 109 138 172 216 262 317
#     4  11  21  36  60  81 100 131 176 226 275 318
#
# _framework density 19.186489000000002
#
# number of rings (size 3 to 8) (size 9 to 14) (size 15 to 20)
#    0.000    2.133    2.667    1.000    0.000    5.600 
#    0.000    3.333    0.000    0.000    0.000    0.000 
#    0.000    6.933    0.000    0.000    0.000    0.000 
#
# Total GULP energy -371648.555618 kJ/mol
# GULP energy per Si atom -12388.285187 kJ/mol
# Density = 1.914282 g / cm^3
# Si number density = 19.186489 Si / 1000 Ang^3
#
#
#
# Elastic Constant Matrix: (Units=GPa)
#
#
# Indices 1 2 3 4 5 6 
#
# 1 124.9274 28.4963 39.8715 0.0000 -8.3111 0.0000
# 2 28.4963 53.2594 16.7890 0.0000 -9.6970 0.0000
# 3 39.8715 16.7890 83.2787 0.0000 -18.0739 0.0000
# 4 0.0000 0.0000 0.0000 8.2419 0.0000 -2.0469
# 5 -8.3111 -9.6970 -18.0739 0.0000 35.9994 0.0000
# 6 0.0000 0.0000 0.0000 -2.0469 0.0000 11.6587
#
#
#
# Elastic Compliance Matrix: (Units=1/GPa)
#
#
# Indices 1 2 3 4 5 6 
#
# 1 0.010289 -0.004333 -0.004254 0.000000 -0.000927 0.000000
# 2 -0.004333 0.022345 -0.001505 0.000000 0.004263 0.000000
# 3 -0.004254 -0.001505 0.015765 0.000000 0.006527 0.000000
# 4 0.000000 0.000000 0.000000 0.126862 0.000000 0.022273
# 5 -0.000927 0.004263 0.006527 0.000000 0.031990 0.000000
# 6 0.000000 0.000000 0.000000 0.022273 0.000000 0.089683
#
#
# Mechanical properties :
#
#
# Convention : Reuss Voigt Hill
#
# Bulk Modulus (GPa) = 35.44245 47.97545 41.70895
# Shear Modulus (GPa) = 15.31292 22.93392 19.12342
#
# Velocity S-wave (km/s) = 2.82815 3.46108 3.16050
# Velocity P-wave (km/s) = 5.40160 6.40556 5.92488
#
# Compressibility (1/GPa) = 0.02821475
#
# Stress axis : x y z
#
# Youngs Moduli (GPa) = 97.19162 44.75275 63.43361
#
# Poissons Ratio (x) = 0.19391 0.26983
# Poissons Ratio (y) = 0.42113 0.09547
# Poissons Ratio (z) = 0.41343 0.06735
#
# Static dielectric constant tensor:
#      x y z
#    x 3.969020 0.000000 -0.091500 
#    y 0.000000 3.001590 0.000000 
#    z -0.091500 0.000000 3.620580 
# 
# 
# High freq. dielectric constant tensor:
#      x y z
#    x 1.766860 0.000000 -0.007900 
#    y 0.000000 1.693840 0.000000 
#    z -0.007900 0.000000 1.746140 
# 
# From -- ./inp_files/89802.got.cif
#   From: 2010.06.25/outbox.cif.g09.slc.cpg/sg10_45_cif.got.tgz:89802.got - 2010.06.27 22:07:45.
