data_PCOD8060598
_publ_section_title
;
Structure prediction by ZEFSAII (Michael W. Deem and Ramdas Pophale) SiO2 
 PCOD8060598
Probable space group: P 2/M
;
_chemical_formula_sum "Si O2"
_cell_formula_units_Z 20
_cell_length_a 9.065123
_cell_length_b 14.663543
_cell_length_c 9.065125
_cell_angle_alpha 90.000000
_cell_angle_beta 119.946058
_cell_angle_gamma 90.000000
_cell_volume 1044.125863
_symmetry_space_group_name_H-M "P 2/M"
_symmetry_group_IT_number 10
_symmetry_cell_setting 'monoclinic'
loop_
_space_group_symop_operation_xyz
x,y,z
-x,y,-z
-x,-y,-z
x,-y,z
loop_
_atom_site_type_symbol
_atom_site_label
_atom_site_fract_x
_atom_site_fract_y
_atom_site_fract_z
Si Si1 0.010074 0.212387 0.839878
Si Si2 0.824895 0.102684 0.324895
Si Si3 0.920715 0.599220 0.229509
Si Si4 0.660122 0.787613 0.489926
Si Si5 0.270491 0.599220 0.579285
O O1 0.825725 0.205633 0.674275
O O2 0.147298 0.153788 0.816487
O O3 0.078125 0.317001 0.884161
O O4 0.000000 0.173013 0.000000
O O5 0.683513 0.153787 0.352702
O O6 0.000000 0.103191 0.500000
O O7 0.762319 0.000000 0.262318
O O8 0.906179 0.500000 0.141549
O O9 0.762654 0.611106 0.262654
O O10 0.091154 0.603519 0.408846
O O11 0.500000 0.826986 0.500000
O O12 0.615839 0.683000 0.421874
O O13 0.358451 0.500000 0.593822
#
# Coordination Sequence:
#
# PCOD8060598 Si02
#       5
#     4   4   4   4   4
#     4  10  19  32  51  75  99 126 161 199 240 286
#     4   9  18  34  54  72  94 127 165 201 238 286
#     4   8  13  24  45  70  94 124 163 199 228 271
#     4  10  19  32  51  75  99 126 161 199 240 286
#     4   8  13  24  45  70  94 124 163 199 228 271
#
# _framework density 19.154778
#
# number of rings (size 3 to 8) (size 9 to 14) (size 15 to 20)
#    0.000    3.000    2.000    1.200    0.000    1.600 
#    0.000    1.000    0.000    1.200    0.000    2.800 
#    0.000    0.000    0.000    0.000    0.000    0.000 
#
# Total GULP energy -247827.375928 kJ/mol
# GULP energy per Si atom -12391.368796 kJ/mol
# Density = 1.911118 g / cm^3
# Si number density = 19.154778 Si / 1000 Ang^3
#
#
#
# Elastic Constant Matrix: (Units=GPa)
#
#
# Indices 1 2 3 4 5 6 
#
# 1 93.1567 54.0453 30.6387 0.0000 -35.9669 0.0000
# 2 54.0453 149.7356 43.9306 0.0000 -28.6807 0.0000
# 3 30.6387 43.9306 68.4273 0.0000 -34.1562 0.0000
# 4 0.0000 0.0000 0.0000 10.9219 0.0000 -2.6495
# 5 -35.9669 -28.6807 -34.1562 0.0000 30.0512 0.0000
# 6 0.0000 0.0000 0.0000 -2.6495 0.0000 11.8564
#
#
#
# Elastic Compliance Matrix: (Units=1/GPa)
#
#
# Indices 1 2 3 4 5 6 
#
# 1 0.023905 -0.004788 0.010102 0.000000 0.035523 0.000000
# 2 -0.004788 0.009432 -0.005266 0.000000 -0.002715 0.000000
# 3 0.010102 -0.005266 0.039288 0.000000 0.051719 0.000000
# 4 0.000000 0.000000 0.000000 0.096807 0.000000 0.021633
# 5 0.035523 -0.002715 0.051719 0.000000 0.131985 0.000000
# 6 0.000000 0.000000 0.000000 0.021633 0.000000 0.089177
#
#
# Mechanical properties :
#
#
# Convention : Reuss Voigt Hill
#
# Bulk Modulus (GPa) = 13.75137 63.17208 38.46173
# Shear Modulus (GPa) = 12.05580 22.74624 17.40102
#
# Velocity S-wave (km/s) = 2.51148 3.44975 3.01731
# Velocity P-wave (km/s) = 3.95028 6.99422 5.67996
#
# Compressibility (1/GPa) = 0.07272002
#
# Stress axis : x y z
#
# Youngs Moduli (GPa) = 41.83241 106.02542 25.45308
#
# Poissons Ratio (x) = 0.50763 -0.25713
# Poissons Ratio (y) = 0.20029 0.13405
# Poissons Ratio (z) = -0.42259 0.55837
#
# Static dielectric constant tensor:
#      x y z
#    x 3.157320 0.000000 -0.366820 
#    y 0.000000 3.980700 0.000000 
#    z -0.366820 0.000000 3.027960 
# 
# 
# High freq. dielectric constant tensor:
#      x y z
#    x 1.712410 0.000000 -0.037780 
#    y 0.000000 1.756510 0.000000 
#    z -0.037780 0.000000 1.699090 
# 
# From -- ./inp_files/18378.got.cif
#   From: 2010.06.25/outbox.cif.g09.slc.cpg/sg10_10_cif.got.tgz:18378.got - 2010.06.27 22:07:45.
