data_PCOD8060482
_publ_section_title
;
Structure prediction by ZEFSAII (Michael W. Deem and Ramdas Pophale) SiO2 
 PCOD8060482
Probable space group: P 2/M
;
_chemical_formula_sum "Si O2"
_cell_formula_units_Z 28
_cell_length_a 20.781094
_cell_length_b 9.505239
_cell_length_c 26.869531
_cell_angle_alpha 90.000000
_cell_angle_beta 162.354618
_cell_angle_gamma 90.000000
_cell_volume 1608.840469
_symmetry_space_group_name_H-M "P 2/M"
_symmetry_group_IT_number 10
_symmetry_cell_setting 'monoclinic'
loop_
_space_group_symop_operation_xyz
x,y,z
-x,y,-z
-x,-y,-z
x,-y,z
loop_
_atom_site_type_symbol
_atom_site_label
_atom_site_fract_x
_atom_site_fract_y
_atom_site_fract_z
Si Si1 0.109972 0.660071 0.004230
Si Si2 0.193178 0.335007 0.678727
Si Si3 0.892502 0.162296 0.089477
Si Si4 0.622383 0.834698 0.987987
Si Si5 0.627000 0.835901 0.544353
Si Si6 0.319648 0.660215 0.261161
Si Si7 0.255540 0.345563 0.833790
O O1 0.089156 0.500000 0.970841
O O2 0.198933 0.752290 0.024561
O O3 0.882677 0.715546 0.856494
O O4 0.279726 0.672796 0.173217
O O5 0.250534 0.500000 0.714340
O O6 0.129866 0.304605 0.690086
O O7 0.000000 0.291520 0.500000
O O8 0.397052 0.241621 0.815123
O O9 0.750722 0.193515 0.032577
O O10 0.131466 0.214749 0.274939
O O11 0.890287 0.000000 0.072975
O O12 0.766332 0.770712 0.138986
O O13 0.587389 0.000000 0.972692
O O14 0.500000 0.791792 0.500000
O O15 0.522949 0.755366 0.421577
O O16 0.609488 0.000000 0.520567
O O17 0.367502 0.500000 0.311349
O O18 0.178515 0.500000 0.795968
O O19 0.500000 0.354959 0.000000
#
# Coordination Sequence:
#
# PCOD8060482 Si02
#       7
#     4   4   4   4   4   4   4
#     4   9  18  32  50  71  96 127 162 205 256 306
#     4   9  18  34  56  80 104 131 164 204 243 287
#     4  10  21  35  49  71 102 133 169 209 251 297
#     4  10  20  33  50  74 105 136 165 204 249 295
#     4  10  19  32  50  71  95 129 171 210 247 295
#     4   9  18  32  49  72  97 120 159 213 261 301
#     4   8  15  30  52  75  99 129 166 200 234 288
#
# _framework density 17.403838
#
# number of rings (size 3 to 8) (size 9 to 14) (size 15 to 20)
#    0.000    2.714    1.429    2.143    0.000    5.429 
#    0.000    2.857    0.000    6.857    0.000    0.000 
#    0.000    0.000    0.000    0.000    0.000    0.000 
#
# Total GULP energy -347119.372159 kJ/mol
# GULP energy per Si atom -12397.120434 kJ/mol
# Density = 1.736423 g / cm^3
# Si number density = 17.403838 Si / 1000 Ang^3
#
#
#
# Elastic Constant Matrix: (Units=GPa)
#
#
# Indices 1 2 3 4 5 6 
#
# 1 102.9979 62.6039 45.6539 0.0000 -13.3371 0.0000
# 2 62.6039 81.3901 46.0138 0.0000 -9.4903 0.0000
# 3 45.6539 46.0138 83.4926 0.0000 -16.4735 0.0000
# 4 0.0000 0.0000 0.0000 31.8488 0.0000 -9.1778
# 5 -13.3371 -9.4903 -16.4735 0.0000 26.9271 0.0000
# 6 0.0000 0.0000 0.0000 -9.1778 0.0000 31.7990
#
#
#
# Elastic Compliance Matrix: (Units=1/GPa)
#
#
# Indices 1 2 3 4 5 6 
#
# 1 0.019114 -0.012749 -0.002780 0.000000 0.003273 0.000000
# 2 -0.012749 0.026353 -0.007922 0.000000 -0.001873 0.000000
# 3 -0.002780 -0.007922 0.019380 0.000000 0.007687 0.000000
# 4 0.000000 0.000000 0.000000 0.034247 0.000000 0.009884
# 5 0.003273 -0.001873 0.007687 0.000000 0.042801 0.000000
# 6 0.000000 0.000000 0.000000 0.009884 0.000000 0.034300
#
#
# Mechanical properties :
#
#
# Convention : Reuss Voigt Hill
#
# Bulk Modulus (GPa) = 55.72373 64.04710 59.88542
# Shear Modulus (GPa) = 21.82667 25.68892 23.75779
#
# Velocity S-wave (km/s) = 3.54521 3.84611 3.69872
# Velocity P-wave (km/s) = 6.98896 7.52355 7.26118
#
# Compressibility (1/GPa) = 0.01794567
#
# Stress axis : x y z
#
# Youngs Moduli (GPa) = 52.31798 37.94628 51.60081
#
# Poissons Ratio (x) = 0.48378 0.14343
# Poissons Ratio (y) = 0.66700 0.40878
# Poissons Ratio (z) = 0.14542 0.30061
#
# Static dielectric constant tensor:
#      x y z
#    x 3.226850 0.000000 -0.269670 
#    y 0.000000 3.239930 0.000000 
#    z -0.269670 0.000000 3.181220 
# 
# 
# High freq. dielectric constant tensor:
#      x y z
#    x 1.662260 0.000000 -0.021880 
#    y 0.000000 1.673680 0.000000 
#    z -0.021880 0.000000 1.656150 
# 
# From -- ./inp_files/79309.got.cif
#   From: 2010.06.25/outbox.cif.g09.slc.cpg/sg10_40_cif.got.tgz:79309.got - 2010.06.27 22:07:45.
