data_PCOD8060385
_publ_section_title
;
Structure prediction by ZEFSAII (Michael W. Deem and Ramdas Pophale) SiO2 
 PCOD8060385
Probable space group: P 2/M
;
_chemical_formula_sum "Si O2"
_cell_formula_units_Z 32
_cell_length_a 12.495891
_cell_length_b 9.172404
_cell_length_c 20.284059
_cell_angle_alpha 90.000000
_cell_angle_beta 65.903307
_cell_angle_gamma 90.000000
_cell_volume 2122.307811
_symmetry_space_group_name_H-M "P 2/M"
_symmetry_group_IT_number 10
_symmetry_cell_setting 'monoclinic'
loop_
_space_group_symop_operation_xyz
x,y,z
-x,y,-z
-x,-y,-z
x,-y,z
loop_
_atom_site_type_symbol
_atom_site_label
_atom_site_fract_x
_atom_site_fract_y
_atom_site_fract_z
Si Si1 0.335195 0.170480 0.435291
Si Si2 0.763283 0.668611 0.201806
Si Si3 0.728283 0.669658 0.417815
Si Si4 0.096984 0.169373 0.422268
Si Si5 0.073400 0.166109 0.920915
Si Si6 0.956032 0.833367 0.215080
Si Si7 0.003924 0.672018 0.673137
Si Si8 0.557935 0.666036 0.340120
O O1 0.329126 0.245546 0.507378
O O2 0.222968 0.208963 0.419664
O O3 0.448329 0.226694 0.367467
O O4 0.346480 0.000000 0.444456
O O5 0.800289 0.500000 0.191894
O O6 0.625371 0.686173 0.252740
O O7 0.805255 0.743150 0.122024
O O8 0.831282 0.748607 0.244952
O O9 0.726582 0.500000 0.435513
O O10 0.649002 0.705004 0.374844
O O11 0.862411 0.721051 0.374621
O O12 0.080314 0.268250 0.362361
O O13 0.000000 0.213375 0.500000
O O14 0.085805 0.000000 0.405660
O O15 0.994748 0.173465 0.873124
O O16 0.108794 0.000000 0.928643
O O17 0.000000 0.234208 0.000000
O O18 0.036543 0.748694 0.247896
O O19 0.938621 0.000000 0.242139
O O20 0.988533 0.500000 0.683407
O O21 0.513836 0.500000 0.358840
#
# Coordination Sequence:
#
# PCOD8060385 Si02
#       8
#     4   4   4   4   4   4   4   4
#     4  11  23  34  46  65  85 112 155 199 235 282
#     4   9  16  28  44  65  91 122 155 182 218 263
#     4  10  19  32  47  64  87 116 146 187 241 281
#     4  10  21  37  50  63  87 116 151 201 251 285
#     4   8  15  27  43  67  99 131 157 181 218 269
#     4   9  17  28  44  66  94 126 151 183 226 266
#     4  11  20  31  50  70  89 116 158 198 231 284
#     4  10  20  34  47  62  92 123 149 189 233 278
#
# _framework density 15.077926
#
# number of rings (size 3 to 8) (size 9 to 14) (size 15 to 20)
#    0.750    1.500    2.500    1.500    0.000    5.000 
#    0.000    0.000    0.000    0.000    0.000    0.000 
#    0.000    1.000    0.000   11.250    0.000    5.625 
#
# Total GULP energy -396534.642610 kJ/mol
# GULP energy per Si atom -12391.707582 kJ/mol
# Density = 1.504361 g / cm^3
# Si number density = 15.077926 Si / 1000 Ang^3
#
#
#
# Elastic Constant Matrix: (Units=GPa)
#
#
# Indices 1 2 3 4 5 6 
#
# 1 58.8230 33.3867 35.5402 0.0000 -4.5334 0.0000
# 2 33.3867 72.3924 44.2993 0.0000 -0.2598 0.0000
# 3 35.5402 44.2993 98.7656 0.0000 0.8899 0.0000
# 4 0.0000 0.0000 0.0000 22.5367 0.0000 0.0643
# 5 -4.5334 -0.2598 0.8899 0.0000 15.4242 0.0000
# 6 0.0000 0.0000 0.0000 0.0643 0.0000 24.1064
#
#
#
# Elastic Compliance Matrix: (Units=1/GPa)
#
#
# Indices 1 2 3 4 5 6 
#
# 1 0.025743 -0.008454 -0.005542 0.000000 0.007744 0.000000
# 2 -0.008454 0.021826 -0.006732 0.000000 -0.001729 0.000000
# 3 -0.005542 -0.006732 0.015162 0.000000 -0.002617 0.000000
# 4 0.000000 0.000000 0.000000 0.044372 0.000000 -0.000118
# 5 0.007744 -0.001729 -0.002617 0.000000 0.067231 0.000000
# 6 0.000000 0.000000 0.000000 -0.000118 0.000000 0.041483
#
#
# Mechanical properties :
#
#
# Convention : Reuss Voigt Hill
#
# Bulk Modulus (GPa) = 46.99972 50.71479 48.85725
# Shear Modulus (GPa) = 18.91333 20.19712 19.55523
#
# Velocity S-wave (km/s) = 3.54555 3.66391 3.60522
# Velocity P-wave (km/s) = 6.92821 7.18381 7.05717
#
# Compressibility (1/GPa) = 0.02127672
#
# Stress axis : x y z
#
# Youngs Moduli (GPa) = 38.84516 45.81781 65.95391
#
# Poissons Ratio (x) = 0.38733 0.36549
# Poissons Ratio (y) = 0.32838 0.44399
# Poissons Ratio (z) = 0.21526 0.30844
#
# Static dielectric constant tensor:
#      x y z
#    x 2.689340 0.000000 0.016330 
#    y 0.000000 2.944290 0.000000 
#    z 0.016330 0.000000 2.877000 
# 
# 
# High freq. dielectric constant tensor:
#      x y z
#    x 1.542020 0.000000 0.006700 
#    y 0.000000 1.589930 0.000000 
#    z 0.006700 0.000000 1.561760 
# 
# From -- ./inp_files/86406.got.cif
#   From: 2010.06.25/outbox.cif.g09.slc.cpg/sg10_44_cif.got.tgz:86406.got - 2010.06.27 22:07:45.
