data_PCOD8060837
_publ_section_title
;
Structure prediction by ZEFSAII (Michael W. Deem and Ramdas Pophale) SiO2 
 PCOD8060837
Probable space group: P 2/M
;
_chemical_formula_sum "Si O2"
_cell_formula_units_Z 32
_cell_length_a 15.475933
_cell_length_b 22.675564
_cell_length_c 9.008455
_cell_angle_alpha 90.000000
_cell_angle_beta 149.046602
_cell_angle_gamma 90.000000
_cell_volume 1625.983601
_symmetry_space_group_name_H-M "P 2/M"
_symmetry_group_IT_number 10
_symmetry_cell_setting 'monoclinic'
loop_
_space_group_symop_operation_xyz
x,y,z
-x,y,-z
-x,-y,-z
x,-y,z
loop_
_atom_site_type_symbol
_atom_site_label
_atom_site_fract_x
_atom_site_fract_y
_atom_site_fract_z
Si Si1 0.658810 0.431950 0.323743
Si Si2 0.888458 0.156808 0.961342
Si Si3 0.378112 0.249557 0.443500
Si Si4 0.548523 0.834588 0.909956
Si Si5 0.178735 0.634350 0.185714
Si Si6 0.279190 0.933033 0.488327
Si Si7 0.989915 0.568498 0.315441
Si Si8 0.886458 0.890543 0.464846
O O1 0.623563 0.500000 0.302514
O O2 0.681574 0.402764 0.518833
O O3 0.824995 0.420846 0.474001
O O4 0.500000 0.404649 0.000000
O O5 0.724363 0.192889 0.764874
O O6 0.844493 0.093668 0.818878
O O7 0.000000 0.190966 0.000000
O O8 0.989355 0.151481 0.261522
O O9 0.500000 0.276588 0.500000
O O10 0.499113 0.224042 0.748365
O O11 0.244424 0.299057 0.288630
O O12 0.447761 0.894683 0.726047
O O13 0.500000 0.813425 0.000000
O O14 0.744771 0.849863 0.179309
O O15 0.150362 0.607288 0.978855
O O16 0.000000 0.630899 0.000000
O O17 0.199300 0.933309 0.538274
O O18 0.322384 0.000000 0.509492
O O19 0.936929 0.500000 0.223465
O O20 0.000000 0.589448 0.500000
O O21 0.000000 0.921094 0.500000
#
# Coordination Sequence:
#
# PCOD8060837 Si02
#       8
#     4   4   4   4   4   4   4   4
#     4   9  18  34  56  81 110 145 182 219 262 317
#     4   9  19  36  57  75 100 139 178 209 255 320
#     4  11  22  37  55  76 105 138 175 221 267 312
#     4   9  20  37  57  76 100 139 178 213 261 320
#     4  10  21  36  55  80 110 145 184 221 265 322
#     4   9  19  36  55  75 104 141 173 204 254 323
#     4   9  18  35  58  82 111 146 182 223 270 317
#     4  10  19  32  53  80 104 128 167 218 264 306
#
# _framework density 19.680395000000001
#
# number of rings (size 3 to 8) (size 9 to 14) (size 15 to 20)
#    0.000    2.500    0.000    2.250    0.000    7.750 
#    0.000    4.375    0.000   16.500    0.000    0.000 
#    0.000    0.000    0.000    0.000    0.000    0.000 
#
# Total GULP energy -396483.049464 kJ/mol
# GULP energy per Si atom -12390.095296 kJ/mol
# Density = 1.963560 g / cm^3
# Si number density = 19.680395 Si / 1000 Ang^3
#
#
#
# Elastic Constant Matrix: (Units=GPa)
#
#
# Indices 1 2 3 4 5 6 
#
# 1 65.0593 25.5563 34.7061 0.0000 -6.6332 0.0000
# 2 25.5563 88.7446 53.7093 0.0000 -18.5278 0.0000
# 3 34.7061 53.7093 149.9935 0.0000 -21.7623 0.0000
# 4 0.0000 0.0000 0.0000 -13.5902 0.0000 2.0497
# 5 -6.6332 -18.5278 -21.7623 0.0000 14.7872 0.0000
# 6 0.0000 0.0000 0.0000 2.0497 0.0000 14.5973
#
#
#
# Elastic Compliance Matrix: (Units=1/GPa)
#
#
# Indices 1 2 3 4 5 6 
#
# 1 0.018338 -0.003586 -0.003074 0.000000 -0.000790 0.000000
# 2 -0.003586 0.017479 -0.003160 0.000000 0.015642 0.000000
# 3 -0.003074 -0.003160 0.009835 0.000000 0.009137 0.000000
# 4 0.000000 0.000000 0.000000 -0.072056 0.000000 0.010118
# 5 -0.000790 0.015642 0.009137 0.000000 0.100317 0.000000
# 6 0.000000 0.000000 0.000000 0.010118 0.000000 0.067085
#
#
# Mechanical properties :
#
#
# Convention : Reuss Voigt Hill
#
# Bulk Modulus (GPa) = 38.44105 59.08231 48.76168
# Shear Modulus (GPa) = 29.53208 15.81390 22.67299
#
# Velocity S-wave (km/s) = 3.87794 2.83775 3.39788
# Velocity P-wave (km/s) = 6.29494 6.38930 6.34230
#
# Compressibility (1/GPa) = 0.02601386
#
# Stress axis : x y z
#
# Youngs Moduli (GPa) = 54.53073 57.21226 101.67517
#
# Poissons Ratio (x) = 0.20514 0.31254
# Poissons Ratio (y) = 0.19553 0.32126
# Poissons Ratio (z) = 0.16762 0.18077
#
# Static dielectric constant tensor:
#      x y z
#    x 3.541900 0.000000 -0.109290 
#    y 0.000000 3.204990 0.000000 
#    z -0.109290 0.000000 4.302220 
# 
# 
# High freq. dielectric constant tensor:
#      x y z
#    x 1.757050 0.000000 -0.002400 
#    y 0.000000 1.736290 0.000000 
#    z -0.002400 0.000000 1.787100 
# 
# From -- ./inp_files/30620.got.cif
#   From: 2010.06.25/outbox.cif.g09.slc.cpg/sg10_16_cif.got.tgz:30620.got - 2010.06.27 22:07:45.
