data_PCOD8060258
_publ_section_title
;
Structure prediction by ZEFSAII (Michael W. Deem and Ramdas Pophale) SiO2 
 PCOD8060258
Probable space group: P 2/M
;
_chemical_formula_sum "Si O2"
_cell_formula_units_Z 32
_cell_length_a 22.350824
_cell_length_b 9.237751
_cell_length_c 27.194040
_cell_angle_alpha 90.000000
_cell_angle_beta 162.635711
_cell_angle_gamma 90.000000
_cell_volume 1675.711526
_symmetry_space_group_name_H-M "P 2/M"
_symmetry_group_IT_number 10
_symmetry_cell_setting 'monoclinic'
loop_
_space_group_symop_operation_xyz
x,y,z
-x,y,-z
-x,-y,-z
x,-y,z
loop_
_atom_site_type_symbol
_atom_site_label
_atom_site_fract_x
_atom_site_fract_y
_atom_site_fract_z
Si Si1 0.357132 0.165626 0.106467
Si Si2 0.165919 0.166262 0.168652
Si Si3 0.423737 0.167671 0.046995
Si Si4 0.910302 0.834932 0.779017
Si Si5 0.437741 0.328563 0.547225
Si Si6 0.365254 0.670803 0.601535
Si Si7 0.680162 0.340486 0.179667
Si Si8 0.077337 0.328991 0.719627
O O1 0.470382 0.264610 0.233748
O O2 0.384355 0.000000 0.144398
O O3 0.447078 0.192846 0.123193
O O4 0.123144 0.206669 0.922458
O O5 0.073228 0.186017 0.149714
O O6 0.361337 0.263744 0.317623
O O7 0.225208 0.000000 0.204598
O O8 0.000000 0.221064 0.000000
O O9 0.226843 0.249005 0.873813
O O10 0.402018 0.000000 0.016315
O O11 0.627314 0.228852 0.181601
O O12 0.748532 0.726906 0.630221
O O13 0.849900 0.000000 0.718685
O O14 0.446277 0.500000 0.549277
O O15 0.412835 0.277633 0.583814
O O16 0.375827 0.500000 0.614830
O O17 0.145274 0.727320 0.443945
O O18 0.714473 0.500000 0.229810
O O19 0.873493 0.291750 0.299158
O O20 0.500000 0.346768 0.000000
O O21 0.101674 0.500000 0.748259
#
# Coordination Sequence:
#
# PCOD8060258 Si02
#       8
#     4   4   4   4   4   4   4   4
#     4  10  22  38  55  78 107 139 177 220 265 314
#     4  10  21  38  60  83 109 145 183 216 255 308
#     4  10  19  31  51  80 108 134 170 217 268 317
#     4  10  21  38  59  81 106 141 184 220 254 308
#     4  11  23  37  56  84 113 139 173 221 271 313
#     4  10  22  38  55  77 105 139 178 218 264 317
#     4   8  15  29  50  74 101 136 176 216 257 306
#     4   9  18  34  54  76 103 137 179 219 256 310
#
# _framework density 19.096367000000001
#
# number of rings (size 3 to 8) (size 9 to 14) (size 15 to 20)
#    0.000    2.250    0.000    3.375    0.000    8.500 
#    0.000    0.625    0.000    3.750    0.000    0.000 
#    0.000    0.000    0.000    0.000    0.000    0.000 
#
# Total GULP energy -396861.844255 kJ/mol
# GULP energy per Si atom -12401.932633 kJ/mol
# Density = 1.905290 g / cm^3
# Si number density = 19.096367 Si / 1000 Ang^3
#
#
#
# Elastic Constant Matrix: (Units=GPa)
#
#
# Indices 1 2 3 4 5 6 
#
# 1 91.7953 31.4826 16.2724 0.0000 3.3288 0.0000
# 2 31.4826 53.9647 17.7607 0.0000 -3.5874 0.0000
# 3 16.2724 17.7607 39.3800 0.0000 -7.0748 0.0000
# 4 0.0000 0.0000 0.0000 28.3290 0.0000 -2.9252
# 5 3.3288 -3.5874 -7.0748 0.0000 32.3118 0.0000
# 6 0.0000 0.0000 0.0000 -2.9252 0.0000 30.7516
#
#
#
# Elastic Compliance Matrix: (Units=1/GPa)
#
#
# Indices 1 2 3 4 5 6 
#
# 1 0.014076 -0.007421 -0.002996 0.000000 -0.002930 0.000000
# 2 -0.007421 0.025675 -0.008186 0.000000 0.001823 0.000000
# 3 -0.002996 -0.008186 0.031453 0.000000 0.006287 0.000000
# 4 0.000000 0.000000 0.000000 0.035650 0.000000 0.003391
# 5 -0.002930 0.001823 0.006287 0.000000 0.032829 0.000000
# 6 0.000000 0.000000 0.000000 0.003391 0.000000 0.032841
#
#
# Mechanical properties :
#
#
# Convention : Reuss Voigt Hill
#
# Bulk Modulus (GPa) = 29.41271 35.13017 32.27144
# Shear Modulus (GPa) = 22.61802 26.25342 24.43572
#
# Velocity S-wave (km/s) = 3.44527 3.71183 3.58103
# Velocity P-wave (km/s) = 5.59126 6.06683 5.83389
#
# Compressibility (1/GPa) = 0.03399891
#
# Stress axis : x y z
#
# Youngs Moduli (GPa) = 71.04190 38.94828 31.79350
#
# Poissons Ratio (x) = 0.28902 0.09526
# Poissons Ratio (y) = 0.52718 0.26026
# Poissons Ratio (z) = 0.21285 0.31883
#
# Static dielectric constant tensor:
#      x y z
#    x 3.804950 0.000000 0.309780 
#    y 0.000000 3.460790 0.000000 
#    z 0.309780 0.000000 3.420070 
# 
# 
# High freq. dielectric constant tensor:
#      x y z
#    x 1.756830 0.000000 0.014610 
#    y 0.000000 1.737740 0.000000 
#    z 0.014610 0.000000 1.731550 
# 
# From -- ./inp_files/93697.got.cif
#   From: 2010.06.25/outbox.cif.g09.slc.cpg/sg10_47_cif.got.tgz:93697.got - 2010.06.27 22:07:45.
