data_PCOD8060031
_publ_section_title
;
Structure prediction by ZEFSAII (Michael W. Deem and Ramdas Pophale) SiO2 
 PCOD8060031
Probable space group: P 2/M
;
_chemical_formula_sum "Si O2"
_cell_formula_units_Z 24
_cell_length_a 15.924278
_cell_length_b 8.958073
_cell_length_c 11.313059
_cell_angle_alpha 90.000000
_cell_angle_beta 121.528765
_cell_angle_gamma 90.000000
_cell_volume 1375.582048
_symmetry_space_group_name_H-M "P 2/M"
_symmetry_group_IT_number 10
_symmetry_cell_setting 'monoclinic'
loop_
_space_group_symop_operation_xyz
x,y,z
-x,y,-z
-x,-y,-z
x,-y,z
loop_
_atom_site_type_symbol
_atom_site_label
_atom_site_fract_x
_atom_site_fract_y
_atom_site_fract_z
Si Si1 0.672794 0.826250 0.958969
Si Si2 0.480177 0.668516 0.846898
Si Si3 0.951478 0.675403 0.801955
Si Si4 0.902383 0.673011 0.497132
Si Si5 0.136821 0.823417 0.045357
Si Si6 0.287142 0.175408 0.745838
O O1 0.711204 0.774596 0.115913
O O2 0.648026 0.000000 0.942944
O O3 0.572806 0.742054 0.847909
O O4 0.755137 0.785800 0.923498
O O5 0.469265 0.500000 0.794401
O O6 0.379036 0.753643 0.742606
O O7 0.500000 0.679758 0.000000
O O8 0.961148 0.500000 0.835054
O O9 0.915408 0.707810 0.644197
O O10 0.872499 0.749010 0.832687
O O11 0.057199 0.752300 0.898128
O O12 0.879126 0.500000 0.456241
O O13 0.813445 0.770690 0.384889
O O14 0.000000 0.722875 0.500000
O O15 0.118242 0.000000 0.039314
O O16 0.295170 0.000000 0.737959
#
# Coordination Sequence:
#
# PCOD8060031 Si02
#       6
#     4   4   4   4   4   4
#     4   9  18  31  48  73 100 126 159 198 240 283
#     4   9  17  29  47  71  98 128 160 195 237 284
#     4  10  20  33  49  70  97 128 162 199 239 283
#     4  10  21  35  50  70  98 130 162 197 237 284
#     4  10  19  32  51  72  97 127 160 200 240 282
#     4  10  19  31  49  72 100 130 159 196 239 285
#
# _framework density 17.44716
#
# number of rings (size 3 to 8) (size 9 to 14) (size 15 to 20)
#    0.000    2.333    0.000    4.000    0.000    5.667 
#    0.000    0.000    0.000    1.000    0.000    7.000 
#    0.000    0.000    0.000    0.000    0.000    0.000 
#
# Total GULP energy -297633.167396 kJ/mol
# GULP energy per Si atom -12401.381975 kJ/mol
# Density = 1.740745 g / cm^3
# Si number density = 17.447160 Si / 1000 Ang^3
#
#
#
# Elastic Constant Matrix: (Units=GPa)
#
#
# Indices 1 2 3 4 5 6 
#
# 1 152.2784 70.0909 55.0484 0.0000 18.2010 0.0000
# 2 70.0909 98.2477 43.4652 0.0000 9.2010 0.0000
# 3 55.0484 43.4652 72.7702 0.0000 8.1657 0.0000
# 4 0.0000 0.0000 0.0000 28.0984 0.0000 7.3050
# 5 18.2010 9.2010 8.1657 0.0000 23.4346 0.0000
# 6 0.0000 0.0000 0.0000 7.3050 0.0000 28.5879
#
#
#
# Elastic Compliance Matrix: (Units=1/GPa)
#
#
# Indices 1 2 3 4 5 6 
#
# 1 0.011472 -0.005603 -0.004765 0.000000 -0.005050 0.000000
# 2 -0.005603 0.016732 -0.005730 0.000000 -0.000221 0.000000
# 3 -0.004765 -0.005730 0.020919 0.000000 -0.001339 0.000000
# 4 0.000000 0.000000 0.000000 0.038122 0.000000 -0.009741
# 5 -0.005050 -0.000221 -0.001339 0.000000 0.047147 0.000000
# 6 0.000000 0.000000 0.000000 -0.009741 0.000000 0.037469
#
#
# Mechanical properties :
#
#
# Convention : Reuss Voigt Hill
#
# Bulk Modulus (GPa) = 59.08010 73.38946 66.23478
# Shear Modulus (GPa) = 23.84370 26.33697 25.09033
#
# Velocity S-wave (km/s) = 3.70080 3.88948 3.79631
# Velocity P-wave (km/s) = 7.22475 7.89467 7.56713
#
# Compressibility (1/GPa) = 0.01692617
#
# Stress axis : x y z
#
# Youngs Moduli (GPa) = 87.16789 59.76717 47.80335
#
# Poissons Ratio (x) = 0.33490 0.22777
# Poissons Ratio (y) = 0.48844 0.27392
# Poissons Ratio (z) = 0.41533 0.34247
#
# Static dielectric constant tensor:
#      x y z
#    x 3.371110 0.000000 0.049580 
#    y 0.000000 3.336200 0.000000 
#    z 0.049580 0.000000 2.993380 
# 
# 
# High freq. dielectric constant tensor:
#      x y z
#    x 1.681400 0.000000 0.011810 
#    y 0.000000 1.686630 0.000000 
#    z 0.011810 0.000000 1.643540 
# 
# From -- ./inp_files/52869.got.cif
#   From: 2010.06.25/outbox.cif.g09.slc.cpg/sg10_27_cif.got.tgz:52869.got - 2010.06.27 22:07:45.
