data_PCOD8060665
_publ_section_title
;
Structure prediction by ZEFSAII (Michael W. Deem and Ramdas Pophale) SiO2 
 PCOD8060665
Probable space group: P 2/M
;
_chemical_formula_sum "Si O2"
_cell_formula_units_Z 28
_cell_length_a 9.560211
_cell_length_b 8.964919
_cell_length_c 32.076491
_cell_angle_alpha 90.000000
_cell_angle_beta 32.159999
_cell_angle_gamma 90.000000
_cell_volume 1463.339972
_symmetry_space_group_name_H-M "P 2/M"
_symmetry_group_IT_number 10
_symmetry_cell_setting 'monoclinic'
loop_
_space_group_symop_operation_xyz
x,y,z
-x,y,-z
-x,-y,-z
x,-y,z
loop_
_atom_site_type_symbol
_atom_site_label
_atom_site_fract_x
_atom_site_fract_y
_atom_site_fract_z
Si Si1 0.269989 0.176358 0.763736
Si Si2 0.352927 0.832018 0.176891
Si Si3 0.256276 0.325977 0.590509
Si Si4 0.803231 0.323944 0.927750
Si Si5 0.748093 0.832269 0.323505
Si Si6 0.715866 0.822167 0.714935
Si Si7 0.190706 0.170878 0.990543
O O1 0.367377 0.218227 0.692181
O O2 0.507899 0.231952 0.733091
O O3 0.994339 0.254581 0.844537
O O4 0.225852 0.000000 0.779067
O O5 0.383031 0.759859 0.215278
O O6 0.532649 0.758087 0.095766
O O7 0.056725 0.826853 0.236886
O O8 0.462521 0.000000 0.153131
O O9 0.500000 0.285597 0.500000
O O10 0.196390 0.500000 0.606950
O O11 0.330764 0.274330 0.618627
O O12 0.004702 0.244440 0.633999
O O13 0.822769 0.500000 0.919114
O O14 0.500000 0.269012 0.000000
O O15 0.909617 0.269455 0.945715
O O16 0.658367 0.000000 0.357860
O O17 0.748350 0.000000 0.707683
O O18 0.212022 0.000000 0.000818
O O19 0.000000 0.187213 0.000000
#
# Coordination Sequence:
#
# PCOD8060665 Si02
#       7
#     4   4   4   4   4   4   4
#     4  10  20  36  58  82 106 136 179 225 269 320
#     4   8  14  27  47  71  98 129 169 214 259 307
#     4  10  21  37  57  82 111 143 177 208 248 313
#     4  11  24  37  49  73 110 148 184 223 269 319
#     4   9  18  33  55  80 104 134 174 219 263 308
#     4   9  18  34  57  83 108 135 173 222 269 314
#     4  10  19  32  52  75  99 133 179 229 276 317
#
# _framework density 19.134308999999998
#
# number of rings (size 3 to 8) (size 9 to 14) (size 15 to 20)
#    0.000    2.429    0.000    3.429    0.000    7.143 
#    0.000    5.000    0.000    4.286    0.000    0.000 
#    0.000    0.000    0.000    0.000    0.000    0.000 
#
# Total GULP energy -347061.620968 kJ/mol
# GULP energy per Si atom -12395.057892 kJ/mol
# Density = 1.909076 g / cm^3
# Si number density = 19.134309 Si / 1000 Ang^3
#
#
#
# Elastic Constant Matrix: (Units=GPa)
#
#
# Indices 1 2 3 4 5 6 
#
# 1 98.3177 23.8599 25.6948 0.0000 9.2879 0.0000
# 2 23.8599 49.6116 34.7147 0.0000 0.9832 0.0000
# 3 25.6948 34.7147 95.0946 0.0000 8.6449 0.0000
# 4 0.0000 0.0000 0.0000 27.7644 0.0000 1.1773
# 5 9.2879 0.9832 8.6449 0.0000 22.6407 0.0000
# 6 0.0000 0.0000 0.0000 1.1773 0.0000 15.4235
#
#
#
# Elastic Compliance Matrix: (Units=1/GPa)
#
#
# Indices 1 2 3 4 5 6 
#
# 1 0.012063 -0.004984 -0.001046 0.000000 -0.004333 0.000000
# 2 -0.004984 0.029290 -0.009755 0.000000 0.004497 0.000000
# 3 -0.001046 -0.009755 0.014796 0.000000 -0.004797 0.000000
# 4 0.000000 0.000000 0.000000 0.036134 0.000000 -0.002758
# 5 -0.004333 0.004497 -0.004797 0.000000 0.047582 0.000000
# 6 0.000000 0.000000 0.000000 -0.002758 0.000000 0.065047
#
#
# Mechanical properties :
#
#
# Convention : Reuss Voigt Hill
#
# Bulk Modulus (GPa) = 40.68424 45.72918 43.20671
# Shear Modulus (GPa) = 20.43536 23.74936 22.09236
#
# Velocity S-wave (km/s) = 3.27157 3.52688 3.40162
# Velocity P-wave (km/s) = 5.96485 6.36680 6.16910
#
# Compressibility (1/GPa) = 0.02457954
#
# Stress axis : x y z
#
# Youngs Moduli (GPa) = 82.89601 34.14149 67.58764
#
# Poissons Ratio (x) = 0.17015 0.07072
# Poissons Ratio (y) = 0.41312 0.65929
# Poissons Ratio (z) = 0.08674 0.33304
#
# Static dielectric constant tensor:
#      x y z
#    x 3.623980 0.000000 0.083820 
#    y 0.000000 3.238400 0.000000 
#    z 0.083820 0.000000 3.478620 
# 
# 
# High freq. dielectric constant tensor:
#      x y z
#    x 1.750360 0.000000 0.009830 
#    y 0.000000 1.714990 0.000000 
#    z 0.009830 0.000000 1.737910 
# 
# From -- ./inp_files/94500.got.cif
#   From: 2010.06.25/outbox.cif.g09.slc.cpg/sg10_48_cif.got.tgz:94500.got - 2010.06.27 22:07:45.
