data_PCOD8060335
_publ_section_title
;
Structure prediction by ZEFSAII (Michael W. Deem and Ramdas Pophale) SiO2 
 PCOD8060335
Probable space group: P 2/M
;
_chemical_formula_sum "Si O2"
_cell_formula_units_Z 32
_cell_length_a 21.853188
_cell_length_b 9.043998
_cell_length_c 12.290714
_cell_angle_alpha 90.000000
_cell_angle_beta 45.975913
_cell_angle_gamma 90.000000
_cell_volume 1746.666844
_symmetry_space_group_name_H-M "P 2/M"
_symmetry_group_IT_number 10
_symmetry_cell_setting 'monoclinic'
loop_
_space_group_symop_operation_xyz
x,y,z
-x,y,-z
-x,-y,-z
x,-y,z
loop_
_atom_site_type_symbol
_atom_site_label
_atom_site_fract_x
_atom_site_fract_y
_atom_site_fract_z
Si Si1 0.275826 0.669784 0.438029
Si Si2 0.066944 0.159249 0.828007
Si Si3 0.268522 0.171268 0.120408
Si Si4 0.403382 0.827322 0.131182
Si Si5 0.140067 0.824203 0.460601
Si Si6 0.792917 0.671797 0.004659
Si Si7 0.784570 0.332999 0.259056
Si Si8 0.986974 0.673797 0.736728
O O1 0.265731 0.500000 0.412609
O O2 0.360988 0.738229 0.282256
O O3 0.191396 0.759324 0.502461
O O4 0.286206 0.678226 0.557317
O O5 0.146986 0.213290 0.795540
O O6 0.033313 0.287633 0.791701
O O7 0.085641 0.000000 0.744030
O O8 0.000000 0.120914 0.000000
O O9 0.355396 0.206785 0.077407
O O10 0.188888 0.227698 0.291516
O O11 0.259744 0.000000 0.105979
O O12 0.270296 0.253185 0.003049
O O13 0.397097 0.000000 0.168011
O O14 0.500000 0.773757 0.000000
O O15 0.043485 0.759947 0.575520
O O16 0.140121 0.000000 0.467120
O O17 0.792153 0.500000 0.981523
O O18 0.755381 0.706389 0.171834
O O19 0.889617 0.730854 0.865033
O O20 0.822495 0.500000 0.209640
O O21 0.991886 0.500000 0.708561
#
# Coordination Sequence:
#
# PCOD8060335 Si02
#       8
#     4   4   4   4   4   4   4   4
#     4  10  19  31  53  83 110 136 169 214 264 312
#     4  11  21  30  45  71  99 134 183 234 272 306
#     4   9  20  37  55  76 103 134 170 215 263 316
#     4   9  19  38  63  87 110 134 160 202 263 321
#     4  10  20  34  51  73 103 138 179 228 276 313
#     4  10  22  36  50  70 102 146 186 219 259 312
#     4  10  20  34  50  71 104 143 179 217 264 309
#     4  11  21  32  48  70  99 140 186 229 270 309
#
# _framework density 18.320609000000001
#
# number of rings (size 3 to 8) (size 9 to 14) (size 15 to 20)
#    0.000    2.000    2.500    2.250    0.000    5.750 
#    0.000    2.500    0.000    0.750    0.000    5.250 
#    0.000    0.000    0.000    0.000    0.000    0.000 
#
# Total GULP energy -396548.764067 kJ/mol
# GULP energy per Si atom -12392.148877 kJ/mol
# Density = 1.827891 g / cm^3
# Si number density = 18.320609 Si / 1000 Ang^3
#
#
#
# Elastic Constant Matrix: (Units=GPa)
#
#
# Indices 1 2 3 4 5 6 
#
# 1 82.4665 33.9854 57.0659 0.0000 11.8919 0.0000
# 2 33.9854 66.7651 38.7911 0.0000 0.4923 0.0000
# 3 57.0659 38.7911 95.3382 0.0000 6.0330 0.0000
# 4 0.0000 0.0000 0.0000 8.2463 0.0000 4.5514
# 5 11.8919 0.4923 6.0330 0.0000 31.1010 0.0000
# 6 0.0000 0.0000 0.0000 4.5514 0.0000 25.5193
#
#
#
# Elastic Compliance Matrix: (Units=1/GPa)
#
#
# Indices 1 2 3 4 5 6 
#
# 1 0.022953 -0.005098 -0.011252 0.000000 -0.006513 0.000000
# 2 -0.005098 0.020795 -0.005581 0.000000 0.002703 0.000000
# 3 -0.011252 -0.005581 0.019456 0.000000 0.000617 0.000000
# 4 0.000000 0.000000 0.000000 0.134506 0.000000 -0.023989
# 5 -0.006513 0.002703 0.000617 0.000000 0.034481 0.000000
# 6 0.000000 0.000000 0.000000 -0.023989 0.000000 0.043465
#
#
# Mechanical properties :
#
#
# Convention : Reuss Voigt Hill
#
# Bulk Modulus (GPa) = 51.70100 56.02828 53.86464
# Shear Modulus (GPa) = 15.33904 20.62180 17.98042
#
# Velocity S-wave (km/s) = 2.89668 3.35865 3.13618
# Velocity P-wave (km/s) = 6.28244 6.75938 6.52527
#
# Compressibility (1/GPa) = 0.01934199
#
# Stress axis : x y z
#
# Youngs Moduli (GPa) = 43.56793 48.08742 51.39840
#
# Poissons Ratio (x) = 0.24514 0.57835
# Poissons Ratio (y) = 0.22210 0.28685
# Poissons Ratio (z) = 0.49024 0.26837
#
# Static dielectric constant tensor:
#      x y z
#    x 3.123640 0.000000 0.123830 
#    y 0.000000 3.365020 0.000000 
#    z 0.123830 0.000000 3.571200 
# 
# 
# High freq. dielectric constant tensor:
#      x y z
#    x 1.672140 0.000000 0.019910 
#    y 0.000000 1.718300 0.000000 
#    z 0.019910 0.000000 1.709490 
# 
# From -- ./inp_files/55268.got.cif
#   From: 2010.06.25/outbox.cif.g09.slc.cpg/sg10_28_cif.got.tgz:55268.got - 2010.06.27 22:07:45.
