data_PCOD8060246
_publ_section_title
;
Structure prediction by ZEFSAII (Michael W. Deem and Ramdas Pophale) SiO2 
 PCOD8060246
Probable space group: P 2/M
;
_chemical_formula_sum "Si O2"
_cell_formula_units_Z 32
_cell_length_a 29.942855
_cell_length_b 8.951346
_cell_length_c 23.878025
_cell_angle_alpha 90.000000
_cell_angle_beta 16.157073
_cell_angle_gamma 90.000000
_cell_volume 1780.937896
_symmetry_space_group_name_H-M "P 2/M"
_symmetry_group_IT_number 10
_symmetry_cell_setting 'monoclinic'
loop_
_space_group_symop_operation_xyz
x,y,z
-x,y,-z
-x,-y,-z
x,-y,z
loop_
_atom_site_type_symbol
_atom_site_label
_atom_site_fract_x
_atom_site_fract_y
_atom_site_fract_z
Si Si1 0.381543 0.675694 0.267775
Si Si2 0.263809 0.176998 0.521817
Si Si3 0.057935 0.675232 0.113177
Si Si4 0.844962 0.172640 0.547085
Si Si5 0.584846 0.675876 0.342163
Si Si6 0.861495 0.171021 0.873030
Si Si7 0.618432 0.166267 0.910072
Si Si8 0.491690 0.173704 0.678636
O O1 0.376871 0.500000 0.282014
O O2 0.351574 0.753125 0.362925
O O3 0.244952 0.724467 0.389210
O O4 0.557161 0.723109 0.032410
O O5 0.363440 0.226073 0.456554
O O6 0.084452 0.238916 0.747058
O O7 0.259587 0.000000 0.519347
O O8 0.024839 0.500000 0.149151
O O9 0.058268 0.723017 0.177434
O O10 0.227604 0.720985 0.881067
O O11 0.036897 0.194059 0.306857
O O12 0.794593 0.000000 0.596455
O O13 0.792383 0.214828 0.674280
O O14 0.500000 0.739263 0.500000
O O15 0.564736 0.500000 0.361843
O O16 0.496846 0.743110 0.394229
O O17 0.877059 0.000000 0.875311
O O18 0.675507 0.213021 0.087971
O O19 0.627358 0.000000 0.925215
O O20 0.500000 0.170839 0.000000
O O21 0.502735 0.000000 0.652087
#
# Coordination Sequence:
#
# PCOD8060246 Si02
#       8
#     4   4   4   4   4   4   4   4
#     4  11  20  28  43  68  97 129 169 210 253 302
#     4  11  21  34  50  71 104 138 168 208 255 296
#     4  10  19  31  51  79 103 129 169 205 240 294
#     4   9  16  27  46  69  95 127 162 206 259 310
#     4   9  19  37  59  81 107 136 163 197 244 296
#     4   9  16  30  51  73  98 128 164 209 258 299
#     4   8  15  27  41  62  93 128 164 202 254 309
#     4   9  20  35  53  78 103 132 171 209 246 294
#
# _framework density 17.968060999999999
#
# number of rings (size 3 to 8) (size 9 to 14) (size 15 to 20)
#    0.000    2.500    1.250    2.625    0.000    4.000 
#    0.000    0.625    0.000    4.500    0.000    5.250 
#    0.000    0.000    0.000    0.000    0.000    0.000 
#
# Total GULP energy -396637.341009 kJ/mol
# GULP energy per Si atom -12394.916907 kJ/mol
# Density = 1.792716 g / cm^3
# Si number density = 17.968061 Si / 1000 Ang^3
#
#
#
# Elastic Constant Matrix: (Units=GPa)
#
#
# Indices 1 2 3 4 5 6 
#
# 1 87.4182 43.5883 62.6945 0.0000 -2.2908 0.0000
# 2 43.5883 73.4275 41.7532 0.0000 -0.0029 0.0000
# 3 62.6945 41.7532 130.6077 0.0000 12.1484 0.0000
# 4 0.0000 0.0000 0.0000 25.0037 0.0000 3.6043
# 5 -2.2908 -0.0029 12.1484 0.0000 28.7586 0.0000
# 6 0.0000 0.0000 0.0000 3.6043 0.0000 1.5652
#
#
#
# Elastic Compliance Matrix: (Units=1/GPa)
#
#
# Indices 1 2 3 4 5 6 
#
# 1 0.021503 -0.008092 -0.008217 0.000000 0.005183 0.000000
# 2 -0.008092 0.019843 -0.002497 0.000000 0.000412 0.000000
# 3 -0.008217 -0.002497 0.012970 0.000000 -0.006134 0.000000
# 4 0.000000 0.000000 0.000000 0.059868 0.000000 -0.137866
# 5 0.005183 0.000412 -0.006134 0.000000 0.037776 0.000000
# 6 0.000000 0.000000 0.000000 -0.137866 0.000000 0.956398
#
#
# Mechanical properties :
#
#
# Convention : Reuss Voigt Hill
#
# Bulk Modulus (GPa) = 59.87167 65.28059 62.57613
# Shear Modulus (GPa) = 4.34202 20.62666 12.48434
#
# Velocity S-wave (km/s) = 1.55620 3.39184 2.63878
# Velocity P-wave (km/s) = 6.05165 7.19373 6.64726
#
# Compressibility (1/GPa) = 0.01670239
#
# Stress axis : x y z
#
# Youngs Moduli (GPa) = 46.50503 50.39671 77.10206
#
# Poissons Ratio (x) = 0.40781 0.63356
# Poissons Ratio (y) = 0.37632 0.19255
# Poissons Ratio (z) = 0.38214 0.12586
#
# Static dielectric constant tensor:
#      x y z
#    x 3.007990 0.000000 0.148390 
#    y 0.000000 3.275210 0.000000 
#    z 0.148390 0.000000 3.773610 
# 
# 
# High freq. dielectric constant tensor:
#      x y z
#    x 1.650300 0.000000 0.012350 
#    y 0.000000 1.692650 0.000000 
#    z 0.012350 0.000000 1.708230 
# 
# From -- ./inp_files/86757.got.cif
#   From: 2010.06.25/outbox.cif.g09.slc.cpg/sg10_44_cif.got.tgz:86757.got - 2010.06.27 22:07:45.
