data_PCOD8060276
_publ_section_title
;
Structure prediction by ZEFSAII (Michael W. Deem and Ramdas Pophale) SiO2 
 PCOD8060276
Probable space group: P 2/M
;
_chemical_formula_sum "Si O2"
_cell_formula_units_Z 28
_cell_length_a 9.733939
_cell_length_b 16.386302
_cell_length_c 14.625783
_cell_angle_alpha 90.000000
_cell_angle_beta 137.241065
_cell_angle_gamma 90.000000
_cell_volume 1583.814320
_symmetry_space_group_name_H-M "P 2/M"
_symmetry_group_IT_number 10
_symmetry_cell_setting 'monoclinic'
loop_
_space_group_symop_operation_xyz
x,y,z
-x,y,-z
-x,-y,-z
x,-y,z
loop_
_atom_site_type_symbol
_atom_site_label
_atom_site_fract_x
_atom_site_fract_y
_atom_site_fract_z
Si Si1 0.539057 0.824491 0.281880
Si Si2 0.978268 0.787714 0.721680
Si Si3 0.531126 0.594941 0.619003
Si Si4 0.158774 0.722274 0.155601
Si Si5 0.661042 0.907112 0.157339
Si Si6 0.838350 0.686334 0.491955
Si Si7 0.330737 0.915227 0.487868
O O1 0.317951 0.786441 0.191529
O O2 0.551977 0.862314 0.187952
O O3 0.722295 0.761475 0.387707
O O4 0.569707 0.898700 0.365659
O O5 0.162043 0.848481 0.792079
O O6 0.971170 0.757884 0.822977
O O7 0.965092 0.711871 0.644803
O O8 0.777413 0.837339 0.604676
O O9 0.500000 0.624067 0.500000
O O10 0.580317 0.500000 0.651104
O O11 0.721160 0.641937 0.754449
O O12 0.321675 0.614839 0.567321
O O13 0.000000 0.697208 0.000000
O O14 0.735727 0.000000 0.218214
O O15 0.500000 0.914471 0.000000
O O16 0.000000 0.650291 0.500000
O O17 0.500000 0.936169 0.500000
O O18 0.200321 0.000000 0.433814
#
# Coordination Sequence:
#
# PCOD8060276 Si02
#       7
#     4   4   4   4   4   4   4
#     4  10  20  35  53  79 107 141 192 232 273 328
#     4  11  20  36  54  81 109 142 189 235 271 333
#     4  10  21  38  62  89 116 143 177 226 279 332
#     4  11  22  37  60  84 111 149 187 226 275 334
#     4  11  23  37  51  72 110 154 191 233 283 327
#     4  10  19  34  59  85 108 146 178 222 276 329
#     4  10  19  31  52  76 104 139 181 237 287 319
#
# _framework density 17.678840000000001
#
# number of rings (size 3 to 8) (size 9 to 14) (size 15 to 20)
#    0.000    1.571    4.286    1.714    0.000    0.571 
#    0.000    2.143    0.000    3.429    0.000    1.000 
#    0.000    0.000    0.000    0.000    0.000    0.000 
#
# Total GULP energy -347005.854145 kJ/mol
# GULP energy per Si atom -12393.066219 kJ/mol
# Density = 1.763860 g / cm^3
# Si number density = 17.678840 Si / 1000 Ang^3
#
#
#
# Elastic Constant Matrix: (Units=GPa)
#
#
# Indices 1 2 3 4 5 6 
#
# 1 127.8174 39.6520 41.7862 0.0000 -11.9323 0.0000
# 2 39.6520 74.0706 32.4482 0.0000 -8.3980 0.0000
# 3 41.7862 32.4482 93.0921 0.0000 -15.7252 0.0000
# 4 0.0000 0.0000 0.0000 21.7785 0.0000 -1.8245
# 5 -11.9323 -8.3980 -15.7252 0.0000 28.0035 0.0000
# 6 0.0000 0.0000 0.0000 -1.8245 0.0000 28.3301
#
#
#
# Elastic Compliance Matrix: (Units=1/GPa)
#
#
# Indices 1 2 3 4 5 6 
#
# 1 0.010154 -0.003989 -0.002915 0.000000 0.001493 0.000000
# 2 -0.003989 0.017587 -0.004127 0.000000 0.001257 0.000000
# 3 -0.002915 -0.004127 0.014440 0.000000 0.005629 0.000000
# 4 0.000000 0.000000 0.000000 0.046166 0.000000 0.002973
# 5 0.001493 0.001257 0.005629 0.000000 0.039884 0.000000
# 6 0.000000 0.000000 0.000000 0.002973 0.000000 0.035490
#
#
# Mechanical properties :
#
#
# Convention : Reuss Voigt Hill
#
# Bulk Modulus (GPa) = 49.70767 58.08365 53.89566
# Shear Modulus (GPa) = 25.97571 27.69535 26.83553
#
# Velocity S-wave (km/s) = 3.83732 3.96230 3.90031
# Velocity P-wave (km/s) = 6.91458 7.33889 7.12989
#
# Compressibility (1/GPa) = 0.02011762
#
# Stress axis : x y z
#
# Youngs Moduli (GPa) = 98.48758 56.86135 69.25293
#
# Poissons Ratio (x) = 0.22683 0.20186
# Poissons Ratio (y) = 0.39289 0.28581
# Poissons Ratio (z) = 0.28708 0.23467
#
# Static dielectric constant tensor:
#      x y z
#    x 3.401930 0.000000 -0.069380 
#    y 0.000000 3.180850 0.000000 
#    z -0.069380 0.000000 3.172060 
# 
# 
# High freq. dielectric constant tensor:
#      x y z
#    x 1.696630 0.000000 -0.005700 
#    y 0.000000 1.676580 0.000000 
#    z -0.005700 0.000000 1.673740 
# 
# From -- ./inp_files/30097.got.cif
#   From: 2010.06.25/outbox.cif.g09.slc.cpg/sg10_16_cif.got.tgz:30097.got - 2010.06.27 22:07:45.
