data_PCOD8060504
_publ_section_title
;
Structure prediction by ZEFSAII (Michael W. Deem and Ramdas Pophale) SiO2 
 PCOD8060504
Probable space group: P 2/M
;
_chemical_formula_sum "Si O2"
_cell_formula_units_Z 32
_cell_length_a 31.244999
_cell_length_b 9.261799
_cell_length_c 11.884114
_cell_angle_alpha 90.000000
_cell_angle_beta 30.064886
_cell_angle_gamma 90.000000
_cell_volume 1722.913356
_symmetry_space_group_name_H-M "P 2/M"
_symmetry_group_IT_number 10
_symmetry_cell_setting 'monoclinic'
loop_
_space_group_symop_operation_xyz
x,y,z
-x,y,-z
-x,-y,-z
x,-y,z
loop_
_atom_site_type_symbol
_atom_site_label
_atom_site_fract_x
_atom_site_fract_y
_atom_site_fract_z
Si Si1 0.402616 0.832993 0.218933
Si Si2 0.225193 0.828596 0.211134
Si Si3 0.521103 0.666720 0.575320
Si Si4 0.740367 0.668177 0.333848
Si Si5 0.620418 0.833537 0.982510
Si Si6 0.281358 0.335531 0.867858
Si Si7 0.915053 0.671009 0.337019
Si Si8 0.894669 0.670672 0.130714
O O1 0.347538 0.746425 0.434816
O O2 0.400946 0.000000 0.257813
O O3 0.500000 0.775755 0.000000
O O4 0.360483 0.808206 0.192243
O O5 0.137243 0.757231 0.450666
O O6 0.215581 0.000000 0.232997
O O7 0.300512 0.775664 0.123208
O O8 0.243387 0.774913 0.043996
O O9 0.500000 0.728584 0.500000
O O10 0.495126 0.500000 0.641919
O O11 0.465998 0.750320 0.792253
O O12 0.619251 0.694319 0.378462
O O13 0.727124 0.500000 0.390558
O O14 0.763447 0.691847 0.150287
O O15 0.818796 0.735485 0.227094
O O16 0.603801 0.000000 0.047255
O O17 0.266787 0.500000 0.943021
O O18 0.904427 0.500000 0.379977
O O19 0.881709 0.718254 0.289418
O O20 0.013461 0.721398 0.125228
O O21 0.893373 0.500000 0.127331
#
# Coordination Sequence:
#
# PCOD8060504 Si02
#       8
#     4   4   4   4   4   4   4   4
#     4  10  21  36  52  74 107 141 171 206 252 307
#     4  11  22  34  50  76 106 134 171 214 254 299
#     4  10  19  32  50  72  99 132 174 217 253 294
#     4  10  20  35  56  79 103 132 173 216 253 300
#     4  10  21  34  50  74 103 136 172 210 255 305
#     4  10  21  36  52  73 102 137 174 213 256 301
#     4   9  17  33  58  81 105 132 162 204 257 311
#     4   8  16  33  57  84 105 129 165 206 255 310
#
# _framework density 18.57319
#
# number of rings (size 3 to 8) (size 9 to 14) (size 15 to 20)
#    0.000    2.250    1.250    2.625    0.000    2.500 
#    0.000    2.500    0.000    3.750    0.000    0.000 
#    0.000    0.000    0.000    0.000    0.000    0.000 
#
# Total GULP energy -396856.844881 kJ/mol
# GULP energy per Si atom -12401.776403 kJ/mol
# Density = 1.853092 g / cm^3
# Si number density = 18.573190 Si / 1000 Ang^3
#
#
#
# Elastic Constant Matrix: (Units=GPa)
#
#
# Indices 1 2 3 4 5 6 
#
# 1 94.6450 25.6516 38.0402 0.0000 -6.9699 0.0000
# 2 25.6516 53.9717 46.2271 0.0000 5.9953 0.0000
# 3 38.0402 46.2271 104.3189 0.0000 3.3531 0.0000
# 4 0.0000 0.0000 0.0000 4.3231 0.0000 4.2802
# 5 -6.9699 5.9953 3.3531 0.0000 26.4973 0.0000
# 6 0.0000 0.0000 0.0000 4.2802 0.0000 19.7190
#
#
#
# Elastic Compliance Matrix: (Units=1/GPa)
#
#
# Indices 1 2 3 4 5 6 
#
# 1 0.013324 -0.004152 -0.003175 0.000000 0.004846 0.000000
# 2 -0.004152 0.031859 -0.012388 0.000000 -0.006733 0.000000
# 3 -0.003175 -0.012388 0.016236 0.000000 -0.000087 0.000000
# 4 0.000000 0.000000 0.000000 0.294633 0.000000 -0.063953
# 5 0.004846 -0.006733 -0.000087 0.000000 0.040549 0.000000
# 6 0.000000 0.000000 0.000000 -0.063953 0.000000 0.064594
#
#
# Mechanical properties :
#
#
# Convention : Reuss Voigt Hill
#
# Bulk Modulus (GPa) = 45.47279 52.53037 49.00158
# Shear Modulus (GPa) = 9.84343 19.64235 14.74289
#
# Velocity S-wave (km/s) = 2.30463 3.25555 2.82045
# Velocity P-wave (km/s) = 5.62298 6.51734 6.08661
#
# Compressibility (1/GPa) = 0.02199117
#
# Stress axis : x y z
#
# Youngs Moduli (GPa) = 75.05335 31.38787 61.59271
#
# Poissons Ratio (x) = 0.13032 0.19553
# Poissons Ratio (y) = 0.31161 0.76298
# Poissons Ratio (z) = 0.23826 0.38882
#
# Static dielectric constant tensor:
#      x y z
#    x 3.665570 0.000000 -0.141770 
#    y 0.000000 3.169560 0.000000 
#    z -0.141770 0.000000 3.321090 
# 
# 
# High freq. dielectric constant tensor:
#      x y z
#    x 1.724550 0.000000 0.000730 
#    y 0.000000 1.699830 0.000000 
#    z 0.000730 0.000000 1.716850 
# 
# From -- ./inp_files/58203.got.cif
#   From: 2010.06.25/outbox.cif.g09.slc.cpg/sg10_30_cif.got.tgz:58203.got - 2010.06.27 22:07:45.
