data_PCOD8060449
_publ_section_title
;
Structure prediction by ZEFSAII (Michael W. Deem and Ramdas Pophale) SiO2 
 PCOD8060449
Probable space group: P 2/M
;
_chemical_formula_sum "Si O2"
_cell_formula_units_Z 32
_cell_length_a 21.408759
_cell_length_b 8.833767
_cell_length_c 11.736180
_cell_angle_alpha 90.000000
_cell_angle_beta 127.686925
_cell_angle_gamma 90.000000
_cell_volume 1756.466905
_symmetry_space_group_name_H-M "P 2/M"
_symmetry_group_IT_number 10
_symmetry_cell_setting 'monoclinic'
loop_
_space_group_symop_operation_xyz
x,y,z
-x,y,-z
-x,-y,-z
x,-y,z
loop_
_atom_site_type_symbol
_atom_site_label
_atom_site_fract_x
_atom_site_fract_y
_atom_site_fract_z
Si Si1 0.464759 0.823124 0.337817
Si Si2 0.259816 0.180058 0.345941
Si Si3 0.325734 0.830509 0.761033
Si Si4 0.082704 0.321771 0.549725
Si Si5 0.296255 0.324137 0.159791
Si Si6 0.162679 0.832062 0.444798
Si Si7 0.599151 0.678642 0.357123
Si Si8 0.762820 0.674782 0.151619
O O1 0.500000 0.784675 0.500000
O O2 0.374748 0.772764 0.233751
O O3 0.511299 0.727248 0.294674
O O4 0.471314 0.000000 0.316606
O O5 0.245920 0.260520 0.209601
O O6 0.184136 0.222829 0.340570
O O7 0.341003 0.238739 0.490601
O O8 0.267723 0.000000 0.340780
O O9 0.244285 0.830936 0.602843
O O10 0.387957 0.730516 0.759198
O O11 0.309842 0.760271 0.867859
O O12 0.359340 0.000000 0.812517
O O13 0.076898 0.500000 0.547249
O O14 0.099506 0.274464 0.437357
O O15 0.152512 0.262364 0.710477
O O16 0.000000 0.250117 0.500000
O O17 0.317305 0.500000 0.201669
O O18 0.241964 0.299838 0.988497
O O19 0.126397 0.000000 0.401486
O O20 0.610660 0.500000 0.379724
O O21 0.754797 0.500000 0.176658
#
# Coordination Sequence:
#
# PCOD8060449 Si02
#       8
#     4   4   4   4   4   4   4   4
#     4  11  22  35  51  71 100 134 171 217 259 299
#     4  10  19  32  49  72 101 133 172 213 252 298
#     4   9  17  31  51  73  99 132 170 209 254 303
#     4   9  17  31  54  81 106 132 162 200 247 298
#     4  11  22  34  51  74 101 135 171 211 258 306
#     4   8  16  29  47  73 102 129 162 206 247 288
#     4  11  20  31  51  75 100 129 168 217 263 302
#     4   9  19  35  52  75 106 134 167 208 251 302
#
# _framework density 18.218391
#
# number of rings (size 3 to 8) (size 9 to 14) (size 15 to 20)
#    0.000    2.250    1.250    3.375    0.000    5.250 
#    0.000    0.625    0.000    4.500    0.000    5.250 
#    0.000    0.000    0.000    0.000    0.000    0.000 
#
# Total GULP energy -396763.101858 kJ/mol
# GULP energy per Si atom -12398.846933 kJ/mol
# Density = 1.817693 g / cm^3
# Si number density = 18.218391 Si / 1000 Ang^3
#
#
#
# Elastic Constant Matrix: (Units=GPa)
#
#
# Indices 1 2 3 4 5 6 
#
# 1 133.3539 32.5779 42.7509 0.0000 -16.1970 0.0000
# 2 32.5779 64.4734 24.2426 0.0000 -8.2074 0.0000
# 3 42.7509 24.2426 58.0501 0.0000 -14.1994 0.0000
# 4 0.0000 0.0000 0.0000 16.0823 0.0000 -7.8498
# 5 -16.1970 -8.2074 -14.1994 0.0000 25.6362 0.0000
# 6 0.0000 0.0000 0.0000 -7.8498 0.0000 33.3011
#
#
#
# Elastic Compliance Matrix: (Units=1/GPa)
#
#
# Indices 1 2 3 4 5 6 
#
# 1 0.010342 -0.002701 -0.005901 0.000000 0.002401 0.000000
# 2 -0.002701 0.019185 -0.005711 0.000000 0.001272 0.000000
# 3 -0.005901 -0.005711 0.026140 0.000000 0.008921 0.000000
# 4 0.000000 0.000000 0.000000 0.070265 0.000000 0.016563
# 5 0.002401 0.001272 0.008921 0.000000 0.045873 0.000000
# 6 0.000000 0.000000 0.000000 0.016563 0.000000 0.033933
#
#
# Mechanical properties :
#
#
# Convention : Reuss Voigt Hill
#
# Bulk Modulus (GPa) = 36.98354 50.55781 43.77068
# Shear Modulus (GPa) = 20.54420 25.42431 22.98425
#
# Velocity S-wave (km/s) = 3.36171 3.73973 3.55575
# Velocity P-wave (km/s) = 5.95083 6.81606 6.39809
#
# Compressibility (1/GPa) = 0.02703906
#
# Stress axis : x y z
#
# Youngs Moduli (GPa) = 96.69162 52.12507 38.25594
#
# Poissons Ratio (x) = 0.14081 0.22575
# Poissons Ratio (y) = 0.26119 0.21849
# Poissons Ratio (z) = 0.57059 0.29770
#
# Static dielectric constant tensor:
#      x y z
#    x 3.688750 0.000000 -0.249520 
#    y 0.000000 3.423210 0.000000 
#    z -0.249520 0.000000 3.126850 
# 
# 
# High freq. dielectric constant tensor:
#      x y z
#    x 1.712340 0.000000 -0.024120 
#    y 0.000000 1.712100 0.000000 
#    z -0.024120 0.000000 1.661650 
# 
# From -- ./inp_files/55354.got.cif
#   From: 2010.06.25/outbox.cif.g09.slc.cpg/sg10_28_cif.got.tgz:55354.got - 2010.06.27 22:07:45.
