data_PCOD8060780
_publ_section_title
;
Structure prediction by ZEFSAII (Michael W. Deem and Ramdas Pophale) SiO2 
 PCOD8060780
Probable space group: P 2/M
;
_chemical_formula_sum "Si O2"
_cell_formula_units_Z 24
_cell_length_a 15.260584
_cell_length_b 13.263343
_cell_length_c 13.046986
_cell_angle_alpha 90.000000
_cell_angle_beta 150.499058
_cell_angle_gamma 90.000000
_cell_volume 1300.426452
_symmetry_space_group_name_H-M "P 2/M"
_symmetry_group_IT_number 10
_symmetry_cell_setting 'monoclinic'
loop_
_space_group_symop_operation_xyz
x,y,z
-x,y,-z
-x,-y,-z
x,-y,z
loop_
_atom_site_type_symbol
_atom_site_label
_atom_site_fract_x
_atom_site_fract_y
_atom_site_fract_z
Si Si1 0.960194 0.302716 0.077485
Si Si2 0.313411 0.881403 0.916843
Si Si3 0.576870 0.617207 0.684747
Si Si4 0.702908 0.191253 0.322158
Si Si5 0.989797 0.886533 0.232705
Si Si6 0.736551 0.385823 0.477944
O O1 0.997226 0.185906 0.141907
O O2 0.086621 0.373687 0.273979
O O3 0.757087 0.326337 0.897802
O O4 0.000000 0.324023 0.000000
O O5 0.254477 0.823519 0.753968
O O6 0.174455 0.853983 0.863177
O O7 0.319220 0.000000 0.898572
O O8 0.504333 0.842766 0.148039
O O9 0.500000 0.661001 0.500000
O O10 0.620773 0.500000 0.716225
O O11 0.435323 0.638514 0.628940
O O12 0.735049 0.309126 0.380944
O O13 0.830364 0.121132 0.519158
O O14 0.967310 0.000000 0.169126
O O15 0.730958 0.500000 0.429744
#
# Coordination Sequence:
#
# PCOD8060780 Si02
#       6
#     4   4   4   4   4   4
#     4  11  21  34  54  77 104 138 175 215 256 302
#     4  10  19  34  57  80 103 132 174 216 254 304
#     4  10  19  32  53  76  99 130 173 216 251 293
#     4  10  19  33  55  79 104 133 170 214 257 303
#     4  10  21  35  53  77 106 137 171 213 259 306
#     4  10  21  35  52  78 108 137 171 211 256 306
#
# _framework density 18.455483000000001
#
# number of rings (size 3 to 8) (size 9 to 14) (size 15 to 20)
#    0.000    1.833    1.667    4.000    0.000    2.333 
#    0.000    1.667    0.000    9.500    0.000    0.000 
#    0.000    0.000    0.000    0.000    0.000    0.000 
#
# Total GULP energy -297686.317576 kJ/mol
# GULP energy per Si atom -12403.596566 kJ/mol
# Density = 1.841348 g / cm^3
# Si number density = 18.455483 Si / 1000 Ang^3
#
#
#
# Elastic Constant Matrix: (Units=GPa)
#
#
# Indices 1 2 3 4 5 6 
#
# 1 30.2218 27.5833 17.4798 0.0000 0.7499 0.0000
# 2 27.5833 87.0636 20.9123 0.0000 1.4452 0.0000
# 3 17.4798 20.9123 100.3473 0.0000 17.9655 0.0000
# 4 0.0000 0.0000 0.0000 15.5396 0.0000 8.1874
# 5 0.7499 1.4452 17.9655 0.0000 20.9135 0.0000
# 6 0.0000 0.0000 0.0000 8.1874 0.0000 20.4860
#
#
#
# Elastic Compliance Matrix: (Units=1/GPa)
#
#
# Indices 1 2 3 4 5 6 
#
# 1 0.049800 -0.014281 -0.006565 0.000000 0.004841 0.000000
# 2 -0.014281 0.016230 -0.000928 0.000000 0.000188 0.000000
# 3 -0.006565 -0.000928 0.013293 0.000000 -0.011120 0.000000
# 4 0.000000 0.000000 0.000000 0.081517 0.000000 -0.032579
# 5 0.004841 0.000188 -0.011120 0.000000 0.057182 0.000000
# 6 0.000000 0.000000 0.000000 -0.032579 0.000000 0.061834
#
#
# Mechanical properties :
#
#
# Convention : Reuss Voigt Hill
#
# Bulk Modulus (GPa) = 27.95315 38.84262 33.39789
# Shear Modulus (GPa) = 14.91068 21.49832 18.20450
#
# Velocity S-wave (km/s) = 2.84549 3.41673 3.14411
# Velocity P-wave (km/s) = 5.09656 6.05456 5.59610
#
# Compressibility (1/GPa) = 0.03577414
#
# Stress axis : x y z
#
# Youngs Moduli (GPa) = 20.08036 61.61358 75.22576
#
# Poissons Ratio (x) = 0.87990 0.49388
# Poissons Ratio (y) = 0.28677 0.06984
# Poissons Ratio (z) = 0.13183 0.05720
#
# Static dielectric constant tensor:
#      x y z
#    x 3.257220 0.000000 0.167550 
#    y 0.000000 3.358710 0.000000 
#    z 0.167550 0.000000 3.482130 
# 
# 
# High freq. dielectric constant tensor:
#      x y z
#    x 1.705430 0.000000 0.015750 
#    y 0.000000 1.712860 0.000000 
#    z 0.015750 0.000000 1.727520 
# 
# From -- ./inp_files/51687.got.cif
#   From: 2010.06.25/outbox.cif.g09.slc.cpg/sg10_26_cif.got.tgz:51687.got - 2010.06.27 22:07:45.
