data_PCOD8060447
_publ_section_title
;
Structure prediction by ZEFSAII (Michael W. Deem and Ramdas Pophale) SiO2 
 PCOD8060447
Probable space group: P 2/M
;
_chemical_formula_sum "Si O2"
_cell_formula_units_Z 32
_cell_length_a 18.006730
_cell_length_b 13.814491
_cell_length_c 21.489130
_cell_angle_alpha 90.000000
_cell_angle_beta 160.874150
_cell_angle_gamma 90.000000
_cell_volume 1751.423017
_symmetry_space_group_name_H-M "P 2/M"
_symmetry_group_IT_number 10
_symmetry_cell_setting 'monoclinic'
loop_
_space_group_symop_operation_xyz
x,y,z
-x,y,-z
-x,-y,-z
x,-y,z
loop_
_atom_site_type_symbol
_atom_site_label
_atom_site_fract_x
_atom_site_fract_y
_atom_site_fract_z
Si Si1 0.838777 0.112108 0.313184
Si Si2 0.403111 0.892987 0.145088
Si Si3 0.921020 0.892953 0.787290
Si Si4 0.825244 0.391925 0.417022
Si Si5 0.491511 0.760253 0.103393
Si Si6 0.251718 0.887580 0.224228
Si Si7 0.645566 0.842960 0.455574
Si Si8 0.002399 0.748355 0.660444
O O1 0.621031 0.182412 0.150466
O O2 0.974185 0.151386 0.360118
O O3 0.000000 0.122639 0.500000
O O4 0.767468 0.000000 0.245887
O O5 0.517051 0.830478 0.182353
O O6 0.565699 0.904395 0.333165
O O7 0.359883 0.000000 0.083064
O O8 0.165379 0.840833 0.975823
O O9 0.754536 0.849357 0.708630
O O10 0.808598 0.901236 0.630839
O O11 0.977489 0.000000 0.857516
O O12 0.754412 0.500000 0.381775
O O13 0.605553 0.338827 0.215809
O O14 0.000000 0.395688 0.500000
O O15 0.945377 0.340591 0.570495
O O16 0.238086 0.731860 0.883145
O O17 0.421810 0.817665 0.319807
O O18 0.336702 0.000000 0.285824
O O19 0.000000 0.875411 0.000000
O O20 0.795714 0.754276 0.547045
#
# Coordination Sequence:
#
# PCOD8060447 Si02
#       8
#     4   4   4   4   4   4   4   4
#     4  11  22  38  57  79 117 164 198 228 269 324
#     4  11  21  33  52  79 115 155 199 238 274 326
#     4  10  20  33  48  74 109 155 203 239 275 327
#     4  11  24  45  67  87 111 141 186 243 303 354
#     4  12  22  40  59  84 115 152 190 235 283 341
#     4  10  19  32  49  71 108 157 206 243 276 325
#     4  12  21  34  52  75 109 155 192 241 281 325
#     4  12  24  38  59  87 117 146 194 238 285 343
#
# _framework density 18.270858
#
# number of rings (size 3 to 8) (size 9 to 14) (size 15 to 20)
#    0.000    0.875    6.250    2.250    0.000    5.500 
#    0.000    1.250    0.000    0.000    0.000    0.000 
#    0.000    6.500    0.000    0.000    0.000    0.000 
#
# Total GULP energy -396517.601068 kJ/mol
# GULP energy per Si atom -12391.175033 kJ/mol
# Density = 1.822927 g / cm^3
# Si number density = 18.270858 Si / 1000 Ang^3
#
#
#
# Elastic Constant Matrix: (Units=GPa)
#
#
# Indices 1 2 3 4 5 6 
#
# 1 110.9034 37.8243 40.9756 0.0000 3.3229 0.0000
# 2 37.8243 93.5483 40.5078 0.0000 2.2877 0.0000
# 3 40.9756 40.5078 115.9715 0.0000 -2.0769 0.0000
# 4 0.0000 0.0000 0.0000 15.3582 0.0000 -4.5312
# 5 3.3229 2.2877 -2.0769 0.0000 38.1791 0.0000
# 6 0.0000 0.0000 0.0000 -4.5312 0.0000 21.7747
#
#
#
# Elastic Compliance Matrix: (Units=1/GPa)
#
#
# Indices 1 2 3 4 5 6 
#
# 1 0.011211 -0.003284 -0.002831 0.000000 -0.000933 0.000000
# 2 -0.003284 0.013595 -0.003601 0.000000 -0.000725 0.000000
# 3 -0.002831 -0.003601 0.010900 0.000000 0.001055 0.000000
# 4 0.000000 0.000000 0.000000 0.069371 0.000000 0.014436
# 5 -0.000933 -0.000725 0.001055 0.000000 0.026374 0.000000
# 6 0.000000 0.000000 0.000000 0.014436 0.000000 0.048929
#
#
# Mechanical properties :
#
#
# Convention : Reuss Voigt Hill
#
# Bulk Modulus (GPa) = 61.45085 62.11539 61.78312
# Shear Modulus (GPa) = 24.36224 28.47009 26.41616
#
# Velocity S-wave (km/s) = 3.65553 3.95172 3.80650
# Velocity P-wave (km/s) = 7.17798 7.40893 7.29437
#
# Compressibility (1/GPa) = 0.01627317
#
# Stress axis : x y z
#
# Youngs Moduli (GPa) = 89.20004 73.55843 91.74636
#
# Poissons Ratio (x) = 0.24159 0.25969
# Poissons Ratio (y) = 0.29296 0.33038
# Poissons Ratio (z) = 0.25249 0.26489
#
# Static dielectric constant tensor:
#      x y z
#    x 3.744780 0.000000 0.085800 
#    y 0.000000 3.122460 0.000000 
#    z 0.085800 0.000000 3.534900 
# 
# 
# High freq. dielectric constant tensor:
#      x y z
#    x 1.724280 0.000000 -0.001990 
#    y 0.000000 1.629340 0.000000 
#    z -0.001990 0.000000 1.733820 
# 
# From -- ./inp_files/85979.got.cif
#   From: 2010.06.25/outbox.cif.g09.slc.cpg/sg10_43_cif.got.tgz:85979.got - 2010.06.27 22:07:45.
