data_PCOD8060316
_publ_section_title
;
Structure prediction by ZEFSAII (Michael W. Deem and Ramdas Pophale) SiO2 
 PCOD8060316
Probable space group: P 2/M
;
_chemical_formula_sum "Si O2"
_cell_formula_units_Z 28
_cell_length_a 9.316533
_cell_length_b 12.894434
_cell_length_c 13.925989
_cell_angle_alpha 90.000000
_cell_angle_beta 115.691891
_cell_angle_gamma 90.000000
_cell_volume 1507.558413
_symmetry_space_group_name_H-M "P 2/M"
_symmetry_group_IT_number 10
_symmetry_cell_setting 'monoclinic'
loop_
_space_group_symop_operation_xyz
x,y,z
-x,y,-z
-x,-y,-z
x,-y,z
loop_
_atom_site_type_symbol
_atom_site_label
_atom_site_fract_x
_atom_site_fract_y
_atom_site_fract_z
Si Si1 0.598277 0.257206 0.938237
Si Si2 0.845626 0.381887 0.889250
Si Si3 0.136190 0.210690 0.257727
Si Si4 0.008428 0.879391 0.612587
Si Si5 0.456182 0.117188 0.385138
Si Si6 0.632708 0.116031 0.250683
Si Si7 0.106176 0.881411 0.944035
O O1 0.689270 0.343411 0.901744
O O2 0.471832 0.198499 0.835798
O O3 0.500000 0.306039 0.000000
O O4 0.728033 0.177933 0.018735
O O5 0.813553 0.500000 0.850492
O O6 0.880913 0.321831 0.799148
O O7 0.000000 0.371223 0.000000
O O8 0.314827 0.174776 0.287767
O O9 0.107957 0.201225 0.364380
O O10 0.004462 0.129708 0.180748
O O11 0.181926 0.861946 0.709217
O O12 0.000000 0.844736 0.500000
O O13 0.954202 0.000000 0.606728
O O14 0.500000 0.170077 0.500000
O O15 0.605779 0.122913 0.357671
O O16 0.399910 0.000000 0.389047
O O17 0.588941 0.000000 0.201438
O O18 0.149259 0.000000 0.976690
O O19 0.000000 0.833629 0.000000
#
# Coordination Sequence:
#
# PCOD8060316 Si02
#       7
#     4   4   4   4   4   4   4
#     4  12  22  36  56  83 116 145 182 228 295 352
#     4  11  24  44  63  83 108 141 197 253 298 346
#     4  12  19  36  59  80 107 155 195 228 280 332
#     4  10  21  35  54  86 124 158 191 224 265 331
#     4  10  19  31  52  83 115 148 186 225 267 328
#     4  10  20  33  49  78 121 155 178 217 271 333
#     4  11  20  32  52  83 120 155 189 224 266 343
#
# _framework density 18.573077999999999
#
# number of rings (size 3 to 8) (size 9 to 14) (size 15 to 20)
#    0.000    1.143    4.286    3.429    0.000    7.143 
#    0.000    0.000    0.000    0.857    0.000    0.000 
#    0.000    0.000    0.000    0.000    0.000    0.000 
#
# Total GULP energy -347112.948627 kJ/mol
# GULP energy per Si atom -12396.891022 kJ/mol
# Density = 1.853080 g / cm^3
# Si number density = 18.573078 Si / 1000 Ang^3
#
#
#
# Elastic Constant Matrix: (Units=GPa)
#
#
# Indices 1 2 3 4 5 6 
#
# 1 105.7521 38.1952 22.1693 0.0000 -18.1249 0.0000
# 2 38.1952 91.5679 32.5866 0.0000 -9.6521 0.0000
# 3 22.1693 32.5866 70.9674 0.0000 -9.3841 0.0000
# 4 0.0000 0.0000 0.0000 18.5863 0.0000 -0.8454
# 5 -18.1249 -9.6521 -9.3841 0.0000 34.9737 0.0000
# 6 0.0000 0.0000 0.0000 -0.8454 0.0000 14.2310
#
#
#
# Elastic Compliance Matrix: (Units=1/GPa)
#
#
# Indices 1 2 3 4 5 6 
#
# 1 0.012001 -0.004057 -0.001256 0.000000 0.004763 0.000000
# 2 -0.004057 0.014571 -0.005360 0.000000 0.000481 0.000000
# 3 -0.001256 -0.005360 0.017276 0.000000 0.002505 0.000000
# 4 0.000000 0.000000 0.000000 0.053949 0.000000 0.003205
# 5 0.004763 0.000481 0.002505 0.000000 0.031866 0.000000
# 6 0.000000 0.000000 0.000000 0.003205 0.000000 0.070460
#
#
# Mechanical properties :
#
#
# Convention : Reuss Voigt Hill
#
# Bulk Modulus (GPa) = 44.44070 50.46550 47.45310
# Shear Modulus (GPa) = 21.83702 25.24729 23.54215
#
# Velocity S-wave (km/s) = 3.43262 3.69093 3.56412
# Velocity P-wave (km/s) = 6.29999 6.73753 6.52243
#
# Compressibility (1/GPa) = 0.02250189
#
# Stress axis : x y z
#
# Youngs Moduli (GPa) = 83.32684 68.62876 57.88429
#
# Poissons Ratio (x) = 0.27841 0.07273
# Poissons Ratio (y) = 0.33803 0.31025
# Poissons Ratio (z) = 0.10469 0.36784
#
# Static dielectric constant tensor:
#      x y z
#    x 3.627870 0.000000 -0.074300 
#    y 0.000000 3.065770 0.000000 
#    z -0.074300 0.000000 3.427080 
# 
# 
# High freq. dielectric constant tensor:
#      x y z
#    x 1.741530 0.000000 -0.002110 
#    y 0.000000 1.664200 0.000000 
#    z -0.002110 0.000000 1.727090 
# 
# From -- ./inp_files/61266.got.cif
#   From: 2010.06.25/outbox.cif.g09.slc.cpg/sg10_31_cif.got.tgz:61266.got - 2010.06.27 22:07:45.
