data_PCOD8060748
_publ_section_title
;
Structure prediction by ZEFSAII (Michael W. Deem and Ramdas Pophale) SiO2 
 PCOD8060748
Probable space group: P 2/M
;
_chemical_formula_sum "Si O2"
_cell_formula_units_Z 24
_cell_length_a 15.064334
_cell_length_b 20.104349
_cell_length_c 13.242579
_cell_angle_alpha 90.000000
_cell_angle_beta 160.513915
_cell_angle_gamma 90.000000
_cell_volume 1337.857371
_symmetry_space_group_name_H-M "P 2/M"
_symmetry_group_IT_number 10
_symmetry_cell_setting 'monoclinic'
loop_
_space_group_symop_operation_xyz
x,y,z
-x,y,-z
-x,-y,-z
x,-y,z
loop_
_atom_site_type_symbol
_atom_site_label
_atom_site_fract_x
_atom_site_fract_y
_atom_site_fract_z
Si Si1 0.527732 0.641414 0.144806
Si Si2 0.584216 0.500000 0.284071
Si Si3 0.849700 0.500000 0.013151
Si Si4 0.075696 0.298600 0.789416
Si Si5 0.219627 0.357577 0.153034
Si Si6 0.554011 0.926114 0.175408
Si Si7 0.054398 0.155879 0.676300
O O1 0.594220 0.563619 0.222516
O O2 0.765502 0.683172 0.449210
O O3 0.500000 0.664002 0.000000
O O4 0.250969 0.655157 0.904203
O O5 0.836176 0.500000 0.628506
O O6 0.315323 0.500000 0.060523
O O7 0.778258 0.435279 0.872403
O O8 0.119373 0.222785 0.805477
O O9 0.168737 0.310441 0.002998
O O10 0.500000 0.337224 0.500000
O O11 0.000000 0.341787 0.000000
O O12 0.807991 0.879811 0.466139
O O13 0.599907 0.000000 0.270238
O O14 0.500000 0.932986 0.000000
O O15 0.302421 0.892731 0.958822
O O16 0.000000 0.171627 0.500000
#
# Coordination Sequence:
#
# PCOD8060748 Si02
#       7
#     4   2   2   4   4   4   4
#     4  12  23  38  57  78 110 149 183 225 275 327
#     4  12  21  39  56  79 106 141 182 231 273 336
#     4  12  22  41  61  79 104 133 183 243 300 342
#     4  12  24  40  56  81 114 143 189 231 273 342
#     4  12  24  41  61  81 104 139 183 241 300 343
#     4   9  17  30  50  78 113 149 183 214 246 298
#     4  10  19  32  52  79 112 150 180 210 261 316
#
# _framework density 17.939132000000001
#
# number of rings (size 3 to 8) (size 9 to 14) (size 15 to 20)
#    0.000    0.833    3.333    5.750    0.000    3.333 
#    0.000    2.500    0.000    0.000    0.000    0.000 
#    0.000   13.333    0.000    0.000    0.000    0.000 
#
# Total GULP energy -297732.251499 kJ/mol
# GULP energy per Si atom -12405.510479 kJ/mol
# Density = 1.789830 g / cm^3
# Si number density = 17.939132 Si / 1000 Ang^3
#
#
#
# Elastic Constant Matrix: (Units=GPa)
#
#
# Indices 1 2 3 4 5 6 
#
# 1 89.2166 22.4966 38.3337 0.0000 -2.4702 0.0000
# 2 22.4966 109.6127 37.6675 0.0000 -12.0528 0.0000
# 3 38.3337 37.6675 103.3598 0.0000 3.4225 0.0000
# 4 0.0000 0.0000 0.0000 17.7877 0.0000 13.2095
# 5 -2.4702 -12.0528 3.4225 0.0000 32.6371 0.0000
# 6 0.0000 0.0000 0.0000 13.2095 0.0000 88.6033
#
#
#
# Elastic Compliance Matrix: (Units=1/GPa)
#
#
# Indices 1 2 3 4 5 6 
#
# 1 0.013508 -0.001045 -0.004666 0.000000 0.001126 0.000000
# 2 -0.001045 0.011137 -0.003818 0.000000 0.004434 0.000000
# 3 -0.004666 -0.003818 0.012900 0.000000 -0.003116 0.000000
# 4 0.000000 0.000000 0.000000 0.063218 0.000000 -0.009425
# 5 0.001126 0.004434 -0.003116 0.000000 0.032689 0.000000
# 6 0.000000 0.000000 0.000000 -0.009425 0.000000 0.012691
#
#
# Mechanical properties :
#
#
# Convention : Reuss Voigt Hill
#
# Bulk Modulus (GPa) = 54.09245 55.46496 54.77870
# Shear Modulus (GPa) = 29.17743 41.38504 35.28124
#
# Velocity S-wave (km/s) = 4.03733 4.80830 4.43958
# Velocity P-wave (km/s) = 7.20778 7.86206 7.54202
#
# Compressibility (1/GPa) = 0.01848687
#
# Stress axis : x y z
#
# Youngs Moduli (GPa) = 74.02819 89.79009 77.51861
#
# Poissons Ratio (x) = 0.09384 0.36173
# Poissons Ratio (y) = 0.07736 0.29596
# Poissons Ratio (z) = 0.34544 0.34281
#
# Static dielectric constant tensor:
#      x y z
#    x 3.314100 0.000000 0.243190 
#    y 0.000000 3.402050 0.000000 
#    z 0.243190 0.000000 3.398470 
# 
# 
# High freq. dielectric constant tensor:
#      x y z
#    x 1.681930 0.000000 0.029520 
#    y 0.000000 1.691000 0.000000 
#    z 0.029520 0.000000 1.697300 
# 
# From -- ./inp_files/52067.got.cif
#   From: 2010.06.25/outbox.cif.g09.slc.cpg/sg10_27_cif.got.tgz:52067.got - 2010.06.27 22:07:45.
