data_PCOD8060972
_publ_section_title
;
Structure prediction by ZEFSAII (Michael W. Deem and Ramdas Pophale) SiO2 
 PCOD8060972
Probable space group: P 2/M
;
_chemical_formula_sum "Si O2"
_cell_formula_units_Z 28
_cell_length_a 21.200206
_cell_length_b 8.488245
_cell_length_c 14.317295
_cell_angle_alpha 90.000000
_cell_angle_beta 147.187534
_cell_angle_gamma 90.000000
_cell_volume 1396.146411
_symmetry_space_group_name_H-M "P 2/M"
_symmetry_group_IT_number 10
_symmetry_cell_setting 'monoclinic'
loop_
_space_group_symop_operation_xyz
x,y,z
-x,y,-z
-x,-y,-z
x,-y,z
loop_
_atom_site_type_symbol
_atom_site_label
_atom_site_fract_x
_atom_site_fract_y
_atom_site_fract_z
Si Si1 0.633387 0.815215 0.666267
Si Si2 0.116888 0.688098 0.693475
Si Si3 0.425473 0.687305 0.772881
Si Si4 0.972681 0.315527 0.865385
Si Si5 0.163884 0.687277 0.960767
Si Si6 0.713455 0.315215 0.572770
Si Si7 0.333915 0.312382 0.851453
O O1 0.500000 0.748713 0.500000
O O2 0.709180 0.741824 0.844965
O O3 0.697630 0.775752 0.649492
O O4 0.630553 0.000000 0.678295
O O5 0.115988 0.500000 0.693651
O O6 0.218858 0.756719 0.755076
O O7 0.000000 0.753538 0.500000
O O8 0.137338 0.752231 0.823788
O O9 0.418397 0.500000 0.762517
O O10 0.380476 0.751518 0.617788
O O11 0.345660 0.748672 0.759592
O O12 0.556615 0.746835 0.951027
O O13 0.999374 0.500000 0.902006
O O14 0.837354 0.281169 0.677153
O O15 0.000000 0.239315 0.000000
O O16 0.059226 0.243461 0.895153
O O17 0.163959 0.500000 0.960050
O O18 0.699743 0.500000 0.577633
O O19 0.332181 0.500000 0.850046
#
# Coordination Sequence:
#
# PCOD8060972 Si02
#       7
#     4   4   4   4   4   4   4
#     4  11  25  41  54  74 107 142 177 223 277 323
#     4   9  18  28  44  74 110 142 171 210 261 312
#     4   8  15  25  43  69 101 136 167 210 257 302
#     4   9  16  29  48  76 107 131 165 215 262 299
#     4  10  20  35  56  80 109 145 181 219 260 315
#     4  10  19  32  55  81 104 137 178 216 260 318
#     4   8  14  26  39  65 105 135 167 209 257 304
#
# _framework density 20.055202000000001
#
# number of rings (size 3 to 8) (size 9 to 14) (size 15 to 20)
#    0.000    2.714    1.429    1.286    4.000    1.143 
#    0.000    1.429    0.000    0.429    0.000    3.000 
#    0.000    0.000    0.000    0.000    0.000    0.000 
#
# Total GULP energy -347020.780402 kJ/mol
# GULP energy per Si atom -12393.599300 kJ/mol
# Density = 2.000956 g / cm^3
# Si number density = 20.055202 Si / 1000 Ang^3
#
#
#
# Elastic Constant Matrix: (Units=GPa)
#
#
# Indices 1 2 3 4 5 6 
#
# 1 131.2647 8.2359 80.8244 0.0000 5.2234 0.0000
# 2 8.2359 13.3464 10.0154 0.0000 -0.0869 0.0000
# 3 80.8244 10.0154 158.9434 0.0000 -10.3076 0.0000
# 4 0.0000 0.0000 0.0000 9.1281 0.0000 3.2767
# 5 5.2234 -0.0869 -10.3076 0.0000 43.1819 0.0000
# 6 0.0000 0.0000 0.0000 3.2767 0.0000 3.7256
#
#
#
# Elastic Compliance Matrix: (Units=1/GPa)
#
#
# Indices 1 2 3 4 5 6 
#
# 1 0.011510 -0.002721 -0.005863 0.000000 -0.002797 0.000000
# 2 -0.002721 0.079335 -0.003640 0.000000 -0.000380 0.000000
# 3 -0.005863 -0.003640 0.009698 0.000000 0.003017 0.000000
# 4 0.000000 0.000000 0.000000 0.160097 0.000000 -0.140808
# 5 -0.002797 -0.000380 0.003017 0.000000 0.024216 0.000000
# 6 0.000000 0.000000 0.000000 -0.140808 0.000000 0.392255
#
#
# Mechanical properties :
#
#
# Convention : Reuss Voigt Hill
#
# Bulk Modulus (GPa) = 13.14157 55.74509 34.44333
# Shear Modulus (GPa) = 6.87830 24.83905 15.85867
#
# Velocity S-wave (km/s) = 1.85395 3.52310 2.81508
# Velocity P-wave (km/s) = 3.33913 6.66377 5.27046
#
# Compressibility (1/GPa) = 0.07609442
#
# Stress axis : x y z
#
# Youngs Moduli (GPa) = 86.87829 12.60484 103.11424
#
# Poissons Ratio (x) = 0.03430 0.60457
# Poissons Ratio (y) = 0.23643 0.37532
# Poissons Ratio (z) = 0.50937 0.04588
#
# Static dielectric constant tensor:
#      x y z
#    x 3.924720 0.000000 0.018660 
#    y 0.000000 2.899100 0.000000 
#    z 0.018660 0.000000 3.978460 
# 
# 
# High freq. dielectric constant tensor:
#      x y z
#    x 1.791440 0.000000 0.000750 
#    y 0.000000 1.706990 0.000000 
#    z 0.000750 0.000000 1.797370 
# 
# From -- ./inp_files/70285.got.cif
#   From: 2010.06.25/outbox.cif.g09.slc.cpg/sg10_36_cif.got.tgz:70285.got - 2010.06.27 22:07:45.
