data_PCOD8060074
_publ_section_title
;
Structure prediction by ZEFSAII (Michael W. Deem and Ramdas Pophale) SiO2 
 PCOD8060074
Probable space group: P 2/M
;
_chemical_formula_sum "Si O2"
_cell_formula_units_Z 32
_cell_length_a 13.112197
_cell_length_b 8.798315
_cell_length_c 30.695745
_cell_angle_alpha 90.000000
_cell_angle_beta 153.221738
_cell_angle_gamma 90.000000
_cell_volume 1595.458117
_symmetry_space_group_name_H-M "P 2/M"
_symmetry_group_IT_number 10
_symmetry_cell_setting 'monoclinic'
loop_
_space_group_symop_operation_xyz
x,y,z
-x,y,-z
-x,-y,-z
x,-y,z
loop_
_atom_site_type_symbol
_atom_site_label
_atom_site_fract_x
_atom_site_fract_y
_atom_site_fract_z
Si Si1 0.615766 0.177791 0.738952
Si Si2 0.931975 0.819866 0.196819
Si Si3 0.627942 0.330055 0.654499
Si Si4 0.575667 0.179862 0.131830
Si Si5 0.112864 0.179663 0.919801
Si Si6 0.828380 0.679201 0.397179
Si Si7 0.880460 0.176930 0.325057
Si Si8 0.303186 0.670762 0.455151
O O1 0.578215 0.212836 0.674079
O O2 0.428114 0.263433 0.695459
O O3 0.871949 0.234670 0.848280
O O4 0.585989 0.000000 0.736218
O O5 0.744389 0.757660 0.158854
O O6 0.860577 0.772427 0.120529
O O7 0.166726 0.733334 0.297066
O O8 0.969106 0.000000 0.215140
O O9 0.685610 0.500000 0.693921
O O10 0.396990 0.336683 0.539812
O O11 0.657606 0.222436 0.211927
O O12 0.570165 0.000000 0.124342
O O13 0.323858 0.248181 0.027726
O O14 0.116431 0.000000 0.923958
O O15 0.828619 0.500000 0.400125
O O16 0.905505 0.728648 0.378718
O O17 0.000000 0.744032 0.500000
O O18 0.089134 0.217459 0.372798
O O19 0.881223 0.000000 0.336963
O O20 0.500000 0.739618 0.500000
O O21 0.236189 0.500000 0.413811
#
# Coordination Sequence:
#
# PCOD8060074 Si02
#       8
#     4   4   4   4   4   4   4   4
#     4  10  20  35  58  84 105 130 171 222 268 309
#     4   9  16  28  51  80 108 143 185 223 256 298
#     4  10  19  31  49  74 106 142 176 215 266 319
#     4   9  17  31  51  78 111 143 178 220 265 311
#     4   8  15  29  52  81 110 141 177 217 261 308
#     4  11  24  42  62  80 103 138 174 213 268 329
#     4  11  23  36  55  83 110 138 176 224 270 311
#     4  10  21  36  52  72 105 149 185 211 253 316
#
# _framework density 20.056936
#
# number of rings (size 3 to 8) (size 9 to 14) (size 15 to 20)
#    0.000    2.250    0.000    4.125    0.000    6.750 
#    0.000    1.250    0.000   18.000    0.000    0.000 
#    0.000    0.000    0.000    0.000    0.000    0.000 
#
# Total GULP energy -396665.241772 kJ/mol
# GULP energy per Si atom -12395.788805 kJ/mol
# Density = 2.001129 g / cm^3
# Si number density = 20.056936 Si / 1000 Ang^3
#
#
#
# Elastic Constant Matrix: (Units=GPa)
#
#
# Indices 1 2 3 4 5 6 
#
# 1 84.0558 16.8748 37.1648 0.0000 12.4208 0.0000
# 2 16.8748 46.5147 30.7678 0.0000 2.0706 0.0000
# 3 37.1648 30.7678 112.2975 0.0000 6.4577 0.0000
# 4 0.0000 0.0000 0.0000 8.2924 0.0000 4.2951
# 5 12.4208 2.0706 6.4577 0.0000 28.6273 0.0000
# 6 0.0000 0.0000 0.0000 4.2951 0.0000 27.3531
#
#
#
# Elastic Compliance Matrix: (Units=1/GPa)
#
#
# Indices 1 2 3 4 5 6 
#
# 1 0.014953 -0.002585 -0.003929 0.000000 -0.005415 0.000000
# 2 -0.002585 0.026706 -0.006499 0.000000 0.000656 0.000000
# 3 -0.003929 -0.006499 0.012017 0.000000 -0.000536 0.000000
# 4 0.000000 0.000000 0.000000 0.131268 0.000000 -0.020612
# 5 -0.005415 0.000656 -0.000536 0.000000 0.037354 0.000000
# 6 0.000000 0.000000 0.000000 -0.020612 0.000000 0.039796
#
#
# Mechanical properties :
#
#
# Convention : Reuss Voigt Hill
#
# Bulk Modulus (GPa) = 36.16696 45.83143 40.99920
# Shear Modulus (GPa) = 16.81593 23.39194 20.10394
#
# Velocity S-wave (km/s) = 2.89867 3.41878 3.16942
# Velocity P-wave (km/s) = 5.41058 6.20358 5.82060
#
# Compressibility (1/GPa) = 0.02764954
#
# Stress axis : x y z
#
# Youngs Moduli (GPa) = 66.87566 37.44452 83.21653
#
# Poissons Ratio (x) = 0.09678 0.32697
# Poissons Ratio (y) = 0.17285 0.54086
# Poissons Ratio (z) = 0.26277 0.24337
#
# Static dielectric constant tensor:
#      x y z
#    x 3.553710 0.000000 0.148460 
#    y 0.000000 3.384130 0.000000 
#    z 0.148460 0.000000 4.083760 
# 
# 
# High freq. dielectric constant tensor:
#      x y z
#    x 1.771330 0.000000 0.007560 
#    y 0.000000 1.755000 0.000000 
#    z 0.007560 0.000000 1.789250 
# 
# From -- ./inp_files/95017.got.cif
#   From: 2010.06.25/outbox.cif.g09.slc.cpg/sg10_48_cif.got.tgz:95017.got - 2010.06.27 22:07:45.
