data_PCOD8060755
_publ_section_title
;
Structure prediction by ZEFSAII (Michael W. Deem and Ramdas Pophale) SiO2 
 PCOD8060755
Probable space group: P 2/M
;
_chemical_formula_sum "Si O2"
_cell_formula_units_Z 30
_cell_length_a 7.232156
_cell_length_b 12.557921
_cell_length_c 24.917958
_cell_angle_alpha 90.000000
_cell_angle_beta 44.896388
_cell_angle_gamma 90.000000
_cell_volume 1597.335694
_symmetry_space_group_name_H-M "P 2/M"
_symmetry_group_IT_number 10
_symmetry_cell_setting 'monoclinic'
loop_
_space_group_symop_operation_xyz
x,y,z
-x,y,-z
-x,-y,-z
x,-y,z
loop_
_atom_site_type_symbol
_atom_site_label
_atom_site_fract_x
_atom_site_fract_y
_atom_site_fract_z
Si Si1 0.263444 0.873118 0.149532
Si Si2 0.664624 0.875841 0.267246
Si Si3 0.762636 0.246146 0.585032
Si Si4 0.552191 0.619906 0.432063
Si Si5 0.459640 0.249610 0.812021
Si Si6 0.961037 0.380914 0.945760
Si Si7 0.867862 0.379233 0.667796
Si Si8 0.500000 0.759599 0.000000
O O1 0.445225 0.814578 0.155530
O O2 0.349676 0.835469 0.072771
O O3 0.959928 0.839694 0.222043
O O4 0.302812 0.000000 0.146074
O O5 0.450616 0.843224 0.355966
O O6 0.576210 0.833074 0.228254
O O7 0.658583 0.000000 0.263364
O O8 0.608186 0.332219 0.583075
O O9 0.878038 0.304268 0.613495
O O10 0.000000 0.197717 0.500000
O O11 0.500000 0.677902 0.500000
O O12 0.447297 0.500000 0.458408
O O13 0.859236 0.626277 0.356591
O O14 0.663111 0.340534 0.753911
O O15 0.189276 0.309496 0.875141
O O16 0.954576 0.500000 0.920808
O O17 0.693603 0.318669 0.991171
O O18 0.000000 0.395145 0.000000
O O19 0.801635 0.500000 0.663735
#
# Coordination Sequence:
#
# PCOD8060755 Si02
#       8
#     4   4   4   4   4   4   4   2
#     4  11  23  40  64  90 118 154 199 250 298 345
#     4  10  23  41  60  83 115 153 196 248 301 347
#     4  11  21  35  58  82 111 151 193 241 290 350
#     4  10  19  32  52  80 112 146 181 226 287 346
#     4  11  21  40  62  86 116 154 199 243 295 347
#     4  11  23  40  62  88 122 159 193 232 286 352
#     4  10  21  35  55  83 115 150 192 238 289 350
#     4  12  22  42  62  94 122 160 196 240 290 350
#
# _framework density 18.781275000000001
#
# number of rings (size 3 to 8) (size 9 to 14) (size 15 to 20)
#    0.000    1.333    4.000    2.400    0.000    0.800 
#    0.000    0.667    0.000    0.400    0.000    0.000 
#    0.000    0.000    0.000    0.000    0.000    0.000 
#
# Total GULP energy -371953.215225 kJ/mol
# GULP energy per Si atom -12398.440508 kJ/mol
# Density = 1.873853 g / cm^3
# Si number density = 18.781275 Si / 1000 Ang^3
#
#
#
# Elastic Constant Matrix: (Units=GPa)
#
#
# Indices 1 2 3 4 5 6 
#
# 1 63.9929 19.5418 23.6452 0.0000 -10.8904 0.0000
# 2 19.5418 64.5210 39.7184 0.0000 -14.2057 0.0000
# 3 23.6452 39.7184 117.9085 0.0000 -15.8610 0.0000
# 4 0.0000 0.0000 0.0000 24.9117 0.0000 -2.3559
# 5 -10.8904 -14.2057 -15.8610 0.0000 30.0442 0.0000
# 6 0.0000 0.0000 0.0000 -2.3559 0.0000 27.8496
#
#
#
# Elastic Compliance Matrix: (Units=1/GPa)
#
#
# Indices 1 2 3 4 5 6 
#
# 1 0.018051 -0.003410 -0.001946 0.000000 0.003904 0.000000
# 2 -0.003410 0.021336 -0.005719 0.000000 0.005833 0.000000
# 3 -0.001946 -0.005719 0.011130 0.000000 0.002466 0.000000
# 4 0.000000 0.000000 0.000000 0.040465 0.000000 0.003423
# 5 0.003904 0.005833 0.002466 0.000000 0.038759 0.000000
# 6 0.000000 0.000000 0.000000 0.003423 0.000000 0.036197
#
#
# Mechanical properties :
#
#
# Convention : Reuss Voigt Hill
#
# Bulk Modulus (GPa) = 35.25145 45.80369 40.52757
# Shear Modulus (GPa) = 25.31075 27.46224 26.38650
#
# Velocity S-wave (km/s) = 3.67503 3.82804 3.75231
# Velocity P-wave (km/s) = 6.06778 6.63170 6.35600
#
# Compressibility (1/GPa) = 0.02836763
#
# Stress axis : x y z
#
# Youngs Moduli (GPa) = 55.39725 46.86845 89.85031
#
# Poissons Ratio (x) = 0.15981 0.17488
# Poissons Ratio (y) = 0.18889 0.51384
# Poissons Ratio (z) = 0.10782 0.26803
#
# Static dielectric constant tensor:
#      x y z
#    x 3.533800 0.000000 -0.216870 
#    y 0.000000 3.395980 0.000000 
#    z -0.216870 0.000000 2.841520 
# 
# 
# High freq. dielectric constant tensor:
#      x y z
#    x 1.738350 0.000000 -0.009090 
#    y 0.000000 1.723600 0.000000 
#    z -0.009090 0.000000 1.740730 
# 
# From -- ./inp_files/87553.got.cif
#   From: 2010.06.25/outbox.cif.g09.slc.cpg/sg10_44_cif.got.tgz:87553.got - 2010.06.27 22:07:45.
