data_PCOD8060066
_publ_section_title
;
Structure prediction by ZEFSAII (Michael W. Deem and Ramdas Pophale) SiO2 
 PCOD8060066
Probable space group: P 2/M
;
_chemical_formula_sum "Si O2"
_cell_formula_units_Z 24
_cell_length_a 8.728108
_cell_length_b 10.112237
_cell_length_c 21.492082
_cell_angle_alpha 90.000000
_cell_angle_beta 135.032783
_cell_angle_gamma 90.000000
_cell_volume 1340.547506
_symmetry_space_group_name_H-M "P 2/M"
_symmetry_group_IT_number 10
_symmetry_cell_setting 'monoclinic'
loop_
_space_group_symop_operation_xyz
x,y,z
-x,y,-z
-x,-y,-z
x,-y,z
loop_
_atom_site_type_symbol
_atom_site_label
_atom_site_fract_x
_atom_site_fract_y
_atom_site_fract_z
Si Si1 0.353558 0.354833 0.036681
Si Si2 0.812888 0.717512 0.132184
Si Si3 0.296886 0.647334 0.279871
Si Si4 0.152268 0.146362 0.736380
Si Si5 0.500747 0.654978 0.208055
Si Si6 0.657463 0.151104 0.600871
O O1 0.246617 0.500000 0.997025
O O2 0.610088 0.371020 0.095699
O O3 0.335685 0.309629 0.103611
O O4 0.231654 0.252346 0.954526
O O5 0.819198 0.844402 0.179852
O O6 0.037123 0.640651 0.204888
O O7 0.381813 0.500000 0.320601
O O8 0.380171 0.693210 0.236465
O O9 0.392292 0.751434 0.356248
O O10 0.283679 0.256581 0.736143
O O11 0.902048 0.168035 0.646726
O O12 0.230456 0.000000 0.739214
O O13 0.565119 0.500000 0.224123
O O14 0.500000 0.192255 0.500000
O O15 0.615354 0.000000 0.610503
#
# Coordination Sequence:
#
# PCOD8060066 Si02
#       6
#     4   4   4   4   4   4
#     4   9  15  26  44  67  95 129 166 197 229 273
#     4   9  16  27  45  69  95 125 162 202 235 268
#     4  10  19  31  49  74 101 126 155 194 240 283
#     4   9  18  33  52  71  93 124 161 197 238 283
#     4   9  19  32  46  69 101 133 161 191 230 278
#     4   9  19  36  56  75  93 117 154 197 238 287
#
# _framework density 17.903134000000001
#
# number of rings (size 3 to 8) (size 9 to 14) (size 15 to 20)
#    0.000    2.833    0.000    2.000    0.000    6.333 
#    0.000   10.000    0.000    5.000    0.000   15.167 
#    0.000    0.000    0.000    0.000    0.000    0.000 
#
# Total GULP energy -297337.317678 kJ/mol
# GULP energy per Si atom -12389.054903 kJ/mol
# Density = 1.786239 g / cm^3
# Si number density = 17.903134 Si / 1000 Ang^3
#
#
#
# Elastic Constant Matrix: (Units=GPa)
#
#
# Indices 1 2 3 4 5 6 
#
# 1 73.6292 39.1360 41.3741 0.0000 -20.0809 0.0000
# 2 39.1360 75.4113 42.3889 0.0000 -9.8317 0.0000
# 3 41.3741 42.3889 120.7027 0.0000 -14.2003 0.0000
# 4 0.0000 0.0000 0.0000 20.9065 0.0000 -2.4930
# 5 -20.0809 -9.8317 -14.2003 0.0000 22.5174 0.0000
# 6 0.0000 0.0000 0.0000 -2.4930 0.0000 22.0951
#
#
#
# Elastic Compliance Matrix: (Units=1/GPa)
#
#
# Indices 1 2 3 4 5 6 
#
# 1 0.024467 -0.008679 -0.003475 0.000000 0.015839 0.000000
# 2 -0.008679 0.019914 -0.004219 0.000000 -0.001706 0.000000
# 3 -0.003475 -0.004219 0.011208 0.000000 0.002127 0.000000
# 4 0.000000 0.000000 0.000000 0.048484 0.000000 0.005471
# 5 0.015839 -0.001706 0.002127 0.000000 0.059131 0.000000
# 6 0.000000 0.000000 0.000000 0.005471 0.000000 0.045876
#
#
# Mechanical properties :
#
#
# Convention : Reuss Voigt Hill
#
# Bulk Modulus (GPa) = 43.77953 57.28234 50.53094
# Shear Modulus (GPa) = 20.04466 22.89341 21.46904
#
# Velocity S-wave (km/s) = 3.34970 3.57982 3.46667
# Velocity P-wave (km/s) = 6.28230 7.01085 6.65655
#
# Compressibility (1/GPa) = 0.02284172
#
# Stress axis : x y z
#
# Youngs Moduli (GPa) = 40.87056 50.21577 89.22186
#
# Poissons Ratio (x) = 0.43584 0.31009
# Poissons Ratio (y) = 0.35473 0.37644
# Poissons Ratio (z) = 0.14205 0.21187
#
# Static dielectric constant tensor:
#      x y z
#    x 3.249050 0.000000 -0.138930 
#    y 0.000000 3.143090 0.000000 
#    z -0.138930 0.000000 3.355430 
# 
# 
# High freq. dielectric constant tensor:
#      x y z
#    x 1.680900 0.000000 -0.006500 
#    y 0.000000 1.672570 0.000000 
#    z -0.006500 0.000000 1.685710 
# 
# From -- ./inp_files/32260.got.cif
#   From: 2010.06.25/outbox.cif.g09.slc.cpg/sg10_17_cif.got.tgz:32260.got - 2010.06.27 22:07:45.
