data_PCOD8060156
_publ_section_title
;
Structure prediction by ZEFSAII (Michael W. Deem and Ramdas Pophale) SiO2 
 PCOD8060156
Probable space group: P 2/M
;
_chemical_formula_sum "Si O2"
_cell_formula_units_Z 26
_cell_length_a 6.769568
_cell_length_b 13.831004
_cell_length_c 20.860915
_cell_angle_alpha 90.000000
_cell_angle_beta 47.366224
_cell_angle_gamma 90.000000
_cell_volume 1436.969516
_symmetry_space_group_name_H-M "P 2/M"
_symmetry_group_IT_number 10
_symmetry_cell_setting 'monoclinic'
loop_
_space_group_symop_operation_xyz
x,y,z
-x,y,-z
-x,-y,-z
x,-y,z
loop_
_atom_site_type_symbol
_atom_site_label
_atom_site_fract_x
_atom_site_fract_y
_atom_site_fract_z
Si Si1 0.452677 0.888696 0.763726
Si Si2 0.413632 0.109639 0.626829
Si Si3 0.783758 0.393465 0.910595
Si Si4 0.000000 0.814776 0.500000
Si Si5 0.296484 0.608181 0.217692
Si Si6 0.826847 0.269115 0.101279
Si Si7 0.983524 0.771325 0.644860
O O1 0.336020 0.870817 0.717971
O O2 0.260902 0.836661 0.856771
O O3 0.753739 0.850284 0.706699
O O4 0.455340 0.000000 0.781602
O O5 0.735590 0.119198 0.551698
O O6 0.258017 0.185248 0.615015
O O7 0.339417 0.000000 0.622752
O O8 0.838843 0.500000 0.928852
O O9 0.819144 0.400704 0.827357
O O10 0.999708 0.314928 0.881178
O O11 0.500000 0.356186 0.000000
O O12 0.997505 0.750051 0.435766
O O13 0.329030 0.500000 0.240188
O O14 0.579656 0.659604 0.146461
O O15 0.091576 0.669170 0.306594
O O16 0.000000 0.258345 0.000000
#
# Coordination Sequence:
#
# PCOD8060156 Si02
#       7
#     4   4   4   2   4   4   4
#     4   9  20  35  50  74 106 140 178 212 250 308
#     4  10  19  34  57  80 106 137 169 210 259 306
#     4  10  19  31  50  76 102 127 166 218 263 303
#     4  10  21  34  53  84 110 130 169 214 255 304
#     4  10  21  36  54  77 104 137 176 215 260 309
#     4  11  20  32  53  76 103 139 175 217 265 305
#     4  10  20  35  55  77 106 139 170 211 260 309
#
# _framework density 18.093634999999999
#
# number of rings (size 3 to 8) (size 9 to 14) (size 15 to 20)
#    0.000    2.000    1.538    2.538    0.000    3.385 
#    0.000    0.385    0.000    2.308    0.000    0.000 
#    0.000    0.000    0.000    0.000    0.000    0.000 
#
# Total GULP energy -322299.253322 kJ/mol
# GULP energy per Si atom -12396.125128 kJ/mol
# Density = 1.805245 g / cm^3
# Si number density = 18.093635 Si / 1000 Ang^3
#
#
#
# Elastic Constant Matrix: (Units=GPa)
#
#
# Indices 1 2 3 4 5 6 
#
# 1 84.5102 42.9064 43.2128 0.0000 1.3910 0.0000
# 2 42.9064 118.5926 64.4274 0.0000 7.5189 0.0000
# 3 43.2128 64.4274 106.1963 0.0000 4.7251 0.0000
# 4 0.0000 0.0000 0.0000 21.9161 0.0000 0.1924
# 5 1.3910 7.5189 4.7251 0.0000 24.8119 0.0000
# 6 0.0000 0.0000 0.0000 0.1924 0.0000 22.6426
#
#
#
# Elastic Compliance Matrix: (Units=1/GPa)
#
#
# Indices 1 2 3 4 5 6 
#
# 1 0.015791 -0.003372 -0.004423 0.000000 0.000979 0.000000
# 2 -0.003372 0.013439 -0.006664 0.000000 -0.002614 0.000000
# 3 -0.004423 -0.006664 0.015288 0.000000 -0.000644 0.000000
# 4 0.000000 0.000000 0.000000 0.045632 0.000000 -0.000388
# 5 0.000979 -0.002614 -0.000644 0.000000 0.041163 0.000000
# 6 0.000000 0.000000 0.000000 -0.000388 0.000000 0.044168
#
#
# Mechanical properties :
#
#
# Convention : Reuss Voigt Hill
#
# Bulk Modulus (GPa) = 64.11123 67.82138 65.96631
# Shear Modulus (GPa) = 23.85509 24.45763 24.15636
#
# Velocity S-wave (km/s) = 3.63495 3.68057 3.65783
# Velocity P-wave (km/s) = 7.28883 7.45836 7.37408
#
# Compressibility (1/GPa) = 0.01559789
#
# Stress axis : x y z
#
# Youngs Moduli (GPa) = 63.32919 74.41272 65.40968
#
# Poissons Ratio (x) = 0.25092 0.28932
# Poissons Ratio (y) = 0.21355 0.43592
# Poissons Ratio (z) = 0.28012 0.49592
#
# Static dielectric constant tensor:
#      x y z
#    x 3.353700 0.000000 0.073230 
#    y 0.000000 3.286700 0.000000 
#    z 0.073230 0.000000 3.360390 
# 
# 
# High freq. dielectric constant tensor:
#      x y z
#    x 1.706850 0.000000 0.003870 
#    y 0.000000 1.687810 0.000000 
#    z 0.003870 0.000000 1.699380 
# 
# From -- ./inp_files/11340.got.cif
#   From: 2010.06.25/outbox.cif.g09.slc.cpg/sg10_6_cif.got.tgz:11340.got - 2010.06.27 22:07:45.
