data_PCOD8060248
_publ_section_title
;
Structure prediction by ZEFSAII (Michael W. Deem and Ramdas Pophale) SiO2 
 PCOD8060248
Probable space group: P 2/M
;
_chemical_formula_sum "Si O2"
_cell_formula_units_Z 28
_cell_length_a 9.826288
_cell_length_b 14.905263
_cell_length_c 22.154831
_cell_angle_alpha 90.000000
_cell_angle_beta 28.230878
_cell_angle_gamma 90.000000
_cell_volume 1534.907703
_symmetry_space_group_name_H-M "P 2/M"
_symmetry_group_IT_number 10
_symmetry_cell_setting 'monoclinic'
loop_
_space_group_symop_operation_xyz
x,y,z
-x,y,-z
-x,-y,-z
x,-y,z
loop_
_atom_site_type_symbol
_atom_site_label
_atom_site_fract_x
_atom_site_fract_y
_atom_site_fract_z
Si Si1 0.181890 0.898534 0.369010
Si Si2 0.311865 0.398118 0.353287
Si Si3 0.141963 0.267411 0.010402
Si Si4 0.855741 0.903692 0.121911
Si Si5 0.755682 0.271363 0.726913
Si Si6 0.129824 0.397425 0.793369
Si Si7 0.165557 0.603909 0.642908
O O1 0.517209 0.886731 0.251697
O O2 0.101269 0.822805 0.350947
O O3 0.000000 0.879242 0.500000
O O4 0.117980 0.000000 0.369983
O O5 0.327839 0.500000 0.322220
O O6 0.383327 0.328326 0.273103
O O7 0.537724 0.382592 0.318672
O O8 0.000000 0.375164 0.500000
O O9 0.002511 0.179938 0.098223
O O10 0.086080 0.349565 0.076552
O O11 0.483684 0.251084 0.875594
O O12 0.000000 0.284264 0.000000
O O13 0.915608 0.000000 0.130612
O O14 0.000000 0.905075 0.000000
O O15 0.996112 0.330707 0.664856
O O16 0.041291 0.500000 0.833169
O O17 0.091994 0.365112 0.739541
O O18 0.500000 0.616570 0.500000
O O19 0.077575 0.500000 0.665685
#
# Coordination Sequence:
#
# PCOD8060248 Si02
#       7
#     4   4   4   4   4   4   4
#     4  10  20  33  54  88 122 150 190 241 292 346
#     4  10  19  31  51  79 106 137 180 232 284 332
#     4  11  20  34  53  85 116 144 189 237 283 345
#     4   9  16  31  53  79 115 150 177 223 288 342
#     4  12  21  34  58  83 110 148 188 237 288 337
#     4  10  21  36  53  75 112 150 183 234 287 338
#     4  10  23  42  59  79 110 153 200 239 287 352
#
# _framework density 18.242139999999999
#
# number of rings (size 3 to 8) (size 9 to 14) (size 15 to 20)
#    0.000    1.714    4.286    1.714    0.000    5.429 
#    0.000    1.429    0.000    1.286    0.000    2.000 
#    0.000    0.000    0.000    0.000    0.000    0.000 
#
# Total GULP energy -347081.229028 kJ/mol
# GULP energy per Si atom -12395.758180 kJ/mol
# Density = 1.820062 g / cm^3
# Si number density = 18.242140 Si / 1000 Ang^3
#
#
#
# Elastic Constant Matrix: (Units=GPa)
#
#
# Indices 1 2 3 4 5 6 
#
# 1 66.7399 56.7509 28.6775 0.0000 3.1801 0.0000
# 2 56.7509 124.4869 46.5337 0.0000 6.1386 0.0000
# 3 28.6775 46.5337 113.3706 0.0000 1.6000 0.0000
# 4 0.0000 0.0000 0.0000 30.3661 0.0000 1.3244
# 5 3.1801 6.1386 1.6000 0.0000 22.6147 0.0000
# 6 0.0000 0.0000 0.0000 1.3244 0.0000 20.6576
#
#
#
# Elastic Compliance Matrix: (Units=1/GPa)
#
#
# Indices 1 2 3 4 5 6 
#
# 1 0.024827 -0.010571 -0.001934 0.000000 -0.000485 0.000000
# 2 -0.010571 0.014111 -0.003088 0.000000 -0.002125 0.000000
# 3 -0.001934 -0.003088 0.010572 0.000000 0.000362 0.000000
# 4 0.000000 0.000000 0.000000 0.033024 0.000000 -0.002117
# 5 -0.000485 -0.002125 0.000362 0.000000 0.044839 0.000000
# 6 0.000000 0.000000 0.000000 -0.002117 0.000000 0.048544
#
#
# Mechanical properties :
#
#
# Convention : Reuss Voigt Hill
#
# Bulk Modulus (GPa) = 54.57453 63.16907 58.87180
# Shear Modulus (GPa) = 23.45096 26.23669 24.84382
#
# Velocity S-wave (km/s) = 3.58933 3.79654 3.69439
# Velocity P-wave (km/s) = 6.86727 7.34313 7.10918
#
# Compressibility (1/GPa) = 0.01832356
#
# Stress axis : x y z
#
# Youngs Moduli (GPa) = 40.27944 70.86576 94.58683
#
# Poissons Ratio (x) = 0.74912 0.18295
# Poissons Ratio (y) = 0.42579 0.29209
# Poissons Ratio (z) = 0.07791 0.21884
#
# Static dielectric constant tensor:
#      x y z
#    x 3.040820 0.000000 0.069580 
#    y 0.000000 3.936480 0.000000 
#    z 0.069580 0.000000 3.259070 
# 
# 
# High freq. dielectric constant tensor:
#      x y z
#    x 1.656550 0.000000 -0.001080 
#    y 0.000000 1.721600 0.000000 
#    z -0.001080 0.000000 1.723020 
# 
# From -- ./inp_files/82883.got.cif
#   From: 2010.06.25/outbox.cif.g09.slc.cpg/sg10_42_cif.got.tgz:82883.got - 2010.06.27 22:07:45.
