data_PCOD8060950
_publ_section_title
;
Structure prediction by ZEFSAII (Michael W. Deem and Ramdas Pophale) SiO2 
 PCOD8060950
Probable space group: P 2/M
;
_chemical_formula_sum "Si O2"
_cell_formula_units_Z 30
_cell_length_a 9.875196
_cell_length_b 13.089981
_cell_length_c 11.943694
_cell_angle_alpha 90.000000
_cell_angle_beta 85.247585
_cell_angle_gamma 90.000000
_cell_volume 1538.607115
_symmetry_space_group_name_H-M "P 2/M"
_symmetry_group_IT_number 10
_symmetry_cell_setting 'monoclinic'
loop_
_space_group_symop_operation_xyz
x,y,z
-x,y,-z
-x,-y,-z
x,-y,z
loop_
_atom_site_type_symbol
_atom_site_label
_atom_site_fract_x
_atom_site_fract_y
_atom_site_fract_z
Si Si1 0.823628 0.614405 0.879190
Si Si2 0.341052 0.612359 0.525663
Si Si3 0.392793 0.612481 0.926369
Si Si4 0.610587 0.751892 0.280930
Si Si5 0.944518 0.880401 0.625219
Si Si6 0.701824 0.731305 0.683985
Si Si7 0.000000 0.756836 0.000000
Si Si8 0.848158 0.119073 0.190008
O O1 0.868252 0.500000 0.836103
O O2 0.725929 0.668224 0.795799
O O3 0.949187 0.687730 0.899327
O O4 0.750103 0.604398 0.002806
O O5 0.500000 0.598941 0.500000
O O6 0.279837 0.500000 0.561452
O O7 0.315017 0.700483 0.618265
O O8 0.272133 0.650202 0.416205
O O9 0.452276 0.500000 0.893901
O O10 0.372405 0.667724 0.813354
O O11 0.500000 0.670279 0.000000
O O12 0.451442 0.777611 0.310576
O O13 0.695203 0.851595 0.239008
O O14 0.803753 0.825279 0.663974
O O15 0.000000 0.844465 0.500000
O O16 0.050841 0.852545 0.715393
O O17 0.912273 0.000000 0.624790
O O18 0.112994 0.827054 0.930743
O O19 0.849303 0.000000 0.164679
#
# Coordination Sequence:
#
# PCOD8060950 Si02
#       8
#     4   4   4   4   4   4   2   4
#     4  11  22  36  59  89 121 158 198 242 291 354
#     4   9  19  34  55  87 123 159 192 229 290 362
#     4  10  19  32  54  83 116 155 196 232 282 349
#     4  11  21  36  60  89 122 156 197 247 299 345
#     4  10  22  42  65  84 110 155 205 248 299 359
#     4  11  21  37  63  90 122 154 196 250 299 347
#     4  12  22  42  62  82 120 162 202 244 294 366
#     4  11  24  41  62  86 116 158 203 251 304 356
#
# _framework density 19.498155000000001
#
# number of rings (size 3 to 8) (size 9 to 14) (size 15 to 20)
#    0.000    1.467    4.000    2.000    0.000    1.600 
#    0.000    0.000    0.000    7.600    0.000    0.000 
#    0.000    0.000    0.000    0.000    0.000    0.000 
#
# Total GULP energy -371881.512099 kJ/mol
# GULP energy per Si atom -12396.050403 kJ/mol
# Density = 1.945378 g / cm^3
# Si number density = 19.498155 Si / 1000 Ang^3
#
#
#
# Elastic Constant Matrix: (Units=GPa)
#
#
# Indices 1 2 3 4 5 6 
#
# 1 91.4669 51.7177 29.0649 0.0000 -1.3480 0.0000
# 2 51.7177 86.6875 30.7579 0.0000 -5.5342 0.0000
# 3 29.0649 30.7579 93.7707 0.0000 2.8271 0.0000
# 4 0.0000 0.0000 0.0000 40.5663 0.0000 27.4841
# 5 -1.3480 -5.5342 2.8271 0.0000 31.4968 0.0000
# 6 0.0000 0.0000 0.0000 27.4841 0.0000 39.7792
#
#
#
# Elastic Compliance Matrix: (Units=1/GPa)
#
#
# Indices 1 2 3 4 5 6 
#
# 1 0.016901 -0.009369 -0.002143 0.000000 -0.000731 0.000000
# 2 -0.009369 0.018480 -0.003252 0.000000 0.003138 0.000000
# 3 -0.002143 -0.003252 0.012449 0.000000 -0.001781 0.000000
# 4 0.000000 0.000000 0.000000 0.046345 0.000000 -0.032021
# 5 -0.000731 0.003138 -0.001781 0.000000 0.032429 0.000000
# 6 0.000000 0.000000 0.000000 -0.032021 0.000000 0.047262
#
#
# Mechanical properties :
#
#
# Convention : Reuss Voigt Hill
#
# Bulk Modulus (GPa) = 54.64394 55.00068 54.82231
# Shear Modulus (GPa) = 23.86687 33.06078 28.46383
#
# Velocity S-wave (km/s) = 3.50245 4.12222 3.82491
# Velocity P-wave (km/s) = 6.66650 7.13626 6.90538
#
# Compressibility (1/GPa) = 0.01830029
#
# Stress axis : x y z
#
# Youngs Moduli (GPa) = 59.16892 54.11390 80.32750
#
# Poissons Ratio (x) = 0.50700 0.17216
# Poissons Ratio (y) = 0.55436 0.26123
# Poissons Ratio (z) = 0.12682 0.17598
#
# Static dielectric constant tensor:
#      x y z
#    x 3.780940 0.000000 0.134790 
#    y 0.000000 3.556710 0.000000 
#    z 0.134790 0.000000 3.704690 
# 
# 
# High freq. dielectric constant tensor:
#      x y z
#    x 1.745580 0.000000 0.006030 
#    y 0.000000 1.752790 0.000000 
#    z 0.006030 0.000000 1.770990 
# 
# From -- ./inp_files/42720.got.cif
#   From: 2010.06.25/outbox.cif.g09.slc.cpg/sg10_22_cif.got.tgz:42720.got - 2010.06.27 22:07:45.
