data_PCOD8060541
_publ_section_title
;
Structure prediction by ZEFSAII (Michael W. Deem and Ramdas Pophale) SiO2 
 PCOD8060541
Probable space group: P 2/M
;
_chemical_formula_sum "Si O2"
_cell_formula_units_Z 32
_cell_length_a 11.741057
_cell_length_b 8.977619
_cell_length_c 21.727408
_cell_angle_alpha 90.000000
_cell_angle_beta 122.896016
_cell_angle_gamma 90.000000
_cell_volume 1922.996644
_symmetry_space_group_name_H-M "P 2/M"
_symmetry_group_IT_number 10
_symmetry_cell_setting 'monoclinic'
loop_
_space_group_symop_operation_xyz
x,y,z
-x,y,-z
-x,-y,-z
x,-y,z
loop_
_atom_site_type_symbol
_atom_site_label
_atom_site_fract_x
_atom_site_fract_y
_atom_site_fract_z
Si Si1 0.858420 0.671954 0.491686
Si Si2 0.398051 0.826809 0.773536
Si Si3 0.577221 0.676209 0.584364
Si Si4 0.686309 0.673272 0.071239
Si Si5 0.438076 0.826349 0.065370
Si Si6 0.150204 0.673340 0.767354
Si Si7 0.129419 0.676736 0.365716
Si Si8 0.599182 0.175024 0.365164
O O1 0.811348 0.500000 0.477737
O O2 0.871662 0.733989 0.564617
O O3 0.748908 0.768489 0.423912
O O4 0.000000 0.693886 0.500000
O O5 0.532956 0.790946 0.854135
O O6 0.265174 0.742519 0.758105
O O7 0.433867 0.779750 0.714754
O O8 0.361804 0.000000 0.767782
O O9 0.500000 0.728729 0.500000
O O10 0.565237 0.500000 0.587862
O O11 0.733012 0.731354 0.626816
O O12 0.512891 0.750024 0.625109
O O13 0.646288 0.500000 0.058954
O O14 0.572338 0.771559 0.070333
O O15 0.822713 0.699005 0.151376
O O16 0.691390 0.735876 0.001963
O O17 0.413249 0.000000 0.046869
O O18 0.151862 0.500000 0.751672
O O19 0.002417 0.741979 0.708308
O O20 0.124999 0.500000 0.363995
O O21 0.593250 0.000000 0.373730
#
# Coordination Sequence:
#
# PCOD8060541 Si02
#       8
#     4   4   4   4   4   4   4   4
#     4  10  19  32  51  71  92 122 158 188 221 276
#     4   9  19  32  44  64  96 128 153 186 227 272
#     4  10  19  35  55  69  86 116 158 202 234 271
#     4   9  15  23  38  64  94 118 145 183 224 262
#     4   9  15  25  41  59  85 124 159 178 210 266
#     4   9  17  29  47  70  95 123 152 186 228 276
#     4   9  17  31  49  69  91 117 152 192 230 268
#     4  11  22  34  48  68  96 122 152 195 241 277
#
# _framework density 16.640692999999999
#
# number of rings (size 3 to 8) (size 9 to 14) (size 15 to 20)
#    0.000    2.500    1.250    2.625    0.000    3.500 
#    0.000    1.250    0.000    0.000    0.000    0.875 
#    0.000    7.000    0.000    0.000    0.000    0.000 
#
# Total GULP energy -396554.722124 kJ/mol
# GULP energy per Si atom -12392.335066 kJ/mol
# Density = 1.660282 g / cm^3
# Si number density = 16.640693 Si / 1000 Ang^3
#
#
#
# Elastic Constant Matrix: (Units=GPa)
#
#
# Indices 1 2 3 4 5 6 
#
# 1 85.4482 30.0093 61.3571 0.0000 -6.7569 0.0000
# 2 30.0093 36.6917 42.7768 0.0000 -1.5650 0.0000
# 3 61.3571 42.7768 163.1296 0.0000 -7.0102 0.0000
# 4 0.0000 0.0000 0.0000 17.6091 0.0000 -10.3709
# 5 -6.7569 -1.5650 -7.0102 0.0000 9.6221 0.0000
# 6 0.0000 0.0000 0.0000 -10.3709 0.0000 6.5378
#
#
#
# Elastic Compliance Matrix: (Units=1/GPa)
#
#
# Indices 1 2 3 4 5 6 
#
# 1 0.018937 -0.010440 -0.004012 0.000000 0.008677 0.000000
# 2 -0.010440 0.045023 -0.008134 0.000000 -0.005935 0.000000
# 3 -0.004012 -0.008134 0.009904 0.000000 0.003075 0.000000
# 4 0.000000 0.000000 0.000000 0.863785 0.000000 1.370226
# 5 0.008677 -0.005935 0.003075 0.000000 0.111295 0.000000
# 6 0.000000 0.000000 0.000000 1.370226 0.000000 2.326552
#
#
# Mechanical properties :
#
#
# Convention : Reuss Voigt Hill
#
# Bulk Modulus (GPa) = 34.85445 61.50623 48.18034
# Shear Modulus (GPa) = 1.45763 16.82889 9.14326
#
# Velocity S-wave (km/s) = 0.93693 3.18356 2.34658
# Velocity P-wave (km/s) = 4.70757 7.11020 6.02977
#
# Compressibility (1/GPa) = 0.02869074
#
# Stress axis : x y z
#
# Youngs Moduli (GPa) = 52.80781 22.21064 100.96627
#
# Poissons Ratio (x) = 0.23189 0.40507
# Poissons Ratio (y) = 0.55134 0.82131
# Poissons Ratio (z) = 0.21186 0.18067
#
# Static dielectric constant tensor:
#      x y z
#    x 2.884040 0.000000 0.062430 
#    y 0.000000 3.047310 0.000000 
#    z 0.062430 0.000000 4.061050 
# 
# 
# High freq. dielectric constant tensor:
#      x y z
#    x 1.596990 0.000000 0.001710 
#    y 0.000000 1.633250 0.000000 
#    z 0.001710 0.000000 1.661850 
# 
# From -- ./inp_files/54896.got.cif
#   From: 2010.06.25/outbox.cif.g09.slc.cpg/sg10_28_cif.got.tgz:54896.got - 2010.06.27 22:07:45.
