data_PCOD8060847
_publ_section_title
;
Structure prediction by ZEFSAII (Michael W. Deem and Ramdas Pophale) SiO2 
 PCOD8060847
Probable space group: P 2/M
;
_chemical_formula_sum "Si O2"
_cell_formula_units_Z 24
_cell_length_a 17.477479
_cell_length_b 7.903138
_cell_length_c 17.477463
_cell_angle_alpha 90.000000
_cell_angle_beta 148.329629
_cell_angle_gamma 90.000000
_cell_volume 1267.483149
_symmetry_space_group_name_H-M "P 2/M"
_symmetry_group_IT_number 10
_symmetry_cell_setting 'monoclinic'
loop_
_space_group_symop_operation_xyz
x,y,z
-x,y,-z
-x,-y,-z
x,-y,z
loop_
_atom_site_type_symbol
_atom_site_label
_atom_site_fract_x
_atom_site_fract_y
_atom_site_fract_z
Si Si1 0.125257 0.500000 0.544660
Si Si2 0.754413 0.693682 0.923343
Si Si3 0.184660 0.189035 0.494444
Si Si4 0.833754 0.190466 0.833755
Si Si5 0.455339 0.500000 0.874742
Si Si6 0.494444 0.810965 0.184660
Si Si7 0.076658 0.693683 0.245588
O O1 0.103051 0.330814 0.475200
O O2 0.280998 0.500000 0.719002
O O3 0.000000 0.500000 0.500000
O O4 0.726049 0.500000 0.920152
O O5 0.738877 0.717644 0.818501
O O6 0.635757 0.805531 0.865410
O O7 0.913301 0.754167 0.086700
O O8 0.356858 0.225423 0.643142
O O9 0.134591 0.194469 0.364244
O O10 0.149040 0.000000 0.495790
O O11 0.818500 0.282355 0.738877
O O12 0.777263 0.000000 0.777263
O O13 0.000000 0.198847 0.000000
O O14 0.524800 0.669186 0.896949
O O15 0.500000 0.500000 0.000000
O O16 0.495790 0.000000 0.149040
O O17 0.079849 0.500000 0.273951
#
# Coordination Sequence:
#
# PCOD8060847 Si02
#       7
#     2   4   4   4   2   4   4
#     4  10  22  40  60  83 112 141 175 220 271 328
#     4  10  19  32  53  80 110 146 188 230 272 319
#     4  10  21  38  59  82 111 147 182 220 271 326
#     4   9  17  29  46  73 110 147 184 229 275 314
#     4  10  22  40  60  83 112 141 175 220 271 328
#     4  10  21  38  59  82 111 147 182 220 271 326
#     4  10  19  32  53  80 110 146 188 230 272 319
#
# _framework density 18.935162999999999
#
# number of rings (size 3 to 8) (size 9 to 14) (size 15 to 20)
#    0.000    2.167    1.667    1.500    0.000    6.000 
#    0.000    0.833    0.000    5.000    0.000    0.000 
#    0.000    0.000    0.000    0.000    0.000    0.000 
#
# Total GULP energy -297589.606949 kJ/mol
# GULP energy per Si atom -12399.566956 kJ/mol
# Density = 1.889207 g / cm^3
# Si number density = 18.935163 Si / 1000 Ang^3
#
#
#
# Elastic Constant Matrix: (Units=GPa)
#
#
# Indices 1 2 3 4 5 6 
#
# 1 131.0508 56.8446 49.1715 0.0000 -11.0025 0.0000
# 2 56.8446 123.1764 35.3658 0.0000 -9.0116 0.0000
# 3 49.1715 35.3658 61.4565 0.0000 -18.1952 0.0000
# 4 0.0000 0.0000 0.0000 21.5136 0.0000 -0.5710
# 5 -11.0025 -9.0116 -18.1952 0.0000 24.8092 0.0000
# 6 0.0000 0.0000 0.0000 -0.5710 0.0000 22.8752
#
#
#
# Elastic Compliance Matrix: (Units=1/GPa)
#
#
# Indices 1 2 3 4 5 6 
#
# 1 0.012009 -0.003307 -0.008283 0.000000 -0.001950 0.000000
# 2 -0.003307 0.010646 -0.003538 0.000000 -0.000194 0.000000
# 3 -0.008283 -0.003538 0.029976 0.000000 0.017026 0.000000
# 4 0.000000 0.000000 0.000000 0.046513 0.000000 0.001161
# 5 -0.001950 -0.000194 0.017026 0.000000 0.051859 0.000000
# 6 0.000000 0.000000 0.000000 0.001161 0.000000 0.043744
#
#
# Mechanical properties :
#
#
# Convention : Reuss Voigt Hill
#
# Bulk Modulus (GPa) = 44.69243 66.49417 55.59330
# Shear Modulus (GPa) = 21.50891 25.45974 23.48433
#
# Velocity S-wave (km/s) = 3.37400 3.67082 3.52554
# Velocity P-wave (km/s) = 6.23159 7.29106 6.78204
#
# Compressibility (1/GPa) = 0.02237515
#
# Stress axis : x y z
#
# Youngs Moduli (GPa) = 83.27083 93.93141 33.36006
#
# Poissons Ratio (x) = 0.31059 0.27632
# Poissons Ratio (y) = 0.27534 0.11804
# Poissons Ratio (z) = 0.68973 0.33237
#
# Static dielectric constant tensor:
#      x y z
#    x 3.371030 0.000000 -0.057680 
#    y 0.000000 3.681970 0.000000 
#    z -0.057680 0.000000 3.233530 
# 
# 
# High freq. dielectric constant tensor:
#      x y z
#    x 1.726450 0.000000 -0.007320 
#    y 0.000000 1.752850 0.000000 
#    z -0.007320 0.000000 1.709000 
# 
# From -- ./inp_files/33828.got.cif
#   From: 2010.06.25/outbox.cif.g09.slc.cpg/sg10_17_cif.got.tgz:33828.got - 2010.06.27 22:07:45.
