data_PCOD8060584
_publ_section_title
;
Structure prediction by ZEFSAII (Michael W. Deem and Ramdas Pophale) SiO2 
 PCOD8060584
Probable space group: P 2/M
;
_chemical_formula_sum "Si O2"
_cell_formula_units_Z 32
_cell_length_a 28.143310
_cell_length_b 9.294789
_cell_length_c 21.703939
_cell_angle_alpha 90.000000
_cell_angle_beta 161.231146
_cell_angle_gamma 90.000000
_cell_volume 1826.725290
_symmetry_space_group_name_H-M "P 2/M"
_symmetry_group_IT_number 10
_symmetry_cell_setting 'monoclinic'
loop_
_space_group_symop_operation_xyz
x,y,z
-x,y,-z
-x,-y,-z
x,-y,z
loop_
_atom_site_type_symbol
_atom_site_label
_atom_site_fract_x
_atom_site_fract_y
_atom_site_fract_z
Si Si1 0.890397 0.167427 0.919783
Si Si2 0.832727 0.330623 0.286318
Si Si3 0.645213 0.833163 0.813605
Si Si4 0.109005 0.168481 0.439025
Si Si5 0.330364 0.330857 0.791184
Si Si6 0.058746 0.832699 0.881797
Si Si7 0.192665 0.836120 0.863747
Si Si8 0.415176 0.330349 0.458415
O O1 0.747451 0.265412 0.741653
O O2 0.844572 0.000000 0.858747
O O3 0.000000 0.212840 0.000000
O O4 0.976219 0.197513 0.089634
O O5 0.824016 0.500000 0.267116
O O6 0.740110 0.278174 0.231326
O O7 0.763414 0.260891 0.140295
O O8 0.000000 0.276981 0.500000
O O9 0.501764 0.739104 0.622073
O O10 0.612377 0.000000 0.757826
O O11 0.682852 0.812639 0.931605
O O12 0.780703 0.769463 0.939072
O O13 0.251180 0.254186 0.636748
O O14 0.071614 0.223917 0.323251
O O15 0.968058 0.207194 0.307980
O O16 0.145987 0.000000 0.486392
O O17 0.310142 0.500000 0.757185
O O18 0.500000 0.284293 0.000000
O O19 0.073019 0.000000 0.883104
O O20 0.190667 0.000000 0.839112
O O21 0.500000 0.289001 0.500000
O O22 0.403573 0.500000 0.453620
#
# Coordination Sequence:
#
# PCOD8060584 Si02
#       8
#     4   4   4   4   4   4   4   4
#     4  10  20  35  57  81 105 141 182 217 263 318
#     4  10  19  32  51  74  99 131 167 204 251 303
#     4   9  17  32  54  77 103 136 173 215 264 309
#     4   9  17  31  52  76 101 130 167 211 258 303
#     4  10  21  36  51  71 102 136 170 207 248 302
#     4   8  15  30  52  77 103 130 166 214 260 305
#     4   9  18  31  51  80 105 129 167 217 263 303
#     4  11  22  34  51  79 110 139 175 218 264 310
#
# _framework density 17.517686000000001
#
# number of rings (size 3 to 8) (size 9 to 14) (size 15 to 20)
#    0.000    2.500    2.500    1.875    0.000    2.250 
#    0.000    3.750    0.000    4.500    0.000    0.000 
#    0.000    0.000    0.000    0.000    0.000    0.000 
#
# Total GULP energy -396770.207727 kJ/mol
# GULP energy per Si atom -12399.068991 kJ/mol
# Density = 1.747782 g / cm^3
# Si number density = 17.517686 Si / 1000 Ang^3
#
#
#
# Elastic Constant Matrix: (Units=GPa)
#
#
# Indices 1 2 3 4 5 6 
#
# 1 118.4402 40.3927 65.8292 0.0000 -8.4319 0.0000
# 2 40.3927 54.4619 54.4139 0.0000 -5.3233 0.0000
# 3 65.8292 54.4139 130.5371 0.0000 -10.8064 0.0000
# 4 0.0000 0.0000 0.0000 17.9783 0.0000 2.0307
# 5 -8.4319 -5.3233 -10.8064 0.0000 27.9802 0.0000
# 6 0.0000 0.0000 0.0000 2.0307 0.0000 15.4623
#
#
#
# Elastic Compliance Matrix: (Units=1/GPa)
#
#
# Indices 1 2 3 4 5 6 
#
# 1 0.012546 -0.005082 -0.004107 0.000000 0.001228 0.000000
# 2 -0.005082 0.033549 -0.011385 0.000000 0.000455 0.000000
# 3 -0.004107 -0.011385 0.014665 0.000000 0.002260 0.000000
# 4 0.000000 0.000000 0.000000 0.056460 0.000000 -0.007415
# 5 0.001228 0.000455 0.002260 0.000000 0.037069 0.000000
# 6 0.000000 0.000000 0.000000 -0.007415 0.000000 0.065647
#
#
# Mechanical properties :
#
#
# Convention : Reuss Voigt Hill
#
# Bulk Modulus (GPa) = 50.98546 69.41230 60.19888
# Shear Modulus (GPa) = 18.68309 21.80437 20.24373
#
# Velocity S-wave (km/s) = 3.26932 3.53187 3.40312
# Velocity P-wave (km/s) = 6.58935 7.50615 7.06264
#
# Compressibility (1/GPa) = 0.01961343
#
# Stress axis : x y z
#
# Youngs Moduli (GPa) = 79.70494 29.80672 68.19138
#
# Poissons Ratio (x) = 0.15147 0.28007
# Poissons Ratio (y) = 0.40504 0.77634
# Poissons Ratio (z) = 0.32736 0.33934
#
# Static dielectric constant tensor:
#      x y z
#    x 3.258390 0.000000 -0.184210 
#    y 0.000000 3.025310 0.000000 
#    z -0.184210 0.000000 3.186650 
# 
# 
# High freq. dielectric constant tensor:
#      x y z
#    x 1.669600 0.000000 -0.020720 
#    y 0.000000 1.659160 0.000000 
#    z -0.020720 0.000000 1.671500 
# 
# From -- ./inp_files/87025.got.cif
#   From: 2010.06.25/outbox.cif.g09.slc.cpg/sg10_44_cif.got.tgz:87025.got - 2010.06.27 22:07:45.
