data_PCOD8060174
_publ_section_title
;
Structure prediction by ZEFSAII (Michael W. Deem and Ramdas Pophale) SiO2 
 PCOD8060174
Probable space group: P 2/M
;
_chemical_formula_sum "Si O2"
_cell_formula_units_Z 24
_cell_length_a 24.201324
_cell_length_b 8.908898
_cell_length_c 9.183995
_cell_angle_alpha 90.000000
_cell_angle_beta 43.812769
_cell_angle_gamma 90.000000
_cell_volume 1370.855244
_symmetry_space_group_name_H-M "P 2/M"
_symmetry_group_IT_number 10
_symmetry_cell_setting 'monoclinic'
loop_
_space_group_symop_operation_xyz
x,y,z
-x,y,-z
-x,-y,-z
x,-y,z
loop_
_atom_site_type_symbol
_atom_site_label
_atom_site_fract_x
_atom_site_fract_y
_atom_site_fract_z
Si Si1 0.124926 0.675404 0.923148
Si Si2 0.255058 0.668915 0.900238
Si Si3 0.583819 0.670542 0.290689
Si Si4 0.713603 0.824403 0.883771
Si Si5 0.983765 0.176494 0.364598
Si Si6 0.158150 0.322945 0.531908
O O1 0.102607 0.500000 0.978641
O O2 0.209505 0.713299 0.839734
O O3 0.131945 0.725331 0.743187
O O4 0.057262 0.773776 0.125569
O O5 0.230433 0.500000 0.994521
O O6 0.352078 0.676396 0.696655
O O7 0.232344 0.780666 0.076668
O O8 0.500000 0.744726 0.500000
O O9 0.568077 0.500000 0.269347
O O10 0.623316 0.760614 0.079357
O O11 0.755049 0.748660 0.665204
O O12 0.710245 0.000000 0.866981
O O13 0.000000 0.222718 0.500000
O O14 0.905006 0.261303 0.463150
O O15 0.970207 0.000000 0.373221
O O16 0.164992 0.500000 0.504910
#
# Coordination Sequence:
#
# PCOD8060174 Si02
#       6
#     4   4   4   4   4   4
#     4  10  21  36  54  75 101 135 174 213 254 300
#     4   8  16  32  52  75 102 131 167 210 252 295
#     4   8  15  30  54  80 104 132 168 209 252 299
#     4  10  19  31  50  77 106 134 168 207 255 302
#     4  11  24  38  53  75 103 133 170 213 257 303
#     4  11  22  36  53  74 101 136 176 212 252 301
#
# _framework density 17.507318999999999
#
# number of rings (size 3 to 8) (size 9 to 14) (size 15 to 20)
#    1.000    1.333    0.000    3.500    0.000    8.333 
#    0.000    0.000    0.000    1.000    0.000    7.000 
#    0.000    0.000    0.000    0.000    0.000    0.000 
#
# Total GULP energy -297393.666891 kJ/mol
# GULP energy per Si atom -12391.402787 kJ/mol
# Density = 1.746747 g / cm^3
# Si number density = 17.507319 Si / 1000 Ang^3
#
#
#
# Elastic Constant Matrix: (Units=GPa)
#
#
# Indices 1 2 3 4 5 6 
#
# 1 38.5637 21.0673 41.3867 0.0000 -5.4284 0.0000
# 2 21.0673 85.0453 58.9595 0.0000 0.1665 0.0000
# 3 41.3867 58.9595 144.9022 0.0000 -9.0921 0.0000
# 4 0.0000 0.0000 0.0000 20.3154 0.0000 -0.3648
# 5 -5.4284 0.1665 -9.0921 0.0000 29.4201 0.0000
# 6 0.0000 0.0000 0.0000 -0.3648 0.0000 16.0830
#
#
#
# Elastic Compliance Matrix: (Units=1/GPa)
#
#
# Indices 1 2 3 4 5 6 
#
# 1 0.038293 -0.002914 -0.009491 0.000000 0.004149 0.000000
# 2 -0.002914 0.016741 -0.006138 0.000000 -0.002529 0.000000
# 3 -0.009491 -0.006138 0.012239 0.000000 0.002066 0.000000
# 4 0.000000 0.000000 0.000000 0.049244 0.000000 0.001117
# 5 0.004149 -0.002529 0.002066 0.000000 0.035409 0.000000
# 6 0.000000 0.000000 0.000000 0.001117 0.000000 0.062203
#
#
# Mechanical properties :
#
#
# Convention : Reuss Voigt Hill
#
# Bulk Modulus (GPa) = 33.12759 56.81535 44.97147
# Shear Modulus (GPa) = 19.13681 22.97021 21.05351
#
# Velocity S-wave (km/s) = 3.30976 3.62613 3.47155
# Velocity P-wave (km/s) = 5.79389 7.07493 6.46621
#
# Compressibility (1/GPa) = 0.03018632
#
# Stress axis : x y z
#
# Youngs Moduli (GPa) = 26.11447 59.73516 81.70493
#
# Poissons Ratio (x) = 0.17407 0.77547
# Poissons Ratio (y) = 0.07610 0.50150
# Poissons Ratio (z) = 0.24786 0.36665
#
# Static dielectric constant tensor:
#      x y z
#    x 3.195300 0.000000 -0.080570 
#    y 0.000000 3.155750 0.000000 
#    z -0.080570 0.000000 3.283920 
# 
# 
# High freq. dielectric constant tensor:
#      x y z
#    x 1.652820 0.000000 -0.010160 
#    y 0.000000 1.676290 0.000000 
#    z -0.010160 0.000000 1.672240 
# 
# From -- ./inp_files/35634.got.cif
#   From: 2010.06.25/outbox.cif.g09.slc.cpg/sg10_18_cif.got.tgz:35634.got - 2010.06.27 22:07:45.
