data_PCOD8060888
_publ_section_title
;
Structure prediction by ZEFSAII (Michael W. Deem and Ramdas Pophale) SiO2 
 PCOD8060888
Probable space group: P 2/M
;
_chemical_formula_sum "Si O2"
_cell_formula_units_Z 24
_cell_length_a 9.417908
_cell_length_b 9.303995
_cell_length_c 20.067553
_cell_angle_alpha 90.000000
_cell_angle_beta 49.763735
_cell_angle_gamma 90.000000
_cell_volume 1342.342320
_symmetry_space_group_name_H-M "P 2/M"
_symmetry_group_IT_number 10
_symmetry_cell_setting 'monoclinic'
loop_
_space_group_symop_operation_xyz
x,y,z
-x,y,-z
-x,-y,-z
x,-y,z
loop_
_atom_site_type_symbol
_atom_site_label
_atom_site_fract_x
_atom_site_fract_y
_atom_site_fract_z
Si Si1 0.972388 0.663841 0.358423
Si Si2 0.400337 0.665025 0.462171
Si Si3 0.417531 0.165908 0.712149
Si Si4 0.659595 0.667490 0.901819
Si Si5 0.977986 0.166319 0.224536
Si Si6 0.389082 0.335998 0.236508
O O1 0.964207 0.500000 0.333468
O O2 0.821681 0.686917 0.462277
O O3 0.924583 0.767577 0.311909
O O4 0.177712 0.694669 0.324988
O O5 0.500000 0.713783 0.500000
O O6 0.450047 0.500000 0.430839
O O7 0.466706 0.761378 0.381700
O O8 0.197413 0.187680 0.770626
O O9 0.471081 0.233713 0.766677
O O10 0.472808 0.000000 0.695442
O O11 0.703534 0.500000 0.898747
O O12 0.593370 0.699535 0.846902
O O13 0.846598 0.754472 0.861819
O O14 0.500000 0.721276 0.000000
O O15 0.027237 0.000000 0.219834
O O16 0.445158 0.500000 0.234207
#
# Coordination Sequence:
#
# PCOD8060888 Si02
#       6
#     4   4   4   4   4   4
#     4   9  18  34  54  77 102 136 183 228 264 306
#     4  10  19  32  54  78 102 138 185 228 266 305
#     4  11  23  35  49  75 112 147 178 215 259 309
#     4   9  19  38  63  86 104 128 169 218 264 316
#     4  10  20  33  52  78 107 141 176 211 258 313
#     4   9  19  35  55  77 105 137 171 215 266 315
#
# _framework density 17.879193999999998
#
# number of rings (size 3 to 8) (size 9 to 14) (size 15 to 20)
#    0.000    2.333    1.667    2.000    0.000    6.667 
#    0.000    4.167    0.000    5.000    0.000    0.000 
#    0.000    0.000    0.000    0.000    0.000    0.000 
#
# Total GULP energy -297642.016493 kJ/mol
# GULP energy per Si atom -12401.750687 kJ/mol
# Density = 1.783850 g / cm^3
# Si number density = 17.879194 Si / 1000 Ang^3
#
#
#
# Elastic Constant Matrix: (Units=GPa)
#
#
# Indices 1 2 3 4 5 6 
#
# 1 102.2791 66.0112 48.9530 0.0000 -3.3963 0.0000
# 2 66.0112 100.8507 52.6886 0.0000 -5.8754 0.0000
# 3 48.9530 52.6886 112.8712 0.0000 -9.8271 0.0000
# 4 0.0000 0.0000 0.0000 11.9445 0.0000 -6.4824
# 5 -3.3963 -5.8754 -9.8271 0.0000 18.4627 0.0000
# 6 0.0000 0.0000 0.0000 -6.4824 0.0000 30.0332
#
#
#
# Elastic Compliance Matrix: (Units=1/GPa)
#
#
# Indices 1 2 3 4 5 6 
#
# 1 0.017707 -0.010049 -0.003129 0.000000 -0.001606 0.000000
# 2 -0.010049 0.018833 -0.004270 0.000000 0.001872 0.000000
# 3 -0.003129 -0.004270 0.012626 0.000000 0.004786 0.000000
# 4 0.000000 0.000000 0.000000 0.094829 0.000000 0.020468
# 5 -0.001606 0.001872 0.004786 0.000000 0.057011 0.000000
# 6 0.000000 0.000000 0.000000 0.020468 0.000000 0.037714
#
#
# Mechanical properties :
#
#
# Convention : Reuss Voigt Hill
#
# Bulk Modulus (GPa) = 70.07049 72.36740 71.21894
# Shear Modulus (GPa) = 17.96151 21.97796 19.96973
#
# Velocity S-wave (km/s) = 3.17299 3.50987 3.34567
# Velocity P-wave (km/s) = 7.25947 7.54912 7.40571
#
# Compressibility (1/GPa) = 0.01427134
#
# Stress axis : x y z
#
# Youngs Moduli (GPa) = 56.47517 53.09813 79.19863
#
# Poissons Ratio (x) = 0.53358 0.24777
# Poissons Ratio (y) = 0.56752 0.33818
# Poissons Ratio (z) = 0.17668 0.22673
#
# Static dielectric constant tensor:
#      x y z
#    x 3.266280 0.000000 -0.182420 
#    y 0.000000 3.313970 0.000000 
#    z -0.182420 0.000000 3.295930 
# 
# 
# High freq. dielectric constant tensor:
#      x y z
#    x 1.686030 0.000000 -0.013140 
#    y 0.000000 1.692030 0.000000 
#    z -0.013140 0.000000 1.681630 
# 
# From -- ./inp_files/33746.got.cif
#   From: 2010.06.25/outbox.cif.g09.slc.cpg/sg10_17_cif.got.tgz:33746.got - 2010.06.27 22:07:45.
