data_PCOD8060222
_publ_section_title
;
Structure prediction by ZEFSAII (Michael W. Deem and Ramdas Pophale) SiO2 
 PCOD8060222
Probable space group: P 2/M
;
_chemical_formula_sum "Si O2"
_cell_formula_units_Z 28
_cell_length_a 21.537353
_cell_length_b 13.590870
_cell_length_c 5.110843
_cell_angle_alpha 90.000000
_cell_angle_beta 81.556473
_cell_angle_gamma 90.000000
_cell_volume 1479.786770
_symmetry_space_group_name_H-M "P 2/M"
_symmetry_group_IT_number 10
_symmetry_cell_setting 'monoclinic'
loop_
_space_group_symop_operation_xyz
x,y,z
-x,y,-z
-x,-y,-z
x,-y,z
loop_
_atom_site_type_symbol
_atom_site_label
_atom_site_fract_x
_atom_site_fract_y
_atom_site_fract_z
Si Si1 0.457474 0.388665 0.272594
Si Si2 0.956457 0.815837 0.776935
Si Si3 0.177558 0.888851 0.127306
Si Si4 0.248800 0.118588 0.582059
Si Si5 0.618566 0.798058 0.573919
Si Si6 0.043232 0.397331 0.223218
Si Si7 0.435969 0.885515 0.904022
O O1 0.500000 0.383907 0.500000
O O2 0.431478 0.500000 0.246740
O O3 0.398017 0.315111 0.342608
O O4 0.500000 0.355961 0.000000
O O5 0.897981 0.888532 0.812324
O O6 0.921791 0.707650 0.798852
O O7 0.000000 0.834007 0.500000
O O8 0.000000 0.833994 0.000000
O O9 0.211380 0.840232 0.354599
O O10 0.199532 0.000000 0.122474
O O11 0.204294 0.844199 0.844076
O O12 0.311756 0.182665 0.574456
O O13 0.261735 0.000000 0.576360
O O14 0.572023 0.831290 0.368713
O O15 0.615856 0.862033 0.843209
O O16 0.084538 0.500000 0.198051
O O17 0.000000 0.398417 0.500000
O O18 0.000000 0.398846 0.000000
O O19 0.436024 0.000000 0.837544
O O20 0.500000 0.849108 0.000000
#
# Coordination Sequence:
#
# PCOD8060222 Si02
#       7
#     4   4   4   4   4   4   4
#     4  10  21  37  57  82 110 140 179 226 273 319
#     4  10  19  31  51  76  99 127 164 208 259 314
#     4  10  21  36  51  71 102 134 169 213 256 304
#     4  10  21  36  53  72  98 138 179 212 251 309
#     4  12  21  35  57  77 103 143 184 218 259 314
#     4   8  14  25  42  66  94 120 147 182 229 289
#     4  11  22  33  49  79 114 139 165 212 268 316
#
# _framework density 18.921645999999999
#
# number of rings (size 3 to 8) (size 9 to 14) (size 15 to 20)
#    0.000    1.857    0.000    5.571    0.000    2.857 
#    0.000    0.000    0.000    1.714    0.000    0.000 
#    0.000    0.000    0.000    0.000    0.000    0.000 
#
# Total GULP energy -346886.688610 kJ/mol
# GULP energy per Si atom -12388.810307 kJ/mol
# Density = 1.887858 g / cm^3
# Si number density = 18.921646 Si / 1000 Ang^3
#
#
#
# Elastic Constant Matrix: (Units=GPa)
#
#
# Indices 1 2 3 4 5 6 
#
# 1 91.0926 36.4492 39.7162 0.0000 -4.8961 0.0000
# 2 36.4492 69.3642 37.2957 0.0000 -2.5190 0.0000
# 3 39.7162 37.2957 139.5463 0.0000 8.3821 0.0000
# 4 0.0000 0.0000 0.0000 23.2408 0.0000 -0.0247
# 5 -4.8961 -2.5190 8.3821 0.0000 34.5842 0.0000
# 6 0.0000 0.0000 0.0000 -0.0247 0.0000 21.1280
#
#
#
# Elastic Compliance Matrix: (Units=1/GPa)
#
#
# Indices 1 2 3 4 5 6 
#
# 1 0.014761 -0.006237 -0.002671 0.000000 0.002283 0.000000
# 2 -0.006237 0.019662 -0.003565 0.000000 0.001413 0.000000
# 3 -0.002671 -0.003565 0.009049 0.000000 -0.002831 0.000000
# 4 0.000000 0.000000 0.000000 0.043028 0.000000 0.000050
# 5 0.002283 0.001413 -0.002831 0.000000 0.030027 0.000000
# 6 0.000000 0.000000 0.000000 0.000050 0.000000 0.047331
#
#
# Mechanical properties :
#
#
# Convention : Reuss Voigt Hill
#
# Bulk Modulus (GPa) = 53.97886 58.54724 56.26305
# Shear Modulus (GPa) = 25.64373 28.22676 26.93525
#
# Velocity S-wave (km/s) = 3.68538 3.86654 3.77704
# Velocity P-wave (km/s) = 6.83366 7.13741 6.98718
#
# Compressibility (1/GPa) = 0.01852577
#
# Stress axis : x y z
#
# Youngs Moduli (GPa) = 67.74628 50.85905 110.50846
#
# Poissons Ratio (x) = 0.31723 0.29519
# Poissons Ratio (y) = 0.42256 0.39392
# Poissons Ratio (z) = 0.18096 0.18129
#
# Static dielectric constant tensor:
#      x y z
#    x 3.072420 0.000000 0.126220 
#    y 0.000000 3.853260 0.000000 
#    z 0.126220 0.000000 3.713140 
# 
# 
# High freq. dielectric constant tensor:
#      x y z
#    x 1.695940 0.000000 0.016630 
#    y 0.000000 1.725930 0.000000 
#    z 0.016630 0.000000 1.764810 
# 
# From -- ./inp_files/12585.got.cif
#   From: 2010.06.25/outbox.cif.g09.slc.cpg/sg10_7_cif.got.tgz:12585.got - 2010.06.27 22:07:45.
