data_PCOD8060047
_publ_section_title
;
Structure prediction by ZEFSAII (Michael W. Deem and Ramdas Pophale) SiO2 
 PCOD8060047
Probable space group: P 2/M
;
_chemical_formula_sum "Si O2"
_cell_formula_units_Z 32
_cell_length_a 14.119784
_cell_length_b 9.313579
_cell_length_c 14.173787
_cell_angle_alpha 90.000000
_cell_angle_beta 86.727387
_cell_angle_gamma 90.000000
_cell_volume 1860.894447
_symmetry_space_group_name_H-M "P 2/M"
_symmetry_group_IT_number 10
_symmetry_cell_setting 'monoclinic'
loop_
_space_group_symop_operation_xyz
x,y,z
-x,y,-z
-x,-y,-z
x,-y,z
loop_
_atom_site_type_symbol
_atom_site_label
_atom_site_fract_x
_atom_site_fract_y
_atom_site_fract_z
Si Si1 0.732910 0.166236 0.126517
Si Si2 0.189995 0.668172 0.050054
Si Si3 0.899312 0.334860 0.469512
Si Si4 0.351921 0.336802 0.191262
Si Si5 0.481446 0.831655 0.895418
Si Si6 0.865039 0.162691 0.286456
Si Si7 0.066598 0.832557 0.196084
Si Si8 0.811086 0.335724 0.667479
O O1 0.623233 0.212397 0.131632
O O2 0.771539 0.192500 0.229643
O O3 0.744674 0.000000 0.095187
O O4 0.792604 0.265039 0.052897
O O5 0.168164 0.500000 0.042029
O O6 0.281460 0.699004 0.109307
O O7 0.099513 0.746389 0.101614
O O8 0.914571 0.500000 0.442044
O O9 0.861276 0.259323 0.378823
O O10 0.819707 0.313876 0.554884
O O11 0.000000 0.271003 0.500000
O O12 0.386701 0.500000 0.184187
O O13 0.444413 0.238463 0.181005
O O14 0.296585 0.304759 0.292568
O O15 0.498534 0.000000 0.890302
O O16 0.500000 0.773136 0.000000
O O17 0.954951 0.193725 0.214531
O O18 0.868103 0.000000 0.322613
O O19 0.116729 0.771940 0.286627
O O20 0.091994 0.000000 0.182983
O O21 0.838097 0.500000 0.694798
#
# Coordination Sequence:
#
# PCOD8060047 Si02
#       8
#     4   4   4   4   4   4   4   4
#     4  10  21  37  52  71 104 139 171 213 260 305
#     4  10  20  33  50  74 103 137 173 210 250 301
#     4  10  19  33  56  79 103 135 170 213 257 299
#     4   9  18  31  50  75 104 130 161 208 256 303
#     4  10  19  32  53  77  99 130 172 214 254 301
#     4  10  22  36  51  74 105 139 173 211 256 304
#     4  10  19  31  49  73 102 138 173 206 247 300
#     4   9  18  33  51  77 106 133 165 207 259 301
#
# _framework density 17.196031000000001
#
# number of rings (size 3 to 8) (size 9 to 14) (size 15 to 20)
#    0.000    2.250    2.500    1.500    0.000    5.000 
#    0.000    2.500    0.000    0.750    0.000    5.250 
#    0.000    0.000    0.000    0.000    0.000    0.000 
#
# Total GULP energy -396840.797465 kJ/mol
# GULP energy per Si atom -12401.274921 kJ/mol
# Density = 1.715689 g / cm^3
# Si number density = 17.196031 Si / 1000 Ang^3
#
#
#
# Elastic Constant Matrix: (Units=GPa)
#
#
# Indices 1 2 3 4 5 6 
#
# 1 99.3674 42.4290 55.6864 0.0000 -2.8085 0.0000
# 2 42.4290 70.9116 46.6938 0.0000 -3.7007 0.0000
# 3 55.6864 46.6938 101.9524 0.0000 -8.1847 0.0000
# 4 0.0000 0.0000 0.0000 30.6957 0.0000 -5.6771
# 5 -2.8085 -3.7007 -8.1847 0.0000 23.4634 0.0000
# 6 0.0000 0.0000 0.0000 -5.6771 0.0000 23.5877
#
#
#
# Elastic Compliance Matrix: (Units=1/GPa)
#
#
# Indices 1 2 3 4 5 6 
#
# 1 0.015861 -0.005419 -0.006273 0.000000 -0.001144 0.000000
# 2 -0.005419 0.022043 -0.007108 0.000000 0.000349 0.000000
# 3 -0.006273 -0.007108 0.016811 0.000000 0.003992 0.000000
# 4 0.000000 0.000000 0.000000 0.034096 0.000000 0.008206
# 5 -0.001144 0.000349 0.003992 0.000000 0.043930 0.000000
# 6 0.000000 0.000000 0.000000 0.008206 0.000000 0.044370
#
#
# Mechanical properties :
#
#
# Convention : Reuss Voigt Hill
#
# Bulk Modulus (GPa) = 58.42965 62.42776 60.42871
# Shear Modulus (GPa) = 22.68453 24.04418 23.36435
#
# Velocity S-wave (km/s) = 3.63598 3.74336 3.69006
# Velocity P-wave (km/s) = 7.18884 7.42065 7.30567
#
# Compressibility (1/GPa) = 0.01711460
#
# Stress axis : x y z
#
# Youngs Moduli (GPa) = 63.04886 45.36589 59.48615
#
# Poissons Ratio (x) = 0.24584 0.37316
# Poissons Ratio (y) = 0.34167 0.42281
# Poissons Ratio (z) = 0.39551 0.32245
#
# Static dielectric constant tensor:
#      x y z
#    x 3.145970 0.000000 -0.152920 
#    y 0.000000 3.206660 0.000000 
#    z -0.152920 0.000000 3.079890 
# 
# 
# High freq. dielectric constant tensor:
#      x y z
#    x 1.650900 0.000000 -0.016950 
#    y 0.000000 1.666800 0.000000 
#    z -0.016950 0.000000 1.649750 
# 
# From -- ./inp_files/49977.got.cif
#   From: 2010.06.25/outbox.cif.g09.slc.cpg/sg10_25_cif.got.tgz:49977.got - 2010.06.27 22:07:45.
