data_PCOD8060565
_publ_section_title
;
Structure prediction by ZEFSAII (Michael W. Deem and Ramdas Pophale) SiO2 
 PCOD8060565
Probable space group: P 2/M
;
_chemical_formula_sum "Si O2"
_cell_formula_units_Z 24
_cell_length_a 13.017324
_cell_length_b 17.744535
_cell_length_c 5.089353
_cell_angle_alpha 90.000000
_cell_angle_beta 87.786473
_cell_angle_gamma 90.000000
_cell_volume 1174.693950
_symmetry_space_group_name_H-M "P 2/M"
_symmetry_group_IT_number 10
_symmetry_cell_setting 'monoclinic'
loop_
_space_group_symop_operation_xyz
x,y,z
-x,y,-z
-x,-y,-z
x,-y,z
loop_
_atom_site_type_symbol
_atom_site_label
_atom_site_fract_x
_atom_site_fract_y
_atom_site_fract_z
Si Si1 0.384510 0.171100 0.464874
Si Si2 0.389239 0.414749 0.026983
Si Si3 0.262226 0.414443 0.554926
Si Si4 0.687081 0.912049 0.024940
Si Si5 0.184281 0.737967 0.524019
Si Si6 0.114091 0.821329 0.033526
O O1 0.500000 0.201325 0.500000
O O2 0.352545 0.109091 0.682935
O O3 0.305206 0.240753 0.480198
O O4 0.380993 0.131886 0.181237
O O5 0.405247 0.500000 0.926077
O O6 0.308509 0.381954 0.824484
O O7 0.500000 0.372737 0.000000
O O8 0.349586 0.411281 0.325937
O O9 0.216883 0.500000 0.581382
O O10 0.174308 0.353088 0.493103
O O11 0.673755 0.000000 0.980956
O O12 0.807363 0.891126 0.980522
O O13 0.116380 0.779158 0.312198
O O14 0.142569 0.760399 0.811456
O O15 0.000000 0.853944 0.000000
#
# Coordination Sequence:
#
# PCOD8060565 Si02
#       6
#     4   4   4   4   4   4
#     4  10  21  35  52  78 114 153 182 209 253 307
#     4   9  17  28  43  68 100 134 175 216 258 310
#     4  10  19  32  51  73 102 140 177 225 279 311
#     4  10  21  36  56  84 111 137 179 222 256 311
#     4  10  21  37  55  80 108 139 184 223 261 325
#     4  10  21  39  61  80 104 138 173 220 279 325
#
# _framework density 20.430855000000001
#
# number of rings (size 3 to 8) (size 9 to 14) (size 15 to 20)
#    0.000    2.167    0.000    3.000    0.000    5.667 
#    0.000    0.000    0.000    9.000    0.000    0.000 
#    0.000    0.000    0.000    0.000    0.000    0.000 
#
# Total GULP energy -297569.763433 kJ/mol
# GULP energy per Si atom -12398.740143 kJ/mol
# Density = 2.038435 g / cm^3
# Si number density = 20.430855 Si / 1000 Ang^3
#
#
#
# Elastic Constant Matrix: (Units=GPa)
#
#
# Indices 1 2 3 4 5 6 
#
# 1 77.9933 0.3201 2.0128 0.0000 20.3162 0.0000
# 2 0.3201 68.1655 8.1977 0.0000 1.0114 0.0000
# 3 2.0128 8.1977 88.0876 0.0000 8.7450 0.0000
# 4 0.0000 0.0000 0.0000 15.3452 0.0000 0.5537
# 5 20.3162 1.0114 8.7450 0.0000 23.2830 0.0000
# 6 0.0000 0.0000 0.0000 0.5537 0.0000 9.4939
#
#
#
# Elastic Compliance Matrix: (Units=1/GPa)
#
#
# Indices 1 2 3 4 5 6 
#
# 1 0.016696 0.000011 0.001105 0.000000 -0.014984 0.000000
# 2 0.000011 0.014837 -0.001367 0.000000 -0.000141 0.000000
# 3 0.001105 -0.001367 0.011991 0.000000 -0.005409 0.000000
# 4 0.000000 0.000000 0.000000 0.065305 0.000000 -0.003809
# 5 -0.014984 -0.000141 -0.005409 0.000000 0.058062 0.000000
# 6 0.000000 0.000000 0.000000 -0.003809 0.000000 0.105553
#
#
# Mechanical properties :
#
#
# Convention : Reuss Voigt Hill
#
# Bulk Modulus (GPa) = 23.24379 28.36751 25.80565
# Shear Modulus (GPa) = 17.40424 24.53880 20.97152
#
# Velocity S-wave (km/s) = 2.92183 3.46940 3.20732
# Velocity P-wave (km/s) = 4.77329 5.47392 5.13557
#
# Compressibility (1/GPa) = 0.04302224
#
# Stress axis : x y z
#
# Youngs Moduli (GPa) = 59.89370 67.40087 83.39406
#
# Poissons Ratio (x) = -0.00074 -0.09215
# Poissons Ratio (y) = -0.00066 0.11400
# Poissons Ratio (z) = -0.06619 0.09214
#
# Static dielectric constant tensor:
#      x y z
#    x 3.555250 0.000000 0.120860 
#    y 0.000000 3.496360 0.000000 
#    z 0.120860 0.000000 3.850270 
# 
# 
# High freq. dielectric constant tensor:
#      x y z
#    x 1.772130 0.000000 0.004240 
#    y 0.000000 1.780290 0.000000 
#    z 0.004240 0.000000 1.821150 
# 
# From -- ./inp_files/7220.got.cif
#   From: 2010.06.25/outbox.cif.g09.slc.cpg/sg10_4_cif.got.tgz:7220.got - 2010.06.27 22:07:45.
