data_PCOD8060495
_publ_section_title
;
Structure prediction by ZEFSAII (Michael W. Deem and Ramdas Pophale) SiO2 
 PCOD8060495
Probable space group: P 2/M
;
_chemical_formula_sum "Si O2"
_cell_formula_units_Z 28
_cell_length_a 10.676273
_cell_length_b 8.712840
_cell_length_c 19.068104
_cell_angle_alpha 90.000000
_cell_angle_beta 56.063770
_cell_angle_gamma 90.000000
_cell_volume 1471.589836
_symmetry_space_group_name_H-M "P 2/M"
_symmetry_group_IT_number 10
_symmetry_cell_setting 'monoclinic'
loop_
_space_group_symop_operation_xyz
x,y,z
-x,y,-z
-x,-y,-z
x,-y,z
loop_
_atom_site_type_symbol
_atom_site_label
_atom_site_fract_x
_atom_site_fract_y
_atom_site_fract_z
Si Si1 0.323627 0.176433 0.564033
Si Si2 0.042668 0.179592 0.562647
Si Si3 0.839415 0.321362 0.262414
Si Si4 0.880152 0.818453 0.752633
Si Si5 0.645136 0.326822 0.917133
Si Si6 0.826840 0.179190 0.125158
Si Si7 0.854284 0.673170 0.982457
O O1 0.500000 0.205627 0.500000
O O2 0.278468 0.292083 0.639129
O O3 0.218518 0.214152 0.528625
O O4 0.291814 0.000000 0.596142
O O5 0.930048 0.241921 0.659359
O O6 0.000000 0.255010 0.500000
O O7 0.015569 0.000000 0.564953
O O8 0.871138 0.500000 0.242067
O O9 0.762070 0.251975 0.216823
O O10 0.998406 0.240626 0.229107
O O11 0.712737 0.759261 0.827397
O O12 0.879284 0.000000 0.754596
O O13 0.602056 0.500000 0.907444
O O14 0.500000 0.247292 0.000000
O O15 0.771387 0.323857 0.935834
O O16 0.753666 0.261055 0.079108
O O17 0.791312 0.000000 0.134637
O O18 0.004756 0.213682 0.068626
O O19 0.906027 0.500000 0.983480
#
# Coordination Sequence:
#
# PCOD8060495 Si02
#       7
#     4   4   4   4   4   4   4
#     4   9  18  33  53  78 107 138 172 217 269 320
#     4   8  15  30  53  79 105 135 172 213 264 321
#     4  11  20  32  52  76 104 137 174 215 261 322
#     4  10  19  32  53  78 102 133 179 227 265 311
#     4  10  21  36  53  73 104 145 181 217 266 321
#     4  11  20  31  50  75 102 129 168 219 261 301
#     4  10  19  32  50  72 101 136 171 207 260 314
#
# _framework density 19.02704
#
# number of rings (size 3 to 8) (size 9 to 14) (size 15 to 20)
#    0.000    2.143    1.429    5.143    0.000    1.143 
#    0.000    1.429    0.000   12.429    0.000    0.000 
#    0.000    0.000    0.000    0.000    0.000    0.000 
#
# Total GULP energy -346903.210956 kJ/mol
# GULP energy per Si atom -12389.400391 kJ/mol
# Density = 1.898373 g / cm^3
# Si number density = 19.027040 Si / 1000 Ang^3
#
#
#
# Elastic Constant Matrix: (Units=GPa)
#
#
# Indices 1 2 3 4 5 6 
#
# 1 53.6856 13.1973 51.2524 0.0000 3.6554 0.0000
# 2 13.1973 73.4408 33.6222 0.0000 3.4363 0.0000
# 3 51.2524 33.6222 125.5683 0.0000 2.2727 0.0000
# 4 0.0000 0.0000 0.0000 32.7123 0.0000 2.2425
# 5 3.6554 3.4363 2.2727 0.0000 36.3905 0.0000
# 6 0.0000 0.0000 0.0000 2.2425 0.0000 17.6882
#
#
#
# Elastic Compliance Matrix: (Units=1/GPa)
#
#
# Indices 1 2 3 4 5 6 
#
# 1 0.030719 0.000353 -0.012591 0.000000 -0.002333 0.000000
# 2 0.000353 0.015576 -0.004292 0.000000 -0.001238 0.000000
# 3 -0.012591 -0.004292 0.014238 0.000000 0.000781 0.000000
# 4 0.000000 0.000000 0.000000 0.030838 0.000000 -0.003910
# 5 -0.002333 -0.001238 0.000781 0.000000 0.027782 0.000000
# 6 0.000000 0.000000 0.000000 -0.003910 0.000000 0.057031
#
#
# Mechanical properties :
#
#
# Convention : Reuss Voigt Hill
#
# Bulk Modulus (GPa) = 36.39912 49.87095 43.13504
# Shear Modulus (GPa) = 22.89366 27.66638 25.28002
#
# Velocity S-wave (km/s) = 3.47251 3.81735 3.64900
# Velocity P-wave (km/s) = 5.93713 6.75995 6.36186
#
# Compressibility (1/GPa) = 0.02747319
#
# Stress axis : x y z
#
# Youngs Moduli (GPa) = 32.55311 64.20136 70.23433
#
# Poissons Ratio (x) = -0.02267 0.88430
# Poissons Ratio (y) = -0.01150 0.30147
# Poissons Ratio (z) = 0.40987 0.27558
#
# Static dielectric constant tensor:
#      x y z
#    x 3.542530 0.000000 0.365330 
#    y 0.000000 3.412070 0.000000 
#    z 0.365330 0.000000 3.940680 
# 
# 
# High freq. dielectric constant tensor:
#      x y z
#    x 1.711470 0.000000 0.019050 
#    y 0.000000 1.725960 0.000000 
#    z 0.019050 0.000000 1.744630 
# 
# From -- ./inp_files/83309.got.cif
#   From: 2010.06.25/outbox.cif.g09.slc.cpg/sg10_42_cif.got.tgz:83309.got - 2010.06.27 22:07:45.
