data_PCOD8060403
_publ_section_title
;
Structure prediction by ZEFSAII (Michael W. Deem and Ramdas Pophale) SiO2 
 PCOD8060403
Probable space group: P 2/M
;
_chemical_formula_sum "Si O2"
_cell_formula_units_Z 32
_cell_length_a 16.866065
_cell_length_b 8.771618
_cell_length_c 17.024666
_cell_angle_alpha 90.000000
_cell_angle_beta 129.466859
_cell_angle_gamma 90.000000
_cell_volume 1944.397664
_symmetry_space_group_name_H-M "P 2/M"
_symmetry_group_IT_number 10
_symmetry_cell_setting 'monoclinic'
loop_
_space_group_symop_operation_xyz
x,y,z
-x,y,-z
-x,-y,-z
x,-y,z
loop_
_atom_site_type_symbol
_atom_site_label
_atom_site_fract_x
_atom_site_fract_y
_atom_site_fract_z
Si Si1 0.450174 0.171116 0.680170
Si Si2 0.548241 0.819460 0.147914
Si Si3 0.399421 0.818540 0.482080
Si Si4 0.003889 0.319813 0.090899
Si Si5 0.226259 0.322472 0.270603
Si Si6 0.341292 0.179628 0.934808
Si Si7 0.689852 0.171641 0.825581
Si Si8 0.207041 0.679852 0.968094
O O1 0.428665 0.253499 0.750964
O O2 0.396691 0.248054 0.570033
O O3 0.569671 0.171200 0.735334
O O4 0.407866 0.000000 0.660790
O O5 0.640414 0.779824 0.145700
O O6 0.535759 0.000000 0.149046
O O7 0.440244 0.759701 0.045564
O O8 0.500000 0.753524 0.500000
O O9 0.294085 0.771363 0.374479
O O10 0.406636 0.000000 0.488676
O O11 0.001634 0.500000 0.080524
O O12 0.107055 0.271617 0.202472
O O13 0.907516 0.263536 0.082163
O O14 0.000000 0.248838 0.000000
O O15 0.241766 0.500000 0.297443
O O16 0.257778 0.287310 0.201529
O O17 0.325389 0.000000 0.935687
O O18 0.239356 0.268315 0.900477
O O19 0.712215 0.232873 0.926161
O O20 0.733006 0.000000 0.841818
O O21 0.217436 0.500000 0.984609
#
# Coordination Sequence:
#
# PCOD8060403 Si02
#       8
#     4   4   4   4   4   4   4   4
#     4   9  16  28  47  67  92 128 160 181 220 279
#     4   8  14  26  46  69  92 125 158 184 223 280
#     4  10  19  32  48  69  96 126 156 191 232 275
#     4   9  18  33  48  63  90 127 159 186 230 286
#     4  11  21  34  49  66  92 125 162 199 231 271
#     4   9  16  28  47  69  94 121 156 194 226 273
#     4  11  19  30  48  69  95 125 159 194 229 272
#     4  11  20  31  47  68  94 127 160 191 233 281
#
# _framework density 16.457538
#
# number of rings (size 3 to 8) (size 9 to 14) (size 15 to 20)
#    0.000    2.250    3.750    1.875    0.000    0.250 
#    0.000    4.375    0.000    0.000    0.000    0.875 
#    0.000    7.000    0.000    0.000    0.000    0.000 
#
# Total GULP energy -396554.053209 kJ/mol
# GULP energy per Si atom -12392.314163 kJ/mol
# Density = 1.642008 g / cm^3
# Si number density = 16.457538 Si / 1000 Ang^3
#
#
#
# Elastic Constant Matrix: (Units=GPa)
#
#
# Indices 1 2 3 4 5 6 
#
# 1 119.9894 17.1958 51.2007 0.0000 -10.9501 0.0000
# 2 17.1958 21.1488 20.6861 0.0000 0.7448 0.0000
# 3 51.2007 20.6861 81.1916 0.0000 -9.7045 0.0000
# 4 0.0000 0.0000 0.0000 13.8157 0.0000 -0.6447
# 5 -10.9501 0.7448 -9.7045 0.0000 26.5825 0.0000
# 6 0.0000 0.0000 0.0000 -0.6447 0.0000 20.0558
#
#
#
# Elastic Compliance Matrix: (Units=1/GPa)
#
#
# Indices 1 2 3 4 5 6 
#
# 1 0.011721 -0.003608 -0.006151 0.000000 0.002684 0.000000
# 2 -0.003608 0.065747 -0.015552 0.000000 -0.009006 0.000000
# 3 -0.006151 -0.015552 0.020816 0.000000 0.005501 0.000000
# 4 0.000000 0.000000 0.000000 0.072490 0.000000 0.002330
# 5 0.002684 -0.009006 0.005501 0.000000 0.040985 0.000000
# 6 0.000000 0.000000 0.000000 0.002330 0.000000 0.049936
#
#
# Mechanical properties :
#
#
# Convention : Reuss Voigt Hill
#
# Bulk Modulus (GPa) = 20.98186 44.49944 32.74065
# Shear Modulus (GPa) = 15.23444 20.97395 18.10419
#
# Velocity S-wave (km/s) = 3.04580 3.57379 3.32031
# Velocity P-wave (km/s) = 5.01458 6.64281 5.88527
#
# Compressibility (1/GPa) = 0.04766022
#
# Stress axis : x y z
#
# Youngs Moduli (GPa) = 85.31793 15.20987 48.04062
#
# Poissons Ratio (x) = 0.05487 0.29552
# Poissons Ratio (y) = 0.30780 0.74715
# Poissons Ratio (z) = 0.52483 0.23655
#
# Static dielectric constant tensor:
#      x y z
#    x 3.251000 0.000000 -0.168870 
#    y 0.000000 2.796550 0.000000 
#    z -0.168870 0.000000 3.146280 
# 
# 
# High freq. dielectric constant tensor:
#      x y z
#    x 1.627350 0.000000 -0.013450 
#    y 0.000000 1.603830 0.000000 
#    z -0.013450 0.000000 1.612760 
# 
# From -- ./inp_files/77396.got.cif
#   From: 2010.06.25/outbox.cif.g09.slc.cpg/sg10_39_cif.got.tgz:77396.got - 2010.06.27 22:07:45.
