data_PCOD8060221
_publ_section_title
;
Structure prediction by ZEFSAII (Michael W. Deem and Ramdas Pophale) SiO2 
 PCOD8060221
Probable space group: P 2/M
;
_chemical_formula_sum "Si O2"
_cell_formula_units_Z 32
_cell_length_a 27.038691
_cell_length_b 9.546200
_cell_length_c 25.999957
_cell_angle_alpha 90.000000
_cell_angle_beta 15.949114
_cell_angle_gamma 90.000000
_cell_volume 1844.078946
_symmetry_space_group_name_H-M "P 2/M"
_symmetry_group_IT_number 10
_symmetry_cell_setting 'monoclinic'
loop_
_space_group_symop_operation_xyz
x,y,z
-x,y,-z
-x,-y,-z
x,-y,z
loop_
_atom_site_type_symbol
_atom_site_label
_atom_site_fract_x
_atom_site_fract_y
_atom_site_fract_z
Si Si1 0.703992 0.334445 0.795983
Si Si2 0.706054 0.160468 0.059879
Si Si3 0.000025 0.665990 0.580416
Si Si4 0.205028 0.661062 0.659714
Si Si5 0.999626 0.837528 0.316363
Si Si6 0.704502 0.160380 0.529807
Si Si7 0.499397 0.666035 0.557671
Si Si8 0.796960 0.660984 0.068064
O O1 0.688007 0.500000 0.812122
O O2 0.819264 0.287201 0.730581
O O3 0.818614 0.287662 0.631329
O O4 0.500000 0.269345 0.000000
O O5 0.500859 0.186600 0.249017
O O6 0.758688 0.253381 0.055368
O O7 0.742431 0.000000 0.039228
O O8 0.825236 0.202394 0.891879
O O9 0.999611 0.500000 0.589510
O O10 0.999733 0.742654 0.634523
O O11 0.252008 0.500000 0.600458
O O12 0.241389 0.746071 0.572124
O O13 0.326386 0.718359 0.585071
O O14 0.001147 0.679712 0.881825
O O15 0.822874 0.798574 0.460542
O O16 0.000647 0.000000 0.331497
O O17 0.740646 0.000000 0.477713
O O18 0.500000 0.733784 0.500000
O O19 0.500845 0.500000 0.550944
O O20 0.323392 0.717271 0.764514
O O21 0.750146 0.500000 0.102391
#
# Coordination Sequence:
#
# PCOD8060221 Si02
#       8
#     4   4   4   4   4   4   4   4
#     4   8  15  31  54  76 102 134 168 206 252 296
#     4  10  20  34  52  72  96 134 174 205 248 304
#     4   9  18  32  52  78 102 131 171 209 244 294
#     4  10  19  31  51  76  99 126 164 207 249 298
#     4  10  21  35  49  72 107 137 164 206 258 303
#     4  10  20  34  52  72  96 134 174 205 248 304
#     4   9  18  32  49  73 105 133 159 202 259 308
#     4  10  19  31  51  76  99 126 164 207 249 298
#
# _framework density 17.352837000000001
#
# number of rings (size 3 to 8) (size 9 to 14) (size 15 to 20)
#    0.000    2.500    2.500    0.750    0.000    2.500 
#    0.000    3.750    0.000    2.250    0.000    1.750 
#    0.000    0.000    0.000    0.000    0.000    0.000 
#
# Total GULP energy -396736.603301 kJ/mol
# GULP energy per Si atom -12398.018853 kJ/mol
# Density = 1.731334 g / cm^3
# Si number density = 17.352837 Si / 1000 Ang^3
#
#
#
# Elastic Constant Matrix: (Units=GPa)
#
#
# Indices 1 2 3 4 5 6 
#
# 1 159.4173 56.7686 84.7258 0.0000 5.6443 0.0000
# 2 56.7686 45.7565 40.1113 0.0000 4.5605 0.0000
# 3 84.7258 40.1113 157.4145 0.0000 -5.3895 0.0000
# 4 0.0000 0.0000 0.0000 7.7453 0.0000 -31.9753
# 5 5.6443 4.5605 -5.3895 0.0000 30.0080 0.0000
# 6 0.0000 0.0000 0.0000 -31.9753 0.0000 -97.8701
#
#
#
# Elastic Compliance Matrix: (Units=1/GPa)
#
#
# Indices 1 2 3 4 5 6 
#
# 1 0.012700 -0.012376 -0.003722 0.000000 -0.001176 0.000000
# 2 -0.012376 0.041168 -0.003988 0.000000 -0.004645 0.000000
# 3 -0.003722 -0.003988 0.009475 0.000000 0.003008 0.000000
# 4 0.000000 0.000000 0.000000 0.054969 0.000000 -0.017959
# 5 -0.001176 -0.004645 0.003008 0.000000 0.034792 0.000000
# 6 0.000000 0.000000 0.000000 -0.017959 0.000000 -0.004350
#
#
# Mechanical properties :
#
#
# Convention : Reuss Voigt Hill
#
# Bulk Modulus (GPa) = 43.15764 80.64440 61.90102
# Shear Modulus (GPa) = 25.42578 0.04216 12.73397
#
# Velocity S-wave (km/s) = 3.83198 0.15603 2.71186
# Velocity P-wave (km/s) = 6.67108 6.82691 6.74945
#
# Compressibility (1/GPa) = 0.02317087
#
# Stress axis : x y z
#
# Youngs Moduli (GPa) = 78.74097 24.29047 105.53814
#
# Poissons Ratio (x) = 0.30062 0.39283
# Poissons Ratio (y) = 0.97451 0.42089
# Poissons Ratio (z) = 0.29309 0.09687
#
# Static dielectric constant tensor:
#      x y z
#    x 3.234810 0.000000 -0.080680 
#    y 0.000000 2.996710 0.000000 
#    z -0.080680 0.000000 3.511820 
# 
# 
# High freq. dielectric constant tensor:
#      x y z
#    x 1.666790 0.000000 -0.006280 
#    y 0.000000 1.640290 0.000000 
#    z -0.006280 0.000000 1.689540 
# 
# From -- ./inp_files/86243.got.cif
#   From: 2010.06.25/outbox.cif.g09.slc.cpg/sg10_44_cif.got.tgz:86243.got - 2010.06.27 22:07:45.
