data_PCOD8060347
_publ_section_title
;
Structure prediction by ZEFSAII (Michael W. Deem and Ramdas Pophale) SiO2 
 PCOD8060347
Probable space group: P 2/M
;
_chemical_formula_sum "Si O2"
_cell_formula_units_Z 18
_cell_length_a 21.195069
_cell_length_b 7.768041
_cell_length_c 5.173828
_cell_angle_alpha 90.000000
_cell_angle_beta 83.115611
_cell_angle_gamma 90.000000
_cell_volume 845.698853
_symmetry_space_group_name_H-M "P 2/M"
_symmetry_group_IT_number 10
_symmetry_cell_setting 'monoclinic'
loop_
_space_group_symop_operation_xyz
x,y,z
-x,y,-z
-x,-y,-z
x,-y,z
loop_
_atom_site_type_symbol
_atom_site_label
_atom_site_fract_x
_atom_site_fract_y
_atom_site_fract_z
Si Si1 0.043166 0.500000 0.728692
Si Si2 0.789389 0.303564 0.829576
Si Si3 0.859177 0.807808 0.298149
Si Si4 0.353207 0.204416 0.079467
Si Si5 0.571111 0.204297 0.458869
O O1 0.084558 0.672100 0.705081
O O2 0.000000 0.500000 0.500000
O O3 0.000000 0.500000 0.000000
O O4 0.812834 0.500000 0.824715
O O5 0.807534 0.219770 0.547944
O O6 0.714263 0.296090 0.901356
O O7 0.823810 0.204004 0.042770
O O8 0.887953 0.000000 0.307409
O O9 0.389842 0.271178 0.314185
O O10 0.343361 0.000000 0.085676
O O11 0.393845 0.267867 0.815478
O O12 0.500000 0.281917 0.500000
O O13 0.567227 0.000000 0.467018
#
# Coordination Sequence:
#
# PCOD8060347 Si02
#       5
#     2   4   4   4   4
#     4  12  26  46  72 102 142 174 215 264 313 374
#     4  12  23  42  65  94 133 170 215 273 336 386
#     4  12  25  45  71 100 134 177 220 266 323 381
#     4  10  19  31  53  84 112 152 210 262 318 389
#     4   9  17  30  49  76 113 154 203 264 321 380
#
# _framework density 21.284172000000002
#
# number of rings (size 3 to 8) (size 9 to 14) (size 15 to 20)
#    0.000    1.111    2.222    5.333    0.000    5.333 
#    0.000    0.000    0.000    4.000    0.000    0.000 
#    0.000    0.000    0.000    0.000    0.000    0.000 
#
# Total GULP energy -223297.851253 kJ/mol
# GULP energy per Si atom -12405.436181 kJ/mol
# Density = 2.123573 g / cm^3
# Si number density = 21.284172 Si / 1000 Ang^3
#
#
#
# Elastic Constant Matrix: (Units=GPa)
#
#
# Indices 1 2 3 4 5 6 
#
# 1 137.0040 39.3221 42.5863 0.0000 3.5646 0.0000
# 2 39.3221 119.2040 26.9032 0.0000 -5.6588 0.0000
# 3 42.5863 26.9032 139.9669 0.0000 3.7210 0.0000
# 4 0.0000 0.0000 0.0000 14.8383 0.0000 -3.4061
# 5 3.5646 -5.6588 3.7210 0.0000 40.1131 0.0000
# 6 0.0000 0.0000 0.0000 -3.4061 0.0000 30.9679
#
#
#
# Elastic Compliance Matrix: (Units=1/GPa)
#
#
# Indices 1 2 3 4 5 6 
#
# 1 0.008688 -0.002423 -0.002153 0.000000 -0.000914 0.000000
# 2 -0.002423 0.009524 -0.001138 0.000000 0.001664 0.000000
# 3 -0.002153 -0.001138 0.008037 0.000000 -0.000715 0.000000
# 4 0.000000 0.000000 0.000000 0.069139 0.000000 0.007605
# 5 -0.000914 0.001664 -0.000715 0.000000 0.025312 0.000000
# 6 0.000000 0.000000 0.000000 0.007605 0.000000 0.033128
#
#
# Mechanical properties :
#
#
# Convention : Reuss Voigt Hill
#
# Bulk Modulus (GPa) = 67.47196 68.19977 67.83587
# Shear Modulus (GPa) = 29.37787 36.34140 32.85964
#
# Velocity S-wave (km/s) = 3.71923 4.13660 3.93345
# Velocity P-wave (km/s) = 7.08610 7.41130 7.25052
#
# Compressibility (1/GPa) = 0.01482097
#
# Stress axis : x y z
#
# Youngs Moduli (GPa) = 115.10580 104.99675 124.41918
#
# Poissons Ratio (x) = 0.25443 0.26790
# Poissons Ratio (y) = 0.27893 0.14154
# Poissons Ratio (z) = 0.24785 0.11944
#
# Static dielectric constant tensor:
#      x y z
#    x 3.887910 0.000000 0.022470 
#    y 0.000000 3.675660 0.000000 
#    z 0.022470 0.000000 4.153060 
# 
# 
# High freq. dielectric constant tensor:
#      x y z
#    x 1.837790 0.000000 0.001240 
#    y 0.000000 1.824310 0.000000 
#    z 0.001240 0.000000 1.856060 
# 
# From -- ./inp_files/10556.got.cif
#   From: 2010.06.25/outbox.cif.g09.slc.cpg/sg10_6_cif.got.tgz:10556.got - 2010.06.27 22:07:45.
