data_PCOD8060956
_publ_section_title
;
Structure prediction by ZEFSAII (Michael W. Deem and Ramdas Pophale) SiO2 
 PCOD8060956
Probable space group: P 2/M
;
_chemical_formula_sum "Si O2"
_cell_formula_units_Z 28
_cell_length_a 8.786049
_cell_length_b 14.420005
_cell_length_c 20.889403
_cell_angle_alpha 90.000000
_cell_angle_beta 151.084980
_cell_angle_gamma 90.000000
_cell_volume 1279.652941
_symmetry_space_group_name_H-M "P 2/M"
_symmetry_group_IT_number 10
_symmetry_cell_setting 'monoclinic'
loop_
_space_group_symop_operation_xyz
x,y,z
-x,y,-z
-x,-y,-z
x,-y,z
loop_
_atom_site_type_symbol
_atom_site_label
_atom_site_fract_x
_atom_site_fract_y
_atom_site_fract_z
Si Si1 0.324961 0.395782 0.714916
Si Si2 0.754892 0.861652 0.544044
Si Si3 0.555096 0.101363 0.697442
Si Si4 0.442988 0.897973 0.802968
Si Si5 0.726033 0.288767 0.948736
Si Si6 0.363017 0.351610 0.513790
Si Si7 0.245301 0.300466 0.229587
O O1 0.457037 0.500000 0.754430
O O2 0.426968 0.353828 0.822061
O O3 0.480344 0.326554 0.720483
O O4 0.945200 0.402301 0.571181
O O5 0.500000 0.901768 0.500000
O O6 0.712004 0.900812 0.456164
O O7 0.750706 0.751290 0.542304
O O8 0.084955 0.894323 0.694814
O O9 0.421742 0.120194 0.719124
O O10 0.771308 0.189977 0.761685
O O11 0.727259 0.000000 0.759642
O O12 0.646526 0.821009 0.915579
O O13 0.586883 0.000000 0.871493
O O14 0.000000 0.310815 0.000000
O O15 0.885183 0.320313 0.074838
O O16 0.500000 0.399422 0.500000
O O17 0.657461 0.356187 0.671253
#
# Coordination Sequence:
#
# PCOD8060956 Si02
#       7
#     4   4   4   4   4   4   4
#     4  11  22  39  65  91 118 149 190 245 298 353
#     4  10  20  35  55  82 119 160 201 245 290 340
#     4  10  19  32  54  84 118 153 195 242 288 333
#     4  11  20  32  56  85 117 157 197 242 293 344
#     4  10  20  38  57  86 121 153 193 237 290 350
#     4  10  21  39  63  88 116 154 196 242 294 345
#     4  10  21  38  61  88 120 155 195 241 287 350
#
# _framework density 21.880932999999999
#
# number of rings (size 3 to 8) (size 9 to 14) (size 15 to 20)
#    0.000    1.714    4.286    1.286    0.000    9.429 
#    0.000    0.714    0.000    0.857    0.000    4.000 
#    0.000    0.000    0.000    0.000    0.000    0.000 
#
# Total GULP energy -346870.574425 kJ/mol
# GULP energy per Si atom -12388.234801 kJ/mol
# Density = 2.183113 g / cm^3
# Si number density = 21.880933 Si / 1000 Ang^3
#
#
#
# Elastic Constant Matrix: (Units=GPa)
#
#
# Indices 1 2 3 4 5 6 
#
# 1 66.0058 1.8756 35.2435 0.0000 -8.6737 0.0000
# 2 1.8756 107.9108 19.7252 0.0000 -11.3476 0.0000
# 3 35.2435 19.7252 136.0830 0.0000 -25.4298 0.0000
# 4 0.0000 0.0000 0.0000 11.1469 0.0000 4.7326
# 5 -8.6737 -11.3476 -25.4298 0.0000 19.7040 0.0000
# 6 0.0000 0.0000 0.0000 4.7326 0.0000 3.0999
#
#
#
# Elastic Compliance Matrix: (Units=1/GPa)
#
#
# Indices 1 2 3 4 5 6 
#
# 1 0.017729 0.000754 -0.004166 0.000000 0.002862 0.000000
# 2 0.000754 0.009921 -0.000664 0.000000 0.005189 0.000000
# 3 -0.004166 -0.000664 0.010687 0.000000 0.011576 0.000000
# 4 0.000000 0.000000 0.000000 0.254988 0.000000 -0.389286
# 5 0.002862 0.005189 0.011576 0.000000 0.069939 0.000000
# 6 0.000000 0.000000 0.000000 -0.389286 0.000000 0.916907
#
#
# Mechanical properties :
#
#
# Convention : Reuss Voigt Hill
#
# Bulk Modulus (GPa) = 33.12801 47.07646 40.10223
# Shear Modulus (GPa) = 3.85094 23.66718 13.75906
#
# Velocity S-wave (km/s) = 1.32807 3.29239 2.51034
# Velocity P-wave (km/s) = 4.18625 6.00122 5.17394
#
# Compressibility (1/GPa) = 0.03018594
#
# Stress axis : x y z
#
# Youngs Moduli (GPa) = 56.40372 100.79852 93.57279
#
# Poissons Ratio (x) = -0.07604 0.38984
# Poissons Ratio (y) = -0.04255 0.06211
# Poissons Ratio (z) = 0.23499 0.06690
#
# Static dielectric constant tensor:
#      x y z
#    x 3.687990 0.000000 -0.281300 
#    y 0.000000 3.971500 0.000000 
#    z -0.281300 0.000000 4.316370 
# 
# 
# High freq. dielectric constant tensor:
#      x y z
#    x 1.814830 0.000000 -0.012760 
#    y 0.000000 1.862320 0.000000 
#    z -0.012760 0.000000 1.854750 
# 
# From -- ./inp_files/82941.got.cif
#   From: 2010.06.25/outbox.cif.g09.slc.cpg/sg10_42_cif.got.tgz:82941.got - 2010.06.27 22:07:45.
