data_PCOD8060935
_publ_section_title
;
Structure prediction by ZEFSAII (Michael W. Deem and Ramdas Pophale) SiO2 
 PCOD8060935
Probable space group: P 2/M
;
_chemical_formula_sum "Si O2"
_cell_formula_units_Z 32
_cell_length_a 12.496688
_cell_length_b 9.018578
_cell_length_c 33.285478
_cell_angle_alpha 90.000000
_cell_angle_beta 154.482318
_cell_angle_gamma 90.000000
_cell_volume 1616.043414
_symmetry_space_group_name_H-M "P 2/M"
_symmetry_group_IT_number 10
_symmetry_cell_setting 'monoclinic'
loop_
_space_group_symop_operation_xyz
x,y,z
-x,y,-z
-x,-y,-z
x,-y,z
loop_
_atom_site_type_symbol
_atom_site_label
_atom_site_fract_x
_atom_site_fract_y
_atom_site_fract_z
Si Si1 0.247722 0.176153 0.254754
Si Si2 0.237323 0.828104 0.393561
Si Si3 0.070462 0.828306 0.632953
Si Si4 0.796156 0.824160 0.462041
Si Si5 0.538312 0.675810 0.904330
Si Si6 0.943481 0.328800 0.887517
Si Si7 0.017678 0.675718 0.763940
Si Si8 0.540156 0.670076 0.815106
O O1 0.521897 0.237225 0.359133
O O2 0.187387 0.225186 0.189288
O O3 0.043266 0.249539 0.214360
O O4 0.231338 0.000000 0.252949
O O5 0.500000 0.778386 0.500000
O O6 0.032084 0.796456 0.357574
O O7 0.183165 0.728532 0.336671
O O8 0.243468 0.000000 0.382423
O O9 0.875585 0.770567 0.533487
O O10 0.333120 0.748171 0.717468
O O11 0.118632 0.000000 0.641401
O O12 0.000000 0.760426 0.500000
O O13 0.786487 0.000000 0.455640
O O14 0.545616 0.500000 0.903538
O O15 0.290529 0.730937 0.842833
O O16 0.551180 0.741897 0.863441
O O17 0.775830 0.728844 0.010452
O O18 0.937068 0.500000 0.870919
O O19 0.803995 0.311175 0.882814
O O20 0.006411 0.500000 0.764541
O O21 0.460881 0.500000 0.791682
#
# Coordination Sequence:
#
# PCOD8060935 Si02
#       8
#     4   4   4   4   4   4   4   4
#     4  11  23  40  60  83 116 152 192 239 289 346
#     4  10  20  35  55  80 112 151 193 232 279 337
#     4  10  19  32  54  82 111 146 186 229 280 337
#     4   9  18  34  56  80 109 150 193 228 272 335
#     4   9  19  37  60  85 114 151 191 235 289 343
#     4  10  21  38  61  85 111 149 196 241 286 341
#     4  11  22  38  60  84 115 150 193 241 285 340
#     4  10  19  35  59  87 117 147 187 237 289 342
#
# _framework density 19.801449000000002
#
# number of rings (size 3 to 8) (size 9 to 14) (size 15 to 20)
#    0.000    2.000    1.250    2.625    0.000    5.750 
#    0.000    6.875    0.000    4.875    0.000    0.000 
#    0.000    0.000    0.000    0.000    0.000    0.000 
#
# Total GULP energy -396875.214550 kJ/mol
# GULP energy per Si atom -12402.350455 kJ/mol
# Density = 1.975638 g / cm^3
# Si number density = 19.801449 Si / 1000 Ang^3
#
#
#
# Elastic Constant Matrix: (Units=GPa)
#
#
# Indices 1 2 3 4 5 6 
#
# 1 99.0740 30.9258 41.3665 0.0000 3.5878 0.0000
# 2 30.9258 46.2891 27.7307 0.0000 1.4803 0.0000
# 3 41.3665 27.7307 129.1126 0.0002 7.0315 0.0000
# 4 0.0000 0.0000 0.0002 26.3037 0.0001 -1.8737
# 5 3.5878 1.4803 7.0315 0.0001 35.1574 0.0000
# 6 0.0000 0.0000 0.0000 -1.8737 0.0000 28.2223
#
#
#
# Elastic Compliance Matrix: (Units=1/GPa)
#
#
# Indices 1 2 3 4 5 6 
#
# 1 0.013564 -0.007413 -0.002725 0.000000 -0.000527 0.000000
# 2 -0.007413 0.028845 -0.003837 0.000000 0.000309 0.000000
# 3 -0.002725 -0.003837 0.009522 0.000000 -0.001465 0.000000
# 4 0.000000 0.000000 0.000000 0.038198 0.000000 0.002536
# 5 -0.000527 0.000309 -0.001465 0.000000 0.028777 0.000000
# 6 0.000000 0.000000 0.000000 0.002536 0.000000 0.035601
#
#
# Mechanical properties :
#
#
# Convention : Reuss Voigt Hill
#
# Bulk Modulus (GPa) = 41.69947 52.72462 47.21205
# Shear Modulus (GPa) = 26.25336 29.56684 27.91010
#
# Velocity S-wave (km/s) = 3.64515 3.86834 3.75840
# Velocity P-wave (km/s) = 6.23062 6.82910 6.53671
#
# Compressibility (1/GPa) = 0.02398112
#
# Stress axis : x y z
#
# Youngs Moduli (GPa) = 73.72299 34.66830 105.01843
#
# Poissons Ratio (x) = 0.25700 0.28618
# Poissons Ratio (y) = 0.54651 0.40296
# Poissons Ratio (z) = 0.20090 0.13302
#
# Static dielectric constant tensor:
#      x y z
#    x 3.717610 0.000000 0.077840 
#    y 0.000000 3.260490 0.000000 
#    z 0.077840 0.000000 3.719290 
# 
# 
# High freq. dielectric constant tensor:
#      x y z
#    x 1.782260 0.000000 0.002680 
#    y 0.000000 1.736670 0.000000 
#    z 0.002680 0.000000 1.781380 
# 
# From -- ./inp_files/95013.got.cif
#   From: 2010.06.25/outbox.cif.g09.slc.cpg/sg10_48_cif.got.tgz:95013.got - 2010.06.27 22:07:45.
