data_PCOD8060068
_publ_section_title
;
Structure prediction by ZEFSAII (Michael W. Deem and Ramdas Pophale) SiO2 
 PCOD8060068
Probable space group: P 2/M
;
_chemical_formula_sum "Si O2"
_cell_formula_units_Z 32
_cell_length_a 22.601357
_cell_length_b 9.926130
_cell_length_c 12.819945
_cell_angle_alpha 90.000000
_cell_angle_beta 140.944851
_cell_angle_gamma 90.000000
_cell_volume 1812.124978
_symmetry_space_group_name_H-M "P 2/M"
_symmetry_group_IT_number 10
_symmetry_cell_setting 'monoclinic'
loop_
_space_group_symop_operation_xyz
x,y,z
-x,y,-z
-x,-y,-z
x,-y,z
loop_
_atom_site_type_symbol
_atom_site_label
_atom_site_fract_x
_atom_site_fract_y
_atom_site_fract_z
Si Si1 0.742478 0.660736 0.037180
Si Si2 0.584663 0.149814 0.878619
Si Si3 0.212125 0.659417 0.313424
Si Si4 0.078183 0.660407 0.315891
Si Si5 0.207106 0.650245 0.670587
Si Si6 0.602977 0.752569 0.129728
Si Si7 0.131434 0.340580 0.982979
Si Si8 0.372692 0.150715 0.610914
O O1 0.723449 0.500000 0.012024
O O2 0.643337 0.738308 0.895075
O O3 0.806158 0.708103 0.028464
O O4 0.794200 0.711183 0.214340
O O5 0.475774 0.178737 0.705322
O O6 0.612749 0.000000 0.878856
O O7 0.602864 0.153354 0.027748
O O8 0.233051 0.500000 0.346275
O O9 0.130175 0.701828 0.280841
O O10 0.179200 0.708514 0.154749
O O11 0.306780 0.737052 0.470512
O O12 0.076382 0.500000 0.321773
O O13 0.135173 0.724372 0.492675
O O14 0.973204 0.720989 0.170862
O O15 0.169943 0.500000 0.629858
O O16 0.312890 0.645512 0.768369
O O17 0.625009 0.842065 0.260667
O O18 0.500000 0.681028 0.000000
O O19 0.123068 0.500000 0.972448
O O20 0.338625 0.000000 0.534690
#
# Coordination Sequence:
#
# PCOD8060068 Si02
#       8
#     4   4   4   4   4   4   4   4
#     4   9  18  32  49  72 101 129 163 201 241 284
#     4   9  18  32  50  72  98 131 165 194 236 295
#     4  10  19  32  51  74  99 127 164 203 242 287
#     4   9  16  28  49  75 100 124 160 204 245 289
#     4   9  16  26  43  74 105 126 153 199 248 285
#     4   9  16  27  45  70  98 130 162 191 233 295
#     4   9  18  32  50  71  95 131 169 202 239 285
#     4  10  19  31  49  74 101 128 160 199 245 292
#
# _framework density 17.658825
#
# number of rings (size 3 to 8) (size 9 to 14) (size 15 to 20)
#    0.000    2.750    1.250    0.750    0.000    4.250 
#    0.000    6.250    0.000    6.000    0.000    1.750 
#    0.000    0.000    0.000    0.000    0.000    0.000 
#
# Total GULP energy -396554.475921 kJ/mol
# GULP energy per Si atom -12392.327373 kJ/mol
# Density = 1.761863 g / cm^3
# Si number density = 17.658825 Si / 1000 Ang^3
#
#
#
# Elastic Constant Matrix: (Units=GPa)
#
#
# Indices 1 2 3 4 5 6 
#
# 1 133.5585 36.6477 75.7688 0.0000 1.3591 0.0000
# 2 36.6477 47.0459 37.1352 0.0000 7.3994 0.0000
# 3 75.7688 37.1352 121.8321 0.0000 12.2676 0.0000
# 4 0.0000 0.0000 0.0000 11.6020 0.0000 -1.8625
# 5 1.3591 7.3994 12.2676 0.0000 23.2386 0.0000
# 6 0.0000 0.0000 0.0000 -1.8625 0.0000 9.2853
#
#
#
# Elastic Compliance Matrix: (Units=1/GPa)
#
#
# Indices 1 2 3 4 5 6 
#
# 1 0.012725 -0.005289 -0.006756 0.000000 0.004506 0.000000
# 2 -0.005289 0.030674 -0.005395 0.000000 -0.006610 0.000000
# 3 -0.006756 -0.005395 0.014618 0.000000 -0.005604 0.000000
# 4 0.000000 0.000000 0.000000 0.089060 0.000000 0.017864
# 5 0.004506 -0.006610 -0.005604 0.000000 0.047831 0.000000
# 6 0.000000 0.000000 0.000000 0.017864 0.000000 0.111281
#
#
# Mechanical properties :
#
#
# Convention : Reuss Voigt Hill
#
# Bulk Modulus (GPa) = 43.21824 66.83776 55.02800
# Shear Modulus (GPa) = 14.33567 19.01749 16.67658
#
# Velocity S-wave (km/s) = 2.85233 3.28524 3.07641
# Velocity P-wave (km/s) = 5.94767 7.23340 6.62181
#
# Compressibility (1/GPa) = 0.02313838
#
# Stress axis : x y z
#
# Youngs Moduli (GPa) = 78.58371 32.60131 68.40854
#
# Poissons Ratio (x) = 0.17243 0.46214
# Poissons Ratio (y) = 0.41562 0.36904
# Poissons Ratio (z) = 0.53088 0.17587
#
# Static dielectric constant tensor:
#      x y z
#    x 3.348740 0.000000 0.047200 
#    y 0.000000 2.827530 0.000000 
#    z 0.047200 0.000000 3.473560 
# 
# 
# High freq. dielectric constant tensor:
#      x y z
#    x 1.679940 0.000000 0.003350 
#    y 0.000000 1.634040 0.000000 
#    z 0.003350 0.000000 1.685950 
# 
# From -- ./inp_files/50709.got.cif
#   From: 2010.06.25/outbox.cif.g09.slc.cpg/sg10_26_cif.got.tgz:50709.got - 2010.06.27 22:07:45.
