data_PCOD8060144
_publ_section_title
;
Structure prediction by ZEFSAII (Michael W. Deem and Ramdas Pophale) SiO2 
 PCOD8060144
Probable space group: P 2/M
;
_chemical_formula_sum "Si O2"
_cell_formula_units_Z 28
_cell_length_a 19.316408
_cell_length_b 13.908277
_cell_length_c 9.338320
_cell_angle_alpha 90.000000
_cell_angle_beta 41.165818
_cell_angle_gamma 90.000000
_cell_volume 1651.402842
_symmetry_space_group_name_H-M "P 2/M"
_symmetry_group_IT_number 10
_symmetry_cell_setting 'monoclinic'
loop_
_space_group_symop_operation_xyz
x,y,z
-x,y,-z
-x,-y,-z
x,-y,z
loop_
_atom_site_type_symbol
_atom_site_label
_atom_site_fract_x
_atom_site_fract_y
_atom_site_fract_z
Si Si1 0.289377 0.611115 0.669288
Si Si2 0.261349 0.108331 0.078871
Si Si3 0.879106 0.754492 0.162155
Si Si4 0.496973 0.389066 0.167770
Si Si5 0.081285 0.107280 0.148529
Si Si6 0.396228 0.277687 0.751787
Si Si7 0.844905 0.110350 0.471848
O O1 0.265995 0.500000 0.735378
O O2 0.185285 0.657307 0.763246
O O3 0.380907 0.625220 0.410958
O O4 0.318634 0.658293 0.775979
O O5 0.144303 0.119072 0.197269
O O6 0.246299 0.131412 0.270299
O O7 0.303921 0.000000 0.990923
O O8 0.344003 0.177198 0.874244
O O9 0.827897 0.814803 0.370813
O O10 0.866923 0.820637 0.043536
O O11 0.000000 0.726291 0.000000
O O12 0.531225 0.500000 0.117076
O O13 0.579673 0.333226 0.138472
O O14 0.500000 0.349406 0.000000
O O15 0.958845 0.129029 0.365720
O O16 0.094288 0.000000 0.064953
O O17 0.500000 0.254111 0.500000
O O18 0.836928 0.000000 0.429203
#
# Coordination Sequence:
#
# PCOD8060144 Si02
#       7
#     4   4   4   4   4   4   4
#     4  10  20  35  53  75 101 131 170 210 253 300
#     4  10  19  31  50  75 103 134 168 204 250 300
#     4  10  19  31  50  77 104 138 168 202 249 301
#     4   9  19  35  57  80  96 120 165 219 263 298
#     4   9  16  30  50  73 100 133 172 208 244 292
#     4  10  20  35  54  75 100 135 168 209 252 298
#     4   9  18  30  48  75 105 132 167 212 248 287
#
# _framework density 16.955282
#
# number of rings (size 3 to 8) (size 9 to 14) (size 15 to 20)
#    0.000    2.429    1.429    1.286    2.000    5.714 
#    0.000    0.000    0.000    0.429    0.000    2.000 
#    0.000    0.000    0.000    0.000    0.000    0.000 
#
# Total GULP energy -347142.326982 kJ/mol
# GULP energy per Si atom -12397.940249 kJ/mol
# Density = 1.691669 g / cm^3
# Si number density = 16.955282 Si / 1000 Ang^3
#
#
#
# Elastic Constant Matrix: (Units=GPa)
#
#
# Indices 1 2 3 4 5 6 
#
# 1 87.5644 55.3846 43.3603 0.0000 11.9245 0.0000
# 2 55.3846 115.4973 58.5451 0.0000 3.2759 0.0000
# 3 43.3603 58.5451 71.4050 0.0000 14.4693 0.0000
# 4 0.0000 0.0000 0.0000 24.2160 0.0000 -0.7372
# 5 11.9245 3.2759 14.4693 0.0000 24.5435 0.0000
# 6 0.0000 0.0000 0.0000 -0.7372 0.0000 27.5247
#
#
#
# Elastic Compliance Matrix: (Units=1/GPa)
#
#
# Indices 1 2 3 4 5 6 
#
# 1 0.018572 -0.006109 -0.005230 0.000000 -0.005124 0.000000
# 2 -0.006109 0.017614 -0.012330 0.000000 0.007886 0.000000
# 3 -0.005230 -0.012330 0.030029 0.000000 -0.013516 0.000000
# 4 0.000000 0.000000 0.000000 0.041329 0.000000 0.001107
# 5 -0.005124 0.007886 -0.013516 0.000000 0.050149 0.000000
# 6 0.000000 0.000000 0.000000 0.001107 0.000000 0.036361
#
#
# Mechanical properties :
#
#
# Convention : Reuss Voigt Hill
#
# Bulk Modulus (GPa) = 52.97784 65.44964 59.21374
# Shear Modulus (GPa) = 20.18686 23.06863 21.62774
#
# Velocity S-wave (km/s) = 3.45424 3.69257 3.57539
# Velocity P-wave (km/s) = 6.87186 7.54091 7.21415
#
# Compressibility (1/GPa) = 0.01887582
#
# Stress axis : x y z
#
# Youngs Moduli (GPa) = 53.84404 56.77231 33.30103
#
# Poissons Ratio (x) = 0.34684 0.17418
# Poissons Ratio (y) = 0.32895 0.41061
# Poissons Ratio (z) = 0.28163 0.70001
#
# Static dielectric constant tensor:
#      x y z
#    x 3.176590 0.000000 0.144800 
#    y 0.000000 3.075000 0.000000 
#    z 0.144800 0.000000 3.061030 
# 
# 
# High freq. dielectric constant tensor:
#      x y z
#    x 1.652720 0.000000 0.012120 
#    y 0.000000 1.646560 0.000000 
#    z 0.012120 0.000000 1.646700 
# 
# From -- ./inp_files/24882.got.cif
#   From: 2010.06.25/outbox.cif.g09.slc.cpg/sg10_13_cif.got.tgz:24882.got - 2010.06.27 22:07:45.
