data_PCOD8060287
_publ_section_title
;
Structure prediction by ZEFSAII (Michael W. Deem and Ramdas Pophale) SiO2 
 PCOD8060287
Probable space group: P 2/M
;
_chemical_formula_sum "Si O2"
_cell_formula_units_Z 28
_cell_length_a 21.154768
_cell_length_b 9.268028
_cell_length_c 14.184814
_cell_angle_alpha 90.000000
_cell_angle_beta 147.255494
_cell_angle_gamma 90.000000
_cell_volume 1504.288971
_symmetry_space_group_name_H-M "P 2/M"
_symmetry_group_IT_number 10
_symmetry_cell_setting 'monoclinic'
loop_
_space_group_symop_operation_xyz
x,y,z
-x,y,-z
-x,-y,-z
x,-y,z
loop_
_atom_site_type_symbol
_atom_site_label
_atom_site_fract_x
_atom_site_fract_y
_atom_site_fract_z
Si Si1 0.576758 0.329532 0.233767
Si Si2 0.841958 0.172055 0.053813
Si Si3 0.119319 0.670668 0.701111
Si Si4 0.333673 0.670705 0.849101
Si Si5 0.029687 0.169819 0.138806
Si Si6 0.368220 0.170330 0.338728
Si Si7 0.708628 0.831664 0.552840
O O1 0.583377 0.500000 0.256595
O O2 0.659956 0.277816 0.251665
O O3 0.612394 0.253543 0.374201
O O4 0.446061 0.275623 0.047923
O O5 0.864822 0.248176 0.181121
O O6 0.944456 0.229715 0.112938
O O7 0.847698 0.000000 0.074101
O O8 0.715602 0.220725 0.852721
O O9 0.128224 0.500000 0.730821
O O10 0.218316 0.729742 0.754451
O O11 0.000000 0.713041 0.500000
O O12 0.335253 0.500000 0.850584
O O13 0.164197 0.208060 0.329169
O O14 0.008981 0.000000 0.106007
O O15 0.000000 0.239417 0.000000
O O16 0.500000 0.237674 0.500000
O O17 0.303701 0.216817 0.354072
O O18 0.379256 0.000000 0.347721
O O19 0.682663 0.000000 0.510146
#
# Coordination Sequence:
#
# PCOD8060287 Si02
#       7
#     4   4   4   4   4   4   4
#     4   9  18  34  56  75  97 132 172 211 251 302
#     4  10  20  35  56  78 102 137 177 215 253 300
#     4  10  22  38  55  75 104 139 173 211 261 313
#     4   8  17  36  55  71  97 137 175 204 250 314
#     4   9  16  31  52  73 100 135 170 201 242 300
#     4   9  18  32  51  77 108 139 171 206 253 312
#     4  10  19  31  52  79 104 131 167 210 254 300
#
# _framework density 18.613444000000001
#
# number of rings (size 3 to 8) (size 9 to 14) (size 15 to 20)
#    0.000    2.714    1.429    0.857    4.000    0.286 
#    0.000    2.857    0.000    1.714    0.000    0.000 
#    0.000    0.000    0.000    0.000    0.000    0.000 
#
# Total GULP energy -347056.018655 kJ/mol
# GULP energy per Si atom -12394.857809 kJ/mol
# Density = 1.857108 g / cm^3
# Si number density = 18.613444 Si / 1000 Ang^3
#
#
#
# Elastic Constant Matrix: (Units=GPa)
#
#
# Indices 1 2 3 4 5 6 
#
# 1 122.7243 26.2773 77.9145 0.0000 8.5078 0.0000
# 2 26.2773 25.3387 34.3652 0.0000 -5.7332 0.0000
# 3 77.9145 34.3652 139.9682 0.0000 -6.1725 0.0000
# 4 0.0000 0.0000 0.0000 35.3710 0.0000 -30.2542
# 5 8.5078 -5.7332 -6.1725 0.0000 40.0686 0.0000
# 6 0.0000 0.0000 0.0000 -30.2542 0.0000 63.4406
#
#
#
# Elastic Compliance Matrix: (Units=1/GPa)
#
#
# Indices 1 2 3 4 5 6 
#
# 1 0.013993 -0.007155 -0.006251 0.000000 -0.004958 0.000000
# 2 -0.007155 0.064433 -0.011441 0.000000 0.008976 0.000000
# 3 -0.006251 -0.011441 0.013511 0.000000 0.001772 0.000000
# 4 0.000000 0.000000 0.000000 0.047748 0.000000 0.022771
# 5 -0.004958 0.008976 0.001772 0.000000 0.027567 0.000000
# 6 0.000000 0.000000 0.000000 0.022771 0.000000 0.026622
#
#
# Mechanical properties :
#
#
# Convention : Reuss Voigt Hill
#
# Bulk Modulus (GPa) = 23.67253 62.79394 43.23323
# Shear Modulus (GPa) = 19.40619 37.74096 28.57358
#
# Velocity S-wave (km/s) = 3.23242 4.50779 3.92229
# Velocity P-wave (km/s) = 5.16497 7.80401 6.61739
#
# Compressibility (1/GPa) = 0.04224305
#
# Stress axis : x y z
#
# Youngs Moduli (GPa) = 71.46585 15.52000 74.01164
#
# Poissons Ratio (x) = 0.11104 0.46266
# Poissons Ratio (y) = 0.51132 0.84677
# Poissons Ratio (z) = 0.44674 0.17757
#
# Static dielectric constant tensor:
#      x y z
#    x 3.808260 0.000000 0.273760 
#    y 0.000000 2.872230 0.000000 
#    z 0.273760 0.000000 3.614270 
# 
# 
# High freq. dielectric constant tensor:
#      x y z
#    x 1.733770 0.000000 0.004400 
#    y 0.000000 1.665760 0.000000 
#    z 0.004400 0.000000 1.735280 
# 
# From -- ./inp_files/46018.got.cif
#   From: 2010.06.25/outbox.cif.g09.slc.cpg/sg10_24_cif.got.tgz:46018.got - 2010.06.27 22:07:45.
