data_PCOD8060468
_publ_section_title
;
Structure prediction by ZEFSAII (Michael W. Deem and Ramdas Pophale) SiO2 
 PCOD8060468
Probable space group: P 2/M
;
_chemical_formula_sum "Si O2"
_cell_formula_units_Z 28
_cell_length_a 25.171393
_cell_length_b 11.101124
_cell_length_c 25.463925
_cell_angle_alpha 90.000000
_cell_angle_beta 168.640048
_cell_angle_gamma 90.000000
_cell_volume 1401.536115
_symmetry_space_group_name_H-M "P 2/M"
_symmetry_group_IT_number 10
_symmetry_cell_setting 'monoclinic'
loop_
_space_group_symop_operation_xyz
x,y,z
-x,y,-z
-x,-y,-z
x,-y,z
loop_
_atom_site_type_symbol
_atom_site_label
_atom_site_fract_x
_atom_site_fract_y
_atom_site_fract_z
Si Si1 0.161126 0.138918 0.378504
Si Si2 0.581383 0.500000 0.775979
Si Si3 0.390825 0.264821 0.132601
Si Si4 0.600977 0.642759 0.974661
Si Si5 0.528318 0.138880 0.427372
Si Si6 0.867781 0.500000 0.744444
Si Si7 0.975672 0.734384 0.915565
Si Si8 0.043614 0.642598 0.484341
O O1 0.365050 0.169987 0.623631
O O2 0.317433 0.170771 0.476622
O O3 0.077121 0.000000 0.300194
O O4 0.888889 0.216346 0.115068
O O5 0.509977 0.384148 0.741371
O O6 0.415569 0.500000 0.560985
O O7 0.898212 0.500000 0.071732
O O8 0.349665 0.288962 0.031573
O O9 0.616773 0.500000 0.979968
O O10 0.324315 0.684109 0.732488
O O11 0.820904 0.690536 0.228546
O O12 0.735798 0.168111 0.675700
O O13 0.442025 0.000000 0.347075
O O14 0.258136 0.217659 0.166827
O O15 0.883725 0.615710 0.796486
O O16 0.000000 0.704269 0.000000
O O17 0.024756 0.500000 0.470605
O O18 0.000000 0.699253 0.500000
#
# Coordination Sequence:
#
# PCOD8060468 Si02
#       8
#     4   2   4   4   4   2   4   4
#     4  11  24  41  62  84 116 155 194 238 285 349
#     4  12  24  38  63  88 115 156 188 234 279 350
#     4  12  22  38  59  89 120 152 195 237 296 340
#     4  10  19  32  49  80 120 150 192 238 286 338
#     4  11  24  43  65  89 115 147 190 241 295 349
#     4  12  25  42  60  84 118 154 197 222 273 344
#     4  12  25  42  64  89 118 150 187 238 289 342
#     4   9  17  29  48  72 111 163 199 229 276 342
#
# _framework density 19.978079999999999
#
# number of rings (size 3 to 8) (size 9 to 14) (size 15 to 20)
#    0.000    1.000    0.714    7.929    0.000    5.714 
#    0.000    2.143    0.000    0.000    0.000    0.000 
#    0.000   40.000    0.000    0.000    0.000    0.000 
#
# Total GULP energy -347348.575228 kJ/mol
# GULP energy per Si atom -12405.306258 kJ/mol
# Density = 1.993261 g / cm^3
# Si number density = 19.978080 Si / 1000 Ang^3
#
#
#
# Elastic Constant Matrix: (Units=GPa)
#
#
# Indices 1 2 3 4 5 6 
#
# 1 118.0190 54.4232 45.5560 0.0000 -15.9218 0.0000
# 2 54.4232 78.8270 46.4902 0.0000 -0.8773 0.0000
# 3 45.5560 46.4902 153.0797 0.0000 -9.1437 0.0000
# 4 0.0000 0.0000 0.0000 33.8540 0.0000 -2.3670
# 5 -15.9218 -0.8773 -9.1437 0.0000 29.5456 0.0000
# 6 0.0000 0.0000 0.0000 -2.3670 0.0000 7.0013
#
#
#
# Elastic Compliance Matrix: (Units=1/GPa)
#
#
# Indices 1 2 3 4 5 6 
#
# 1 0.013919 -0.008934 -0.001016 0.000000 0.006921 0.000000
# 2 -0.008934 0.021218 -0.004111 0.000000 -0.005457 0.000000
# 3 -0.001016 -0.004111 0.008195 0.000000 0.001867 0.000000
# 4 0.000000 0.000000 0.000000 0.030254 0.000000 0.010228
# 5 0.006921 -0.005457 0.001867 0.000000 0.037991 0.000000
# 6 0.000000 0.000000 0.000000 0.010228 0.000000 0.146288
#
#
# Mechanical properties :
#
#
# Convention : Reuss Voigt Hill
#
# Bulk Modulus (GPa) = 65.74380 71.42940 68.58660
# Shear Modulus (GPa) = 17.17887 27.64392 22.41140
#
# Velocity S-wave (km/s) = 2.93556 3.72386 3.35296
# Velocity P-wave (km/s) = 6.66854 7.37028 7.02818
#
# Compressibility (1/GPa) = 0.01521056
#
# Stress axis : x y z
#
# Youngs Moduli (GPa) = 71.84653 47.13022 122.02798
#
# Poissons Ratio (x) = 0.42104 0.12393
# Poissons Ratio (y) = 0.64185 0.50168
# Poissons Ratio (z) = 0.07297 0.19376
#
# Static dielectric constant tensor:
#      x y z
#    x 3.654730 0.000000 -0.095110 
#    y 0.000000 3.458680 0.000000 
#    z -0.095110 0.000000 3.838400 
# 
# 
# High freq. dielectric constant tensor:
#      x y z
#    x 1.780200 0.000000 -0.005470 
#    y 0.000000 1.753960 0.000000 
#    z -0.005470 0.000000 1.802880 
# 
# From -- ./inp_files/94046.got.cif
#   From: 2010.06.25/outbox.cif.g09.slc.cpg/sg10_48_cif.got.tgz:94046.got - 2010.06.27 22:07:45.
