data_PCOD8060976
_publ_section_title
;
Structure prediction by ZEFSAII (Michael W. Deem and Ramdas Pophale) SiO2 
 PCOD8060976
Probable space group: P 2/M
;
_chemical_formula_sum "Si O2"
_cell_formula_units_Z 28
_cell_length_a 19.169116
_cell_length_b 9.186267
_cell_length_c 11.163696
_cell_angle_alpha 90.000000
_cell_angle_beta 46.750374
_cell_angle_gamma 90.000000
_cell_volume 1431.872823
_symmetry_space_group_name_H-M "P 2/M"
_symmetry_group_IT_number 10
_symmetry_cell_setting 'monoclinic'
loop_
_space_group_symop_operation_xyz
x,y,z
-x,y,-z
-x,-y,-z
x,-y,z
loop_
_atom_site_type_symbol
_atom_site_label
_atom_site_fract_x
_atom_site_fract_y
_atom_site_fract_z
Si Si1 0.219929 0.828615 0.479609
Si Si2 0.606934 0.828263 0.881457
Si Si3 0.872473 0.332544 0.921936
Si Si4 0.397465 0.665860 0.665577
Si Si5 0.786003 0.334987 0.269884
Si Si6 0.052501 0.332259 0.558839
Si Si7 0.702849 0.827522 0.010657
O O1 0.328192 0.787570 0.310652
O O2 0.197502 0.767796 0.636854
O O3 0.146281 0.763561 0.469521
O O4 0.204811 0.000000 0.499228
O O5 0.596328 0.000000 0.905382
O O6 0.500000 0.758548 0.000000
O O7 0.661649 0.769190 0.933759
O O8 0.838991 0.500000 0.949134
O O9 0.982371 0.311575 0.755558
O O10 0.856504 0.284236 0.078830
O O11 0.807446 0.240086 0.907994
O O12 0.500000 0.717930 0.500000
O O13 0.399920 0.500000 0.710853
O O14 0.323392 0.679271 0.643456
O O15 0.370271 0.775216 0.802364
O O16 0.809983 0.500000 0.280831
O O17 0.083436 0.500000 0.508409
O O18 0.000000 0.278619 0.500000
O O19 0.712251 0.000000 0.003592
#
# Coordination Sequence:
#
# PCOD8060976 Si02
#       7
#     4   4   4   4   4   4   4
#     4  11  23  37  57  83 113 148 185 233 283 328
#     4   9  20  37  53  74 110 151 183 220 279 339
#     4   9  19  37  59  81 111 150 181 221 283 337
#     4   9  19  35  55  78 109 147 184 229 281 329
#     4   9  19  36  55  77 111 149 185 225 273 334
#     4  10  21  38  62  87 111 145 188 231 277 335
#     4  10  19  32  55  82 106 139 184 232 274 323
#
# _framework density 19.554808999999999
#
# number of rings (size 3 to 8) (size 9 to 14) (size 15 to 20)
#    0.000    2.429    0.000    2.571    2.000    4.000 
#    0.000    5.000    0.000    3.429    0.000    0.000 
#    0.000    0.000    0.000    0.000    0.000    0.000 
#
# Total GULP energy -347202.923197 kJ/mol
# GULP energy per Si atom -12400.104400 kJ/mol
# Density = 1.951030 g / cm^3
# Si number density = 19.554809 Si / 1000 Ang^3
#
#
#
# Elastic Constant Matrix: (Units=GPa)
#
#
# Indices 1 2 3 4 5 6 
#
# 1 89.1137 41.0002 48.8727 0.0000 8.7088 0.0000
# 2 41.0002 66.6632 31.1273 0.0000 4.1419 0.0000
# 3 48.8727 31.1273 93.2098 0.0000 -2.3578 0.0000
# 4 0.0000 0.0000 0.0000 24.9684 0.0000 0.1240
# 5 8.7088 4.1419 -2.3578 0.0000 33.9649 0.0000
# 6 0.0000 0.0000 0.0000 0.1240 0.0000 31.0779
#
#
#
# Elastic Compliance Matrix: (Units=1/GPa)
#
#
# Indices 1 2 3 4 5 6 
#
# 1 0.019664 -0.008224 -0.007680 0.000000 -0.004572 0.000000
# 2 -0.008224 0.021441 -0.002866 0.000000 -0.000705 0.000000
# 3 -0.007680 -0.002866 0.015799 0.000000 0.003415 0.000000
# 4 0.000000 0.000000 0.000000 0.040051 0.000000 -0.000160
# 5 -0.004572 -0.000705 0.003415 0.000000 0.030938 0.000000
# 6 0.000000 0.000000 0.000000 -0.000160 0.000000 0.032178
#
#
# Mechanical properties :
#
#
# Convention : Reuss Voigt Hill
#
# Bulk Modulus (GPa) = 51.64148 54.55411 53.09780
# Shear Modulus (GPa) = 24.50210 26.53468 25.51839
#
# Velocity S-wave (km/s) = 3.54361 3.68766 3.61635
# Velocity P-wave (km/s) = 6.57334 6.78899 6.68204
#
# Compressibility (1/GPa) = 0.01936428
#
# Stress axis : x y z
#
# Youngs Moduli (GPa) = 50.85426 46.63996 63.29678
#
# Poissons Ratio (x) = 0.38357 0.48610
# Poissons Ratio (y) = 0.41823 0.18140
# Poissons Ratio (z) = 0.39054 0.13366
#
# Static dielectric constant tensor:
#      x y z
#    x 3.530940 0.000000 -0.073330 
#    y 0.000000 3.346120 0.000000 
#    z -0.073330 0.000000 3.734170 
# 
# 
# High freq. dielectric constant tensor:
#      x y z
#    x 1.757930 0.000000 -0.002330 
#    y 0.000000 1.741750 0.000000 
#    z -0.002330 0.000000 1.773750 
# 
# From -- ./inp_files/54660.got.cif
#   From: 2010.06.25/outbox.cif.g09.slc.cpg/sg10_28_cif.got.tgz:54660.got - 2010.06.27 22:07:45.
