data_PCOD8060740
_publ_section_title
;
Structure prediction by ZEFSAII (Michael W. Deem and Ramdas Pophale) SiO2 
 PCOD8060740
Probable space group: P 2/M
;
_chemical_formula_sum "Si O2"
_cell_formula_units_Z 32
_cell_length_a 20.743838
_cell_length_b 9.062273
_cell_length_c 19.198469
_cell_angle_alpha 90.000000
_cell_angle_beta 28.998766
_cell_angle_gamma 90.000000
_cell_volume 1749.633980
_symmetry_space_group_name_H-M "P 2/M"
_symmetry_group_IT_number 10
_symmetry_cell_setting 'monoclinic'
loop_
_space_group_symop_operation_xyz
x,y,z
-x,y,-z
-x,-y,-z
x,-y,z
loop_
_atom_site_type_symbol
_atom_site_label
_atom_site_fract_x
_atom_site_fract_y
_atom_site_fract_z
Si Si1 0.735834 0.172403 0.822762
Si Si2 0.007388 0.662099 0.410478
Si Si3 0.524106 0.828894 0.139937
Si Si4 0.381255 0.827283 0.796948
Si Si5 0.283032 0.325675 0.305643
Si Si6 0.829108 0.825050 0.231706
Si Si7 0.564142 0.674633 0.512393
Si Si8 0.120113 0.173073 0.971053
O O1 0.695809 0.252574 0.789616
O O2 0.877905 0.224091 0.719845
O O3 0.743638 0.000000 0.800199
O O4 0.625580 0.213274 0.983280
O O5 0.040856 0.500000 0.347905
O O6 0.860834 0.715743 0.524849
O O7 0.000000 0.650831 0.500000
O O8 0.591063 0.787292 0.149568
O O9 0.391557 0.733134 0.256978
O O10 0.484946 0.000000 0.173682
O O11 0.476993 0.733748 0.657959
O O12 0.227619 0.781114 0.927702
O O13 0.403183 0.000000 0.760354
O O14 0.295651 0.500000 0.283520
O O15 0.711055 0.741668 0.382701
O O16 0.830818 0.767824 0.150227
O O17 0.805092 0.000000 0.260935
O O18 0.970721 0.773710 0.131876
O O19 0.500000 0.726751 0.500000
O O20 0.572696 0.500000 0.509178
O O21 0.109107 0.000000 0.972299
#
# Coordination Sequence:
#
# PCOD8060740 Si02
#       8
#     4   4   4   4   4   4   4   4
#     4  10  19  32  52  79 108 136 172 222 269 309
#     4   8  16  31  50  75 103 132 172 215 254 305
#     4  10  22  36  51  76 106 136 173 218 267 312
#     4  10  20  37  57  74 100 139 177 215 261 314
#     4  10  20  34  54  78 105 140 179 217 256 308
#     4   9  16  30  54  81 102 129 171 213 255 303
#     4  11  22  34  50  78 110 137 168 211 258 308
#     4   8  15  29  53  80 101 125 168 218 254 300
#
# _framework density 18.289539999999999
#
# number of rings (size 3 to 8) (size 9 to 14) (size 15 to 20)
#    0.000    2.500    1.250    3.000    0.000    6.250 
#    0.000    3.125    0.000    3.000    0.000    0.000 
#    0.000    0.000    0.000    0.000    0.000    0.000 
#
# Total GULP energy -396702.736461 kJ/mol
# GULP energy per Si atom -12396.960514 kJ/mol
# Density = 1.824791 g / cm^3
# Si number density = 18.289540 Si / 1000 Ang^3
#
#
#
# Elastic Constant Matrix: (Units=GPa)
#
#
# Indices 1 2 3 4 5 6 
#
# 1 101.0706 35.6149 48.0834 0.0000 -27.4771 0.0000
# 2 35.6149 57.8096 38.0762 0.0000 -13.2212 0.0000
# 3 48.0834 38.0762 90.4317 0.0000 -35.9126 0.0000
# 4 0.0000 0.0000 0.0000 7.7865 0.0000 -4.8761
# 5 -27.4771 -13.2212 -35.9126 0.0000 30.0312 0.0000
# 6 0.0000 0.0000 0.0000 -4.8761 0.0000 17.8050
#
#
#
# Elastic Compliance Matrix: (Units=1/GPa)
#
#
# Indices 1 2 3 4 5 6 
#
# 1 0.015482 -0.006103 -0.002102 0.000000 0.008964 0.000000
# 2 -0.006103 0.026474 -0.010457 0.000000 -0.006433 0.000000
# 3 -0.002102 -0.010457 0.026636 0.000000 0.025325 0.000000
# 4 0.000000 0.000000 0.000000 0.155012 0.000000 0.042452
# 5 0.008964 -0.006433 0.025325 0.000000 0.068954 0.000000
# 6 0.000000 0.000000 0.000000 0.042452 0.000000 0.067790
#
#
# Mechanical properties :
#
#
# Convention : Reuss Voigt Hill
#
# Bulk Modulus (GPa) = 31.98163 54.76232 43.37197
# Shear Modulus (GPa) = 12.25209 19.62702 15.93956
#
# Velocity S-wave (km/s) = 2.59104 3.27942 2.95534
# Velocity P-wave (km/s) = 5.14544 6.65930 5.95071
#
# Compressibility (1/GPa) = 0.03126795
#
# Stress axis : x y z
#
# Youngs Moduli (GPa) = 64.59180 37.77273 37.54334
#
# Poissons Ratio (x) = 0.23053 0.07892
# Poissons Ratio (y) = 0.39422 0.39258
# Poissons Ratio (z) = 0.13578 0.39498
#
# Static dielectric constant tensor:
#      x y z
#    x 3.417360 0.000000 -0.460390 
#    y 0.000000 3.232110 0.000000 
#    z -0.460390 0.000000 3.649800 
# 
# 
# High freq. dielectric constant tensor:
#      x y z
#    x 1.688160 0.000000 -0.025890 
#    y 0.000000 1.695970 0.000000 
#    z -0.025890 0.000000 1.714490 
# 
# From -- ./inp_files/86100.got.cif
#   From: 2010.06.25/outbox.cif.g09.slc.cpg/sg10_44_cif.got.tgz:86100.got - 2010.06.27 22:07:45.
