data_PCOD8060657
_publ_section_title
;
Structure prediction by ZEFSAII (Michael W. Deem and Ramdas Pophale) SiO2 
 PCOD8060657
Probable space group: P 2/M
;
_chemical_formula_sum "Si O2"
_cell_formula_units_Z 32
_cell_length_a 21.709670
_cell_length_b 8.803024
_cell_length_c 12.069508
_cell_angle_alpha 90.000000
_cell_angle_beta 133.322080
_cell_angle_gamma 90.000000
_cell_volume 1678.080124
_symmetry_space_group_name_H-M "P 2/M"
_symmetry_group_IT_number 10
_symmetry_cell_setting 'monoclinic'
loop_
_space_group_symop_operation_xyz
x,y,z
-x,y,-z
-x,-y,-z
x,-y,z
loop_
_atom_site_type_symbol
_atom_site_label
_atom_site_fract_x
_atom_site_fract_y
_atom_site_fract_z
Si Si1 0.872812 0.179957 0.091463
Si Si2 0.780267 0.819464 0.372456
Si Si3 0.574138 0.820381 0.732769
Si Si4 0.724213 0.818938 0.064064
Si Si5 0.387763 0.180004 0.466159
Si Si6 0.097402 0.179280 0.117185
Si Si7 0.758044 0.321077 0.570436
Si Si8 0.030132 0.819354 0.419488
O O1 0.798203 0.247826 0.075998
O O2 0.964204 0.239575 0.245827
O O3 0.871788 0.000000 0.100972
O O4 0.861313 0.227330 0.949543
O O5 0.735588 0.762125 0.204015
O O6 0.733829 0.744985 0.419941
O O7 0.876559 0.758532 0.492006
O O8 0.774713 0.000000 0.375746
O O9 0.610013 0.765446 0.658662
O O10 0.477099 0.769963 0.632529
O O11 0.576261 0.000000 0.731628
O O12 0.634167 0.758932 0.905671
O O13 0.728810 0.000000 0.066943
O O14 0.312747 0.268590 0.431399
O O15 0.371844 0.000000 0.457005
O O16 0.149997 0.260475 0.278552
O O17 0.103144 0.000000 0.145282
O O18 0.000000 0.232739 0.000000
O O19 0.760449 0.500000 0.567421
O O20 0.000000 0.754128 0.500000
O O21 0.033234 0.000000 0.428216
#
# Coordination Sequence:
#
# PCOD8060657 Si02
#       8
#     4   4   4   4   4   4   4   4
#     4   9  15  24  45  78 110 132 159 209 263 311
#     4  10  19  32  52  75 103 140 181 221 261 310
#     4   8  15  29  55  88 112 128 160 220 282 324
#     4   9  15  25  46  80 109 129 162 216 274 316
#     4   9  17  34  59  83 107 136 170 213 268 327
#     4  10  20  35  56  82 108 136 174 218 264 314
#     4  12  25  38  52  72 106 148 185 217 257 310
#     4   9  14  24  44  77 110 132 162 206 255 302
#
# _framework density 19.069410999999999
#
# number of rings (size 3 to 8) (size 9 to 14) (size 15 to 20)
#    0.000    2.500    1.250    3.375    0.000    4.250 
#    0.000    1.875    0.000    7.875    0.000    0.000 
#    0.000    0.000    0.000    0.000    0.000    0.000 
#
# Total GULP energy -396681.866675 kJ/mol
# GULP energy per Si atom -12396.308334 kJ/mol
# Density = 1.902601 g / cm^3
# Si number density = 19.069411 Si / 1000 Ang^3
#
#
#
# Elastic Constant Matrix: (Units=GPa)
#
#
# Indices 1 2 3 4 5 6 
#
# 1 90.4314 26.2676 48.8837 0.0000 -1.3194 0.0000
# 2 26.2676 38.5378 27.4257 0.0000 -1.8753 0.0000
# 3 48.8837 27.4257 151.2932 0.0000 1.3765 0.0000
# 4 0.0000 0.0000 0.0000 4.2225 0.0000 2.9022
# 5 -1.3194 -1.8753 1.3765 0.0000 32.5575 0.0000
# 6 0.0000 0.0000 0.0000 2.9022 0.0000 3.3937
#
#
#
# Elastic Compliance Matrix: (Units=1/GPa)
#
#
# Indices 1 2 3 4 5 6 
#
# 1 0.015245 -0.007886 -0.003499 0.000000 0.000312 0.000000
# 2 -0.007886 0.033994 -0.003631 0.000000 0.001792 0.000000
# 3 -0.003499 -0.003631 0.008405 0.000000 -0.000706 0.000000
# 4 0.000000 0.000000 0.000000 0.574489 0.000000 -0.491282
# 5 0.000312 0.001792 -0.000706 0.000000 0.030861 0.000000
# 6 0.000000 0.000000 0.000000 -0.491282 0.000000 0.714786
#
#
# Mechanical properties :
#
#
# Convention : Reuss Voigt Hill
#
# Bulk Modulus (GPa) = 36.21460 53.93518 45.07489
# Shear Modulus (GPa) = 3.52854 19.88046 11.70450
#
# Velocity S-wave (km/s) = 1.36176 3.23233 2.48015
# Velocity P-wave (km/s) = 4.63731 6.50197 5.64714
#
# Compressibility (1/GPa) = 0.02761317
#
# Stress axis : x y z
#
# Youngs Moduli (GPa) = 65.59707 29.41658 118.97931
#
# Poissons Ratio (x) = 0.23197 0.41631
# Poissons Ratio (y) = 0.51727 0.43199
# Poissons Ratio (z) = 0.22952 0.10681
#
# Static dielectric constant tensor:
#      x y z
#    x 3.556000 0.000000 0.031090 
#    y 0.000000 2.808730 0.000000 
#    z 0.031090 0.000000 3.953590 
# 
# 
# High freq. dielectric constant tensor:
#      x y z
#    x 1.741050 0.000000 -0.002040 
#    y 0.000000 1.669710 0.000000 
#    z -0.002040 0.000000 1.754410 
# 
# From -- ./inp_files/55342.got.cif
#   From: 2010.06.25/outbox.cif.g09.slc.cpg/sg10_28_cif.got.tgz:55342.got - 2010.06.27 22:07:45.
