data_PCOD8060057
_publ_section_title
;
Structure prediction by ZEFSAII (Michael W. Deem and Ramdas Pophale) SiO2 
 PCOD8060057
Probable space group: P 2/M
;
_chemical_formula_sum "Si O2"
_cell_formula_units_Z 24
_cell_length_a 18.913020
_cell_length_b 9.216082
_cell_length_c 24.765015
_cell_angle_alpha 90.000000
_cell_angle_beta 18.746229
_cell_angle_gamma 90.000000
_cell_volume 1387.269348
_symmetry_space_group_name_H-M "P 2/M"
_symmetry_group_IT_number 10
_symmetry_cell_setting 'monoclinic'
loop_
_space_group_symop_operation_xyz
x,y,z
-x,y,-z
-x,-y,-z
x,-y,z
loop_
_atom_site_type_symbol
_atom_site_label
_atom_site_fract_x
_atom_site_fract_y
_atom_site_fract_z
Si Si1 0.698527 0.670268 0.316543
Si Si2 0.624467 0.671135 0.856996
Si Si3 0.739625 0.160191 0.182821
Si Si4 0.517529 0.168711 0.826322
Si Si5 0.092481 0.659341 0.493049
Si Si6 0.143192 0.169028 0.015668
O O1 0.500000 0.709136 0.500000
O O2 0.735731 0.500000 0.284274
O O3 0.638081 0.731585 0.300690
O O4 0.919749 0.739705 0.180717
O O5 0.596992 0.500000 0.866583
O O6 0.517685 0.751484 0.883343
O O7 0.882090 0.711146 0.680380
O O8 0.500000 0.725132 0.000000
O O9 0.636834 0.000000 0.266583
O O10 0.703629 0.213432 0.146923
O O11 0.000000 0.153960 0.000000
O O12 0.707656 0.227843 0.648632
O O13 0.562366 0.000000 0.803069
O O14 0.282189 0.198276 0.969092
O O15 0.175709 0.500000 0.451691
O O16 0.000000 0.648404 0.500000
O O17 0.078321 0.000000 0.056735
#
# Coordination Sequence:
#
# PCOD8060057 Si02
#       6
#     4   4   4   4   4   4
#     4  10  20  32  48  73 100 124 156 197 237 280
#     4   9  18  33  51  70  96 130 163 194 233 285
#     4   8  15  30  50  68  89 121 158 190 226 278
#     4  10  19  31  49  73  98 122 156 202 242 278
#     4   8  15  29  48  68  90 121 159 190 226 281
#     4   9  19  34  50  70  95 125 160 196 238 286
#
# _framework density 17.300173000000001
#
# number of rings (size 3 to 8) (size 9 to 14) (size 15 to 20)
#    0.000    3.000    0.000    3.000    0.000    9.000 
#    0.000    1.667    0.000    8.000    0.000    0.000 
#    0.000    0.000    0.000    0.000    0.000    0.000 
#
# Total GULP energy -297443.561822 kJ/mol
# GULP energy per Si atom -12393.481743 kJ/mol
# Density = 1.726080 g / cm^3
# Si number density = 17.300173 Si / 1000 Ang^3
#
#
#
# Elastic Constant Matrix: (Units=GPa)
#
#
# Indices 1 2 3 4 5 6 
#
# 1 87.1479 53.0697 53.6542 0.0000 9.7852 0.0000
# 2 53.0697 91.6942 60.9585 0.0000 6.7871 0.0000
# 3 53.6542 60.9585 112.0803 0.0000 20.9048 0.0000
# 4 0.0000 0.0000 0.0000 18.1742 0.0000 1.6792
# 5 9.7852 6.7871 20.9048 0.0000 25.4718 0.0000
# 6 0.0000 0.0000 0.0000 1.6792 0.0000 17.6601
#
#
#
# Elastic Compliance Matrix: (Units=1/GPa)
#
#
# Indices 1 2 3 4 5 6 
#
# 1 0.019385 -0.008028 -0.004633 0.000000 -0.001506 0.000000
# 2 -0.008028 0.020696 -0.008218 0.000000 0.004314 0.000000
# 3 -0.004633 -0.008218 0.017556 0.000000 -0.010439 0.000000
# 4 0.000000 0.000000 0.000000 0.055511 0.000000 -0.005278
# 5 -0.001506 0.004314 -0.010439 0.000000 0.047256 0.000000
# 6 0.000000 0.000000 0.000000 -0.005278 0.000000 0.057127
#
#
# Mechanical properties :
#
#
# Convention : Reuss Voigt Hill
#
# Bulk Modulus (GPa) = 62.96994 69.58744 66.27869
# Shear Modulus (GPa) = 18.89785 20.47721 19.68753
#
# Velocity S-wave (km/s) = 3.30866 3.44414 3.37708
# Velocity P-wave (km/s) = 7.14659 7.49180 7.32123
#
# Compressibility (1/GPa) = 0.01588059
#
# Stress axis : x y z
#
# Youngs Moduli (GPa) = 51.58709 48.31848 56.95944
#
# Poissons Ratio (x) = 0.38790 0.26387
# Poissons Ratio (y) = 0.41415 0.46807
# Poissons Ratio (z) = 0.23898 0.39706
#
# Static dielectric constant tensor:
#      x y z
#    x 3.362440 0.000000 0.197850 
#    y 0.000000 3.234990 0.000000 
#    z 0.197850 0.000000 3.451810 
# 
# 
# High freq. dielectric constant tensor:
#      x y z
#    x 1.652460 0.000000 0.009680 
#    y 0.000000 1.669010 0.000000 
#    z 0.009680 0.000000 1.654620 
# 
# From -- ./inp_files/33437.got.cif
#   From: 2010.06.25/outbox.cif.g09.slc.cpg/sg10_17_cif.got.tgz:33437.got - 2010.06.27 22:07:45.
