data_PCOD8060901
_publ_section_title
;
Structure prediction by ZEFSAII (Michael W. Deem and Ramdas Pophale) SiO2 
 PCOD8060901
Probable space group: P 2/M
;
_chemical_formula_sum "Si O2"
_cell_formula_units_Z 28
_cell_length_a 16.235777
_cell_length_b 9.027651
_cell_length_c 11.206048
_cell_angle_alpha 90.000000
_cell_angle_beta 119.038572
_cell_angle_gamma 90.000000
_cell_volume 1436.009734
_symmetry_space_group_name_H-M "P 2/M"
_symmetry_group_IT_number 10
_symmetry_cell_setting 'monoclinic'
loop_
_space_group_symop_operation_xyz
x,y,z
-x,y,-z
-x,-y,-z
x,-y,z
loop_
_atom_site_type_symbol
_atom_site_label
_atom_site_fract_x
_atom_site_fract_y
_atom_site_fract_z
Si Si1 0.228404 0.828103 0.149148
Si Si2 0.868350 0.324016 0.130195
Si Si3 0.223927 0.830703 0.418627
Si Si4 0.317631 0.673439 0.873209
Si Si5 0.026437 0.173248 0.385531
Si Si6 0.593279 0.326077 0.820182
Si Si7 0.618433 0.675470 0.333782
O O1 0.196234 0.802941 0.262198
O O2 0.333721 0.764622 0.208611
O O3 0.228392 0.000000 0.113598
O O4 0.152700 0.742359 0.014960
O O5 0.871426 0.500000 0.120773
O O6 0.785835 0.269351 0.161790
O O7 0.966584 0.264236 0.247683
O O8 0.135307 0.787440 0.438901
O O9 0.313393 0.731652 0.514791
O O10 0.252999 0.000000 0.460131
O O11 0.313178 0.500000 0.850106
O O12 0.349900 0.746658 0.771186
O O13 0.391818 0.712077 0.029528
O O14 0.000000 0.225005 0.500000
O O15 0.006165 0.000000 0.352361
O O16 0.610926 0.500000 0.810072
O O17 0.488193 0.275787 0.711167
O O18 0.623342 0.500000 0.331759
#
# Coordination Sequence:
#
# PCOD8060901 Si02
#       7
#     4   4   4   4   4   4   4
#     4  10  21  38  56  74 103 143 182 216 258 313
#     4  10  20  35  58  84 109 137 173 220 265 309
#     4  10  23  39  53  74 106 142 178 218 261 311
#     4   8  15  30  52  79 109 137 167 209 264 318
#     4  10  21  38  59  82 109 140 173 212 262 318
#     4   9  18  33  54  80 108 137 175 221 264 310
#     4  10  19  32  54  80 106 140 177 217 266 314
#
# _framework density 19.498474999999999
#
# number of rings (size 3 to 8) (size 9 to 14) (size 15 to 20)
#    0.000    2.429    0.000    3.000    0.000    5.429 
#    0.000    8.571    0.000    4.286    0.000    0.000 
#    0.000    0.000    0.000    0.000    0.000    0.000 
#
# Total GULP energy -347231.880509 kJ/mol
# GULP energy per Si atom -12401.138590 kJ/mol
# Density = 1.945410 g / cm^3
# Si number density = 19.498475 Si / 1000 Ang^3
#
#
#
# Elastic Constant Matrix: (Units=GPa)
#
#
# Indices 1 2 3 4 5 6 
#
# 1 61.5434 19.4813 35.7901 0.0000 -1.6520 0.0000
# 2 19.4813 45.3605 28.4370 0.0000 3.2398 0.0000
# 3 35.7901 28.4370 93.6236 0.0000 11.9448 0.0000
# 4 0.0000 0.0000 0.0000 31.0133 0.0000 3.1007
# 5 -1.6520 3.2398 11.9448 0.0000 34.3744 0.0000
# 6 0.0000 0.0000 0.0000 3.1007 0.0000 25.1289
#
#
#
# Elastic Compliance Matrix: (Units=1/GPa)
#
#
# Indices 1 2 3 4 5 6 
#
# 1 0.022371 -0.005201 -0.007505 0.000000 0.004173 0.000000
# 2 -0.005201 0.028444 -0.006568 0.000000 -0.000648 0.000000
# 3 -0.007505 -0.006568 0.016232 0.000000 -0.005382 0.000000
# 4 0.000000 0.000000 0.000000 0.032647 0.000000 -0.004028
# 5 0.004173 -0.000648 -0.005382 0.000000 0.031223 0.000000
# 6 0.000000 0.000000 0.000000 -0.004028 0.000000 0.040292
#
#
# Mechanical properties :
#
#
# Convention : Reuss Voigt Hill
#
# Bulk Modulus (GPa) = 35.09018 40.88270 37.98644
# Shear Modulus (GPa) = 22.80434 25.89127 24.34780
#
# Velocity S-wave (km/s) = 3.42357 3.64794 3.53753
# Velocity P-wave (km/s) = 5.80200 6.22542 6.01744
#
# Compressibility (1/GPa) = 0.02849800
#
# Stress axis : x y z
#
# Youngs Moduli (GPa) = 44.69984 35.15738 61.60813
#
# Poissons Ratio (x) = 0.18286 0.46235
# Poissons Ratio (y) = 0.23250 0.40466
# Poissons Ratio (z) = 0.33546 0.23093
#
# Static dielectric constant tensor:
#      x y z
#    x 3.681430 0.000000 -0.039750 
#    y 0.000000 3.345740 0.000000 
#    z -0.039750 0.000000 3.526710 
# 
# 
# High freq. dielectric constant tensor:
#      x y z
#    x 1.761080 0.000000 0.001220 
#    y 0.000000 1.739150 0.000000 
#    z 0.001220 0.000000 1.761750 
# 
# From -- ./inp_files/50104.got.cif
#   From: 2010.06.25/outbox.cif.g09.slc.cpg/sg10_26_cif.got.tgz:50104.got - 2010.06.27 22:07:45.
