data_PCOD8060537
_publ_section_title
;
Structure prediction by ZEFSAII (Michael W. Deem and Ramdas Pophale) SiO2 
 PCOD8060537
Probable space group: P 2/M
;
_chemical_formula_sum "Si O2"
_cell_formula_units_Z 24
_cell_length_a 16.456698
_cell_length_b 9.601078
_cell_length_c 23.192072
_cell_angle_alpha 90.000000
_cell_angle_beta 157.070805
_cell_angle_gamma 90.000000
_cell_volume 1427.623587
_symmetry_space_group_name_H-M "P 2/M"
_symmetry_group_IT_number 10
_symmetry_cell_setting 'monoclinic'
loop_
_space_group_symop_operation_xyz
x,y,z
-x,y,-z
-x,-y,-z
x,-y,z
loop_
_atom_site_type_symbol
_atom_site_label
_atom_site_fract_x
_atom_site_fract_y
_atom_site_fract_z
Si Si1 0.587513 0.660748 0.809296
Si Si2 0.477480 0.334312 0.049581
Si Si3 0.229244 0.665205 0.659673
Si Si4 0.274329 0.837680 0.328783
Si Si5 0.767598 0.837942 0.830631
Si Si6 0.894634 0.661492 0.113656
O O1 0.582420 0.500000 0.787560
O O2 0.371916 0.705709 0.698553
O O3 0.607449 0.752708 0.765273
O O4 0.778191 0.689193 0.977290
O O5 0.490893 0.500000 0.057012
O O6 0.255174 0.291082 0.931655
O O7 0.500000 0.271277 0.000000
O O8 0.665893 0.276440 0.212870
O O9 0.215473 0.500000 0.655856
O O10 0.000000 0.730793 0.500000
O O11 0.500000 0.798288 0.500000
O O12 0.269629 0.793492 0.259197
O O13 0.103345 0.752453 0.253093
O O14 0.222886 0.000000 0.302959
O O15 0.723937 0.000000 0.812333
O O16 0.000000 0.796048 0.000000
O O17 0.955200 0.500000 0.159342
#
# Coordination Sequence:
#
# PCOD8060537 Si02
#       6
#     4   4   4   4   4   4
#     4   9  17  29  48  74  98 122 153 192 235 270
#     4   8  14  26  44  65  90 121 153 184 222 270
#     4   8  14  26  43  64  93 123 149 181 225 275
#     4  10  21  36  50  66  93 127 157 190 237 282
#     4  10  19  32  51  71  89 119 163 195 222 278
#     4   9  17  30  49  72  97 123 154 193 233 273
#
# _framework density 16.811153999999998
#
# number of rings (size 3 to 8) (size 9 to 14) (size 15 to 20)
#    0.000    3.000    1.667    2.000    0.000    1.333 
#    3.000    0.000    0.000    1.000    0.000    0.000 
#    0.000    0.000    0.000    0.000    0.000    0.000 
#
# Total GULP energy -297542.311794 kJ/mol
# GULP energy per Si atom -12397.596325 kJ/mol
# Density = 1.677289 g / cm^3
# Si number density = 16.811154 Si / 1000 Ang^3
#
#
#
# Elastic Constant Matrix: (Units=GPa)
#
#
# Indices 1 2 3 4 5 6 
#
# 1 143.4455 44.0076 79.7770 0.0000 3.3003 0.0000
# 2 44.0076 34.9558 36.5928 0.0000 7.4054 0.0000
# 3 79.7770 36.5928 129.7942 0.0000 10.2041 0.0000
# 4 0.0000 0.0000 0.0000 9.7965 0.0000 -4.3882
# 5 3.3003 7.4054 10.2041 0.0000 25.7460 0.0000
# 6 0.0000 0.0000 0.0000 -4.3882 0.0000 4.8271
#
#
#
# Elastic Compliance Matrix: (Units=1/GPa)
#
#
# Indices 1 2 3 4 5 6 
#
# 1 0.013581 -0.012576 -0.005108 0.000000 0.003901 0.000000
# 2 -0.012576 0.053633 -0.006507 0.000000 -0.011235 0.000000
# 3 -0.005108 -0.006507 0.012882 0.000000 -0.002579 0.000000
# 4 0.000000 0.000000 0.000000 0.172197 0.000000 0.156540
# 5 0.003901 -0.011235 -0.002579 0.000000 0.042595 0.000000
# 6 0.000000 0.000000 0.000000 0.156540 0.000000 0.349469
#
#
# Mechanical properties :
#
#
# Convention : Reuss Voigt Hill
#
# Bulk Modulus (GPa) = 31.53475 69.88337 50.70906
# Shear Modulus (GPa) = 7.10923 17.92846 12.51884
#
# Velocity S-wave (km/s) = 2.05865 3.26922 2.73183
# Velocity P-wave (km/s) = 4.94466 7.47732 6.33877
#
# Compressibility (1/GPa) = 0.03171105
#
# Stress axis : x y z
#
# Youngs Moduli (GPa) = 73.63289 18.64524 77.62930
#
# Poissons Ratio (x) = 0.23449 0.39656
# Poissons Ratio (y) = 0.92604 0.50517
# Poissons Ratio (z) = 0.37615 0.12133
#
# Static dielectric constant tensor:
#      x y z
#    x 3.258920 0.000000 -0.036610 
#    y 0.000000 2.766430 0.000000 
#    z -0.036610 0.000000 3.283740 
# 
# 
# High freq. dielectric constant tensor:
#      x y z
#    x 1.653600 0.000000 0.004260 
#    y 0.000000 1.608270 0.000000 
#    z 0.004260 0.000000 1.641510 
# 
# From -- ./inp_files/27780.got.cif
#   From: 2010.06.25/outbox.cif.g09.slc.cpg/sg10_14_cif.got.tgz:27780.got - 2010.06.27 22:07:45.
