data_PCOD8060499
_publ_section_title
;
Structure prediction by ZEFSAII (Michael W. Deem and Ramdas Pophale) SiO2 
 PCOD8060499
Probable space group: P 2/M
;
_chemical_formula_sum "Si O2"
_cell_formula_units_Z 26
_cell_length_a 28.758931
_cell_length_b 8.180790
_cell_length_c 5.165819
_cell_angle_alpha 90.000000
_cell_angle_beta 69.551899
_cell_angle_gamma 90.000000
_cell_volume 1138.784829
_symmetry_space_group_name_H-M "P 2/M"
_symmetry_group_IT_number 10
_symmetry_cell_setting 'monoclinic'
loop_
_space_group_symop_operation_xyz
x,y,z
-x,y,-z
-x,-y,-z
x,-y,z
loop_
_atom_site_type_symbol
_atom_site_label
_atom_site_fract_x
_atom_site_fract_y
_atom_site_fract_z
Si Si1 0.866197 0.811468 0.069202
Si Si2 0.034200 0.000000 0.686697
Si Si3 0.695263 0.310039 0.868950
Si Si4 0.804422 0.812507 0.672849
Si Si5 0.057993 0.677834 0.436518
Si Si6 0.640919 0.304335 0.474503
Si Si7 0.471372 0.694848 0.305664
O O1 0.826937 0.790587 0.912644
O O2 0.914775 0.708555 0.891510
O O3 0.882965 0.000000 0.071631
O O4 0.841856 0.741574 0.380041
O O5 0.068762 0.165710 0.609352
O O6 0.000000 0.000000 0.500000
O O7 0.000000 0.000000 0.000000
O O8 0.683330 0.500000 0.892210
O O9 0.753909 0.286390 0.756507
O O10 0.669977 0.231701 0.665106
O O11 0.669502 0.231167 0.170560
O O12 0.793021 0.000000 0.627721
O O13 0.074712 0.500000 0.517725
O O14 0.000000 0.671875 0.500000
O O15 0.641868 0.500000 0.471933
O O16 0.584726 0.238404 0.585270
O O17 0.500000 0.762842 0.500000
O O18 0.471117 0.500000 0.306075
O O19 0.500000 0.762910 0.000000
#
# Coordination Sequence:
#
# PCOD8060499 Si02
#       7
#     4   2   4   4   4   4   4
#     4  10  21  39  59  82 111 146 182 227 286 337
#     4  10  22  40  62  86 120 158 192 238 288 334
#     4  10  19  32  50  72 102 136 173 219 273 328
#     4  10  22  38  58  81 109 142 183 231 278 333
#     4  10  22  41  65  94 124 158 200 242 288 352
#     4   9  17  28  44  69 101 138 176 218 270 326
#     4   9  15  23  37  60  95 136 173 211 261 321
#
# _framework density 22.831351000000002
#
# number of rings (size 3 to 8) (size 9 to 14) (size 15 to 20)
#    0.000    2.308    0.769    1.846    0.000    7.692 
#    0.000    3.077    0.000    0.000    0.000    0.000 
#    0.000   12.308    0.000    0.000    0.000    0.000 
#
# Total GULP energy -322349.168248 kJ/mol
# GULP energy per Si atom -12398.044933 kJ/mol
# Density = 2.277939 g / cm^3
# Si number density = 22.831351 Si / 1000 Ang^3
#
#
#
# Elastic Constant Matrix: (Units=GPa)
#
#
# Indices 1 2 3 4 5 6 
#
# 1 74.2918 -0.2452 33.4388 0.0000 -23.6536 0.0000
# 2 -0.2452 84.3880 25.2123 0.0000 -2.8189 0.0000
# 3 33.4388 25.2123 173.3552 0.0000 -16.2819 0.0000
# 4 0.0000 0.0000 0.0000 21.2841 0.0000 -19.0496
# 5 -23.6536 -2.8189 -16.2819 0.0000 43.4311 0.0000
# 6 0.0000 0.0000 0.0000 -19.0496 0.0000 48.9453
#
#
#
# Elastic Compliance Matrix: (Units=1/GPa)
#
#
# Indices 1 2 3 4 5 6 
#
# 1 0.017407 0.001149 -0.002723 0.000000 0.008534 0.000000
# 2 0.001149 0.012465 -0.001969 0.000000 0.000697 0.000000
# 3 -0.002723 -0.001969 0.006664 0.000000 0.000887 0.000000
# 4 0.000000 0.000000 0.000000 0.072098 0.000000 0.028061
# 5 0.008534 0.000697 0.000887 0.000000 0.028051 0.000000
# 6 0.000000 0.000000 0.000000 0.028061 0.000000 0.031352
#
#
# Mechanical properties :
#
#
# Convention : Reuss Voigt Hill
#
# Bulk Modulus (GPa) = 33.95671 49.87187 41.91429
# Shear Modulus (GPa) = 27.03590 40.97404 34.00497
#
# Velocity S-wave (km/s) = 3.44489 4.24091 3.86346
# Velocity P-wave (km/s) = 5.54330 6.77285 6.18869
#
# Compressibility (1/GPa) = 0.02944926
#
# Stress axis : x y z
#
# Youngs Moduli (GPa) = 57.44780 80.22497 150.07117
#
# Poissons Ratio (x) = -0.09220 0.40869
# Poissons Ratio (y) = -0.06602 0.29551
# Poissons Ratio (z) = 0.15645 0.15797
#
# Static dielectric constant tensor:
#      x y z
#    x 4.162030 0.000000 0.178530 
#    y 0.000000 4.659510 0.000000 
#    z 0.178530 0.000000 4.583410 
# 
# 
# High freq. dielectric constant tensor:
#      x y z
#    x 1.905460 0.000000 -0.003150 
#    y 0.000000 1.856450 0.000000 
#    z -0.003150 0.000000 1.917420 
# 
# From -- ./inp_files/13538.got.cif
#   From: 2010.06.25/outbox.cif.g09.slc.cpg/sg10_7_cif.got.tgz:13538.got - 2010.06.27 22:07:45.
