data_PCOD8060801
_publ_section_title
;
Structure prediction by ZEFSAII (Michael W. Deem and Ramdas Pophale) SiO2 
 PCOD8060801
Probable space group: P 2/M
;
_chemical_formula_sum "Si O2"
_cell_formula_units_Z 24
_cell_length_a 10.211836
_cell_length_b 9.048234
_cell_length_c 22.974951
_cell_angle_alpha 90.000000
_cell_angle_beta 141.095773
_cell_angle_gamma 90.000000
_cell_volume 1333.202284
_symmetry_space_group_name_H-M "P 2/M"
_symmetry_group_IT_number 10
_symmetry_cell_setting 'monoclinic'
loop_
_space_group_symop_operation_xyz
x,y,z
-x,y,-z
-x,-y,-z
x,-y,z
loop_
_atom_site_type_symbol
_atom_site_label
_atom_site_fract_x
_atom_site_fract_y
_atom_site_fract_z
Si Si1 0.978878 0.672976 0.924585
Si Si2 0.276013 0.325621 0.442162
Si Si3 0.626730 0.173549 0.732669
Si Si4 0.268700 0.826718 0.936193
Si Si5 0.772540 0.326729 0.443730
Si Si6 0.914312 0.169225 0.725667
O O1 0.965833 0.500000 0.906116
O O2 0.766000 0.750102 0.830265
O O3 0.180692 0.739361 0.961472
O O4 0.000000 0.704693 0.000000
O O5 0.500000 0.264044 0.500000
O O6 0.265898 0.500000 0.435142
O O7 0.233979 0.269186 0.492459
O O8 0.100439 0.264147 0.338013
O O9 0.394906 0.240466 0.653591
O O10 0.724986 0.207867 0.703613
O O11 0.620480 0.000000 0.743735
O O12 0.130345 0.791287 0.831793
O O13 0.260604 0.000000 0.948866
O O14 0.500000 0.773081 0.000000
O O15 0.722277 0.500000 0.421876
O O16 0.000000 0.286995 0.500000
O O17 0.907024 0.000000 0.704343
#
# Coordination Sequence:
#
# PCOD8060801 Si02
#       6
#     4   4   4   4   4   4
#     4  10  21  37  58  83 110 142 184 228 271 325
#     4  10  19  32  53  78 101 135 179 216 256 313
#     4  10  20  35  57  81 106 140 182 223 268 322
#     4   9  19  37  58  81 113 146 178 221 276 328
#     4  10  21  37  54  75 109 145 175 218 273 318
#     4   9  18  32  53  80 105 136 175 219 264 307
#
# _framework density 18.00177
#
# number of rings (size 3 to 8) (size 9 to 14) (size 15 to 20)
#    0.000    2.333    1.667    2.000    0.000    5.667 
#    3.000    0.000    0.000    0.000    0.000    0.000 
#    0.000    0.000    0.000    0.000    0.000    0.000 
#
# Total GULP energy -297649.252298 kJ/mol
# GULP energy per Si atom -12402.052179 kJ/mol
# Density = 1.796080 g / cm^3
# Si number density = 18.001770 Si / 1000 Ang^3
#
#
#
# Elastic Constant Matrix: (Units=GPa)
#
#
# Indices 1 2 3 4 5 6 
#
# 1 118.1536 51.9571 79.0839 0.0000 7.2352 0.0000
# 2 51.9571 73.9398 62.6396 0.0000 0.5683 0.0000
# 3 79.0839 62.6396 133.3391 0.0000 5.1209 0.0000
# 4 0.0000 0.0000 0.0000 33.5857 0.0000 0.2253
# 5 7.2352 0.5683 5.1209 0.0000 33.1063 0.0000
# 6 0.0000 0.0000 0.0000 0.2253 0.0000 20.7246
#
#
#
# Elastic Compliance Matrix: (Units=1/GPa)
#
#
# Indices 1 2 3 4 5 6 
#
# 1 0.015239 -0.005161 -0.006528 0.000000 -0.002232 0.000000
# 2 -0.005161 0.024265 -0.008415 0.000000 0.002013 0.000000
# 3 -0.006528 -0.008415 0.015356 0.000000 -0.000804 0.000000
# 4 0.000000 0.000000 0.000000 0.029777 0.000000 -0.000324
# 5 -0.002232 0.002013 -0.000804 0.000000 0.030783 0.000000
# 6 0.000000 0.000000 0.000000 -0.000324 0.000000 0.048255
#
#
# Mechanical properties :
#
#
# Convention : Reuss Voigt Hill
#
# Bulk Modulus (GPa) = 68.25548 79.19933 73.72740
# Shear Modulus (GPa) = 23.95000 26.26678 25.10839
#
# Velocity S-wave (km/s) = 3.65146 3.82399 3.73872
# Velocity P-wave (km/s) = 7.46832 7.97421 7.72541
#
# Compressibility (1/GPa) = 0.01465084
#
# Stress axis : x y z
#
# Youngs Moduli (GPa) = 65.61994 41.21185 65.12143
#
# Poissons Ratio (x) = 0.21269 0.42513
# Poissons Ratio (y) = 0.33865 0.54803
# Poissons Ratio (z) = 0.42839 0.34682
#
# Static dielectric constant tensor:
#      x y z
#    x 3.272360 0.000000 0.064850 
#    y 0.000000 3.252680 0.000000 
#    z 0.064850 0.000000 3.360940 
# 
# 
# High freq. dielectric constant tensor:
#      x y z
#    x 1.682120 0.000000 0.001060 
#    y 0.000000 1.696000 0.000000 
#    z 0.001060 0.000000 1.704670 
# 
# From -- ./inp_files/33954.got.cif
#   From: 2010.06.25/outbox.cif.g09.slc.cpg/sg10_17_cif.got.tgz:33954.got - 2010.06.27 22:07:45.
