data_PCOD8060433
_publ_section_title
;
Structure prediction by ZEFSAII (Michael W. Deem and Ramdas Pophale) SiO2 
 PCOD8060433
Probable space group: P 2/M
;
_chemical_formula_sum "Si O2"
_cell_formula_units_Z 32
_cell_length_a 21.132061
_cell_length_b 8.862908
_cell_length_c 30.516223
_cell_angle_alpha 90.000000
_cell_angle_beta 160.424843
_cell_angle_gamma 90.000000
_cell_volume 1914.915064
_symmetry_space_group_name_H-M "P 2/M"
_symmetry_group_IT_number 10
_symmetry_cell_setting 'monoclinic'
loop_
_space_group_symop_operation_xyz
x,y,z
-x,y,-z
-x,-y,-z
x,-y,z
loop_
_atom_site_type_symbol
_atom_site_label
_atom_site_fract_x
_atom_site_fract_y
_atom_site_fract_z
Si Si1 0.273553 0.178375 0.191838
Si Si2 0.946626 0.321339 0.282162
Si Si3 0.323974 0.324750 0.414815
Si Si4 0.677363 0.823393 0.492448
Si Si5 0.062517 0.322183 0.977980
Si Si6 0.608946 0.333168 0.116630
Si Si7 0.921928 0.674261 0.112429
Si Si8 0.718712 0.823692 0.055563
O O1 0.484976 0.222042 0.342902
O O2 0.134850 0.244950 0.138085
O O3 0.242799 0.000000 0.168696
O O4 0.230807 0.254020 0.117074
O O5 0.951126 0.500000 0.279840
O O6 0.819951 0.274812 0.241989
O O7 0.861636 0.257818 0.181709
O O8 0.155748 0.257835 0.425520
O O9 0.500000 0.275901 0.500000
O O10 0.335892 0.500000 0.435711
O O11 0.327800 0.227129 0.460875
O O12 0.136144 0.287402 0.265175
O O13 0.714481 0.000000 0.515275
O O14 0.044026 0.500000 0.974105
O O15 0.108453 0.284344 0.957913
O O16 0.616555 0.500000 0.142965
O O17 0.500000 0.341699 0.000000
O O18 0.500036 0.221989 0.078549
O O19 0.876352 0.500000 0.092114
O O20 0.774524 0.776049 0.043030
O O21 0.740201 0.000000 0.076173
#
# Coordination Sequence:
#
# PCOD8060433 Si02
#       8
#     4   4   4   4   4   4   4   4
#     4  10  21  36  52  72 101 131 161 208 261 297
#     4  10  19  32  49  69  97 133 167 203 243 288
#     4  10  20  33  49  68  95 133 167 198 243 294
#     4  11  22  33  48  73 101 132 166 202 247 297
#     4  10  20  35  56  76  93 124 173 216 247 290
#     4   8  16  30  47  66  93 130 166 198 240 287
#     4  10  20  33  49  71 100 131 164 206 249 288
#     4  11  20  29  46  72 101 132 164 199 241 295
#
# _framework density 16.710925
#
# number of rings (size 3 to 8) (size 9 to 14) (size 15 to 20)
#    0.000    2.000    1.250    4.875    0.000    7.000 
#    0.000    0.000    0.000    0.000    0.000    0.875 
#    0.000    7.000    0.000    0.000    0.000    0.000 
#
# Total GULP energy -396821.511562 kJ/mol
# GULP energy per Si atom -12400.672236 kJ/mol
# Density = 1.667289 g / cm^3
# Si number density = 16.710925 Si / 1000 Ang^3
#
#
#
# Elastic Constant Matrix: (Units=GPa)
#
#
# Indices 1 2 3 4 5 6 
#
# 1 90.3442 32.5475 46.1407 0.0000 11.6078 0.0000
# 2 32.5475 66.4429 31.3219 0.0000 1.3973 0.0000
# 3 46.1407 31.3219 80.2832 0.0000 8.9442 0.0000
# 4 0.0000 0.0000 0.0000 24.5669 0.0000 0.1069
# 5 11.6078 1.3973 8.9442 0.0000 25.2476 0.0000
# 6 0.0000 0.0000 0.0000 0.1069 0.0000 8.9128
#
#
#
# Elastic Compliance Matrix: (Units=1/GPa)
#
#
# Indices 1 2 3 4 5 6 
#
# 1 0.017277 -0.004829 -0.007486 0.000000 -0.005024 0.000000
# 2 -0.004829 0.019854 -0.005305 0.000000 0.003001 0.000000
# 3 -0.007486 -0.005305 0.019168 0.000000 -0.003055 0.000000
# 4 0.000000 0.000000 0.000000 0.040707 0.000000 -0.000488
# 5 -0.005024 0.003001 -0.003055 0.000000 0.042834 0.000000
# 6 0.000000 0.000000 0.000000 -0.000488 0.000000 0.112205
#
#
# Mechanical properties :
#
#
# Convention : Reuss Voigt Hill
#
# Bulk Modulus (GPa) = 47.48346 50.78782 49.13564
# Shear Modulus (GPa) = 16.98925 20.21613 18.60269
#
# Velocity S-wave (km/s) = 3.19196 3.48193 3.34009
# Velocity P-wave (km/s) = 6.48546 6.82811 6.65899
#
# Compressibility (1/GPa) = 0.02105996
#
# Stress axis : x y z
#
# Youngs Moduli (GPa) = 57.88002 50.36887 52.16947
#
# Poissons Ratio (x) = 0.24322 0.39054
# Poissons Ratio (y) = 0.27948 0.27675
# Poissons Ratio (z) = 0.43329 0.26720
#
# Static dielectric constant tensor:
#      x y z
#    x 3.209720 0.000000 0.297850 
#    y 0.000000 3.185850 0.000000 
#    z 0.297850 0.000000 3.215050 
# 
# 
# High freq. dielectric constant tensor:
#      x y z
#    x 1.635110 0.000000 0.022670 
#    y 0.000000 1.652830 0.000000 
#    z 0.022670 0.000000 1.624690 
# 
# From -- ./inp_files/83375.got.cif
#   From: 2010.06.25/outbox.cif.g09.slc.cpg/sg10_42_cif.got.tgz:83375.got - 2010.06.27 22:07:45.
