data_PCOD8060895
_publ_section_title
;
Structure prediction by ZEFSAII (Michael W. Deem and Ramdas Pophale) SiO2 
 PCOD8060895
Probable space group: P 2/M
;
_chemical_formula_sum "Si O2"
_cell_formula_units_Z 24
_cell_length_a 24.677603
_cell_length_b 8.471522
_cell_length_c 12.096104
_cell_angle_alpha 90.000000
_cell_angle_beta 29.132739
_cell_angle_gamma 90.000000
_cell_volume 1231.094369
_symmetry_space_group_name_H-M "P 2/M"
_symmetry_group_IT_number 10
_symmetry_cell_setting 'monoclinic'
loop_
_space_group_symop_operation_xyz
x,y,z
-x,y,-z
-x,-y,-z
x,-y,z
loop_
_atom_site_type_symbol
_atom_site_label
_atom_site_fract_x
_atom_site_fract_y
_atom_site_fract_z
Si Si1 0.176225 0.686609 0.154109
Si Si2 0.086603 0.687876 0.756136
Si Si3 0.968788 0.687175 0.385452
Si Si4 0.536584 0.185634 0.099776
Si Si5 0.337679 0.685201 0.327652
Si Si6 0.584491 0.185602 0.259278
O O1 0.195161 0.500000 0.121066
O O2 0.125941 0.746230 0.360648
O O3 0.091164 0.738317 0.208768
O O4 0.291438 0.772352 0.925214
O O5 0.079453 0.500000 0.763602
O O6 0.054544 0.759820 0.693627
O O7 0.210554 0.741200 0.568347
O O8 0.000000 0.756044 0.000000
O O9 0.963259 0.500000 0.392691
O O10 0.410015 0.221279 0.289068
O O11 0.556089 0.252803 0.188200
O O12 0.559575 0.000000 0.049932
O O13 0.622011 0.276468 0.867981
O O14 0.351132 0.500000 0.324920
O O15 0.500000 0.259757 0.500000
O O16 0.568900 0.000000 0.283919
#
# Coordination Sequence:
#
# PCOD8060895 Si02
#       6
#     4   4   4   4   4   4
#     4   9  17  31  53  75  94 123 163 205 244 286
#     4   9  17  28  44  70 103 132 154 187 242 298
#     4   8  15  29  48  71  98 125 156 197 245 290
#     4  10  20  35  54  72  97 134 169 204 250 299
#     4  10  19  32  54  80 102 126 164 211 246 284
#     4  10  22  37  50  69 101 137 168 203 250 297
#
# _framework density 19.494851000000001
#
# number of rings (size 3 to 8) (size 9 to 14) (size 15 to 20)
#    0.000    2.667    0.000    4.000    0.000    4.333 
#    0.000    3.333    0.000    4.000    0.000    0.000 
#    0.000    0.000    0.000    0.000    0.000    0.000 
#
# Total GULP energy -297573.839053 kJ/mol
# GULP energy per Si atom -12398.909961 kJ/mol
# Density = 1.945048 g / cm^3
# Si number density = 19.494851 Si / 1000 Ang^3
#
#
#
# Elastic Constant Matrix: (Units=GPa)
#
#
# Indices 1 2 3 4 5 6 
#
# 1 77.0574 3.3606 59.7115 0.0000 -10.4759 0.0000
# 2 3.3606 11.8112 0.9777 0.0000 0.4189 0.0000
# 3 59.7115 0.9777 152.7372 0.0000 -17.9504 0.0000
# 4 0.0000 0.0000 0.0000 -6.1285 0.0000 3.6738
# 5 -10.4759 0.4189 -17.9504 0.0000 25.6607 0.0000
# 6 0.0000 0.0000 0.0000 3.6738 0.0000 16.7107
#
#
#
# Elastic Compliance Matrix: (Units=1/GPa)
#
#
# Indices 1 2 3 4 5 6 
#
# 1 0.019079 -0.004945 -0.007085 0.000000 0.002914 0.000000
# 2 -0.004945 0.086079 0.001068 0.000000 -0.002677 0.000000
# 3 -0.007085 0.001068 0.009771 0.000000 0.003926 0.000000
# 4 0.000000 0.000000 0.000000 -0.144171 0.000000 0.031696
# 5 0.002914 -0.002677 0.003926 0.000000 0.042949 0.000000
# 6 0.000000 0.000000 0.000000 0.031696 0.000000 0.052874
#
#
# Mechanical properties :
#
#
# Convention : Reuss Voigt Hill
#
# Bulk Modulus (GPa) = 10.75213 41.07838 25.91526
# Shear Modulus (GPa) = 41.83828 19.08563 30.46195
#
# Velocity S-wave (km/s) = 4.63765 3.13231 3.95722
# Velocity P-wave (km/s) = 5.84845 5.84799 5.84822
#
# Compressibility (1/GPa) = 0.09300480
#
# Stress axis : x y z
#
# Youngs Moduli (GPa) = 52.41339 11.61722 102.33888
#
# Poissons Ratio (x) = 0.05745 0.72505
# Poissons Ratio (y) = 0.25920 -0.10926
# Poissons Ratio (z) = 0.37134 -0.01240
#
# Static dielectric constant tensor:
#      x y z
#    x 3.896650 0.000000 0.095640 
#    y 0.000000 3.098560 0.000000 
#    z 0.095640 0.000000 3.688670 
# 
# 
# High freq. dielectric constant tensor:
#      x y z
#    x 1.768910 0.000000 -0.006940 
#    y 0.000000 1.720500 0.000000 
#    z -0.006940 0.000000 1.759900 
# 
# From -- ./inp_files/56548.got.cif
#   From: 2010.06.25/outbox.cif.g09.slc.cpg/sg10_29_cif.got.tgz:56548.got - 2010.06.27 22:07:45.
