data_PCOD8060692
_publ_section_title
;
Structure prediction by ZEFSAII (Michael W. Deem and Ramdas Pophale) SiO2 
 PCOD8060692
Probable space group: P 2/M
;
_chemical_formula_sum "Si O2"
_cell_formula_units_Z 28
_cell_length_a 18.177663
_cell_length_b 8.857811
_cell_length_c 15.801748
_cell_angle_alpha 90.000000
_cell_angle_beta 142.937857
_cell_angle_gamma 90.000000
_cell_volume 1533.405422
_symmetry_space_group_name_H-M "P 2/M"
_symmetry_group_IT_number 10
_symmetry_cell_setting 'monoclinic'
loop_
_space_group_symop_operation_xyz
x,y,z
-x,y,-z
-x,-y,-z
x,-y,z
loop_
_atom_site_type_symbol
_atom_site_label
_atom_site_fract_x
_atom_site_fract_y
_atom_site_fract_z
Si Si1 0.874861 0.824079 0.423374
Si Si2 0.044656 0.175042 0.174648
Si Si3 0.550070 0.179112 0.637060
Si Si4 0.579862 0.671018 0.323691
Si Si5 0.184428 0.174040 0.141772
Si Si6 0.860028 0.330930 0.580261
Si Si7 0.400477 0.820519 0.838006
O O1 0.884933 0.790359 0.531032
O O2 0.739644 0.764518 0.267169
O O3 0.000000 0.749693 0.500000
O O4 0.878658 0.000000 0.408143
O O5 0.129891 0.242340 0.178293
O O6 0.057487 0.281606 0.266291
O O7 0.074940 0.000000 0.223244
O O8 0.904902 0.193735 0.019097
O O9 0.500000 0.232240 0.500000
O O10 0.484993 0.248488 0.658111
O O11 0.687032 0.245415 0.765614
O O12 0.540660 0.000000 0.637923
O O13 0.532313 0.500000 0.270706
O O14 0.720244 0.675277 0.479017
O O15 0.557058 0.752695 0.212854
O O16 0.204259 0.000000 0.181411
O O17 0.896489 0.500000 0.584464
O O18 0.400293 0.000000 0.828514
O O19 0.500000 0.768763 0.000000
#
# Coordination Sequence:
#
# PCOD8060692 Si02
#       7
#     4   4   4   4   4   4   4
#     4   9  18  34  55  78 101 127 166 211 255 304
#     4   9  16  31  53  72  95 130 169 207 250 298
#     4  10  19  32  52  77 103 133 172 216 257 297
#     4  10  21  35  51  74 105 139 173 208 250 307
#     4   8  16  30  49  74 100 127 165 212 254 292
#     4  10  20  33  50  73 101 132 167 204 247 298
#     4   9  18  35  58  80 102 133 172 216 262 307
#
# _framework density 18.260010000000001
#
# number of rings (size 3 to 8) (size 9 to 14) (size 15 to 20)
#    0.000    2.714    0.000    2.571    0.000    3.714 
#    2.571    2.857    0.000    0.000    0.000    0.000 
#    0.000    0.000    0.000    0.000    0.000    0.000 
#
# Total GULP energy -346923.888455 kJ/mol
# GULP energy per Si atom -12390.138873 kJ/mol
# Density = 1.821845 g / cm^3
# Si number density = 18.260010 Si / 1000 Ang^3
#
#
#
# Elastic Constant Matrix: (Units=GPa)
#
#
# Indices 1 2 3 4 5 6 
#
# 1 122.3797 24.6267 68.2097 0.0000 10.6090 0.0000
# 2 24.6267 30.5317 30.3372 0.0000 1.6549 0.0000
# 3 68.2097 30.3372 121.9963 0.0000 -3.0174 0.0000
# 4 0.0000 0.0000 0.0000 10.8111 0.0000 4.3743
# 5 10.6090 1.6549 -3.0174 0.0000 26.2962 0.0000
# 6 0.0000 0.0000 0.0000 4.3743 0.0000 10.3931
#
#
#
# Elastic Compliance Matrix: (Units=1/GPa)
#
#
# Indices 1 2 3 4 5 6 
#
# 1 0.013055 -0.003748 -0.006510 0.000000 -0.005778 0.000000
# 2 -0.003748 0.044999 -0.009153 0.000000 -0.002370 0.000000
# 3 -0.006510 -0.009153 0.014232 0.000000 0.004836 0.000000
# 4 0.000000 0.000000 0.000000 0.111483 0.000000 -0.046922
# 5 -0.005778 -0.002370 0.004836 0.000000 0.041063 0.000000
# 6 0.000000 0.000000 0.000000 -0.046922 0.000000 0.115966
#
#
# Mechanical properties :
#
#
# Convention : Reuss Voigt Hill
#
# Bulk Modulus (GPa) = 29.88271 57.91723 43.89997
# Shear Modulus (GPa) = 12.79502 19.61568 16.20535
#
# Velocity S-wave (km/s) = 2.64997 3.28112 2.98229
# Velocity P-wave (km/s) = 5.07580 6.79274 5.99604
#
# Compressibility (1/GPa) = 0.03346416
#
# Stress axis : x y z
#
# Youngs Moduli (GPa) = 76.59986 22.22250 70.26183
#
# Poissons Ratio (x) = 0.08330 0.45740
# Poissons Ratio (y) = 0.28712 0.64311
# Poissons Ratio (z) = 0.49866 0.20340
#
# Static dielectric constant tensor:
#      x y z
#    x 3.528700 0.000000 0.303110 
#    y 0.000000 3.159370 0.000000 
#    z 0.303110 0.000000 3.592690 
# 
# 
# High freq. dielectric constant tensor:
#      x y z
#    x 1.705330 0.000000 0.005240 
#    y 0.000000 1.683270 0.000000 
#    z 0.005240 0.000000 1.712160 
# 
# From -- ./inp_files/68713.got.cif
#   From: 2010.06.25/outbox.cif.g09.slc.cpg/sg10_35_cif.got.tgz:68713.got - 2010.06.27 22:07:45.
