data_PCOD8060354
_publ_section_title
;
Structure prediction by ZEFSAII (Michael W. Deem and Ramdas Pophale) SiO2 
 PCOD8060354
Probable space group: P 2/M
;
_chemical_formula_sum "Si O2"
_cell_formula_units_Z 32
_cell_length_a 11.862965
_cell_length_b 8.996719
_cell_length_c 28.910718
_cell_angle_alpha 90.000000
_cell_angle_beta 31.229426
_cell_angle_gamma 90.000000
_cell_volume 1599.767114
_symmetry_space_group_name_H-M "P 2/M"
_symmetry_group_IT_number 10
_symmetry_cell_setting 'monoclinic'
loop_
_space_group_symop_operation_xyz
x,y,z
-x,y,-z
-x,-y,-z
x,-y,z
loop_
_atom_site_type_symbol
_atom_site_label
_atom_site_fract_x
_atom_site_fract_y
_atom_site_fract_z
Si Si1 0.757223 0.830951 0.525487
Si Si2 0.619273 0.169645 0.414001
Si Si3 0.057607 0.176821 0.214641
Si Si4 0.355895 0.673893 0.177380
Si Si5 0.463244 0.173846 0.309242
Si Si6 0.169968 0.825879 0.328697
Si Si7 0.855354 0.325710 0.007322
Si Si8 0.945259 0.176423 0.150699
O O1 0.534517 0.818749 0.575957
O O2 0.705846 0.757511 0.593618
O O3 0.957317 0.755569 0.428282
O O4 0.834282 0.000000 0.505479
O O5 0.500000 0.248755 0.500000
O O6 0.851131 0.238687 0.317122
O O7 0.664640 0.000000 0.412538
O O8 0.279473 0.248218 0.156516
O O9 0.037247 0.225733 0.168267
O O10 0.069691 0.000000 0.213694
O O11 0.322673 0.500000 0.183300
O O12 0.198260 0.735642 0.272139
O O13 0.602975 0.713159 0.104334
O O14 0.378333 0.203884 0.287736
O O15 0.702240 0.242852 0.230416
O O16 0.478709 0.000000 0.315468
O O17 0.142411 0.000000 0.326288
O O18 0.894310 0.500000 0.987152
O O19 0.000000 0.266925 0.000000
O O20 0.912663 0.245197 0.939744
O O21 0.948002 0.000000 0.144098
#
# Coordination Sequence:
#
# PCOD8060354 Si02
#       8
#     4   4   4   4   4   4   4   4
#     4   9  15  26  47  80 116 145 179 221 269 325
#     4   9  15  25  46  76 110 148 186 221 257 309
#     4  10  20  36  57  83 114 146 185 227 273 328
#     4  11  24  40  57  78 108 144 183 230 279 326
#     4   9  16  29  50  83 119 144 175 224 277 327
#     4  10  19  31  54  84 112 145 184 227 275 325
#     4  10  23  43  63  82 107 144 187 226 274 341
#     4  10  20  35  59  88 116 145 179 231 284 324
#
# _framework density 20.002911999999998
#
# number of rings (size 3 to 8) (size 9 to 14) (size 15 to 20)
#    0.000    2.250    1.250    2.250    0.000    5.750 
#    0.000    2.500    0.000    5.625    0.000    0.000 
#    0.000    0.000    0.000    0.000    0.000    0.000 
#
# Total GULP energy -396674.489646 kJ/mol
# GULP energy per Si atom -12396.077801 kJ/mol
# Density = 1.995738 g / cm^3
# Si number density = 20.002912 Si / 1000 Ang^3
#
#
#
# Elastic Constant Matrix: (Units=GPa)
#
#
# Indices 1 2 3 4 5 6 
#
# 1 117.9929 28.9690 43.4206 0.0000 1.8449 0.0000
# 2 28.9690 26.1351 28.1817 0.0000 1.2241 0.0000
# 3 43.4206 28.1817 94.9943 0.0000 7.2815 0.0000
# 4 0.0000 0.0000 0.0000 3.4387 0.0000 -7.7951
# 5 1.8449 1.2241 7.2815 0.0000 39.5723 0.0000
# 6 0.0000 0.0000 0.0000 -7.7951 0.0000 16.4542
#
#
#
# Elastic Compliance Matrix: (Units=1/GPa)
#
#
# Indices 1 2 3 4 5 6 
#
# 1 0.011965 -0.010819 -0.002274 0.000000 0.000195 0.000000
# 2 -0.010819 0.066115 -0.014759 0.000000 0.001175 0.000000
# 3 -0.002274 -0.014759 0.016129 0.000000 -0.002405 0.000000
# 4 0.000000 0.000000 0.000000 -3.932839 0.000000 -1.863172
# 5 0.000195 0.001175 -0.002405 0.000000 0.025667 0.000000
# 6 0.000000 0.000000 0.000000 -1.863172 0.000000 -0.821898
#
#
# Mechanical properties :
#
#
# Convention : Reuss Voigt Hill
#
# Bulk Modulus (GPa) = 25.97108 48.91832 37.44470
# Shear Modulus (GPa) = -1.09497 21.12978 10.01740
#
# Velocity S-wave (km/s) = -0.74067 3.25366 2.24028
# Velocity P-wave (km/s) = 3.50434 6.21480 5.04500
#
# Compressibility (1/GPa) = 0.03850437
#
# Stress axis : x y z
#
# Youngs Moduli (GPa) = 83.57492 15.12520 61.99875
#
# Poissons Ratio (x) = 0.16365 0.14101
# Poissons Ratio (y) = 0.90423 0.91503
# Poissons Ratio (z) = 0.19008 0.22323
#
# Static dielectric constant tensor:
#      x y z
#    x 3.743120 0.000000 -0.022920 
#    y 0.000000 3.057610 0.000000 
#    z -0.022920 0.000000 3.802290 
# 
# 
# High freq. dielectric constant tensor:
#      x y z
#    x 1.798610 0.000000 0.000720 
#    y 0.000000 1.712780 0.000000 
#    z 0.000720 0.000000 1.791490 
# 
# From -- ./inp_files/94959.got.cif
#   From: 2010.06.25/outbox.cif.g09.slc.cpg/sg10_48_cif.got.tgz:94959.got - 2010.06.27 22:07:45.
