data_PCOD8060708
_publ_section_title
;
Structure prediction by ZEFSAII (Michael W. Deem and Ramdas Pophale) SiO2 
 PCOD8060708
Probable space group: P 2/M
;
_chemical_formula_sum "Si O2"
_cell_formula_units_Z 32
_cell_length_a 14.850692
_cell_length_b 8.726802
_cell_length_c 25.873819
_cell_angle_alpha 90.000000
_cell_angle_beta 149.548086
_cell_angle_gamma 90.000000
_cell_volume 1699.463556
_symmetry_space_group_name_H-M "P 2/M"
_symmetry_group_IT_number 10
_symmetry_cell_setting 'monoclinic'
loop_
_space_group_symop_operation_xyz
x,y,z
-x,y,-z
-x,-y,-z
x,-y,z
loop_
_atom_site_type_symbol
_atom_site_label
_atom_site_fract_x
_atom_site_fract_y
_atom_site_fract_z
Si Si1 0.159913 0.822453 0.614204
Si Si2 0.735623 0.679783 0.229729
Si Si3 0.548821 0.822861 0.773267
Si Si4 0.005103 0.818444 0.284741
Si Si5 0.599275 0.182034 0.498590
Si Si6 0.368983 0.182934 0.074130
Si Si7 0.017236 0.181777 0.844401
Si Si8 0.657851 0.183397 0.717498
O O1 0.161404 0.726769 0.667421
O O2 0.337811 0.797500 0.669323
O O3 0.000000 0.761419 0.500000
O O4 0.133986 0.000000 0.616544
O O5 0.709494 0.500000 0.215203
O O6 0.542528 0.757237 0.130497
O O7 0.848944 0.733457 0.237109
O O8 0.633441 0.753853 0.867802
O O9 0.626617 0.746837 0.759508
O O10 0.598356 0.000000 0.796103
O O11 0.195937 0.764448 0.401294
O O12 0.991229 0.763941 0.218707
O O13 0.980301 0.000000 0.277921
O O14 0.500000 0.249242 0.500000
O O15 0.499149 0.242610 0.397877
O O16 0.591373 0.000000 0.497516
O O17 0.379248 0.000000 0.079108
O O18 0.194913 0.246526 0.959271
O O19 0.846176 0.246074 0.790208
O O20 0.016441 0.000000 0.846826
O O21 0.655021 0.000000 0.717003
#
# Coordination Sequence:
#
# PCOD8060708 Si02
#       8
#     4   4   4   4   4   4   4   4
#     4   9  18  33  54  80 107 136 173 213 255 304
#     4  11  23  37  52  73 103 139 177 218 261 306
#     4   8  15  26  43  71 106 134 159 198 252 309
#     4  10  19  32  52  78 104 135 173 214 260 311
#     4   9  15  25  44  73 108 135 160 205 260 309
#     4   9  18  35  53  72 101 135 171 217 267 311
#     4   9  17  29  49  76 104 132 168 216 266 311
#     4   9  15  24  42  76 110 131 160 204 257 314
#
# _framework density 18.829471999999999
#
# number of rings (size 3 to 8) (size 9 to 14) (size 15 to 20)
#    0.000    2.750    1.250    1.875    1.750    1.250 
#    0.000    5.625    0.000    0.375    0.000   10.500 
#    0.000    0.000    0.000    0.000    0.000    0.000 
#
# Total GULP energy -396711.344704 kJ/mol
# GULP energy per Si atom -12397.229522 kJ/mol
# Density = 1.878662 g / cm^3
# Si number density = 18.829472 Si / 1000 Ang^3
#
#
#
# Elastic Constant Matrix: (Units=GPa)
#
#
# Indices 1 2 3 4 5 6 
#
# 1 156.3282 19.7277 74.4124 0.0000 0.8607 0.0000
# 2 19.7277 25.9223 18.0500 0.0000 0.0502 0.0000
# 3 74.4124 18.0500 174.1590 0.0000 9.6168 0.0000
# 4 0.0000 0.0000 0.0000 5.2862 0.0000 -2.3506
# 5 0.8607 0.0502 9.6168 0.0000 18.4642 0.0000
# 6 0.0000 0.0000 0.0000 -2.3506 0.0000 1.7466
#
#
#
# Elastic Compliance Matrix: (Units=1/GPa)
#
#
# Indices 1 2 3 4 5 6 
#
# 1 0.008467 -0.004178 -0.003257 0.000000 0.001313 0.000000
# 2 -0.004178 0.043726 -0.002832 0.000000 0.001551 0.000000
# 3 -0.003257 -0.002832 0.007638 0.000000 -0.003819 0.000000
# 4 0.000000 0.000000 0.000000 0.471108 0.000000 0.634029
# 5 0.001313 0.001551 -0.003819 0.000000 0.056082 0.000000
# 6 0.000000 0.000000 0.000000 0.634029 0.000000 1.425826
#
#
# Mechanical properties :
#
#
# Convention : Reuss Voigt Hill
#
# Bulk Modulus (GPa) = 25.44822 64.53219 44.99020
# Shear Modulus (GPa) = 2.44322 21.38070 11.91196
#
# Velocity S-wave (km/s) = 1.14034 3.37336 2.51793
# Velocity P-wave (km/s) = 3.90874 7.03698 5.69198
#
# Compressibility (1/GPa) = 0.03929548
#
# Stress axis : x y z
#
# Youngs Moduli (GPa) = 118.10119 22.86984 130.92466
#
# Poissons Ratio (x) = 0.09556 0.42646
# Poissons Ratio (y) = 0.49347 0.37080
# Poissons Ratio (z) = 0.38469 0.06477
#
# Static dielectric constant tensor:
#      x y z
#    x 3.622730 0.000000 -0.080210 
#    y 0.000000 2.798530 0.000000 
#    z -0.080210 0.000000 3.764260 
# 
# 
# High freq. dielectric constant tensor:
#      x y z
#    x 1.741100 0.000000 -0.001020 
#    y 0.000000 1.663500 0.000000 
#    z -0.001020 0.000000 1.741320 
# 
# From -- ./inp_files/66467.got.cif
#   From: 2010.06.25/outbox.cif.g09.slc.cpg/sg10_34_cif.got.tgz:66467.got - 2010.06.27 22:07:45.
