data_PCOD8060069
_publ_section_title
;
Structure prediction by ZEFSAII (Michael W. Deem and Ramdas Pophale) SiO2 
 PCOD8060069
Probable space group: P 2/M
;
_chemical_formula_sum "Si O2"
_cell_formula_units_Z 24
_cell_length_a 25.698671
_cell_length_b 7.880719
_cell_length_c 19.726576
_cell_angle_alpha 90.000000
_cell_angle_beta 161.324993
_cell_angle_gamma 90.000000
_cell_volume 1279.231787
_symmetry_space_group_name_H-M "P 2/M"
_symmetry_group_IT_number 10
_symmetry_cell_setting 'monoclinic'
loop_
_space_group_symop_operation_xyz
x,y,z
-x,y,-z
-x,-y,-z
x,-y,z
loop_
_atom_site_type_symbol
_atom_site_label
_atom_site_fract_x
_atom_site_fract_y
_atom_site_fract_z
Si Si1 0.343543 0.188639 0.038326
Si Si2 0.092780 0.500000 0.510970
Si Si3 0.990366 0.804530 0.300410
Si Si4 0.043950 0.190983 0.212609
Si Si5 0.653574 0.693915 0.492014
Si Si6 0.159284 0.312626 0.151570
Si Si7 0.252684 0.500000 0.844008
O O1 0.508009 0.192795 0.284583
O O2 0.328436 0.000000 0.987091
O O3 0.348235 0.330124 0.984984
O O4 0.194698 0.222896 0.905174
O O5 0.106412 0.672845 0.483724
O O6 0.240164 0.500000 0.746924
O O7 0.924399 0.500000 0.342677
O O8 0.998248 0.752856 0.231720
O O9 0.046586 0.000000 0.382761
O O10 0.190895 0.304255 0.366028
O O11 0.107638 0.000000 0.290062
O O12 0.880305 0.204212 0.964453
O O13 0.595003 0.500000 0.424874
O O14 0.701717 0.763906 0.626886
O O15 0.211619 0.500000 0.192077
O O16 0.000000 0.323938 0.000000
#
# Coordination Sequence:
#
# PCOD8060069 Si02
#       7
#     4   2   4   4   4   4   2
#     4  10  19  34  54  75 105 135 162 208 255 294
#     4   9  18  32  57  74 103 136 158 203 257 295
#     4   9  20  34  51  79 105 130 168 206 248 303
#     4  10  19  31  49  74 102 133 172 211 248 296
#     4  10  19  32  50  74 102 133 175 213 245 297
#     4   8  16  29  45  68  98 131 171 214 245 283
#     4   9  18  34  51  82 101 126 172 201 243 313
#
# _framework density 18.76126
#
# number of rings (size 3 to 8) (size 9 to 14) (size 15 to 20)
#    0.000    2.667    0.833    2.000    2.333    4.333 
#    0.000    4.167    0.000    7.000    0.000    3.500 
#    0.000    0.000    0.000    0.000    0.000    0.000 
#
# Total GULP energy -297434.273522 kJ/mol
# GULP energy per Si atom -12393.094730 kJ/mol
# Density = 1.871856 g / cm^3
# Si number density = 18.761260 Si / 1000 Ang^3
#
#
#
# Elastic Constant Matrix: (Units=GPa)
#
#
# Indices 1 2 3 4 5 6 
#
# 1 83.1718 37.5666 26.7222 0.0000 -28.7405 0.0000
# 2 37.5666 93.1007 19.8936 0.0000 -15.7933 0.0000
# 3 26.7222 19.8936 44.9348 0.0000 -16.4203 0.0000
# 4 0.0000 0.0000 0.0000 17.1822 0.0000 -3.2341
# 5 -28.7405 -15.7933 -16.4203 0.0000 25.9144 0.0000
# 6 0.0000 0.0000 0.0000 -3.2341 0.0000 23.3462
#
#
#
# Elastic Compliance Matrix: (Units=1/GPa)
#
#
# Indices 1 2 3 4 5 6 
#
# 1 0.022050 -0.004816 -0.004056 0.000000 0.018949 0.000000
# 2 -0.004816 0.013452 -0.002664 0.000000 0.001169 0.000000
# 3 -0.004056 -0.002664 0.030723 0.000000 0.013345 0.000000
# 4 0.000000 0.000000 0.000000 0.059758 0.000000 0.008278
# 5 0.018949 0.001169 0.013345 0.000000 0.068772 0.000000
# 6 0.000000 0.000000 0.000000 0.008278 0.000000 0.043980
#
#
# Mechanical properties :
#
#
# Convention : Reuss Voigt Hill
#
# Bulk Modulus (GPa) = 23.17415 43.28578 33.22997
# Shear Modulus (GPa) = 18.10338 22.42356 20.26347
#
# Velocity S-wave (km/s) = 3.10971 3.46093 3.29001
# Velocity P-wave (km/s) = 5.02719 6.25241 5.67298
#
# Compressibility (1/GPa) = 0.04315152
#
# Stress axis : x y z
#
# Youngs Moduli (GPa) = 45.35198 74.33891 32.54928
#
# Poissons Ratio (x) = 0.35802 0.13202
# Poissons Ratio (y) = 0.21841 0.08672
# Poissons Ratio (z) = 0.18395 0.19807
#
# Static dielectric constant tensor:
#      x y z
#    x 3.276010 0.000000 -0.370120 
#    y 0.000000 3.526720 0.000000 
#    z -0.370120 0.000000 3.446450 
# 
# 
# High freq. dielectric constant tensor:
#      x y z
#    x 1.697750 0.000000 -0.025980 
#    y 0.000000 1.737550 0.000000 
#    z -0.025980 0.000000 1.709240 
# 
# From -- ./inp_files/75912.got.cif
#   From: 2010.06.25/outbox.cif.g09.slc.cpg/sg10_38_cif.got.tgz:75912.got - 2010.06.27 22:07:45.
