data_PCOD8060053
_publ_section_title
;
Structure prediction by ZEFSAII (Michael W. Deem and Ramdas Pophale) SiO2 
 PCOD8060053
Probable space group: P 2/M
;
_chemical_formula_sum "Si O2"
_cell_formula_units_Z 32
_cell_length_a 24.765495
_cell_length_b 10.264257
_cell_length_c 20.809976
_cell_angle_alpha 90.000000
_cell_angle_beta 158.174446
_cell_angle_gamma 90.000000
_cell_volume 1966.682972
_symmetry_space_group_name_H-M "P 2/M"
_symmetry_group_IT_number 10
_symmetry_cell_setting 'monoclinic'
loop_
_space_group_symop_operation_xyz
x,y,z
-x,y,-z
-x,-y,-z
x,-y,z
loop_
_atom_site_type_symbol
_atom_site_label
_atom_site_fract_x
_atom_site_fract_y
_atom_site_fract_z
Si Si1 0.721333 0.142261 0.848259
Si Si2 0.845163 0.150854 0.851839
Si Si3 0.163873 0.852558 0.756845
Si Si4 0.830073 0.852517 0.386590
Si Si5 0.612463 0.351065 0.948927
Si Si6 0.600535 0.650181 0.172040
Si Si7 0.551586 0.270139 0.490717
Si Si8 0.610925 0.641918 0.803220
O O1 0.837172 0.170207 0.919932
O O2 0.559091 0.146176 0.637345
O O3 0.732818 0.251504 0.916860
O O4 0.747947 0.000000 0.908152
O O5 0.719541 0.230590 0.676736
O O6 0.828351 0.000000 0.814287
O O7 0.000000 0.206468 0.000000
O O8 0.187449 0.825264 0.707983
O O9 0.996434 0.835009 0.591158
O O10 0.214684 0.000000 0.829636
O O11 0.253309 0.746374 0.895031
O O12 0.737197 0.746722 0.322841
O O13 0.777962 0.000000 0.345097
O O14 0.665233 0.500000 0.018898
O O15 0.484888 0.316750 0.857231
O O16 0.552134 0.330603 0.809991
O O17 0.653698 0.500000 0.229379
O O18 0.500000 0.680446 0.000000
O O19 0.500000 0.342701 0.500000
O O20 0.524023 0.357647 0.396496
O O21 0.685804 0.500000 0.883917
#
# Coordination Sequence:
#
# PCOD8060053 Si02
#       8
#     4   4   4   4   4   4   4   4
#     4   8  15  28  47  70  91 119 156 192 228 276
#     4   9  15  25  45  74 101 121 147 191 241 280
#     4   9  18  32  50  74  99 126 159 198 241 292
#     4   9  18  32  50  73 102 128 155 196 248 292
#     4  10  20  34  50  71  98 128 163 206 249 289
#     4  10  19  31  49  73  97 124 164 205 237 284
#     4   8  15  28  48  70  90 119 155 193 228 276
#     4   9  19  32  49  70  94 125 160 200 243 283
#
# _framework density 16.271052000000001
#
# number of rings (size 3 to 8) (size 9 to 14) (size 15 to 20)
#    0.750    2.250    1.250    1.125    0.000    3.500 
#    0.000    1.250    2.750    1.500    0.000    0.000 
#    0.000    0.000    0.000    0.000    0.000    0.000 
#
# Total GULP energy -396451.416041 kJ/mol
# GULP energy per Si atom -12389.106751 kJ/mol
# Density = 1.623402 g / cm^3
# Si number density = 16.271052 Si / 1000 Ang^3
#
#
#
# Elastic Constant Matrix: (Units=GPa)
#
#
# Indices 1 2 3 4 5 6 
#
# 1 115.8031 57.4583 45.5481 0.0000 2.8675 0.0000
# 2 57.4583 97.6482 41.3312 0.0000 8.9915 0.0000
# 3 45.5481 41.3312 70.0312 0.0000 11.9503 0.0000
# 4 0.0000 0.0000 0.0000 20.5955 0.0000 3.2827
# 5 2.8675 8.9915 11.9503 0.0000 25.4594 0.0000
# 6 0.0000 0.0000 0.0000 3.2827 0.0000 25.1520
#
#
#
# Elastic Compliance Matrix: (Units=1/GPa)
#
#
# Indices 1 2 3 4 5 6 
#
# 1 0.013885 -0.005886 -0.006137 0.000000 0.003395 0.000000
# 2 -0.005886 0.016176 -0.005280 0.000000 -0.002572 0.000000
# 3 -0.006137 -0.005280 0.022775 0.000000 -0.008134 0.000000
# 4 0.000000 0.000000 0.000000 0.049586 0.000000 -0.006472
# 5 0.003395 -0.002572 -0.008134 0.000000 0.043622 0.000000
# 6 0.000000 0.000000 0.000000 -0.006472 0.000000 0.040603
#
#
# Mechanical properties :
#
#
# Convention : Reuss Voigt Hill
#
# Bulk Modulus (GPa) = 54.85028 63.57309 59.21168
# Shear Modulus (GPa) = 21.99469 23.51772 22.75620
#
# Velocity S-wave (km/s) = 3.68063 3.80593 3.74380
# Velocity P-wave (km/s) = 7.20043 7.64654 7.42684
#
# Compressibility (1/GPa) = 0.01823145
#
# Stress axis : x y z
#
# Youngs Moduli (GPa) = 72.01885 61.82166 43.90824
#
# Poissons Ratio (x) = 0.36385 0.26945
# Poissons Ratio (y) = 0.42387 0.23183
# Poissons Ratio (z) = 0.44196 0.32640
#
# Static dielectric constant tensor:
#      x y z
#    x 3.044970 0.000000 0.035510 
#    y 0.000000 3.033770 0.000000 
#    z 0.035510 0.000000 2.770700 
# 
# 
# High freq. dielectric constant tensor:
#      x y z
#    x 1.620610 0.000000 0.003410 
#    y 0.000000 1.625070 0.000000 
#    z 0.003410 0.000000 1.590620 
# 
# From -- ./inp_files/91237.got.cif
#   From: 2010.06.25/outbox.cif.g09.slc.cpg/sg10_46_cif.got.tgz:91237.got - 2010.06.27 22:07:45.
