data_PCOD8060773
_publ_section_title
;
Structure prediction by ZEFSAII (Michael W. Deem and Ramdas Pophale) SiO2 
 PCOD8060773
Probable space group: P 2/M
;
_chemical_formula_sum "Si O2"
_cell_formula_units_Z 32
_cell_length_a 17.245112
_cell_length_b 9.191941
_cell_length_c 28.355546
_cell_angle_alpha 90.000000
_cell_angle_beta 22.715921
_cell_angle_gamma 90.000000
_cell_volume 1735.726205
_symmetry_space_group_name_H-M "P 2/M"
_symmetry_group_IT_number 10
_symmetry_cell_setting 'monoclinic'
loop_
_space_group_symop_operation_xyz
x,y,z
-x,y,-z
-x,-y,-z
x,-y,z
loop_
_atom_site_type_symbol
_atom_site_label
_atom_site_fract_x
_atom_site_fract_y
_atom_site_fract_z
Si Si1 0.057085 0.329477 0.777028
Si Si2 0.600529 0.667905 0.682008
Si Si3 0.189832 0.333114 0.599345
Si Si4 0.029584 0.335706 0.590062
Si Si5 0.703355 0.168178 0.716805
Si Si6 0.434987 0.163041 0.590363
Si Si7 0.253779 0.834641 0.991892
Si Si8 0.199932 0.170111 0.914624
O O1 0.072563 0.500000 0.776916
O O2 0.075691 0.288654 0.711417
O O3 0.229953 0.252718 0.711021
O O4 0.844198 0.271539 0.914833
O O5 0.559782 0.500000 0.716989
O O6 0.747054 0.686556 0.555466
O O7 0.710438 0.741582 0.664700
O O8 0.390053 0.743764 0.787122
O O9 0.260909 0.500000 0.562406
O O10 0.037944 0.307241 0.641414
O O11 0.388500 0.237805 0.478898
O O12 0.955321 0.500000 0.620973
O O13 0.876067 0.221461 0.654653
O O14 0.491713 0.189945 0.861619
O O15 0.738860 0.000000 0.684132
O O16 0.500000 0.162977 0.500000
O O17 0.400094 0.000000 0.629047
O O18 0.175356 0.794987 0.983652
O O19 0.196357 0.000000 0.036713
O O20 0.241829 0.000000 0.883026
O O21 0.000000 0.222307 0.000000
#
# Coordination Sequence:
#
# PCOD8060773 Si02
#       8
#     4   4   4   4   4   4   4   4
#     4  10  19  32  53  76 100 137 177 210 250 301
#     4  10  20  34  54  79 105 135 170 208 253 305
#     4   9  19  35  51  73 106 137 170 212 253 299
#     4  10  21  36  54  77 105 134 166 211 261 303
#     4  10  21  37  56  77 101 132 170 211 257 309
#     4   9  17  30  49  72  99 132 168 207 250 295
#     4   9  19  35  53  74 101 133 171 213 254 301
#     4   9  19  36  55  77 108 141 171 209 255 301
#
# _framework density 18.436088000000002
#
# number of rings (size 3 to 8) (size 9 to 14) (size 15 to 20)
#    0.000    2.500    0.000    2.625    0.000    8.750 
#    0.000    3.125    0.000    3.750    0.000    0.000 
#    0.000    0.000    0.000    0.000    0.000    0.000 
#
# Total GULP energy -396874.608624 kJ/mol
# GULP energy per Si atom -12402.331519 kJ/mol
# Density = 1.839413 g / cm^3
# Si number density = 18.436088 Si / 1000 Ang^3
#
#
#
# Elastic Constant Matrix: (Units=GPa)
#
#
# Indices 1 2 3 4 5 6 
#
# 1 91.5574 43.9637 44.2492 0.0000 -14.4605 0.0000
# 2 43.9637 101.4067 50.8555 0.0000 -5.7917 0.0000
# 3 44.2492 50.8555 86.4935 0.0000 -3.4053 0.0000
# 4 0.0000 0.0000 0.0000 35.6327 0.0000 -7.1370
# 5 -14.4605 -5.7917 -3.4053 0.0000 23.4265 0.0000
# 6 0.0000 0.0000 0.0000 -7.1370 0.0000 25.3094
#
#
#
# Elastic Compliance Matrix: (Units=1/GPa)
#
#
# Indices 1 2 3 4 5 6 
#
# 1 0.017118 -0.003834 -0.006160 0.000000 0.008723 0.000000
# 2 -0.003834 0.014965 -0.006824 0.000000 0.000341 0.000000
# 3 -0.006160 -0.006824 0.018616 0.000000 -0.002783 0.000000
# 4 0.000000 0.000000 0.000000 0.029744 0.000000 0.008388
# 5 0.008723 0.000341 -0.002783 0.000000 0.047751 0.000000
# 6 0.000000 0.000000 0.000000 0.008388 0.000000 0.041876
#
#
# Mechanical properties :
#
#
# Convention : Reuss Voigt Hill
#
# Bulk Modulus (GPa) = 58.60629 61.95493 60.28061
# Shear Modulus (GPa) = 23.87854 26.23300 25.05577
#
# Velocity S-wave (km/s) = 3.60280 3.77625 3.69054
# Velocity P-wave (km/s) = 7.01176 7.25890 7.13640
#
# Compressibility (1/GPa) = 0.01706301
#
# Stress axis : x y z
#
# Youngs Moduli (GPa) = 58.41918 66.82115 53.71836
#
# Poissons Ratio (x) = 0.25619 0.33088
# Poissons Ratio (y) = 0.22398 0.36659
# Poissons Ratio (z) = 0.35984 0.45601
#
# Static dielectric constant tensor:
#      x y z
#    x 3.264170 0.000000 -0.035880 
#    y 0.000000 3.484250 0.000000 
#    z -0.035880 0.000000 3.293210 
# 
# 
# High freq. dielectric constant tensor:
#      x y z
#    x 1.701970 0.000000 -0.004350 
#    y 0.000000 1.722640 0.000000 
#    z -0.004350 0.000000 1.708860 
# 
# From -- ./inp_files/87168.got.cif
#   From: 2010.06.25/outbox.cif.g09.slc.cpg/sg10_44_cif.got.tgz:87168.got - 2010.06.27 22:07:45.
