data_PCOD8060139
_publ_section_title
;
Structure prediction by ZEFSAII (Michael W. Deem and Ramdas Pophale) SiO2 
 PCOD8060139
Probable space group: P 2/M
;
_chemical_formula_sum "Si O2"
_cell_formula_units_Z 32
_cell_length_a 27.124909
_cell_length_b 9.069790
_cell_length_c 22.243617
_cell_angle_alpha 90.000000
_cell_angle_beta 161.051766
_cell_angle_gamma 90.000000
_cell_volume 1776.935319
_symmetry_space_group_name_H-M "P 2/M"
_symmetry_group_IT_number 10
_symmetry_cell_setting 'monoclinic'
loop_
_space_group_symop_operation_xyz
x,y,z
-x,y,-z
-x,-y,-z
x,-y,z
loop_
_atom_site_type_symbol
_atom_site_label
_atom_site_fract_x
_atom_site_fract_y
_atom_site_fract_z
Si Si1 0.188530 0.829111 0.647366
Si Si2 0.137401 0.337912 0.204504
Si Si3 0.658209 0.827444 0.053341
Si Si4 0.938754 0.825111 0.063788
Si Si5 0.964725 0.671866 0.707270
Si Si6 0.672509 0.673675 0.685174
Si Si7 0.091357 0.671035 0.723085
Si Si8 0.687335 0.170517 0.338509
O O1 0.285206 0.775013 0.815835
O O2 0.287984 0.795574 0.703244
O O3 0.030793 0.742086 0.462850
O O4 0.146563 0.000000 0.604103
O O5 0.164588 0.500000 0.264840
O O6 0.285954 0.289305 0.336965
O O7 0.091398 0.223733 0.203624
O O8 0.000000 0.347790 0.000000
O O9 0.745635 0.741509 0.101925
O O10 0.685354 0.000000 0.076639
O O11 0.483556 0.785704 0.843394
O O12 0.947686 0.762309 0.140983
O O13 0.932257 0.000000 0.057071
O O14 0.783995 0.763794 0.856906
O O15 0.962387 0.500000 0.721049
O O16 0.792859 0.729293 0.502296
O O17 0.053617 0.704915 0.748487
O O18 0.500000 0.721989 0.500000
O O19 0.696789 0.500000 0.725404
O O20 0.095587 0.500000 0.714040
O O21 0.722340 0.000000 0.393072
#
# Coordination Sequence:
#
# PCOD8060139 Si02
#       8
#     4   4   4   4   4   4   4   4
#     4   9  17  31  51  73  98 130 165 201 249 309
#     4   8  15  30  52  77 105 137 169 199 236 284
#     4  10  19  31  50  75 101 129 160 201 257 313
#     4  11  21  33  54  80 104 134 172 211 249 291
#     4  10  21  38  55  70  94 132 176 212 249 300
#     4   9  18  34  56  82 112 142 169 200 242 290
#     4  10  21  34  49  71  99 132 169 211 253 297
#     4   9  18  33  52  74  99 126 163 210 253 297
#
# _framework density 18.008534000000001
#
# number of rings (size 3 to 8) (size 9 to 14) (size 15 to 20)
#    0.000    2.500    0.000    3.375    0.000    8.000 
#    0.000    1.250    0.000    5.250    0.000    0.000 
#    0.000    0.000    0.000    0.000    0.000    0.000 
#
# Total GULP energy -396797.002390 kJ/mol
# GULP energy per Si atom -12399.906325 kJ/mol
# Density = 1.796755 g / cm^3
# Si number density = 18.008534 Si / 1000 Ang^3
#
#
#
# Elastic Constant Matrix: (Units=GPa)
#
#
# Indices 1 2 3 4 5 6 
#
# 1 83.6570 54.2319 61.8661 0.0000 12.7201 0.0000
# 2 54.2319 94.4012 57.8406 0.0000 0.7025 0.0000
# 3 61.8661 57.8406 94.1671 0.0000 11.6437 0.0000
# 4 0.0000 0.0000 0.0000 14.5384 0.0000 -3.9347
# 5 12.7201 0.7025 11.6437 0.0000 34.3765 0.0000
# 6 0.0000 0.0000 0.0000 -3.9347 0.0000 27.8204
#
#
#
# Elastic Compliance Matrix: (Units=1/GPa)
#
#
# Indices 1 2 3 4 5 6 
#
# 1 0.026967 -0.008063 -0.012056 0.000000 -0.005730 0.000000
# 2 -0.008063 0.019769 -0.007478 0.000000 0.005112 0.000000
# 3 -0.012056 -0.007478 0.023549 0.000000 -0.003362 0.000000
# 4 0.000000 0.000000 0.000000 0.071521 0.000000 0.010115
# 5 -0.005730 0.005112 -0.003362 0.000000 0.032244 0.000000
# 6 0.000000 0.000000 0.000000 0.010115 0.000000 0.037375
#
#
# Mechanical properties :
#
#
# Convention : Reuss Voigt Hill
#
# Bulk Modulus (GPa) = 66.26076 68.90026 67.58051
# Shear Modulus (GPa) = 18.40611 21.89952 20.15282
#
# Velocity S-wave (km/s) = 3.20046 3.49099 3.34888
# Velocity P-wave (km/s) = 7.10853 7.38866 7.24995
#
# Compressibility (1/GPa) = 0.01509189
#
# Stress axis : x y z
#
# Youngs Moduli (GPa) = 37.08172 50.58545 42.46509
#
# Poissons Ratio (x) = 0.40786 0.51196
# Poissons Ratio (y) = 0.29898 0.31753
# Poissons Ratio (z) = 0.44706 0.37825
#
# Static dielectric constant tensor:
#      x y z
#    x 3.518550 0.000000 0.193460 
#    y 0.000000 3.285220 0.000000 
#    z 0.193460 0.000000 3.228780 
# 
# 
# High freq. dielectric constant tensor:
#      x y z
#    x 1.700260 0.000000 0.010240 
#    y 0.000000 1.693820 0.000000 
#    z 0.010240 0.000000 1.678330 
# 
# From -- ./inp_files/87032.got.cif
#   From: 2010.06.25/outbox.cif.g09.slc.cpg/sg10_44_cif.got.tgz:87032.got - 2010.06.27 22:07:45.
