data_PCOD8060549
_publ_section_title
;
Structure prediction by ZEFSAII (Michael W. Deem and Ramdas Pophale) SiO2 
 PCOD8060549
Probable space group: P 2/M
;
_chemical_formula_sum "Si O2"
_cell_formula_units_Z 32
_cell_length_a 24.274101
_cell_length_b 9.522413
_cell_length_c 25.438522
_cell_angle_alpha 90.000000
_cell_angle_beta 17.402646
_cell_angle_gamma 90.000000
_cell_volume 1758.638078
_symmetry_space_group_name_H-M "P 2/M"
_symmetry_group_IT_number 10
_symmetry_cell_setting 'monoclinic'
loop_
_space_group_symop_operation_xyz
x,y,z
-x,y,-z
-x,-y,-z
x,-y,z
loop_
_atom_site_type_symbol
_atom_site_label
_atom_site_fract_x
_atom_site_fract_y
_atom_site_fract_z
Si Si1 0.202350 0.166574 0.297650
Si Si2 0.293329 0.658487 0.706671
Si Si3 0.294443 0.833160 1.000000
Si Si4 0.317978 0.339913 0.799529
Si Si5 0.417424 0.832804 0.000000
Si Si6 0.521874 0.840562 0.694605
Si Si7 0.082964 0.339913 0.799529
Si Si8 0.911085 0.840562 0.305395
O O1 0.266264 0.217329 0.181084
O O2 0.000000 0.228447 0.500000
O O3 0.186611 0.000000 0.313389
O O4 0.371568 0.217329 0.181084
O O5 0.500000 0.667290 0.500000
O O6 0.220962 0.500000 0.779038
O O7 0.278221 0.728466 0.778154
O O8 0.165471 0.728466 0.778155
O O9 0.355833 0.768746 0.000000
O O10 0.089929 0.779063 0.171955
O O11 0.299107 0.000000 1.000000
O O12 0.433841 0.779062 0.828044
O O13 0.390865 0.500000 0.726728
O O14 0.469566 0.249307 0.691244
O O15 0.136144 0.335046 1.000000
O O16 0.417200 0.000000 0.000000
O O17 0.742469 0.834848 0.500000
O O18 0.452941 0.000000 0.748176
O O19 0.155679 0.500000 0.726729
O O20 0.147945 0.249307 0.691245
O O21 0.949293 0.000000 0.251824
#
# Coordination Sequence:
#
# PCOD8060549 Si02
#       8
#     4   4   4   4   4   4   4   4
#     4   8  13  21  34  55  83 112 147 191 231 267
#     4   9  17  29  46  69  94 117 146 189 237 286
#     4   9  17  30  44  60  88 122 160 199 230 274
#     4  10  19  32  51  72  93 120 154 192 238 289
#     4   8  14  23  36  55  80 115 153 189 230 269
#     4  10  20  33  49  68  92 125 161 196 236 280
#     4  10  19  32  51  72  93 120 154 192 238 289
#     4  10  20  33  49  68  92 125 161 196 236 280
#
# _framework density 18.195899000000001
#
# number of rings (size 3 to 8) (size 9 to 14) (size 15 to 20)
#    0.000    2.750    1.250    1.875    0.000    4.000 
#    0.000    5.625    0.000    3.750    0.000    0.000 
#    0.000    0.000    0.000    9.000    0.000   29.500 
#
# Total GULP energy -396552.036434 kJ/mol
# GULP energy per Si atom -12392.251139 kJ/mol
# Density = 1.815448 g / cm^3
# Si number density = 18.195899 Si / 1000 Ang^3
#
#
#
# Elastic Constant Matrix: (Units=GPa)
#
#
# Indices 1 2 3 4 5 6 
#
# 1 159.8199 26.5632 63.7144 0.0000 5.5230 0.0000
# 2 26.5632 26.1790 15.9081 0.0000 0.9888 0.0000
# 3 63.7144 15.9081 130.1971 0.0000 -2.7735 0.0000
# 4 0.0000 0.0000 0.0000 12.5248 0.0000 -1.1674
# 5 5.5230 0.9888 -2.7735 0.0000 19.0653 0.0000
# 6 0.0000 0.0000 0.0000 -1.1674 0.0000 -0.0569
#
#
#
# Elastic Compliance Matrix: (Units=1/GPa)
#
#
# Indices 1 2 3 4 5 6 
#
# 1 0.008906 -0.006750 -0.003592 0.000000 -0.002753 0.000000
# 2 -0.006750 0.046537 -0.002400 0.000000 -0.000807 0.000000
# 3 -0.003592 -0.002400 0.009787 0.000000 0.002589 0.000000
# 4 0.000000 0.000000 0.000000 0.027401 0.000000 -0.562603
# 5 -0.002753 -0.000807 0.002589 0.000000 0.053667 0.000000
# 6 0.000000 0.000000 0.000000 -0.562603 0.000000 -6.035846
#
#
# Mechanical properties :
#
#
# Convention : Reuss Voigt Hill
#
# Bulk Modulus (GPa) = 25.16034 58.72972 41.94503
# Shear Modulus (GPa) = -0.85458 20.30733 9.72637
#
# Velocity S-wave (km/s) = -0.68606 3.34434 2.31451
# Velocity P-wave (km/s) = 3.63730 6.87454 5.49951
#
# Compressibility (1/GPa) = 0.03974509
#
# Stress axis : x y z
#
# Youngs Moduli (GPa) = 112.28158 21.48849 102.17620
#
# Poissons Ratio (x) = 0.14505 0.36705
# Poissons Ratio (y) = 0.75790 0.24523
# Poissons Ratio (z) = 0.40335 0.05157
#
# Static dielectric constant tensor:
#      x y z
#    x 3.560320 0.000000 0.004170 
#    y 0.000000 2.794300 0.000000 
#    z 0.004170 0.000000 3.515450 
# 
# 
# High freq. dielectric constant tensor:
#      x y z
#    x 1.705460 0.000000 -0.001480 
#    y 0.000000 1.631170 0.000000 
#    z -0.001480 0.000000 1.721430 
# 
# From -- ./inp_files/86251.got.cif
#   From: 2010.06.25/outbox.cif.g09.slc.cpg/sg10_44_cif.got.tgz:86251.got - 2010.06.27 22:07:45.
