data_PCOD8060944
_publ_section_title
;
Structure prediction by ZEFSAII (Michael W. Deem and Ramdas Pophale) SiO2 
 PCOD8060944
Probable space group: P 2/M
;
_chemical_formula_sum "Si O2"
_cell_formula_units_Z 32
_cell_length_a 20.101814
_cell_length_b 9.047820
_cell_length_c 26.004836
_cell_angle_alpha 90.000000
_cell_angle_beta 21.346140
_cell_angle_gamma 90.000000
_cell_volume 1721.616333
_symmetry_space_group_name_H-M "P 2/M"
_symmetry_group_IT_number 10
_symmetry_cell_setting 'monoclinic'
loop_
_space_group_symop_operation_xyz
x,y,z
-x,y,-z
-x,-y,-z
x,-y,z
loop_
_atom_site_type_symbol
_atom_site_label
_atom_site_fract_x
_atom_site_fract_y
_atom_site_fract_z
Si Si1 0.864636 0.328019 0.904885
Si Si2 0.690835 0.325268 0.839116
Si Si3 0.007029 0.675107 0.297724
Si Si4 0.478682 0.172942 0.589002
Si Si5 0.490650 0.828657 0.798306
Si Si6 0.764418 0.326021 0.310538
Si Si7 0.372013 0.171042 0.409755
Si Si8 0.797476 0.172307 0.658534
O O1 0.825527 0.500000 0.927258
O O2 0.925499 0.263089 0.805865
O O3 0.022206 0.296101 0.833350
O O4 0.679369 0.255037 0.055879
O O5 0.691325 0.500000 0.832469
O O6 0.714360 0.256230 0.766537
O O7 0.851908 0.270914 0.760536
O O8 0.500000 0.269615 0.000000
O O9 0.991207 0.500000 0.307056
O O10 0.810647 0.737349 0.452390
O O11 0.650355 0.251481 0.438523
O O12 0.292725 0.249803 0.702270
O O13 0.491836 0.198050 0.640509
O O14 0.478488 0.000000 0.575018
O O15 0.523481 0.774621 0.716407
O O16 0.672524 0.792755 0.699402
O O17 0.442096 0.000000 0.835054
O O18 0.720590 0.500000 0.340987
O O19 0.316108 0.000000 0.445149
O O20 0.000000 0.231644 0.500000
O O21 0.802990 0.000000 0.668058
#
# Coordination Sequence:
#
# PCOD8060944 Si02
#       8
#     4   4   4   4   4   4   4   4
#     4  10  21  37  56  81 111 145 183 223 271 323
#     4  10  21  36  55  79 109 141 176 224 276 324
#     4  10  20  35  56  81 107 139 181 226 272 322
#     4  10  19  32  54  83 112 141 178 223 269 316
#     4  10  22  38  56  79 109 146 184 223 272 326
#     4  10  19  33  55  81 111 144 178 220 268 319
#     4  10  21  37  56  81 110 142 181 225 270 318
#     4  10  21  38  58  79 107 143 183 227 273 325
#
# _framework density 18.587184000000001
#
# number of rings (size 3 to 8) (size 9 to 14) (size 15 to 20)
#    0.000    2.000    1.250    3.000    0.000    6.000 
#    0.000    0.625    0.000    3.750    0.000    0.000 
#    0.000    0.000    0.000    0.000    0.000    0.000 
#
# Total GULP energy -396867.205527 kJ/mol
# GULP energy per Si atom -12402.100173 kJ/mol
# Density = 1.854488 g / cm^3
# Si number density = 18.587184 Si / 1000 Ang^3
#
#
#
# Elastic Constant Matrix: (Units=GPa)
#
#
# Indices 1 2 3 4 5 6 
#
# 1 90.3622 21.9604 4.3064 0.0000 8.2740 0.0000
# 2 21.9604 46.0970 15.0205 0.0000 -1.7145 0.0000
# 3 4.3064 15.0205 57.1490 0.0000 7.4327 0.0000
# 4 0.0000 0.0000 0.0000 39.0241 0.0000 13.5776
# 5 8.2740 -1.7145 7.4327 0.0000 30.4008 0.0000
# 6 0.0000 0.0000 0.0000 13.5776 0.0000 68.3752
#
#
#
# Elastic Compliance Matrix: (Units=1/GPa)
#
#
# Indices 1 2 3 4 5 6 
#
# 1 0.013050 -0.006820 0.001365 0.000000 -0.004270 0.000000
# 2 -0.006820 0.027550 -0.007406 0.000000 0.005221 0.000000
# 3 0.001365 -0.007406 0.020083 0.000000 -0.005699 0.000000
# 4 0.000000 0.000000 0.000000 0.027527 0.000000 -0.005466
# 5 -0.004270 0.005221 -0.005699 0.000000 0.035744 0.000000
# 6 0.000000 0.000000 0.000000 -0.005466 0.000000 0.015711
#
#
# Mechanical properties :
#
#
# Convention : Reuss Voigt Hill
#
# Bulk Modulus (GPa) = 28.60466 30.68698 29.64582
# Shear Modulus (GPa) = 28.24192 37.71472 32.97832
#
# Velocity S-wave (km/s) = 3.90222 4.50941 4.21675
# Velocity P-wave (km/s) = 5.97712 6.60747 6.30018
#
# Compressibility (1/GPa) = 0.03495934
#
# Stress axis : x y z
#
# Youngs Moduli (GPa) = 76.62785 36.29756 49.79322
#
# Poissons Ratio (x) = 0.24757 -0.06795
# Poissons Ratio (y) = 0.52264 0.36877
# Poissons Ratio (z) = -0.10457 0.26882
#
# Static dielectric constant tensor:
#      x y z
#    x 3.899020 0.000000 -0.114030 
#    y 0.000000 3.363230 0.000000 
#    z -0.114030 0.000000 3.323900 
# 
# 
# High freq. dielectric constant tensor:
#      x y z
#    x 1.738750 0.000000 -0.007830 
#    y 0.000000 1.717160 0.000000 
#    z -0.007830 0.000000 1.712800 
# 
# From -- ./inp_files/93614.got.cif
#   From: 2010.06.25/outbox.cif.g09.slc.cpg/sg10_47_cif.got.tgz:93614.got - 2010.06.27 22:07:45.
