data_PCOD8060000
_publ_section_title
;
Structure prediction by ZEFSAII (Michael W. Deem and Ramdas Pophale) SiO2 
 PCOD8060000
Probable space group: P 2/M
;
_chemical_formula_sum "Si O2"
_cell_formula_units_Z 24
_cell_length_a 11.921975
_cell_length_b 8.551767
_cell_length_c 27.190198
_cell_angle_alpha 90.000000
_cell_angle_beta 152.849203
_cell_angle_gamma 90.000000
_cell_volume 1265.025367
_symmetry_space_group_name_H-M "P 2/M"
_symmetry_group_IT_number 10
_symmetry_cell_setting 'monoclinic'
loop_
_space_group_symop_operation_xyz
x,y,z
-x,y,-z
-x,-y,-z
x,-y,z
loop_
_atom_site_type_symbol
_atom_site_label
_atom_site_fract_x
_atom_site_fract_y
_atom_site_fract_z
Si Si1 0.351463 0.679476 0.817735
Si Si2 0.099306 0.315379 0.986033
Si Si3 0.851240 0.819035 0.616238
Si Si4 0.149110 0.183314 0.204536
Si Si5 0.744406 0.830768 0.122576
Si Si6 0.389778 0.682680 0.385235
O O1 0.333611 0.500000 0.794163
O O2 0.307509 0.695255 0.858598
O O3 0.127261 0.776719 0.705413
O O4 0.621003 0.749899 0.909857
O O5 0.105034 0.500000 0.982006
O O6 0.906081 0.249445 0.870978
O O7 0.000000 0.261886 0.000000
O O8 0.662419 0.718195 0.510608
O O9 0.812265 0.774087 0.659153
O O10 0.793484 0.000000 0.584879
O O11 0.377779 0.261701 0.323226
O O12 0.925199 0.233315 0.151742
O O13 0.193470 0.000000 0.217026
O O14 0.833777 0.000000 0.181243
O O15 0.500000 0.873152 0.000000
O O16 0.336678 0.500000 0.369089
#
# Coordination Sequence:
#
# PCOD8060000 Si02
#       6
#     4   4   4   4   4   4
#     4  11  21  33  54  80 109 145 185 225 271 328
#     4  10  23  41  58  79 109 146 188 234 280 325
#     4  11  21  34  52  78 115 151 182 220 270 324
#     4  11  21  34  55  82 113 147 182 224 275 329
#     4  10  19  31  48  75 111 144 174 216 273 330
#     4  11  21  34  53  80 114 149 185 220 264 326
#
# _framework density 18.971951000000001
#
# number of rings (size 3 to 8) (size 9 to 14) (size 15 to 20)
#    0.000    1.333    3.333    5.000    0.000    2.000 
#    0.000    0.000    0.000    1.000    0.000    7.000 
#    0.000    0.000    0.000    0.000    0.000    0.000 
#
# Total GULP energy -297461.788742 kJ/mol
# GULP energy per Si atom -12394.241198 kJ/mol
# Density = 1.892877 g / cm^3
# Si number density = 18.971951 Si / 1000 Ang^3
#
#
#
# Elastic Constant Matrix: (Units=GPa)
#
#
# Indices 1 2 3 4 5 6 
#
# 1 79.4643 27.4740 44.1789 0.0000 -16.1728 0.0000
# 2 27.4740 81.1269 27.6682 0.0000 -3.6177 0.0000
# 3 44.1789 27.6682 102.4010 0.0000 -12.4101 0.0000
# 4 0.0000 0.0000 0.0000 30.2370 0.0000 -3.0034
# 5 -16.1728 -3.6177 -12.4101 0.0000 23.2689 0.0000
# 6 0.0000 0.0000 0.0000 -3.0034 0.0000 16.8324
#
#
#
# Elastic Compliance Matrix: (Units=1/GPa)
#
#
# Indices 1 2 3 4 5 6 
#
# 1 0.019304 -0.004038 -0.006080 0.000000 0.009546 0.000000
# 2 -0.004038 0.014423 -0.002377 0.000000 -0.001832 0.000000
# 3 -0.006080 -0.002377 0.013336 0.000000 0.002517 0.000000
# 4 0.000000 0.000000 0.000000 0.033669 0.000000 0.006007
# 5 0.009546 -0.001832 0.002517 0.000000 0.050668 0.000000
# 6 0.000000 0.000000 0.000000 0.006007 0.000000 0.060481
#
#
# Mechanical properties :
#
#
# Convention : Reuss Voigt Hill
#
# Bulk Modulus (GPa) = 45.30565 51.29273 48.29919
# Shear Modulus (GPa) = 22.29875 24.97908 23.63891
#
# Velocity S-wave (km/s) = 3.43206 3.63248 3.53369
# Velocity P-wave (km/s) = 6.29584 6.68491 6.49329
#
# Compressibility (1/GPa) = 0.02207230
#
# Stress axis : x y z
#
# Youngs Moduli (GPa) = 51.80401 69.33481 74.98512
#
# Poissons Ratio (x) = 0.27997 0.45592
# Poissons Ratio (y) = 0.20918 0.17823
# Poissons Ratio (z) = 0.31498 0.16480
#
# Static dielectric constant tensor:
#      x y z
#    x 3.106240 0.000000 0.119550 
#    y 0.000000 3.392100 0.000000 
#    z 0.119550 0.000000 3.684340 
# 
# 
# High freq. dielectric constant tensor:
#      x y z
#    x 1.681760 0.000000 -0.001490 
#    y 0.000000 1.743990 0.000000 
#    z -0.001490 0.000000 1.760170 
# 
# From -- ./inp_files/80426.got.cif
#   From: 2010.06.25/outbox.cif.g09.slc.cpg/sg10_41_cif.got.tgz:80426.got - 2010.06.27 22:07:45.
