data_PCOD8060866
_publ_section_title
;
Structure prediction by ZEFSAII (Michael W. Deem and Ramdas Pophale) SiO2 
 PCOD8060866
Probable space group: P 2/M
;
_chemical_formula_sum "Si O2"
_cell_formula_units_Z 32
_cell_length_a 22.377154
_cell_length_b 9.254631
_cell_length_c 14.598511
_cell_angle_alpha 90.000000
_cell_angle_beta 31.120330
_cell_angle_gamma 90.000000
_cell_volume 1562.522280
_symmetry_space_group_name_H-M "P 2/M"
_symmetry_group_IT_number 10
_symmetry_cell_setting 'monoclinic'
loop_
_space_group_symop_operation_xyz
x,y,z
-x,y,-z
-x,-y,-z
x,-y,z
loop_
_atom_site_type_symbol
_atom_site_label
_atom_site_fract_x
_atom_site_fract_y
_atom_site_fract_z
Si Si1 0.718440 0.332417 0.339324
Si Si2 0.881150 0.163492 0.007886
Si Si3 0.497694 0.170042 0.609744
Si Si4 0.313887 0.168792 0.994636
Si Si5 0.618567 0.830753 0.893938
Si Si6 0.068412 0.164680 0.271539
Si Si7 0.904111 0.662528 0.248171
Si Si8 0.154352 0.666905 0.465471
O O1 0.701046 0.500000 0.339839
O O2 0.767717 0.253520 0.184249
O O3 0.598946 0.259235 0.525094
O O4 0.799451 0.303162 0.319118
O O5 0.864296 0.000000 0.063464
O O6 0.898662 0.173201 0.877519
O O7 0.991542 0.231364 0.914273
O O8 0.500000 0.211903 0.500000
O O9 0.381875 0.222736 0.814660
O O10 0.517729 0.000000 0.597842
O O11 0.294487 0.000000 0.007782
O O12 0.387605 0.203855 0.989206
O O13 0.182126 0.231248 0.173804
O O14 0.725475 0.742773 0.714284
O O15 0.640049 0.000000 0.847721
O O16 0.500000 0.780268 0.000000
O O17 0.954446 0.258544 0.443931
O O18 0.040464 0.000000 0.337709
O O19 0.951132 0.500000 0.173163
O O20 0.860133 0.686970 0.407914
O O21 0.159034 0.500000 0.429587
#
# Coordination Sequence:
#
# PCOD8060866 Si02
#       8
#     4   4   4   4   4   4   4   4
#     4  11  22  34  51  76 110 151 190 230 282 344
#     4  10  19  32  53  82 110 144 190 237 283 333
#     4  10  21  38  59  83 111 145 188 237 284 331
#     4   9  19  37  60  85 113 148 188 235 290 336
#     4  10  22  39  60  86 115 149 190 235 281 337
#     4   9  18  36  61  84 111 147 188 233 283 341
#     4   9  20  36  52  75 111 151 187 229 283 341
#     4  10  21  38  59  84 115 150 187 232 286 336
#
# _framework density 20.479706
#
# number of rings (size 3 to 8) (size 9 to 14) (size 15 to 20)
#    0.000    2.250    0.000    2.250    1.750    6.500 
#    0.000    4.375    0.000    0.000    0.000    0.000 
#    0.000    0.000    0.000    0.000    0.000    0.000 
#
# Total GULP energy -396745.326369 kJ/mol
# GULP energy per Si atom -12398.291449 kJ/mol
# Density = 2.043309 g / cm^3
# Si number density = 20.479706 Si / 1000 Ang^3
#
#
#
# Elastic Constant Matrix: (Units=GPa)
#
#
# Indices 1 2 3 4 5 6 
#
# 1 102.4282 39.2670 50.4735 0.0000 -24.2197 0.0000
# 2 39.2670 79.2011 46.9019 0.0000 -18.7067 0.0000
# 3 50.4735 46.9019 122.8571 0.0000 -30.4500 0.0000
# 4 0.0000 0.0000 0.0000 2.8263 0.0000 0.0959
# 5 -24.2197 -18.7067 -30.4500 0.0000 32.5326 0.0000
# 6 0.0000 0.0000 0.0000 0.0959 0.0000 19.3056
#
#
#
# Elastic Compliance Matrix: (Units=1/GPa)
#
#
# Indices 1 2 3 4 5 6 
#
# 1 0.013984 -0.003934 -0.002895 0.000000 0.005439 0.000000
# 2 -0.003934 0.017973 -0.004440 0.000000 0.003251 0.000000
# 3 -0.002895 -0.004440 0.012834 0.000000 0.007304 0.000000
# 4 0.000000 0.000000 0.000000 0.353875 0.000000 -0.001758
# 5 0.005439 0.003251 0.007304 0.000000 0.043493 0.000000
# 6 0.000000 0.000000 0.000000 -0.001758 0.000000 0.051807
#
#
# Mechanical properties :
#
#
# Convention : Reuss Voigt Hill
#
# Bulk Modulus (GPa) = 44.93596 64.19680 54.56638
# Shear Modulus (GPa) = 9.54341 22.12252 15.83297
#
# Velocity S-wave (km/s) = 2.16103 3.29023 2.78349
# Velocity P-wave (km/s) = 5.31188 6.77117 6.08543
#
# Compressibility (1/GPa) = 0.02225389
#
# Stress axis : x y z
#
# Youngs Moduli (GPa) = 71.51192 55.63788 77.91677
#
# Poissons Ratio (x) = 0.21887 0.22558
# Poissons Ratio (y) = 0.28132 0.34592
# Poissons Ratio (z) = 0.20704 0.24701
#
# Static dielectric constant tensor:
#      x y z
#    x 3.931150 0.000000 -0.104230 
#    y 0.000000 3.663630 0.000000 
#    z -0.104230 0.000000 3.783650 
# 
# 
# High freq. dielectric constant tensor:
#      x y z
#    x 1.805850 0.000000 -0.005530 
#    y 0.000000 1.781570 0.000000 
#    z -0.005530 0.000000 1.806210 
# 
# From -- ./inp_files/71443.got.cif
#   From: 2010.06.25/outbox.cif.g09.slc.cpg/sg10_36_cif.got.tgz:71443.got - 2010.06.27 22:07:45.
