data_PCOD8060983
_publ_section_title
;
Structure prediction by ZEFSAII (Michael W. Deem and Ramdas Pophale) SiO2 
 PCOD8060983
Probable space group: P 2/M
;
_chemical_formula_sum "Si O2"
_cell_formula_units_Z 32
_cell_length_a 12.186487
_cell_length_b 14.058244
_cell_length_c 18.299259
_cell_angle_alpha 90.000000
_cell_angle_beta 29.686608
_cell_angle_gamma 90.000000
_cell_volume 1552.646283
_symmetry_space_group_name_H-M "P 2/M"
_symmetry_group_IT_number 10
_symmetry_cell_setting 'monoclinic'
loop_
_space_group_symop_operation_xyz
x,y,z
-x,y,-z
-x,-y,-z
x,-y,z
loop_
_atom_site_type_symbol
_atom_site_label
_atom_site_fract_x
_atom_site_fract_y
_atom_site_fract_z
Si Si1 0.459298 0.693327 0.817360
Si Si2 0.451681 0.108190 0.450477
Si Si3 0.055534 0.888468 0.258041
Si Si4 0.287197 0.608710 0.581047
Si Si5 0.797940 0.208260 0.159245
Si Si6 0.863815 0.786766 0.643499
Si Si7 0.933441 0.726372 0.860088
Si Si8 0.184175 0.606486 0.479173
O O1 0.310306 0.718208 0.833954
O O2 0.615152 0.777260 0.757225
O O3 0.630649 0.611287 0.692597
O O4 0.289124 0.672509 0.982681
O O5 0.500000 0.161341 0.500000
O O6 0.605674 0.138088 0.294752
O O7 0.200830 0.127780 0.574349
O O8 0.508880 0.000000 0.429941
O O9 0.172548 0.849438 0.263036
O O10 0.123640 0.827471 0.146823
O O11 0.111572 0.000000 0.211408
O O12 0.500000 0.653013 0.500000
O O13 0.261252 0.500000 0.619929
O O14 0.320222 0.622781 0.475487
O O15 0.054710 0.659010 0.732628
O O16 0.896228 0.260937 0.172330
O O17 0.000000 0.154369 0.000000
O O18 0.000000 0.840639 0.500000
O O19 0.988910 0.684668 0.584801
O O20 0.079084 0.500000 0.537851
#
# Coordination Sequence:
#
# PCOD8060983 Si02
#       8
#     4   4   4   4   4   4   4   4
#     4  10  23  38  57  88 120 161 204 240 302 363
#     4  10  19  32  55  83 107 140 193 250 300 349
#     4  11  23  39  62  90 118 158 212 259 304 359
#     4  10  21  36  60  93 123 158 200 244 302 369
#     4  10  21  36  56  85 119 157 196 243 305 360
#     4  10  21  40  62  86 122 161 201 250 299 365
#     4  11  22  38  62  88 123 160 197 256 307 356
#     4  10  20  38  64  93 121 157 204 247 299 366
#
# _framework density 20.609974999999999
#
# number of rings (size 3 to 8) (size 9 to 14) (size 15 to 20)
#    0.000    1.750    2.500    2.250    1.750    3.750 
#    0.000    3.750    0.000    6.750    0.000    0.000 
#    0.000    0.000    0.000    0.000    0.000    0.000 
#
# Total GULP energy -396442.650499 kJ/mol
# GULP energy per Si atom -12388.832828 kJ/mol
# Density = 2.056307 g / cm^3
# Si number density = 20.609975 Si / 1000 Ang^3
#
#
#
# Elastic Constant Matrix: (Units=GPa)
#
#
# Indices 1 2 3 4 5 6 
#
# 1 24.5440 90.1026 -37.1865 0.0000 21.2088 0.0000
# 2 90.1026 -14.5007 65.9871 0.0000 0.7253 0.0000
# 3 -37.1865 65.9871 82.9330 0.0000 25.0664 0.0000
# 4 0.0000 0.0000 0.0000 18.8865 0.0000 3.8207
# 5 21.2088 0.7253 25.0664 0.0000 19.6089 0.0000
# 6 0.0000 0.0000 0.0000 3.8207 0.0000 21.9413
#
#
#
# Elastic Compliance Matrix: (Units=1/GPa)
#
#
# Indices 1 2 3 4 5 6 
#
# 1 0.004515 0.007927 -0.004429 0.000000 0.000485 0.000000
# 2 0.007927 0.003680 0.005310 0.000000 -0.015497 0.000000
# 3 -0.004429 0.005310 0.007266 0.000000 -0.004694 0.000000
# 4 0.000000 0.000000 0.000000 0.054881 0.000000 -0.009557
# 5 0.000485 -0.015497 -0.004694 0.000000 0.057047 0.000000
# 6 0.000000 0.000000 0.000000 -0.009557 0.000000 0.047240
#
#
# Mechanical properties :
#
#
# Convention : Reuss Voigt Hill
#
# Bulk Modulus (GPa) = 30.23240 36.75362 33.49301
# Shear Modulus (GPa) = 29.75483 10.35887 20.05685
#
# Velocity S-wave (km/s) = 3.80374 2.24434 3.12294
# Velocity P-wave (km/s) = 5.83026 4.95860 5.41201
#
# Compressibility (1/GPa) = 0.03307710
#
# Stress axis : x y z
#
# Youngs Moduli (GPa) = 221.47221 271.72248 137.63006
#
# Poissons Ratio (x) = -2.15384 0.60954
# Poissons Ratio (y) = -1.75552 -0.73083
# Poissons Ratio (z) = 0.98086 -1.44287
#
# Static dielectric constant tensor:
#      x y z
#    x 4.261340 0.000000 0.294260 
#    y 0.000000 3.478680 0.000000 
#    z 0.294260 0.000000 4.055800 
# 
# 
# High freq. dielectric constant tensor:
#      x y z
#    x 1.823650 0.000000 0.006390 
#    y 0.000000 1.773340 0.000000 
#    z 0.006390 0.000000 1.805880 
# 
# From -- ./inp_files/76999.got.cif
#   From: 2010.06.25/outbox.cif.g09.slc.cpg/sg10_39_cif.got.tgz:76999.got - 2010.06.27 22:07:45.
