data_PCOD8060241
_publ_section_title
;
Structure prediction by ZEFSAII (Michael W. Deem and Ramdas Pophale) SiO2 
 PCOD8060241
Probable space group: P 2/M
;
_chemical_formula_sum "Si O2"
_cell_formula_units_Z 28
_cell_length_a 15.013096
_cell_length_b 9.412687
_cell_length_c 11.902127
_cell_angle_alpha 90.000000
_cell_angle_beta 120.375762
_cell_angle_gamma 90.000000
_cell_volume 1451.049346
_symmetry_space_group_name_H-M "P 2/M"
_symmetry_group_IT_number 10
_symmetry_cell_setting 'monoclinic'
loop_
_space_group_symop_operation_xyz
x,y,z
-x,y,-z
-x,-y,-z
x,-y,z
loop_
_atom_site_type_symbol
_atom_site_label
_atom_site_fract_x
_atom_site_fract_y
_atom_site_fract_z
Si Si1 0.382049 0.168720 0.412962
Si Si2 0.823455 0.335697 0.127187
Si Si3 0.222797 0.161416 0.498947
Si Si4 0.006715 0.161494 0.634959
Si Si5 0.504717 0.845168 0.134192
Si Si6 0.296725 0.833669 0.121263
Si Si7 0.302903 0.338092 0.737756
O O1 0.500000 0.228576 0.500000
O O2 0.308444 0.221908 0.466899
O O3 0.325496 0.222077 0.263728
O O4 0.387377 0.000000 0.412784
O O5 0.847785 0.500000 0.116429
O O6 0.726666 0.321764 0.150629
O O7 0.922481 0.266737 0.248883
O O8 0.797272 0.255468 0.993569
O O9 0.106137 0.170300 0.377896
O O10 0.220457 0.253867 0.610668
O O11 0.250526 0.000000 0.548389
O O12 0.000000 0.207470 0.500000
O O13 0.049997 0.000000 0.670037
O O14 0.394702 0.797984 0.108000
O O15 0.586092 0.726779 0.220841
O O16 0.534822 0.000000 0.206054
O O17 0.500000 0.860899 0.000000
O O18 0.266878 0.000000 0.101140
O O19 0.304190 0.500000 0.700135
#
# Coordination Sequence:
#
# PCOD8060241 Si02
#       7
#     4   4   4   4   4   4   4
#     4   9  18  35  60  87 112 141 182 230 276 325
#     4  11  23  36  53  80 115 150 182 225 281 337
#     4  10  20  36  59  83 109 142 185 232 277 326
#     4  10  20  35  57  84 111 143 185 234 281 327
#     4  10  19  31  51  78 106 140 181 223 271 326
#     4  10  20  36  58  82 111 147 186 231 278 328
#     4  11  22  33  50  79 114 148 180 222 278 335
#
# _framework density 19.296379999999999
#
# number of rings (size 3 to 8) (size 9 to 14) (size 15 to 20)
#    0.000    1.857    2.857    1.714    0.000    5.143 
#    0.000    1.429    0.000    6.000    0.000    0.000 
#    0.000    0.000    0.000    0.000    0.000    0.000 
#
# Total GULP energy -347107.713452 kJ/mol
# GULP energy per Si atom -12396.704052 kJ/mol
# Density = 1.925246 g / cm^3
# Si number density = 19.296380 Si / 1000 Ang^3
#
#
#
# Elastic Constant Matrix: (Units=GPa)
#
#
# Indices 1 2 3 4 5 6 
#
# 1 71.8938 24.0126 23.4205 0.0000 6.3388 0.0000
# 2 24.0126 97.1470 58.9852 0.0000 12.8963 0.0000
# 3 23.4205 58.9852 129.3654 0.0000 8.9459 0.0000
# 4 0.0000 0.0000 0.0000 8.1286 0.0000 -10.4633
# 5 6.3388 12.8963 8.9459 0.0000 28.4374 0.0000
# 6 0.0000 0.0000 0.0000 -10.4633 0.0000 11.1980
#
#
#
# Elastic Compliance Matrix: (Units=1/GPa)
#
#
# Indices 1 2 3 4 5 6 
#
# 1 0.015438 -0.002709 -0.001438 0.000000 -0.001760 0.000000
# 2 -0.002709 0.015300 -0.006182 0.000000 -0.004390 0.000000
# 3 -0.001438 -0.006182 0.010829 0.000000 -0.000282 0.000000
# 4 0.000000 0.000000 0.000000 -0.606746 0.000000 -0.566937
# 5 -0.001760 -0.004390 -0.000282 0.000000 0.037637 0.000000
# 6 0.000000 0.000000 0.000000 -0.566937 0.000000 -0.440437
#
#
# Mechanical properties :
#
#
# Convention : Reuss Voigt Hill
#
# Bulk Modulus (GPa) = 47.82848 56.80475 52.31661
# Shear Modulus (GPa) = -5.31715 22.35199 8.51742
#
# Velocity S-wave (km/s) = -1.66178 3.40715 2.10323
# Velocity P-wave (km/s) = 4.59979 6.70672 5.75057
#
# Compressibility (1/GPa) = 0.02090805
#
# Stress axis : x y z
#
# Youngs Moduli (GPa) = 64.77572 65.36131 92.34812
#
# Poissons Ratio (x) = 0.17707 0.13279
# Poissons Ratio (y) = 0.17549 0.57089
# Poissons Ratio (z) = 0.09314 0.40406
#
# Static dielectric constant tensor:
#      x y z
#    x 3.639420 0.000000 0.018810 
#    y 0.000000 3.340270 0.000000 
#    z 0.018810 0.000000 3.547540 
# 
# 
# High freq. dielectric constant tensor:
#      x y z
#    x 1.740730 0.000000 0.008350 
#    y 0.000000 1.727300 0.000000 
#    z 0.008350 0.000000 1.748860 
# 
# From -- ./inp_files/49384.got.cif
#   From: 2010.06.25/outbox.cif.g09.slc.cpg/sg10_25_cif.got.tgz:49384.got - 2010.06.27 22:07:45.
