data_PCOD8060738
_publ_section_title
;
Structure prediction by ZEFSAII (Michael W. Deem and Ramdas Pophale) SiO2 
 PCOD8060738
Probable space group: P 2/M
;
_chemical_formula_sum "Si O2"
_cell_formula_units_Z 32
_cell_length_a 15.109240
_cell_length_b 9.595779
_cell_length_c 23.288069
_cell_angle_alpha 90.000000
_cell_angle_beta 149.543354
_cell_angle_gamma 90.000000
_cell_volume 1711.460364
_symmetry_space_group_name_H-M "P 2/M"
_symmetry_group_IT_number 10
_symmetry_cell_setting 'monoclinic'
loop_
_space_group_symop_operation_xyz
x,y,z
-x,y,-z
-x,-y,-z
x,-y,z
loop_
_atom_site_type_symbol
_atom_site_label
_atom_site_fract_x
_atom_site_fract_y
_atom_site_fract_z
Si Si1 0.998222 0.840594 0.249962
Si Si2 0.813904 0.834711 0.416343
Si Si3 0.613711 0.834731 0.011251
Si Si4 0.497055 0.344746 0.563958
Si Si5 0.116995 0.345171 0.221281
Si Si6 0.234573 0.840005 0.484061
Si Si7 0.548778 0.833660 0.844376
Si Si8 0.127217 0.665143 0.018374
O O1 0.127525 0.753838 0.282298
O O2 0.055018 0.823173 0.347876
O O3 0.009150 0.000000 0.236205
O O4 0.806198 0.780043 0.133168
O O5 0.791675 0.775879 0.467969
O O6 0.646153 0.789468 0.284765
O O7 0.000000 0.771496 0.500000
O O8 0.827838 0.000000 0.424200
O O9 0.559402 0.784609 0.917024
O O10 0.601575 0.000000 0.006652
O O11 0.500000 0.770997 0.000000
O O12 0.500000 0.294365 0.500000
O O13 0.414782 0.500000 0.521422
O O14 0.691178 0.345018 0.699355
O O15 0.391156 0.238402 0.542191
O O16 0.067189 0.500000 0.214303
O O17 0.977650 0.292360 0.097281
O O18 0.291740 0.000000 0.519799
O O19 0.692124 0.753423 0.884733
O O20 0.579880 0.000000 0.855291
O O21 0.169861 0.500000 0.045469
O O22 0.000000 0.708425 0.000000
#
# Coordination Sequence:
#
# PCOD8060738 Si02
#       8
#     4   4   4   4   4   4   4   4
#     4  10  19  32  52  79 108 135 171 221 268 310
#     4   9  20  37  56  80 111 146 182 223 271 321
#     4   9  18  31  52  81 106 132 170 217 267 314
#     4  10  20  34  52  75 104 140 178 213 258 319
#     4  10  20  35  53  74 105 142 177 214 264 322
#     4  10  21  34  52  79 108 140 179 220 266 312
#     4  10  20  36  58  83 110 141 182 227 268 316
#     4  10  22  38  56  78 108 147 183 219 271 328
#
# _framework density 18.697482999999998
#
# number of rings (size 3 to 8) (size 9 to 14) (size 15 to 20)
#    0.000    2.250    2.500    0.000    3.500    1.000 
#    0.000    0.000    0.000    3.000    0.000    0.000 
#    0.000    0.000    0.000    0.000    0.000    0.000 
#
# Total GULP energy -396644.090789 kJ/mol
# GULP energy per Si atom -12395.127837 kJ/mol
# Density = 1.865493 g / cm^3
# Si number density = 18.697483 Si / 1000 Ang^3
#
#
#
# Elastic Constant Matrix: (Units=GPa)
#
#
# Indices 1 2 3 4 5 6 
#
# 1 141.1415 44.3099 60.8632 0.0000 2.8901 0.0000
# 2 44.3099 41.3408 33.2057 0.0000 2.6579 0.0000
# 3 60.8632 33.2057 132.2623 0.0000 4.5608 0.0000
# 4 0.0000 0.0000 0.0000 12.4940 0.0000 -37.6100
# 5 2.8901 2.6579 4.5608 0.0000 29.7337 0.0000
# 6 0.0000 0.0000 0.0000 -37.6100 0.0000 -204.2752
#
#
#
# Elastic Compliance Matrix: (Units=1/GPa)
#
#
# Indices 1 2 3 4 5 6 
#
# 1 0.011417 -0.010051 -0.002737 0.000000 0.000209 0.000000
# 2 -0.010051 0.039220 -0.005161 0.000000 -0.001737 0.000000
# 3 -0.002737 -0.005161 0.010145 0.000000 -0.000829 0.000000
# 4 0.000000 0.000000 0.000000 0.051497 0.000000 -0.009481
# 5 0.000209 -0.001737 -0.000829 0.000000 0.033894 0.000000
# 6 0.000000 0.000000 0.000000 -0.009481 0.000000 -0.003150
#
#
# Mechanical properties :
#
#
# Convention : Reuss Voigt Hill
#
# Bulk Modulus (GPa) = 40.19090 65.72245 52.95667
# Shear Modulus (GPa) = 26.70703 -20.65180 3.02762
#
# Velocity S-wave (km/s) = 3.78349 -3.32704 1.27388
# Velocity P-wave (km/s) = 6.37404 4.52413 5.52703
#
# Compressibility (1/GPa) = 0.02488126
#
# Stress axis : x y z
#
# Youngs Moduli (GPa) = 87.59057 25.49735 98.57337
#
# Poissons Ratio (x) = 0.25628 0.26983
# Poissons Ratio (y) = 0.88041 0.50876
# Poissons Ratio (z) = 0.23977 0.13160
#
# Static dielectric constant tensor:
#      x y z
#    x 3.535240 0.000000 -0.050010 
#    y 0.000000 3.110330 0.000000 
#    z -0.050010 0.000000 3.676300 
# 
# 
# High freq. dielectric constant tensor:
#      x y z
#    x 1.722320 0.000000 -0.002990 
#    y 0.000000 1.689860 0.000000 
#    z -0.002990 0.000000 1.742250 
# 
# From -- ./inp_files/89593.got.cif
#   From: 2010.06.25/outbox.cif.g09.slc.cpg/sg10_45_cif.got.tgz:89593.got - 2010.06.27 22:07:45.
