data_PCOD8060523
_publ_section_title
;
Structure prediction by ZEFSAII (Michael W. Deem and Ramdas Pophale) SiO2 
 PCOD8060523
Probable space group: P 2/M
;
_chemical_formula_sum "Si O2"
_cell_formula_units_Z 32
_cell_length_a 11.588524
_cell_length_b 8.787436
_cell_length_c 20.872381
_cell_angle_alpha 90.000000
_cell_angle_beta 120.254247
_cell_angle_gamma 90.000000
_cell_volume 1836.007996
_symmetry_space_group_name_H-M "P 2/M"
_symmetry_group_IT_number 10
_symmetry_cell_setting 'monoclinic'
loop_
_space_group_symop_operation_xyz
x,y,z
-x,y,-z
-x,-y,-z
x,-y,z
loop_
_atom_site_type_symbol
_atom_site_label
_atom_site_fract_x
_atom_site_fract_y
_atom_site_fract_z
Si Si1 0.967424 0.671716 0.594228
Si Si2 0.125030 0.677790 0.872839
Si Si3 0.853800 0.178725 0.258914
Si Si4 0.375288 0.175367 0.153489
Si Si5 0.374471 0.680714 0.720579
Si Si6 0.791463 0.669588 0.437180
Si Si7 0.628423 0.175425 0.994211
Si Si8 0.930866 0.178371 0.914291
O O1 0.934257 0.500000 0.608464
O O2 0.841838 0.746143 0.518485
O O3 0.009052 0.773517 0.666477
O O4 0.089884 0.665366 0.580339
O O5 0.120673 0.500000 0.855962
O O6 0.133941 0.771960 0.810510
O O7 0.252016 0.715478 0.952171
O O8 0.992118 0.726186 0.873317
O O9 0.720813 0.251889 0.251305
O O10 0.836409 0.000000 0.258181
O O11 0.472857 0.274413 0.224935
O O12 0.224228 0.222096 0.126398
O O13 0.400746 0.000000 0.176739
O O14 0.408904 0.210157 0.089239
O O15 0.357029 0.500000 0.717159
O O16 0.331877 0.744259 0.637180
O O17 0.751499 0.500000 0.446406
O O18 0.674046 0.000000 0.015260
O O19 0.500000 0.214650 0.000000
O O20 0.953771 0.000000 0.908304
O O21 0.000000 0.227019 0.000000
#
# Coordination Sequence:
#
# PCOD8060523 Si02
#       8
#     4   4   4   4   4   4   4   4
#     4   8  13  26  46  68  97 133 172 204 240 291
#     4  12  24  36  53  76 100 127 168 216 258 296
#     4  11  21  33  49  72 105 139 171 206 254 306
#     4  10  20  34  53  76 101 133 170 206 250 299
#     4  10  19  32  50  75 108 139 170 207 250 296
#     4   7  12  24  44  68  98 137 168 197 242 297
#     4  10  20  35  54  74 100 135 168 199 245 307
#     4  10  20  39  60  74  95 131 170 208 255 308
#
# _framework density 17.429119
#
# number of rings (size 3 to 8) (size 9 to 14) (size 15 to 20)
#    0.000    2.250    1.250    4.875    0.000    2.500 
#    0.000    5.625    0.000    0.000    0.000    0.875 
#    0.000    7.000    0.000    0.000    0.000    0.000 
#
# Total GULP energy -396586.841129 kJ/mol
# GULP energy per Si atom -12393.338785 kJ/mol
# Density = 1.738945 g / cm^3
# Si number density = 17.429119 Si / 1000 Ang^3
#
#
#
# Elastic Constant Matrix: (Units=GPa)
#
#
# Indices 1 2 3 4 5 6 
#
# 1 69.5714 23.4865 35.6763 0.0000 17.2929 0.0000
# 2 23.4865 68.4960 33.7766 0.0000 9.7717 0.0000
# 3 35.6763 33.7766 106.0111 0.0000 34.0403 0.0000
# 4 0.0000 0.0000 0.0000 21.8729 0.0000 -0.9656
# 5 17.2929 9.7717 34.0403 0.0000 15.5763 0.0000
# 6 0.0000 0.0000 0.0000 -0.9656 0.0000 19.9582
#
#
#
# Elastic Compliance Matrix: (Units=1/GPa)
#
#
# Indices 1 2 3 4 5 6 
#
# 1 0.021243 -0.004977 0.003376 0.000000 -0.027840 0.000000
# 2 -0.004977 0.018562 -0.007625 0.000000 0.010544 0.000000
# 3 0.003376 -0.007625 0.034847 0.000000 -0.075120 0.000000
# 4 0.000000 0.000000 0.000000 0.045817 0.000000 0.002217
# 5 -0.027840 0.010544 -0.075120 0.000000 0.252661 0.000000
# 6 0.000000 0.000000 0.000000 0.002217 0.000000 0.050212
#
#
# Mechanical properties :
#
#
# Convention : Reuss Voigt Hill
#
# Bulk Modulus (GPa) = 17.79342 47.77304 32.78323
# Shear Modulus (GPa) = 10.85717 21.55742 16.20729
#
# Velocity S-wave (km/s) = 2.49857 3.52072 3.05273
# Velocity P-wave (km/s) = 4.30755 6.63300 5.59248
#
# Compressibility (1/GPa) = 0.05620056
#
# Stress axis : x y z
#
# Youngs Moduli (GPa) = 47.07529 53.87449 28.69670
#
# Poissons Ratio (x) = 0.26814 -0.09689
# Poissons Ratio (y) = 0.23430 0.21881
# Poissons Ratio (z) = -0.15895 0.41078
#
# Static dielectric constant tensor:
#      x y z
#    x 2.993600 0.000000 0.178430 
#    y 0.000000 3.125040 0.000000 
#    z 0.178430 0.000000 3.831350 
# 
# 
# High freq. dielectric constant tensor:
#      x y z
#    x 1.634250 0.000000 0.011440 
#    y 0.000000 1.658350 0.000000 
#    z 0.011440 0.000000 1.689910 
# 
# From -- ./inp_files/83382.got.cif
#   From: 2010.06.25/outbox.cif.g09.slc.cpg/sg10_42_cif.got.tgz:83382.got - 2010.06.27 22:07:45.
