data_PCOD8060568
_publ_section_title
;
Structure prediction by ZEFSAII (Michael W. Deem and Ramdas Pophale) SiO2 
 PCOD8060568
Probable space group: P 2/M
;
_chemical_formula_sum "Si O2"
_cell_formula_units_Z 32
_cell_length_a 21.697997
_cell_length_b 9.036955
_cell_length_c 28.386197
_cell_angle_alpha 90.000000
_cell_angle_beta 18.658009
_cell_angle_gamma 90.000000
_cell_volume 1780.691229
_symmetry_space_group_name_H-M "P 2/M"
_symmetry_group_IT_number 10
_symmetry_cell_setting 'monoclinic'
loop_
_space_group_symop_operation_xyz
x,y,z
-x,y,-z
-x,-y,-z
x,-y,z
loop_
_atom_site_type_symbol
_atom_site_label
_atom_site_fract_x
_atom_site_fract_y
_atom_site_fract_z
Si Si1 0.581003 0.824773 0.079618
Si Si2 0.074214 0.170168 0.103639
Si Si3 0.653826 0.176769 0.425506
Si Si4 0.921076 0.672951 0.403311
Si Si5 0.372094 0.168182 0.816932
Si Si6 0.656024 0.328739 0.676167
Si Si7 0.620370 0.829954 0.554360
Si Si8 0.650074 0.672941 0.931659
O O1 0.385049 0.765462 0.246818
O O2 0.570741 0.000000 0.085604
O O3 0.767253 0.766627 0.974351
O O4 0.591094 0.763103 0.020166
O O5 0.865005 0.245146 0.260482
O O6 0.045727 0.000000 0.136984
O O7 0.150608 0.191258 0.994141
O O8 0.500000 0.242997 0.500000
O O9 0.596153 0.233802 0.519366
O O10 0.652455 0.000000 0.423060
O O11 0.894164 0.500000 0.413806
O O12 0.857002 0.711004 0.503798
O O13 0.792924 0.753015 0.457053
O O14 0.140541 0.723601 0.238073
O O15 0.494596 0.291393 0.754663
O O16 0.413765 0.188881 0.731038
O O17 0.434785 0.000000 0.786780
O O18 0.646942 0.500000 0.696791
O O19 0.681465 0.000000 0.506715
O O20 0.645169 0.500000 0.947451
O O21 0.500000 0.714550 0.000000
#
# Coordination Sequence:
#
# PCOD8060568 Si02
#       8
#     4   4   4   4   4   4   4   4
#     4  10  19  32  51  73  96 123 157 195 234 278
#     4   8  14  25  41  61  86 115 145 181 224 267
#     4   9  16  25  38  60  90 120 150 185 226 272
#     4   9  18  32  51  74  96 121 155 193 234 280
#     4   8  14  25  41  63  90 115 144 186 232 274
#     4   9  16  28  48  73  97 119 149 191 236 279
#     4   9  16  27  45  67  89 117 152 189 230 272
#     4  10  21  36  51  69  96 127 158 193 232 276
#
# _framework density 17.970549999999999
#
# number of rings (size 3 to 8) (size 9 to 14) (size 15 to 20)
#    0.000    3.000    0.000    2.250    0.000    2.250 
#    0.000    1.250    0.000    7.875    0.000    0.000 
#    0.000   13.000    0.000    0.000    0.000    0.000 
#
# Total GULP energy -396457.035272 kJ/mol
# GULP energy per Si atom -12389.282352 kJ/mol
# Density = 1.792965 g / cm^3
# Si number density = 17.970550 Si / 1000 Ang^3
#
#
#
# Elastic Constant Matrix: (Units=GPa)
#
#
# Indices 1 2 3 4 5 6 
#
# 1 117.7978 37.8245 97.8258 0.0000 19.1218 0.0000
# 2 37.8245 37.6585 34.5161 0.0000 10.6962 0.0000
# 3 97.8258 34.5161 127.7078 0.0000 39.2683 0.0000
# 4 0.0000 0.0000 0.0000 16.3898 0.0000 7.2598
# 5 19.1218 10.6962 39.2683 0.0000 27.7203 0.0000
# 6 0.0000 0.0000 0.0000 7.2598 0.0000 14.5228
#
#
#
# Elastic Compliance Matrix: (Units=1/GPa)
#
#
# Indices 1 2 3 4 5 6 
#
# 1 0.032717 -0.013215 -0.028558 0.000000 0.022985 0.000000
# 2 -0.013215 0.040637 0.002052 0.000000 -0.009472 0.000000
# 3 -0.028558 0.002052 0.041348 0.000000 -0.039665 0.000000
# 4 0.000000 0.000000 0.000000 0.078366 0.000000 -0.039175
# 5 0.022985 -0.009472 -0.039665 0.000000 0.080063 0.000000
# 6 0.000000 0.000000 0.000000 -0.039175 0.000000 0.088441
#
#
# Mechanical properties :
#
#
# Convention : Reuss Voigt Hill
#
# Bulk Modulus (GPa) = 28.36009 69.27742 48.81875
# Shear Modulus (GPa) = 11.04320 19.25974 15.15147
#
# Velocity S-wave (km/s) = 2.48163 3.27729 2.90682
# Velocity P-wave (km/s) = 4.90174 7.27703 6.20412
#
# Compressibility (1/GPa) = 0.03526082
#
# Stress axis : x y z
#
# Youngs Moduli (GPa) = 30.56490 24.60799 24.18516
#
# Poissons Ratio (x) = 0.32520 0.69067
# Poissons Ratio (y) = 0.40392 -0.04963
# Poissons Ratio (z) = 0.87286 -0.05050
#
# Static dielectric constant tensor:
#      x y z
#    x 3.203020 0.000000 0.303350 
#    y 0.000000 3.066160 0.000000 
#    z 0.303350 0.000000 3.776220 
# 
# 
# High freq. dielectric constant tensor:
#      x y z
#    x 1.668290 0.000000 0.032760 
#    y 0.000000 1.667600 0.000000 
#    z 0.032760 0.000000 1.707520 
# 
# From -- ./inp_files/93619.got.cif
#   From: 2010.06.25/outbox.cif.g09.slc.cpg/sg10_47_cif.got.tgz:93619.got - 2010.06.27 22:07:45.
