data_PCOD8060664
_publ_section_title
;
Structure prediction by ZEFSAII (Michael W. Deem and Ramdas Pophale) SiO2 
 PCOD8060664
Probable space group: P 2/M
;
_chemical_formula_sum "Si O2"
_cell_formula_units_Z 32
_cell_length_a 19.193848
_cell_length_b 9.019218
_cell_length_c 12.327612
_cell_angle_alpha 90.000000
_cell_angle_beta 116.111352
_cell_angle_gamma 90.000000
_cell_volume 1916.273089
_symmetry_space_group_name_H-M "P 2/M"
_symmetry_group_IT_number 10
_symmetry_cell_setting 'monoclinic'
loop_
_space_group_symop_operation_xyz
x,y,z
-x,y,-z
-x,-y,-z
x,-y,z
loop_
_atom_site_type_symbol
_atom_site_label
_atom_site_fract_x
_atom_site_fract_y
_atom_site_fract_z
Si Si1 0.170875 0.827930 0.737891
Si Si2 0.687387 0.671936 0.493189
Si Si3 0.680863 0.673205 0.079552
Si Si4 0.997914 0.824814 0.379849
Si Si5 0.421046 0.328931 0.384795
Si Si6 0.423913 0.824495 0.160858
Si Si7 0.164277 0.828461 0.477181
Si Si8 0.417195 0.673865 0.774811
O O1 0.231369 0.723877 0.840119
O O2 0.085626 0.785222 0.730384
O O3 0.172428 0.794986 0.610621
O O4 0.190459 0.000000 0.773211
O O5 0.697563 0.500000 0.476684
O O6 0.650845 0.703524 0.585277
O O7 0.772064 0.742704 0.548516
O O8 0.631403 0.736221 0.360801
O O9 0.679777 0.500000 0.051677
O O10 0.629745 0.710576 0.149380
O O11 0.648854 0.763313 0.955796
O O12 0.000000 0.750936 0.500000
O O13 0.078167 0.775778 0.375170
O O14 0.002748 0.000000 0.397842
O O15 0.500000 0.288890 0.500000
O O16 0.422769 0.500000 0.347857
O O17 0.412466 0.223134 0.276790
O O18 0.502009 0.758898 0.163045
O O19 0.426541 0.000000 0.154832
O O20 0.177637 0.000000 0.462553
O O21 0.435196 0.500000 0.774507
#
# Coordination Sequence:
#
# PCOD8060664 Si02
#       8
#     4   4   4   4   4   4   4   4
#     4   9  16  28  47  71 101 134 169 204 240 285
#     4  10  19  32  52  75  99 131 169 204 244 295
#     4  11  22  35  52  72 101 137 171 202 243 300
#     4   7  12  24  42  66  98 136 166 192 237 295
#     4  10  20  38  58  71  93 131 169 204 250 303
#     4  12  25  37  52  74  99 126 168 217 253 289
#     4   9  16  27  46  72 103 134 165 202 245 292
#     4  10  20  36  53  71  99 136 170 199 243 301
#
# _framework density 16.699082000000001
#
# number of rings (size 3 to 8) (size 9 to 14) (size 15 to 20)
#    0.000    2.250    2.500    3.375    0.000    3.750 
#    0.000    0.625    0.000    2.250    0.000    0.875 
#    0.000    7.000    0.000    0.000    0.000    0.000 
#
# Total GULP energy -396650.798948 kJ/mol
# GULP energy per Si atom -12395.337467 kJ/mol
# Density = 1.666107 g / cm^3
# Si number density = 16.699082 Si / 1000 Ang^3
#
#
#
# Elastic Constant Matrix: (Units=GPa)
#
#
# Indices 1 2 3 4 5 6 
#
# 1 120.1691 43.1039 46.2078 0.0000 27.5393 0.0000
# 2 43.1039 62.3742 38.5907 0.0000 7.7550 0.0000
# 3 46.2078 38.5907 72.4357 0.0000 9.4216 0.0000
# 4 0.0000 0.0000 0.0000 13.2016 0.0000 -2.7367
# 5 27.5393 7.7550 9.4216 0.0000 19.9468 0.0000
# 6 0.0000 0.0000 0.0000 -2.7367 0.0000 22.2073
#
#
#
# Elastic Compliance Matrix: (Units=1/GPa)
#
#
# Indices 1 2 3 4 5 6 
#
# 1 0.016597 -0.006148 -0.004947 0.000000 -0.018188 0.000000
# 2 -0.006148 0.026423 -0.010573 0.000000 0.003209 0.000000
# 3 -0.004947 -0.010573 0.022556 0.000000 0.000286 0.000000
# 4 0.000000 0.000000 0.000000 0.077734 0.000000 0.009580
# 5 -0.018188 0.003209 0.000286 0.000000 0.073861 0.000000
# 6 0.000000 0.000000 0.000000 0.009580 0.000000 0.046211
#
#
# Mechanical properties :
#
#
# Convention : Reuss Voigt Hill
#
# Bulk Modulus (GPa) = 44.95918 56.75374 50.85646
# Shear Modulus (GPa) = 15.91694 19.54292 17.72993
#
# Velocity S-wave (km/s) = 3.09068 3.42468 3.26196
# Velocity P-wave (km/s) = 6.30222 7.04967 6.68640
#
# Compressibility (1/GPa) = 0.02224240
#
# Stress axis : x y z
#
# Youngs Moduli (GPa) = 60.25228 37.84575 44.33334
#
# Poissons Ratio (x) = 0.23266 0.21930
# Poissons Ratio (y) = 0.37041 0.46873
# Poissons Ratio (z) = 0.29804 0.40013
#
# Static dielectric constant tensor:
#      x y z
#    x 3.328970 0.000000 0.208530 
#    y 0.000000 2.962260 0.000000 
#    z 0.208530 0.000000 2.981860 
# 
# 
# High freq. dielectric constant tensor:
#      x y z
#    x 1.648750 0.000000 0.018510 
#    y 0.000000 1.629700 0.000000 
#    z 0.018510 0.000000 1.614170 
# 
# From -- ./inp_files/54852.got.cif
#   From: 2010.06.25/outbox.cif.g09.slc.cpg/sg10_28_cif.got.tgz:54852.got - 2010.06.27 22:07:45.
