data_PCOD8060015
_publ_section_title
;
Structure prediction by ZEFSAII (Michael W. Deem and Ramdas Pophale) SiO2 
 PCOD8060015
Probable space group: P 2/M
;
_chemical_formula_sum "Si O2"
_cell_formula_units_Z 28
_cell_length_a 19.562679
_cell_length_b 7.963414
_cell_length_c 21.843256
_cell_angle_alpha 90.000000
_cell_angle_beta 153.253113
_cell_angle_gamma 90.000000
_cell_volume 1531.460114
_symmetry_space_group_name_H-M "P 2/M"
_symmetry_group_IT_number 10
_symmetry_cell_setting 'monoclinic'
loop_
_space_group_symop_operation_xyz
x,y,z
-x,y,-z
-x,-y,-z
x,-y,z
loop_
_atom_site_type_symbol
_atom_site_label
_atom_site_fract_x
_atom_site_fract_y
_atom_site_fract_z
Si Si1 0.002235 0.813899 0.839202
Si Si2 0.529612 0.692739 0.838181
Si Si3 0.225601 0.307652 0.656264
Si Si4 0.239658 0.500000 0.162428
Si Si5 0.084605 0.500000 0.162576
Si Si6 0.061143 0.807558 0.639237
Si Si7 0.323218 0.183820 0.161797
Si Si8 0.820559 0.195620 0.136895
O O1 0.041512 0.772125 0.800144
O O2 0.893204 0.667954 0.778532
O O3 0.925658 0.000000 0.783463
O O4 0.156470 0.814027 0.000486
O O5 0.504351 0.500000 0.800098
O O6 0.379020 0.767596 0.749651
O O7 0.557006 0.792357 0.797215
O O8 0.670628 0.705027 0.997266
O O9 0.250285 0.500000 0.694694
O O10 0.088353 0.296350 0.497996
O O11 0.187900 0.205418 0.687641
O O12 0.214322 0.500000 0.214840
O O13 0.335388 0.332803 0.221471
O O14 0.081190 0.500000 0.999907
O O15 0.127714 0.735504 0.755788
O O16 0.013098 0.000000 0.609203
O O17 0.354008 0.000000 0.216667
O O18 0.777678 0.000000 0.104562
#
# Coordination Sequence:
#
# PCOD8060015 Si02
#       8
#     4   4   4   2   2   4   4   4
#     4   8  15  27  40  61  92 121 156 199 238 281
#     4  10  19  31  49  70  96 128 164 206 246 291
#     4  10  21  35  49  70  98 126 160 203 249 295
#     4   9  16  26  38  62  94 121 164 194 227 293
#     4   9  16  24  40  62  88 129 160 188 233 291
#     4  10  20  35  52  69  94 128 163 202 248 295
#     4   9  16  27  43  62  91 126 158 200 244 280
#     4   9  19  32  48  71  95 124 165 206 243 290
#
# _framework density 18.283206
#
# number of rings (size 3 to 8) (size 9 to 14) (size 15 to 20)
#    0.000    2.714    0.714    3.000    3.000    4.571 
#    0.000    5.714    0.000    0.000    0.000    0.000 
#    0.000    2.286    0.000    6.429    0.000    5.286 
#
# Total GULP energy -347114.719448 kJ/mol
# GULP energy per Si atom -12396.954266 kJ/mol
# Density = 1.824159 g / cm^3
# Si number density = 18.283206 Si / 1000 Ang^3
#
#
#
# Elastic Constant Matrix: (Units=GPa)
#
#
# Indices 1 2 3 4 5 6 
#
# 1 137.8694 59.4887 47.0576 0.0000 2.9548 0.0000
# 2 59.4887 105.2399 17.5964 0.0000 0.9056 0.0000
# 3 47.0576 17.5964 32.7914 0.0000 1.5686 0.0000
# 4 0.0000 0.0000 0.0000 11.1382 0.0000 -3.1086
# 5 2.9548 0.9056 1.5686 0.0000 3.8977 0.0000
# 6 0.0000 0.0000 0.0000 -3.1086 0.0000 26.5021
#
#
#
# Elastic Compliance Matrix: (Units=1/GPa)
#
#
# Indices 1 2 3 4 5 6 
#
# 1 0.017247 -0.006162 -0.021297 0.000000 -0.003072 0.000000
# 2 -0.006162 0.012640 0.002015 0.000000 0.000923 0.000000
# 3 -0.021297 0.002015 0.060389 0.000000 -0.008626 0.000000
# 4 0.000000 0.000000 0.000000 0.092820 0.000000 0.010887
# 5 -0.003072 0.000923 -0.008626 0.000000 0.262147 0.000000
# 6 0.000000 0.000000 0.000000 0.010887 0.000000 0.039010
#
#
# Mechanical properties :
#
#
# Convention : Reuss Voigt Hill
#
# Bulk Modulus (GPa) = 25.38724 58.24289 41.81507
# Shear Modulus (GPa) = 9.11961 18.42480 13.77220
#
# Velocity S-wave (km/s) = 2.23580 3.17794 2.74756
# Velocity P-wave (km/s) = 4.53660 6.73727 5.74333
#
# Compressibility (1/GPa) = 0.03938986
#
# Stress axis : x y z
#
# Youngs Moduli (GPa) = 57.98187 79.11260 16.55929
#
# Poissons Ratio (x) = 0.48747 0.35266
# Poissons Ratio (y) = 0.35727 -0.03337
# Poissons Ratio (z) = 1.23482 -0.15944
#
# Static dielectric constant tensor:
#      x y z
#    x 3.501720 0.000000 0.014250 
#    y 0.000000 3.591580 0.000000 
#    z 0.014250 0.000000 2.875700 
# 
# 
# High freq. dielectric constant tensor:
#      x y z
#    x 1.708660 0.000000 0.001590 
#    y 0.000000 1.722500 0.000000 
#    z 0.001590 0.000000 1.642990 
# 
# From -- ./inp_files/85677.got.cif
#   From: 2010.06.25/outbox.cif.g09.slc.cpg/sg10_43_cif.got.tgz:85677.got - 2010.06.27 22:07:45.
