data_PCOD8060561
_publ_section_title
;
Structure prediction by ZEFSAII (Michael W. Deem and Ramdas Pophale) SiO2 
 PCOD8060561
Probable space group: P 2/M
;
_chemical_formula_sum "Si O2"
_cell_formula_units_Z 32
_cell_length_a 19.777360
_cell_length_b 13.797302
_cell_length_c 18.236033
_cell_angle_alpha 90.000000
_cell_angle_beta 22.744042
_cell_angle_gamma 90.000000
_cell_volume 1923.851868
_symmetry_space_group_name_H-M "P 2/M"
_symmetry_group_IT_number 10
_symmetry_cell_setting 'monoclinic'
loop_
_space_group_symop_operation_xyz
x,y,z
-x,y,-z
-x,-y,-z
x,-y,z
loop_
_atom_site_type_symbol
_atom_site_label
_atom_site_fract_x
_atom_site_fract_y
_atom_site_fract_z
Si Si1 0.003535 0.885944 0.915413
Si Si2 0.307631 0.888490 0.504372
Si Si3 0.190179 0.207936 0.148926
Si Si4 0.289996 0.610249 0.128238
Si Si5 0.702116 0.610140 0.713190
Si Si6 0.706965 0.112170 0.102180
Si Si7 0.203512 0.791741 0.461014
Si Si8 0.493130 0.104638 0.921928
O O1 0.184216 0.856659 0.694997
O O2 0.990136 0.000000 0.937328
O O3 0.835872 0.850013 0.036871
O O4 0.000000 0.837806 0.000000
O O5 0.508209 0.877880 0.329178
O O6 0.269963 0.814985 0.475903
O O7 0.267497 0.000000 0.520845
O O8 0.192825 0.322376 0.165637
O O9 0.992909 0.167878 0.351904
O O10 0.266871 0.183495 0.992525
O O11 0.313120 0.158418 0.085659
O O12 0.238180 0.500000 0.161528
O O13 0.232963 0.635069 0.269027
O O14 0.495822 0.626352 0.914917
O O15 0.752144 0.500000 0.643862
O O16 0.794714 0.677239 0.559450
O O17 0.748518 0.000000 0.039095
O O18 0.332395 0.840136 0.274460
O O19 0.491438 0.000000 0.883085
O O20 0.500000 0.089081 0.000000
#
# Coordination Sequence:
#
# PCOD8060561 Si02
#       8
#     4   4   4   4   4   4   4   4
#     4   9  18  32  50  76 106 131 164 208 248 299
#     4  10  19  32  51  73 100 137 173 205 249 301
#     4  12  22  33  53  75  98 133 175 217 260 310
#     4   9  18  34  54  73  97 130 168 215 270 319
#     4   9  18  34  54  73  97 130 168 215 270 319
#     4  10  19  32  51  73 100 137 173 205 249 301
#     4  12  22  33  53  75  98 133 175 217 260 310
#     4  11  24  38  49  67  98 134 177 224 259 295
#
# _framework density 16.633296999999999
#
# number of rings (size 3 to 8) (size 9 to 14) (size 15 to 20)
#    0.000    1.750    3.750    2.250    0.000    4.500 
#    0.000    5.000    0.000    0.000    0.000    0.000 
#    0.000    2.000    0.000    5.250    0.000    0.250 
#
# Total GULP energy -396707.083922 kJ/mol
# GULP energy per Si atom -12397.096373 kJ/mol
# Density = 1.659544 g / cm^3
# Si number density = 16.633297 Si / 1000 Ang^3
#
#
#
# Elastic Constant Matrix: (Units=GPa)
#
#
# Indices 1 2 3 4 5 6 
#
# 1 79.1805 33.2060 22.3263 0.0000 2.6390 0.0000
# 2 33.2060 70.4101 25.3863 0.0000 5.8685 0.0000
# 3 22.3263 25.3863 80.7025 0.0000 -9.7547 0.0000
# 4 0.0000 0.0000 0.0000 2.1267 0.0000 2.5540
# 5 2.6390 5.8685 -9.7547 0.0000 33.5257 0.0000
# 6 0.0000 0.0000 0.0000 2.5540 0.0000 9.6380
#
#
#
# Elastic Compliance Matrix: (Units=1/GPa)
#
#
# Indices 1 2 3 4 5 6 
#
# 1 0.016144 -0.006653 -0.002473 0.000000 -0.000826 0.000000
# 2 -0.006653 0.019421 -0.004784 0.000000 -0.004268 0.000000
# 3 -0.002473 -0.004784 0.015241 0.000000 0.005467 0.000000
# 4 0.000000 0.000000 0.000000 0.689700 0.000000 -0.182766
# 5 -0.000826 -0.004268 0.005467 0.000000 0.032231 0.000000
# 6 0.000000 0.000000 0.000000 -0.182766 0.000000 0.152187
#
#
# Mechanical properties :
#
#
# Convention : Reuss Voigt Hill
#
# Bulk Modulus (GPa) = 43.50723 43.57002 43.53862
# Shear Modulus (GPa) = 5.20612 19.01639 12.11125
#
# Velocity S-wave (km/s) = 1.77108 3.38490 2.70132
# Velocity P-wave (km/s) = 5.51324 6.44423 5.99683
#
# Compressibility (1/GPa) = 0.02298469
#
# Stress axis : x y z
#
# Youngs Moduli (GPa) = 61.94065 51.49065 65.61155
#
# Poissons Ratio (x) = 0.34258 0.16228
# Poissons Ratio (y) = 0.41211 0.31391
# Poissons Ratio (z) = 0.15320 0.24635
#
# Static dielectric constant tensor:
#      x y z
#    x 3.192920 0.000000 -0.190040 
#    y 0.000000 3.143630 0.000000 
#    z -0.190040 0.000000 3.428000 
# 
# 
# High freq. dielectric constant tensor:
#      x y z
#    x 1.625330 0.000000 -0.016180 
#    y 0.000000 1.615260 0.000000 
#    z -0.016180 0.000000 1.648750 
# 
# From -- ./inp_files/79699.got.cif
#   From: 2010.06.25/outbox.cif.g09.slc.cpg/sg10_40_cif.got.tgz:79699.got - 2010.06.27 22:07:45.
