data_PCOD8060704
_publ_section_title
;
Structure prediction by ZEFSAII (Michael W. Deem and Ramdas Pophale) SiO2 
 PCOD8060704
Probable space group: P 2/M
;
_chemical_formula_sum "Si O2"
_cell_formula_units_Z 32
_cell_length_a 30.087493
_cell_length_b 9.156804
_cell_length_c 12.623496
_cell_angle_alpha 90.000000
_cell_angle_beta 151.444331
_cell_angle_gamma 90.000000
_cell_volume 1662.450527
_symmetry_space_group_name_H-M "P 2/M"
_symmetry_group_IT_number 10
_symmetry_cell_setting 'monoclinic'
loop_
_space_group_symop_operation_xyz
x,y,z
-x,y,-z
-x,-y,-z
x,-y,z
loop_
_atom_site_type_symbol
_atom_site_label
_atom_site_fract_x
_atom_site_fract_y
_atom_site_fract_z
Si Si1 0.313670 0.671680 0.366517
Si Si2 0.240620 0.326687 0.845167
Si Si3 0.254638 0.327540 0.637515
Si Si4 0.128352 0.827718 0.008888
Si Si5 0.032120 0.330168 0.448257
Si Si6 0.107569 0.165228 0.207030
Si Si7 0.401421 0.328085 0.331732
Si Si8 0.602213 0.326104 0.235744
O O1 0.291282 0.500000 0.325180
O O2 0.385361 0.707099 0.421811
O O3 0.359859 0.729978 0.571746
O O4 0.217527 0.754298 0.140258
O O5 0.238997 0.500000 0.850938
O O6 0.271920 0.275293 0.793620
O O7 0.137226 0.269450 0.655938
O O8 0.316354 0.260623 0.085148
O O9 0.251692 0.500000 0.625235
O O10 0.155794 0.269630 0.392294
O O11 0.334174 0.265255 0.726322
O O12 0.033300 0.762180 0.765391
O O13 0.128584 0.000000 0.988731
O O14 0.134709 0.787959 0.145664
O O15 0.025272 0.500000 0.401814
O O16 0.000000 0.303945 0.500000
O O17 0.139220 0.000000 0.295239
O O18 0.000000 0.185658 0.000000
O O19 0.500000 0.259950 0.500000
O O20 0.403777 0.500000 0.316274
O O21 0.600001 0.500000 0.231693
O O22 0.500000 0.262191 0.000000
#
# Coordination Sequence:
#
# PCOD8060704 Si02
#       8
#     4   4   4   4   4   4   4   4
#     4  10  19  34  56  80 109 143 179 218 265 320
#     4   9  18  31  48  76 108 136 171 218 266 308
#     4  10  19  32  52  77 107 137 171 217 262 313
#     4  11  22  35  54  79 107 139 178 223 266 315
#     4  10  20  35  55  77 106 142 179 220 265 315
#     4  10  21  36  52  73 105 142 177 216 264 317
#     4   9  18  31  52  82 110 138 174 217 263 311
#     4   9  18  30  49  79 108 136 171 217 268 312
#
# _framework density 19.248694
#
# number of rings (size 3 to 8) (size 9 to 14) (size 15 to 20)
#    0.000    2.250    1.250    1.875    1.750    3.000 
#    0.000    0.000    0.000    2.625    0.000    0.000 
#    0.000    0.000    0.000    0.000    0.000    0.000 
#
# Total GULP energy -396815.096316 kJ/mol
# GULP energy per Si atom -12400.471760 kJ/mol
# Density = 1.920488 g / cm^3
# Si number density = 19.248694 Si / 1000 Ang^3
#
#
#
# Elastic Constant Matrix: (Units=GPa)
#
#
# Indices 1 2 3 4 5 6 
#
# 1 141.6615 26.7880 66.6612 0.0000 4.1497 0.0000
# 2 26.7880 26.5987 26.3342 0.0000 0.7035 0.0000
# 3 66.6612 26.3342 142.9279 0.0000 1.6629 0.0000
# 4 0.0000 0.0000 0.0000 0.2106 0.0000 -0.4196
# 5 4.1497 0.7035 1.6629 0.0000 24.2422 0.0000
# 6 0.0000 0.0000 0.0000 -0.4196 0.0000 11.7327
#
#
#
# Elastic Compliance Matrix: (Units=1/GPa)
#
#
# Indices 1 2 3 4 5 6 
#
# 1 0.009951 -0.006614 -0.003407 0.000000 -0.001278 0.000000
# 2 -0.006614 0.050394 -0.006201 0.000000 0.000095 0.000000
# 3 -0.003407 -0.006201 0.009727 0.000000 0.000096 0.000000
# 4 0.000000 0.000000 0.000000 5.112867 0.000000 0.182838
# 5 -0.001278 0.000095 0.000096 0.000000 0.041460 0.000000
# 6 0.000000 0.000000 0.000000 0.182838 0.000000 0.091771
#
#
# Mechanical properties :
#
#
# Convention : Reuss Voigt Hill
#
# Bulk Modulus (GPa) = 26.57721 61.19501 43.88611
# Shear Modulus (GPa) = 0.93263 19.99739 10.46501
#
# Velocity S-wave (km/s) = 0.69683 3.22669 2.33421
# Velocity P-wave (km/s) = 3.80587 6.76334 5.48760
#
# Compressibility (1/GPa) = 0.03762623
#
# Stress axis : x y z
#
# Youngs Moduli (GPa) = 100.49573 19.84356 102.80410
#
# Poissons Ratio (x) = 0.13125 0.35030
# Poissons Ratio (y) = 0.66469 0.63752
# Poissons Ratio (z) = 0.34244 0.12306
#
# Static dielectric constant tensor:
#      x y z
#    x 3.913690 0.000000 0.009400 
#    y 0.000000 3.031710 0.000000 
#    z 0.009400 0.000000 3.668350 
# 
# 
# High freq. dielectric constant tensor:
#      x y z
#    x 1.766160 0.000000 0.000860 
#    y 0.000000 1.694580 0.000000 
#    z 0.000860 0.000000 1.757720 
# 
# From -- ./inp_files/58217.got.cif
#   From: 2010.06.25/outbox.cif.g09.slc.cpg/sg10_30_cif.got.tgz:58217.got - 2010.06.27 22:07:45.
