data_PCOD8060326
_publ_section_title
;
Structure prediction by ZEFSAII (Michael W. Deem and Ramdas Pophale) SiO2 
 PCOD8060326
Probable space group: P 2/M
;
_chemical_formula_sum "Si O2"
_cell_formula_units_Z 32
_cell_length_a 28.513445
_cell_length_b 9.086098
_cell_length_c 12.017749
_cell_angle_alpha 90.000000
_cell_angle_beta 147.105810
_cell_angle_gamma 90.000000
_cell_volume 1690.913882
_symmetry_space_group_name_H-M "P 2/M"
_symmetry_group_IT_number 10
_symmetry_cell_setting 'monoclinic'
loop_
_space_group_symop_operation_xyz
x,y,z
-x,y,-z
-x,-y,-z
x,-y,z
loop_
_atom_site_type_symbol
_atom_site_label
_atom_site_fract_x
_atom_site_fract_y
_atom_site_fract_z
Si Si1 0.500360 0.175369 0.125420
Si Si2 0.657331 0.173290 0.045156
Si Si3 0.149786 0.172923 0.567338
Si Si4 0.838651 0.672895 0.943998
Si Si5 0.004952 0.673056 0.138413
Si Si6 0.664956 0.174484 0.592672
Si Si7 0.101099 0.669853 0.692206
Si Si8 0.597068 0.175137 0.691229
O O1 0.587347 0.229152 0.359233
O O2 0.496737 0.000000 0.117938
O O3 0.500000 0.238636 0.000000
O O4 0.415722 0.240305 0.019123
O O5 0.752959 0.211144 0.279266
O O6 0.642709 0.000000 0.009617
O O7 0.645884 0.236483 0.897374
O O8 0.139081 0.229326 0.671388
O O9 0.086930 0.249061 0.355322
O O10 0.132297 0.000000 0.532468
O O11 0.825804 0.500000 0.905039
O O12 0.753960 0.753684 0.728904
O O13 0.918746 0.727116 0.028737
O O14 0.855288 0.717081 0.105027
O O15 0.017938 0.500000 0.180366
O O16 0.000000 0.718510 0.000000
O O17 0.645899 0.232980 0.679110
O O18 0.674735 0.000000 0.606887
O O19 0.119525 0.500000 0.700017
O O20 0.000000 0.698670 0.500000
O O21 0.500000 0.237230 0.500000
O O22 0.594750 0.000000 0.682654
#
# Coordination Sequence:
#
# PCOD8060326 Si02
#       8
#     4   4   4   4   4   4   4   4
#     4   9  17  30  48  72 104 141 177 211 256 318
#     4   9  17  29  45  72 107 139 169 208 262 318
#     4  11  22  34  55  87 118 141 171 228 286 322
#     4  10  21  37  57  80 107 141 178 226 277 319
#     4  10  22  42  62  76 100 147 198 228 259 325
#     4  10  19  31  53  81 104 135 176 218 263 317
#     4  10  19  36  59  79 107 147 186 218 262 333
#     4   9  14  25  47  73 102 134 172 210 246 302
#
# _framework density 18.924676999999999
#
# number of rings (size 3 to 8) (size 9 to 14) (size 15 to 20)
#    0.000    2.250    2.500    1.125    0.000    3.500 
#    0.000    1.250    0.000    2.250    0.000    0.000 
#    0.000    0.000    0.000    0.000    0.000    0.000 
#
# Total GULP energy -396795.943542 kJ/mol
# GULP energy per Si atom -12399.873236 kJ/mol
# Density = 1.888160 g / cm^3
# Si number density = 18.924677 Si / 1000 Ang^3
#
#
#
# Elastic Constant Matrix: (Units=GPa)
#
#
# Indices 1 2 3 4 5 6 
#
# 1 123.3254 29.6882 102.9903 0.0000 -8.7546 0.0000
# 2 29.6882 27.4213 39.5389 0.0000 2.3079 0.0000
# 3 102.9903 39.5389 161.4323 0.0000 9.6762 0.0000
# 4 0.0000 0.0000 0.0000 9.9270 0.0000 0.4084
# 5 -8.7546 2.3079 9.6762 0.0000 32.4874 0.0000
# 6 0.0000 0.0000 0.0000 0.4084 0.0000 12.0094
#
#
#
# Elastic Compliance Matrix: (Units=1/GPa)
#
#
# Indices 1 2 3 4 5 6 
#
# 1 0.020191 -0.005048 -0.012211 0.000000 0.009436 0.000000
# 2 -0.005048 0.057641 -0.010763 0.000000 -0.002249 0.000000
# 3 -0.012211 -0.010763 0.017077 0.000000 -0.007612 0.000000
# 4 0.000000 0.000000 0.000000 0.100877 0.000000 -0.003430
# 5 0.009436 -0.002249 -0.007612 0.000000 0.035751 0.000000
# 6 0.000000 0.000000 0.000000 -0.003430 0.000000 0.083385
#
#
# Mechanical properties :
#
#
# Convention : Reuss Voigt Hill
#
# Bulk Modulus (GPa) = 25.72883 72.95710 49.34296
# Shear Modulus (GPa) = 13.02358 20.21552 16.61955
#
# Velocity S-wave (km/s) = 2.62616 3.27189 2.96665
# Velocity P-wave (km/s) = 4.77709 7.27384 6.15342
#
# Compressibility (1/GPa) = 0.03886691
#
# Stress axis : x y z
#
# Youngs Moduli (GPa) = 49.52733 17.34881 58.55831
#
# Poissons Ratio (x) = 0.08757 0.71504
# Poissons Ratio (y) = 0.24999 0.63024
# Poissons Ratio (z) = 0.60476 0.18672
#
# Static dielectric constant tensor:
#      x y z
#    x 8.411240 0.000000 1.178230 
#    y 0.000000 2.976930 0.000000 
#    z 1.178230 0.000000 3.859820 
# 
# 
# High freq. dielectric constant tensor:
#      x y z
#    x 1.742130 0.000000 0.005940 
#    y 0.000000 1.686070 0.000000 
#    z 0.005940 0.000000 1.748660 
# 
# From -- ./inp_files/49959.got.cif
#   From: 2010.06.25/outbox.cif.g09.slc.cpg/sg10_25_cif.got.tgz:49959.got - 2010.06.27 22:07:45.
