data_PCOD8060650
_publ_section_title
;
Structure prediction by ZEFSAII (Michael W. Deem and Ramdas Pophale) SiO2 
 PCOD8060650
Probable space group: P 2/M
;
_chemical_formula_sum "Si O2"
_cell_formula_units_Z 28
_cell_length_a 31.803957
_cell_length_b 9.363707
_cell_length_c 9.815438
_cell_angle_alpha 90.000000
_cell_angle_beta 32.833112
_cell_angle_gamma 90.000000
_cell_volume 1584.868670
_symmetry_space_group_name_H-M "P 2/M"
_symmetry_group_IT_number 10
_symmetry_cell_setting 'monoclinic'
loop_
_space_group_symop_operation_xyz
x,y,z
-x,y,-z
-x,-y,-z
x,-y,z
loop_
_atom_site_type_symbol
_atom_site_label
_atom_site_fract_x
_atom_site_fract_y
_atom_site_fract_z
Si Si1 0.627510 0.664904 0.006048
Si Si2 0.962584 0.165821 0.466792
Si Si3 0.795651 0.832725 0.827705
Si Si4 0.498303 0.330790 0.158427
Si Si5 0.198853 0.664723 0.459925
Si Si6 0.045151 0.658079 0.017381
Si Si7 0.355258 0.669020 0.734444
O O1 0.605202 0.500000 0.072100
O O2 0.715026 0.690718 0.714326
O O3 0.568130 0.736835 0.059842
O O4 0.618099 0.722528 0.187060
O O5 0.870550 0.194943 0.718080
O O6 0.000000 0.234032 0.500000
O O7 0.005837 0.229749 0.220980
O O8 0.980770 0.000000 0.409471
O O9 0.815642 0.769262 0.626100
O O10 0.776639 0.000000 0.865253
O O11 0.723329 0.750921 0.092698
O O12 0.507671 0.500000 0.123700
O O13 0.418370 0.288848 0.449993
O O14 0.500000 0.266606 0.000000
O O15 0.190706 0.500000 0.431832
O O16 0.135549 0.699057 0.747781
O O17 0.039735 0.500000 0.096670
O O18 0.000000 0.662092 0.000000
O O19 0.338541 0.500000 0.782708
#
# Coordination Sequence:
#
# PCOD8060650 Si02
#       7
#     4   4   4   4   4   4   4
#     4   8  14  26  46  68  95 127 159 191 232 287
#     4  10  22  38  52  70 100 139 178 209 244 298
#     4  10  19  32  52  74  97 128 169 209 244 288
#     4   9  16  27  45  72 100 124 157 199 238 285
#     4   9  17  31  51  76 103 129 160 204 254 296
#     4  10  19  32  53  79 105 130 163 209 260 304
#     4   9  17  30  50  73  95 125 159 198 248 293
#
# _framework density 17.667079000000001
#
# number of rings (size 3 to 8) (size 9 to 14) (size 15 to 20)
#    0.000    2.714    1.429    1.714    0.000    3.429 
#    2.571    0.000    0.000    7.286    0.000    0.000 
#    0.000    0.000    0.000    0.000    0.000    0.000 
#
# Total GULP energy -347060.580697 kJ/mol
# GULP energy per Si atom -12395.020739 kJ/mol
# Density = 1.762687 g / cm^3
# Si number density = 17.667079 Si / 1000 Ang^3
#
#
#
# Elastic Constant Matrix: (Units=GPa)
#
#
# Indices 1 2 3 4 5 6 
#
# 1 112.1073 38.4101 64.5417 0.0000 -10.9006 0.0000
# 2 38.4101 43.5112 35.5965 0.0000 -10.4208 0.0000
# 3 64.5417 35.5965 130.5648 0.0000 -13.0577 0.0000
# 4 0.0000 0.0000 0.0000 17.4993 0.0000 -0.4199
# 5 -10.9006 -10.4208 -13.0577 0.0000 21.9887 0.0000
# 6 0.0000 0.0000 0.0000 -0.4199 0.0000 29.9498
#
#
#
# Elastic Compliance Matrix: (Units=1/GPa)
#
#
# Indices 1 2 3 4 5 6 
#
# 1 0.014840 -0.009102 -0.004837 0.000000 0.000171 0.000000
# 2 -0.009102 0.037298 -0.004628 0.000000 0.010416 0.000000
# 3 -0.004837 -0.004628 0.011538 0.000000 0.002261 0.000000
# 4 0.000000 0.000000 0.000000 0.057164 0.000000 0.000802
# 5 0.000171 0.010416 0.002261 0.000000 0.051841 0.000000
# 6 0.000000 0.000000 0.000000 0.000802 0.000000 0.033400
#
#
# Mechanical properties :
#
#
# Convention : Reuss Voigt Hill
#
# Bulk Modulus (GPa) = 37.67607 62.58665 50.13136
# Shear Modulus (GPa) = 19.83634 23.72991 21.78313
#
# Velocity S-wave (km/s) = 3.35443 3.66891 3.51519
# Velocity P-wave (km/s) = 6.03116 7.31097 6.70168
#
# Compressibility (1/GPa) = 0.02654204
#
# Stress axis : x y z
#
# Youngs Moduli (GPa) = 67.38551 26.81117 86.67066
#
# Poissons Ratio (x) = 0.24404 0.41924
# Poissons Ratio (y) = 0.61334 0.40108
# Poissons Ratio (z) = 0.32596 0.12407
#
# Static dielectric constant tensor:
#      x y z
#    x 3.383400 0.000000 -0.304090 
#    y 0.000000 2.984610 0.000000 
#    z -0.304090 0.000000 3.250030 
# 
# 
# High freq. dielectric constant tensor:
#      x y z
#    x 1.675960 0.000000 -0.018540 
#    y 0.000000 1.646930 0.000000 
#    z -0.018540 0.000000 1.688290 
# 
# From -- ./inp_files/37970.got.cif
#   From: 2010.06.25/outbox.cif.g09.slc.cpg/sg10_19_cif.got.tgz:37970.got - 2010.06.27 22:07:45.
