data_PCOD8060619
_publ_section_title
;
Structure prediction by ZEFSAII (Michael W. Deem and Ramdas Pophale) SiO2 
 PCOD8060619
Probable space group: P 2/M
;
_chemical_formula_sum "Si O2"
_cell_formula_units_Z 32
_cell_length_a 25.490271
_cell_length_b 9.072440
_cell_length_c 20.813632
_cell_angle_alpha 90.000000
_cell_angle_beta 21.979407
_cell_angle_gamma 90.000000
_cell_volume 1801.504305
_symmetry_space_group_name_H-M "P 2/M"
_symmetry_group_IT_number 10
_symmetry_cell_setting 'monoclinic'
loop_
_space_group_symop_operation_xyz
x,y,z
-x,y,-z
-x,-y,-z
x,-y,z
loop_
_atom_site_type_symbol
_atom_site_label
_atom_site_fract_x
_atom_site_fract_y
_atom_site_fract_z
Si Si1 0.647105 0.826136 0.768775
Si Si2 0.335673 0.327887 0.757222
Si Si3 0.947324 0.828182 0.378970
Si Si4 0.348010 0.328016 0.596546
Si Si5 0.627690 0.327858 0.925644
Si Si6 0.928166 0.174466 0.896205
Si Si7 0.918392 0.329790 0.654739
Si Si8 0.091329 0.174242 0.836022
O O1 0.671441 0.751133 0.809972
O O2 0.782432 0.792932 0.571768
O O3 0.621253 0.000000 0.806986
O O4 0.512403 0.750536 0.887720
O O5 0.303660 0.500000 0.799130
O O6 0.320622 0.275585 0.700624
O O7 0.492051 0.292588 0.604671
O O8 0.227707 0.239988 0.924157
O O9 0.997757 0.769139 0.252733
O O10 0.037233 0.752236 0.331800
O O11 0.976118 0.000000 0.353382
O O12 0.317140 0.500000 0.625319
O O13 0.246723 0.241087 0.663519
O O14 0.599441 0.500000 0.944364
O O15 0.752021 0.306668 0.835392
O O16 0.019362 0.232319 0.852694
O O17 0.915806 0.000000 0.912086
O O18 0.959102 0.500000 0.616474
O O19 0.000000 0.265110 0.500000
O O20 0.105607 0.000000 0.819890
O O21 0.000000 0.230379 0.000000
#
# Coordination Sequence:
#
# PCOD8060619 Si02
#       8
#     4   4   4   4   4   4   4   4
#     4  10  19  32  51  77 106 137 173 210 256 307
#     4   9  18  33  52  77 106 138 172 214 264 311
#     4  10  22  37  54  76 106 143 175 213 260 311
#     4   9  18  32  52  78 107 134 171 219 264 310
#     4  10  19  32  53  79 105 133 168 214 263 302
#     4  10  21  37  53  75 108 140 176 215 259 313
#     4  10  20  35  55  80 107 136 173 217 261 307
#     4  10  19  32  52  79 106 137 176 219 261 305
#
# _framework density 17.762933
#
# number of rings (size 3 to 8) (size 9 to 14) (size 15 to 20)
#    0.000    2.250    2.500    2.250    0.000    3.500 
#    0.000    2.500    0.000    4.500    0.000    0.000 
#    0.000    0.000    0.000    0.000    0.000    0.000 
#
# Total GULP energy -396815.320410 kJ/mol
# GULP energy per Si atom -12400.478763 kJ/mol
# Density = 1.772250 g / cm^3
# Si number density = 17.762933 Si / 1000 Ang^3
#
#
#
# Elastic Constant Matrix: (Units=GPa)
#
#
# Indices 1 2 3 4 5 6 
#
# 1 115.4273 39.5120 73.0467 0.0000 -2.0293 0.0000
# 2 39.5120 55.3691 49.4401 0.0000 -2.7328 0.0000
# 3 73.0467 49.4401 143.4605 0.0000 -1.7864 0.0000
# 4 0.0000 0.0000 0.0000 28.9946 0.0000 -8.9617
# 5 -2.0293 -2.7328 -1.7864 0.0000 29.7627 0.0000
# 6 0.0000 0.0000 0.0000 -8.9617 0.0000 26.2316
#
#
#
# Elastic Compliance Matrix: (Units=1/GPa)
#
#
# Indices 1 2 3 4 5 6 
#
# 1 0.013724 -0.005125 -0.005220 0.000000 0.000152 0.000000
# 2 -0.005125 0.028106 -0.007054 0.000000 0.001808 0.000000
# 3 -0.005220 -0.007054 0.012056 0.000000 -0.000280 0.000000
# 4 0.000000 0.000000 0.000000 0.038561 0.000000 0.013174
# 5 0.000152 0.001808 -0.000280 0.000000 0.033759 0.000000
# 6 0.000000 0.000000 0.000000 0.013174 0.000000 0.042623
#
#
# Mechanical properties :
#
#
# Convention : Reuss Voigt Hill
#
# Bulk Modulus (GPa) = 52.38925 70.91716 61.65321
# Shear Modulus (GPa) = 23.81097 27.14833 25.47965
#
# Velocity S-wave (km/s) = 3.66524 3.91368 3.79149
# Velocity P-wave (km/s) = 6.88982 7.77389 7.34517
#
# Compressibility (1/GPa) = 0.01908789
#
# Stress axis : x y z
#
# Youngs Moduli (GPa) = 72.86660 35.57994 82.94828
#
# Poissons Ratio (x) = 0.18235 0.43296
# Poissons Ratio (y) = 0.37346 0.58510
# Poissons Ratio (z) = 0.38034 0.25097
#
# Static dielectric constant tensor:
#      x y z
#    x 3.188210 0.000000 -0.121120 
#    y 0.000000 3.199700 0.000000 
#    z -0.121120 0.000000 3.422860 
# 
# 
# High freq. dielectric constant tensor:
#      x y z
#    x 1.669340 0.000000 -0.019920 
#    y 0.000000 1.684730 0.000000 
#    z -0.019920 0.000000 1.690940 
# 
# From -- ./inp_files/86918.got.cif
#   From: 2010.06.25/outbox.cif.g09.slc.cpg/sg10_44_cif.got.tgz:86918.got - 2010.06.27 22:07:45.
