data_PCOD8060798
_publ_section_title
;
Structure prediction by ZEFSAII (Michael W. Deem and Ramdas Pophale) SiO2 
 PCOD8060798
Probable space group: P 2/M
;
_chemical_formula_sum "Si O2"
_cell_formula_units_Z 32
_cell_length_a 11.832048
_cell_length_b 8.907662
_cell_length_c 33.390671
_cell_angle_alpha 90.000000
_cell_angle_beta 149.974466
_cell_angle_gamma 90.000000
_cell_volume 1760.977712
_symmetry_space_group_name_H-M "P 2/M"
_symmetry_group_IT_number 10
_symmetry_cell_setting 'monoclinic'
loop_
_space_group_symop_operation_xyz
x,y,z
-x,y,-z
-x,-y,-z
x,-y,z
loop_
_atom_site_type_symbol
_atom_site_label
_atom_site_fract_x
_atom_site_fract_y
_atom_site_fract_z
Si Si1 0.139358 0.822208 0.723189
Si Si2 0.988349 0.677350 0.825490
Si Si3 0.369597 0.829416 0.418917
Si Si4 0.677669 0.323040 0.142960
Si Si5 0.830766 0.321444 0.351696
Si Si6 0.710340 0.323004 0.468165
Si Si7 0.478508 0.322179 0.671542
Si Si8 0.671861 0.831646 0.016359
O O1 0.291222 0.757149 0.805130
O O2 0.223000 0.754160 0.707027
O O3 0.883052 0.770897 0.652183
O O4 0.163447 0.000000 0.728787
O O5 0.000386 0.500000 0.835779
O O6 0.732991 0.739864 0.744745
O O7 0.118895 0.722596 0.824747
O O8 0.098611 0.754096 0.898259
O O9 0.500000 0.813831 0.500000
O O10 0.484605 0.722680 0.422030
O O11 0.373900 0.000000 0.404448
O O12 0.667251 0.500000 0.146100
O O13 0.437393 0.266371 0.052566
O O14 0.841623 0.500000 0.349723
O O15 0.630007 0.271219 0.319855
O O16 0.065354 0.256485 0.442141
O O17 0.732310 0.500000 0.475100
O O18 0.680842 0.263428 0.413609
O O19 0.488623 0.500000 0.672194
O O20 0.723482 0.000000 0.016805
O O21 0.500000 0.836032 0.000000
#
# Coordination Sequence:
#
# PCOD8060798 Si02
#       8
#     4   4   4   4   4   4   4   4
#     4  11  22  35  51  71 102 138 173 211 255 303
#     4   9  17  31  52  77 106 136 166 204 251 302
#     4  10  20  34  49  68 100 137 167 203 256 307
#     4  10  19  32  53  81 108 132 166 205 249 304
#     4  10  20  34  52  72  98 135 176 215 256 300
#     4  10  19  32  53  77  99 128 173 221 258 298
#     4   9  18  33  52  75 102 132 169 215 260 299
#     4   9  17  30  50  77 109 138 164 197 246 303
#
# _framework density 18.171723
#
# number of rings (size 3 to 8) (size 9 to 14) (size 15 to 20)
#    0.000    2.250    1.250    2.250    0.000    5.750 
#    0.000    1.875    0.000    2.250    0.000    5.250 
#    0.000    0.000    0.000    0.000    0.000    0.000 
#
# Total GULP energy -396803.494398 kJ/mol
# GULP energy per Si atom -12400.109200 kJ/mol
# Density = 1.813036 g / cm^3
# Si number density = 18.171723 Si / 1000 Ang^3
#
#
#
# Elastic Constant Matrix: (Units=GPa)
#
#
# Indices 1 2 3 4 5 6 
#
# 1 96.3822 27.2648 52.0315 0.0000 -14.4171 0.0000
# 2 27.2648 46.2527 30.4945 0.0000 -6.6273 0.0000
# 3 52.0315 30.4945 113.0496 0.0000 -19.8530 0.0000
# 4 0.0000 0.0000 0.0000 23.9210 0.0000 1.1015
# 5 -14.4171 -6.6273 -19.8530 0.0000 19.6917 0.0000
# 6 0.0000 0.0000 0.0000 1.1015 0.0000 10.7312
#
#
#
# Elastic Compliance Matrix: (Units=1/GPa)
#
#
# Indices 1 2 3 4 5 6 
#
# 1 0.015064 -0.005090 -0.004768 0.000000 0.004508 0.000000
# 2 -0.005090 0.028086 -0.005137 0.000000 0.000546 0.000000
# 3 -0.004768 -0.005137 0.013986 0.000000 0.008880 0.000000
# 4 0.000000 0.000000 0.000000 0.042003 0.000000 -0.004311
# 5 0.004508 0.000546 0.008880 0.000000 0.063220 0.000000
# 6 0.000000 0.000000 0.000000 -0.004311 0.000000 0.093628
#
#
# Mechanical properties :
#
#
# Convention : Reuss Voigt Hill
#
# Bulk Modulus (GPa) = 36.84075 52.80734 44.82405
# Shear Modulus (GPa) = 16.94761 20.59502 18.77131
#
# Velocity S-wave (km/s) = 3.05722 3.37019 3.21751
# Velocity P-wave (km/s) = 5.72537 6.65338 6.20674
#
# Compressibility (1/GPa) = 0.02714386
#
# Stress axis : x y z
#
# Youngs Moduli (GPa) = 66.38427 35.60468 71.50195
#
# Poissons Ratio (x) = 0.18122 0.34096
# Poissons Ratio (y) = 0.33789 0.36734
# Poissons Ratio (z) = 0.31655 0.18292
#
# Static dielectric constant tensor:
#      x y z
#    x 3.243180 0.000000 -0.017200 
#    y 0.000000 3.210930 0.000000 
#    z -0.017200 0.000000 3.548840 
# 
# 
# High freq. dielectric constant tensor:
#      x y z
#    x 1.681660 0.000000 -0.009000 
#    y 0.000000 1.690040 0.000000 
#    z -0.009000 0.000000 1.710730 
# 
# From -- ./inp_files/55213.got.cif
#   From: 2010.06.25/outbox.cif.g09.slc.cpg/sg10_28_cif.got.tgz:55213.got - 2010.06.27 22:07:45.
