data_PCOD8060289
_publ_section_title
;
Structure prediction by ZEFSAII (Michael W. Deem and Ramdas Pophale) SiO2 
 PCOD8060289
Probable space group: P 2/M
;
_chemical_formula_sum "Si O2"
_cell_formula_units_Z 32
_cell_length_a 28.594608
_cell_length_b 9.325844
_cell_length_c 12.207247
_cell_angle_alpha 90.000000
_cell_angle_beta 145.954252
_cell_angle_gamma 90.000000
_cell_volume 1822.490752
_symmetry_space_group_name_H-M "P 2/M"
_symmetry_group_IT_number 10
_symmetry_cell_setting 'monoclinic'
loop_
_space_group_symop_operation_xyz
x,y,z
-x,y,-z
-x,-y,-z
x,-y,z
loop_
_atom_site_type_symbol
_atom_site_label
_atom_site_fract_x
_atom_site_fract_y
_atom_site_fract_z
Si Si1 0.028996 0.830976 0.177903
Si Si2 0.729012 0.336010 0.545000
Si Si3 0.300449 0.334045 0.952674
Si Si4 0.247783 0.335899 0.087899
Si Si5 0.800776 0.332566 0.455217
Si Si6 0.533918 0.164566 0.681557
Si Si7 0.115171 0.663706 0.001405
Si Si8 0.634236 0.164659 0.528478
O O1 0.117521 0.761849 0.373991
O O2 0.035459 0.000000 0.206602
O O3 0.000000 0.788745 0.000000
O O4 0.962771 0.768907 0.136156
O O5 0.703812 0.500000 0.517187
O O6 0.738199 0.302142 0.434657
O O7 0.816606 0.300779 0.773462
O O8 0.655976 0.238922 0.454916
O O9 0.323246 0.500000 0.984301
O O10 0.245016 0.304731 0.953306
O O11 0.386816 0.250772 0.123456
O O12 0.246085 0.281214 0.744810
O O13 0.273975 0.500000 0.163683
O O14 0.156334 0.307051 0.962095
O O15 0.316775 0.235251 0.275785
O O16 0.826069 0.500000 0.500481
O O17 0.500000 0.226192 0.500000
O O18 0.463979 0.180744 0.639561
O O19 0.560640 0.000000 0.716485
O O20 0.083943 0.500000 0.951628
O O21 0.661651 0.000000 0.575149
#
# Coordination Sequence:
#
# PCOD8060289 Si02
#       8
#     4   4   4   4   4   4   4   4
#     4  11  22  34  52  81 109 135 177 225 262 308
#     4   9  18  33  53  77 106 138 175 218 266 314
#     4  10  21  36  57  82 107 139 181 223 263 313
#     4   9  18  33  52  79 109 136 172 218 267 312
#     4  10  21  38  57  78 107 144 179 215 268 323
#     4  10  20  35  53  78 110 143 179 217 264 319
#     4   9  17  31  53  77 103 138 172 214 268 315
#     4  10  19  31  52  79 106 138 177 218 262 313
#
# _framework density 17.558387
#
# number of rings (size 3 to 8) (size 9 to 14) (size 15 to 20)
#    0.000    2.250    2.500    1.500    0.000    4.750 
#    0.000    1.250    0.000    7.500    0.000    0.000 
#    0.000    0.000    0.000    0.000    0.000    0.000 
#
# Total GULP energy -396847.781748 kJ/mol
# GULP energy per Si atom -12401.493180 kJ/mol
# Density = 1.751842 g / cm^3
# Si number density = 17.558387 Si / 1000 Ang^3
#
#
#
# Elastic Constant Matrix: (Units=GPa)
#
#
# Indices 1 2 3 4 5 6 
#
# 1 131.9197 60.0856 65.1704 0.0000 -6.0586 0.0000
# 2 60.0856 86.2864 59.2488 0.0000 6.0036 0.0000
# 3 65.1704 59.2488 109.4065 0.0000 -5.2073 0.0000
# 4 0.0000 0.0000 0.0000 14.4101 0.0000 -4.4367
# 5 -6.0586 6.0036 -5.2073 0.0000 26.5342 0.0000
# 6 0.0000 0.0000 0.0000 -4.4367 0.0000 11.9730
#
#
#
# Elastic Compliance Matrix: (Units=1/GPa)
#
#
# Indices 1 2 3 4 5 6 
#
# 1 0.012533 -0.006307 -0.003882 0.000000 0.003527 0.000000
# 2 -0.006307 0.022690 -0.008927 0.000000 -0.008326 0.000000
# 3 -0.003882 -0.008927 0.016495 0.000000 0.004371 0.000000
# 4 0.000000 0.000000 0.000000 0.078333 0.000000 0.029027
# 5 0.003527 -0.008326 0.004371 0.000000 0.041234 0.000000
# 6 0.000000 0.000000 0.000000 0.029027 0.000000 0.094277
#
#
# Mechanical properties :
#
#
# Convention : Reuss Voigt Hill
#
# Bulk Modulus (GPa) = 74.15228 77.40245 75.77736
# Shear Modulus (GPa) = 16.21847 20.12399 18.17123
#
# Velocity S-wave (km/s) = 3.04252 3.38911 3.22048
# Velocity P-wave (km/s) = 7.39365 7.71319 7.55511
#
# Compressibility (1/GPa) = 0.01348576
#
# Stress axis : x y z
#
# Youngs Moduli (GPa) = 79.79082 44.07132 60.62343
#
# Poissons Ratio (x) = 0.27796 0.23534
# Poissons Ratio (y) = 0.50324 0.54121
# Poissons Ratio (z) = 0.30975 0.39344
#
# Static dielectric constant tensor:
#      x y z
#    x 3.552300 0.000000 -0.108010 
#    y 0.000000 3.252670 0.000000 
#    z -0.108010 0.000000 2.987730 
# 
# 
# High freq. dielectric constant tensor:
#      x y z
#    x 1.693970 0.000000 0.002480 
#    y 0.000000 1.679210 0.000000 
#    z 0.002480 0.000000 1.645560 
# 
# From -- ./inp_files/49871.got.cif
#   From: 2010.06.25/outbox.cif.g09.slc.cpg/sg10_25_cif.got.tgz:49871.got - 2010.06.27 22:07:45.
