data_PCOD8060080
_publ_section_title
;
Structure prediction by ZEFSAII (Michael W. Deem and Ramdas Pophale) SiO2 
 PCOD8060080
Probable space group: P 2/M
;
_chemical_formula_sum "Si O2"
_cell_formula_units_Z 28
_cell_length_a 18.839719
_cell_length_b 9.303412
_cell_length_c 15.324703
_cell_angle_alpha 90.000000
_cell_angle_beta 142.011080
_cell_angle_gamma 90.000000
_cell_volume 1653.267783
_symmetry_space_group_name_H-M "P 2/M"
_symmetry_group_IT_number 10
_symmetry_cell_setting 'monoclinic'
loop_
_space_group_symop_operation_xyz
x,y,z
-x,y,-z
-x,-y,-z
x,-y,z
loop_
_atom_site_type_symbol
_atom_site_label
_atom_site_fract_x
_atom_site_fract_y
_atom_site_fract_z
Si Si1 0.630139 0.830501 0.616066
Si Si2 0.364240 0.341534 0.882352
Si Si3 0.631296 0.332877 0.302758
Si Si4 0.763831 0.334361 0.601693
Si Si5 0.394815 0.830710 0.076517
Si Si6 0.989210 0.331684 0.089610
Si Si7 0.767175 0.831753 0.919177
O O1 0.500000 0.776676 0.500000
O O2 0.679863 0.759525 0.578380
O O3 0.700886 0.779417 0.768751
O O4 0.635744 0.000000 0.608997
O O5 0.316964 0.500000 0.862446
O O6 0.314399 0.291903 0.739558
O O7 0.500000 0.348483 0.000000
O O8 0.334754 0.229012 0.930014
O O9 0.593210 0.500000 0.265566
O O10 0.731505 0.303206 0.469979
O O11 0.518206 0.240357 0.215363
O O12 0.744685 0.500000 0.608425
O O13 0.895686 0.290486 0.746178
O O14 0.309993 0.790937 0.072835
O O15 0.413282 0.000000 0.084777
O O16 0.962407 0.500000 0.065996
O O17 0.000000 0.278122 0.000000
O O18 0.887572 0.250753 0.041310
O O19 0.793159 0.000000 0.941175
#
# Coordination Sequence:
#
# PCOD8060080 Si02
#       7
#     4   4   4   4   4   4   4
#     4  10  20  33  48  69  99 131 159 192 238 291
#     4   8  15  29  48  71  99 130 161 194 238 293
#     4   9  18  32  50  73 102 132 160 194 243 298
#     4  10  20  34  51  72  97 126 162 204 244 284
#     4  10  19  31  49  75 103 129 162 201 240 287
#     4  10  20  35  53  72  94 123 167 214 246 279
#     4  10  21  34  49  70  98 131 164 199 241 291
#
# _framework density 16.936156
#
# number of rings (size 3 to 8) (size 9 to 14) (size 15 to 20)
#    0.000    2.429    1.429    2.143    0.000    6.571 
#    0.000    0.000    0.000    0.857    0.000    6.000 
#    0.000    0.000    0.000    0.000    0.000    0.000 
#
# Total GULP energy -347182.097242 kJ/mol
# GULP energy per Si atom -12399.360616 kJ/mol
# Density = 1.689761 g / cm^3
# Si number density = 16.936156 Si / 1000 Ang^3
#
#
#
# Elastic Constant Matrix: (Units=GPa)
#
#
# Indices 1 2 3 4 5 6 
#
# 1 50.6295 27.8867 55.7939 0.0000 -11.4491 0.0000
# 2 27.8867 44.1681 36.3127 0.0000 -1.5066 0.0000
# 3 55.7939 36.3127 129.2346 0.0000 -12.5537 0.0000
# 4 0.0000 0.0000 0.0000 24.6304 0.0000 4.7865
# 5 -11.4491 -1.5066 -12.5537 0.0000 31.6887 0.0000
# 6 0.0000 0.0000 0.0000 4.7865 0.0000 36.6433
#
#
#
# Elastic Compliance Matrix: (Units=1/GPa)
#
#
# Indices 1 2 3 4 5 6 
#
# 1 0.048429 -0.018050 -0.014789 0.000000 0.010780 0.000000
# 2 -0.018050 0.036287 -0.002984 0.000000 -0.005979 0.000000
# 3 -0.014789 -0.002984 0.015006 0.000000 0.000460 0.000000
# 4 0.000000 0.000000 0.000000 0.041658 0.000000 -0.005441
# 5 0.010780 -0.005979 0.000460 0.000000 0.035350 0.000000
# 6 0.000000 0.000000 0.000000 -0.005441 0.000000 0.028001
#
#
# Mechanical properties :
#
#
# Convention : Reuss Voigt Hill
#
# Bulk Modulus (GPa) = 35.61925 51.55768 43.58846
# Shear Modulus (GPa) = 17.49882 25.52841 21.51361
#
# Velocity S-wave (km/s) = 3.21786 3.88665 3.56796
# Velocity P-wave (km/s) = 5.90621 7.11687 6.53962
#
# Compressibility (1/GPa) = 0.02807471
#
# Stress axis : x y z
#
# Youngs Moduli (GPa) = 20.64895 27.55834 66.64161
#
# Poissons Ratio (x) = 0.49744 0.98555
# Poissons Ratio (y) = 0.37272 0.19885
# Poissons Ratio (z) = 0.30537 0.08223
#
# Static dielectric constant tensor:
#      x y z
#    x 3.173170 0.000000 -0.339930 
#    y 0.000000 3.127440 0.000000 
#    z -0.339930 0.000000 3.432050 
# 
# 
# High freq. dielectric constant tensor:
#      x y z
#    x 1.640390 0.000000 -0.018980 
#    y 0.000000 1.651260 0.000000 
#    z -0.018980 0.000000 1.650440 
# 
# From -- ./inp_files/54726.got.cif
#   From: 2010.06.25/outbox.cif.g09.slc.cpg/sg10_28_cif.got.tgz:54726.got - 2010.06.27 22:07:45.
