data_PCOD8060970
_publ_section_title
;
Structure prediction by ZEFSAII (Michael W. Deem and Ramdas Pophale) SiO2 
 PCOD8060970
Probable space group: P 2/M
;
_chemical_formula_sum "Si O2"
_cell_formula_units_Z 28
_cell_length_a 12.501423
_cell_length_b 18.870487
_cell_length_c 18.953736
_cell_angle_alpha 90.000000
_cell_angle_beta 159.748252
_cell_angle_gamma 90.000000
_cell_volume 1547.733922
_symmetry_space_group_name_H-M "P 2/M"
_symmetry_group_IT_number 10
_symmetry_cell_setting 'monoclinic'
loop_
_space_group_symop_operation_xyz
x,y,z
-x,y,-z
-x,-y,-z
x,-y,z
loop_
_atom_site_type_symbol
_atom_site_label
_atom_site_fract_x
_atom_site_fract_y
_atom_site_fract_z
Si Si1 0.863794 0.421482 0.716055
Si Si2 0.160722 0.297686 0.395846
Si Si3 0.823899 0.079039 0.236647
Si Si4 0.116049 0.679170 0.147370
Si Si5 0.853375 0.215012 0.082873
Si Si6 0.847263 0.078911 0.701298
Si Si7 0.144609 0.219353 0.665414
O O1 0.500000 0.427313 0.500000
O O2 0.011057 0.500000 0.799735
O O3 0.954051 0.375124 0.702671
O O4 0.984334 0.383073 0.861132
O O5 0.525301 0.301615 0.632283
O O6 0.084113 0.240974 0.287524
O O7 0.999824 0.275258 0.368970
O O8 0.916862 0.137368 0.352106
O O9 0.093766 0.079187 0.345872
O O10 0.794578 0.000000 0.252474
O O11 0.500000 0.101124 0.000000
O O12 0.934410 0.749777 0.058351
O O13 0.000000 0.653804 0.000000
O O14 0.908931 0.130753 0.109086
O O15 0.507018 0.234281 0.889249
O O16 0.500000 0.105085 0.500000
O O17 0.899401 0.000000 0.764661
O O18 0.000000 0.234252 0.500000
#
# Coordination Sequence:
#
# PCOD8060970 Si02
#       7
#     4   4   4   4   4   4   4
#     4   8  16  32  56  82 106 138 180 218 253 307
#     4  10  19  35  56  77 104 141 182 216 256 315
#     4  10  19  35  55  74 100 138 184 225 265 319
#     4  10  20  33  53  83 113 139 168 217 274 315
#     4  11  20  35  54  75 103 142 184 223 259 320
#     4  10  19  32  55  80  99 130 181 229 263 305
#     4  12  23  34  51  78 109 140 175 227 282 315
#
# _framework density 18.090966000000002
#
# number of rings (size 3 to 8) (size 9 to 14) (size 15 to 20)
#    0.000    1.857    2.857    3.429    0.000    0.571 
#    0.000    0.000    0.000    7.714    0.000    0.000 
#    0.000    0.000    0.000    0.000    0.000    0.000 
#
# Total GULP energy -347123.412487 kJ/mol
# GULP energy per Si atom -12397.264732 kJ/mol
# Density = 1.804979 g / cm^3
# Si number density = 18.090966 Si / 1000 Ang^3
#
#
#
# Elastic Constant Matrix: (Units=GPa)
#
#
# Indices 1 2 3 4 5 6 
#
# 1 113.2818 59.9303 45.3819 0.0000 -2.2660 0.0000
# 2 59.9303 134.7269 36.7581 0.0000 -5.6177 0.0000
# 3 45.3819 36.7581 75.3563 0.0000 5.9893 0.0000
# 4 0.0000 0.0000 0.0000 13.9888 0.0000 0.7709
# 5 -2.2660 -5.6177 5.9893 0.0000 35.4767 0.0000
# 6 0.0000 0.0000 0.0000 0.7709 0.0000 25.7470
#
#
#
# Elastic Compliance Matrix: (Units=1/GPa)
#
#
# Indices 1 2 3 4 5 6 
#
# 1 0.013616 -0.004316 -0.006193 0.000000 0.001232 0.000000
# 2 -0.004316 0.010085 -0.002458 0.000000 0.001736 0.000000
# 3 -0.006193 -0.002458 0.018510 0.000000 -0.003910 0.000000
# 4 0.000000 0.000000 0.000000 0.071604 0.000000 -0.002144
# 5 0.001232 0.001736 -0.003910 0.000000 0.029201 0.000000
# 6 0.000000 0.000000 0.000000 -0.002144 0.000000 0.038904
#
#
# Mechanical properties :
#
#
# Convention : Reuss Voigt Hill
#
# Bulk Modulus (GPa) = 61.43567 67.50063 64.46815
# Shear Modulus (GPa) = 23.44334 27.12882 25.28608
#
# Velocity S-wave (km/s) = 3.60371 3.87664 3.74266
# Velocity P-wave (km/s) = 7.16580 7.57830 7.37493
#
# Compressibility (1/GPa) = 0.01627719
#
# Stress axis : x y z
#
# Youngs Moduli (GPa) = 73.44073 99.15305 54.02569
#
# Poissons Ratio (x) = 0.42794 0.33457
# Poissons Ratio (y) = 0.31697 0.13281
# Poissons Ratio (z) = 0.45481 0.24375
#
# Static dielectric constant tensor:
#      x y z
#    x 3.330230 0.000000 0.122080 
#    y 0.000000 3.689990 0.000000 
#    z 0.122080 0.000000 3.146080 
# 
# 
# High freq. dielectric constant tensor:
#      x y z
#    x 1.691790 0.000000 0.015540 
#    y 0.000000 1.704310 0.000000 
#    z 0.015540 0.000000 1.678990 
# 
# From -- ./inp_files/75515.got.cif
#   From: 2010.06.25/outbox.cif.g09.slc.cpg/sg10_38_cif.got.tgz:75515.got - 2010.06.27 22:07:45.
