data_PCOD8060828
_publ_section_title
;
Structure prediction by ZEFSAII (Michael W. Deem and Ramdas Pophale) SiO2 
 PCOD8060828
Probable space group: P 2/M
;
_chemical_formula_sum "Si O2"
_cell_formula_units_Z 28
_cell_length_a 29.345805
_cell_length_b 8.944624
_cell_length_c 12.202575
_cell_angle_alpha 90.000000
_cell_angle_beta 151.299200
_cell_angle_gamma 90.000000
_cell_volume 1538.204524
_symmetry_space_group_name_H-M "P 2/M"
_symmetry_group_IT_number 10
_symmetry_cell_setting 'monoclinic'
loop_
_space_group_symop_operation_xyz
x,y,z
-x,y,-z
-x,-y,-z
x,-y,z
loop_
_atom_site_type_symbol
_atom_site_label
_atom_site_fract_x
_atom_site_fract_y
_atom_site_fract_z
Si Si1 0.740288 0.177632 0.335724
Si Si2 0.042166 0.171529 0.802755
Si Si3 0.656515 0.822682 0.555499
Si Si4 0.155034 0.675483 0.643829
Si Si5 0.190373 0.823018 0.287723
Si Si6 0.530631 0.822400 0.945978
Si Si7 0.206184 0.828172 0.971814
O O1 0.782084 0.250342 0.316564
O O2 0.803681 0.230392 0.573852
O O3 0.742366 0.000000 0.326831
O O4 0.633168 0.238415 0.126335
O O5 0.115289 0.190311 0.857780
O O6 0.953693 0.276473 0.594535
O O7 0.007305 0.000000 0.737075
O O8 0.091417 0.223193 0.021008
O O9 0.721238 0.754933 0.594182
O O10 0.547923 0.769370 0.309402
O O11 0.663038 0.000000 0.561509
O O12 0.699171 0.774710 0.763232
O O13 0.161665 0.500000 0.645295
O O14 0.197371 0.722388 0.849474
O O15 0.199500 0.000000 0.302054
O O16 0.535539 0.000000 0.963488
O O17 0.500000 0.758635 0.000000
O O18 0.214777 0.000000 0.951171
#
# Coordination Sequence:
#
# PCOD8060828 Si02
#       7
#     4   4   4   4   4   4   4
#     4  10  19  32  53  79 108 138 167 200 248 307
#     4   9  18  34  57  80 100 126 167 214 259 305
#     4   8  13  25  49  84 112 125 152 206 261 302
#     4  12  25  37  48  67 102 143 179 215 252 293
#     4   8  14  27  50  81 108 129 157 202 256 308
#     4   9  14  24  50  87 114 127 152 203 259 303
#     4   9  18  34  57  79 101 130 168 212 255 302
#
# _framework density 18.203040999999999
#
# number of rings (size 3 to 8) (size 9 to 14) (size 15 to 20)
#    0.000    2.714    1.429    3.429    0.000    2.857 
#    0.000    4.286    0.000    6.429    0.000    0.000 
#    0.000    0.000    0.000    0.000    0.000    0.000 
#
# Total GULP energy -347038.392595 kJ/mol
# GULP energy per Si atom -12394.228307 kJ/mol
# Density = 1.816161 g / cm^3
# Si number density = 18.203041 Si / 1000 Ang^3
#
#
#
# Elastic Constant Matrix: (Units=GPa)
#
#
# Indices 1 2 3 4 5 6 
#
# 1 92.3582 24.0034 41.8825 0.0000 -45.0601 0.0000
# 2 24.0034 33.5967 -5.3170 0.0000 -47.7251 0.0000
# 3 41.8825 -5.3170 -72.9794 0.0000 -295.4168 0.0000
# 4 0.0000 0.0000 0.0000 -1.0066 0.0000 -0.8278
# 5 -45.0601 -47.7251 -295.4168 0.0000 -320.3683 0.0000
# 6 0.0000 0.0000 0.0000 -0.8278 0.0000 -6.5664
#
#
#
# Elastic Compliance Matrix: (Units=1/GPa)
#
#
# Indices 1 2 3 4 5 6 
#
# 1 0.017412 -0.007620 -0.005806 0.000000 0.004040 0.000000
# 2 -0.007620 0.033455 -0.003303 0.000000 -0.000867 0.000000
# 3 -0.005806 -0.003303 0.008084 0.000000 -0.006146 0.000000
# 4 0.000000 0.000000 0.000000 -1.108303 0.000000 0.139711
# 5 0.004040 -0.000867 -0.006146 0.000000 0.002107 0.000000
# 6 0.000000 0.000000 0.000000 0.139711 0.000000 -0.169902
#
#
# Mechanical properties :
#
#
# Convention : Reuss Voigt Hill
#
# Bulk Modulus (GPa) = 39.22535 19.34592 29.28564
# Shear Modulus (GPa) = -4.25463 -66.09450 -35.17456
#
# Velocity S-wave (km/s) = -1.53049 -6.03228 -4.40061
# Velocity P-wave (km/s) = 4.29795 6.15361 3.11405
#
# Compressibility (1/GPa) = 0.02549372
#
# Stress axis : x y z
#
# Youngs Moduli (GPa) = 57.43253 29.89070 123.69951
#
# Poissons Ratio (x) = 0.22776 0.71821
# Poissons Ratio (y) = 0.43763 0.40855
# Poissons Ratio (z) = 0.33346 0.09872
#
# Static dielectric constant tensor:
#      x y z
#    x 3.313090 0.000000 -0.166690 
#    y 0.000000 2.819540 0.000000 
#    z -0.166690 0.000000 3.828190 
# 
# 
# High freq. dielectric constant tensor:
#      x y z
#    x 1.694020 0.000000 -0.011330 
#    y 0.000000 1.645890 0.000000 
#    z -0.011330 0.000000 1.724090 
# 
# From -- ./inp_files/57482.got.cif
#   From: 2010.06.25/outbox.cif.g09.slc.cpg/sg10_29_cif.got.tgz:57482.got - 2010.06.27 22:07:45.
