data_PCOD8060911
_publ_section_title
;
Structure prediction by ZEFSAII (Michael W. Deem and Ramdas Pophale) SiO2 
 PCOD8060911
Probable space group: P 2/M
;
_chemical_formula_sum "Si O2"
_cell_formula_units_Z 32
_cell_length_a 20.308574
_cell_length_b 9.011902
_cell_length_c 25.156446
_cell_angle_alpha 90.000000
_cell_angle_beta 22.666166
_cell_angle_gamma 90.000000
_cell_volume 1774.243262
_symmetry_space_group_name_H-M "P 2/M"
_symmetry_group_IT_number 10
_symmetry_cell_setting 'monoclinic'
loop_
_space_group_symop_operation_xyz
x,y,z
-x,y,-z
-x,-y,-z
x,-y,z
loop_
_atom_site_type_symbol
_atom_site_label
_atom_site_fract_x
_atom_site_fract_y
_atom_site_fract_z
Si Si1 0.333362 0.336997 0.160245
Si Si2 0.371365 0.324563 0.853600
Si Si3 0.154428 0.173809 0.846253
Si Si4 0.018109 0.324116 0.847056
Si Si5 0.857903 0.827048 0.352098
Si Si6 0.553277 0.676856 0.086774
Si Si7 0.876060 0.322672 0.778561
Si Si8 0.480639 0.171230 0.668912
O O1 0.265082 0.500000 0.226124
O O2 0.394491 0.255576 0.169631
O O3 0.184721 0.262151 0.234781
O O4 0.500000 0.352621 0.000000
O O5 0.381477 0.500000 0.842916
O O6 0.456472 0.267222 0.845325
O O7 0.479200 0.257950 0.725335
O O8 0.174972 0.271747 0.997094
O O9 0.139783 0.264025 0.802720
O O10 0.329644 0.226720 0.742976
O O11 0.155071 0.000000 0.832207
O O12 0.000000 0.216827 0.000000
O O13 0.031549 0.500000 0.833293
O O14 0.078785 0.258022 0.746581
O O15 0.656837 0.798845 0.507677
O O16 0.949529 0.759821 0.336036
O O17 0.900689 0.000000 0.315070
O O18 0.541523 0.500000 0.091926
O O19 0.735600 0.724997 0.926971
O O20 0.902115 0.500000 0.758454
O O21 0.453212 0.000000 0.703340
#
# Coordination Sequence:
#
# PCOD8060911 Si02
#       8
#     4   4   4   4   4   4   4   4
#     4   7  11  20  42  73 103 134 166 206 259 307
#     4  10  19  32  54  81 107 134 169 217 264 306
#     4  10  20  37  60  80 102 137 176 216 260 310
#     4  11  22  36  57  84 109 134 170 217 263 312
#     4  11  23  37  53  75 107 145 178 213 257 310
#     4   8  13  25  46  77 108 132 166 213 262 308
#     4   9  15  28  50  76 105 136 172 215 260 307
#     4  10  23  40  55  75 104 139 180 216 255 313
#
# _framework density 18.035858000000001
#
# number of rings (size 3 to 8) (size 9 to 14) (size 15 to 20)
#    0.000    2.500    2.500    2.250    0.000    2.750 
#    0.000    2.500    0.000    4.875    0.000    5.250 
#    0.000    0.000    0.000    0.000    0.000    0.000 
#
# Total GULP energy -396598.913005 kJ/mol
# GULP energy per Si atom -12393.716031 kJ/mol
# Density = 1.799481 g / cm^3
# Si number density = 18.035858 Si / 1000 Ang^3
#
#
#
# Elastic Constant Matrix: (Units=GPa)
#
#
# Indices 1 2 3 4 5 6 
#
# 1 141.8878 35.1955 31.3669 0.0000 -19.2931 0.0000
# 2 35.1955 40.8388 24.1755 0.0000 -2.6037 0.0000
# 3 31.3669 24.1755 52.6024 0.0000 -10.7036 0.0000
# 4 0.0000 0.0000 0.0000 22.6739 0.0000 0.5328
# 5 -19.2931 -2.6037 -10.7036 0.0000 26.3994 0.0000
# 6 0.0000 0.0000 0.0000 0.5328 0.0000 8.0327
#
#
#
# Elastic Compliance Matrix: (Units=1/GPa)
#
#
# Indices 1 2 3 4 5 6 
#
# 1 0.010012 -0.007470 -0.001306 0.000000 0.006051 0.000000
# 2 -0.007470 0.039464 -0.015261 0.000000 -0.007754 0.000000
# 3 -0.001306 -0.015261 0.028668 0.000000 0.009164 0.000000
# 4 0.000000 0.000000 0.000000 0.044172 0.000000 -0.002930
# 5 0.006051 -0.007754 0.009164 0.000000 0.045252 0.000000
# 6 0.000000 0.000000 0.000000 -0.002930 0.000000 0.124686
#
#
# Mechanical properties :
#
#
# Convention : Reuss Voigt Hill
#
# Bulk Modulus (GPa) = 33.25516 46.31164 39.78340
# Shear Modulus (GPa) = 14.27145 21.06061 17.66603
#
# Velocity S-wave (km/s) = 2.81602 3.42088 3.13308
# Velocity P-wave (km/s) = 5.38996 6.42935 5.93246
#
# Compressibility (1/GPa) = 0.03007052
#
# Stress axis : x y z
#
# Youngs Moduli (GPa) = 99.87834 25.33980 34.88261
#
# Poissons Ratio (x) = 0.18928 0.04556
# Poissons Ratio (y) = 0.74607 0.53233
# Poissons Ratio (z) = 0.13045 0.38670
#
# Static dielectric constant tensor:
#      x y z
#    x 3.794050 0.000000 -0.265060 
#    y 0.000000 3.023630 0.000000 
#    z -0.265060 0.000000 3.115030 
# 
# 
# High freq. dielectric constant tensor:
#      x y z
#    x 1.721690 0.000000 -0.015190 
#    y 0.000000 1.666210 0.000000 
#    z -0.015190 0.000000 1.667400 
# 
# From -- ./inp_files/93591.got.cif
#   From: 2010.06.25/outbox.cif.g09.slc.cpg/sg10_47_cif.got.tgz:93591.got - 2010.06.27 22:07:45.
