data_PCOD8060203
_publ_section_title
;
Structure prediction by ZEFSAII (Michael W. Deem and Ramdas Pophale) SiO2 
 PCOD8060203
Probable space group: P 2/M
;
_chemical_formula_sum "Si O2"
_cell_formula_units_Z 32
_cell_length_a 20.148731
_cell_length_b 8.665348
_cell_length_c 25.186076
_cell_angle_alpha 90.000000
_cell_angle_beta 22.772918
_cell_angle_gamma 90.000000
_cell_volume 1702.137860
_symmetry_space_group_name_H-M "P 2/M"
_symmetry_group_IT_number 10
_symmetry_cell_setting 'monoclinic'
loop_
_space_group_symop_operation_xyz
x,y,z
-x,y,-z
-x,-y,-z
x,-y,z
loop_
_atom_site_type_symbol
_atom_site_label
_atom_site_fract_x
_atom_site_fract_y
_atom_site_fract_z
Si Si1 0.328144 0.173511 0.160637
Si Si2 0.361786 0.182088 0.873154
Si Si3 0.151527 0.179109 0.846747
Si Si4 0.009747 0.320137 0.848085
Si Si5 0.840944 0.818493 0.365948
Si Si6 0.526162 0.680055 0.103588
Si Si7 0.862233 0.320377 0.789327
Si Si8 0.471003 0.182558 0.678222
O O1 0.368006 0.240917 0.189368
O O2 0.185084 0.275342 0.236181
O O3 0.258893 0.000000 0.217486
O O4 0.500000 0.180173 0.000000
O O5 0.473722 0.260962 0.836434
O O6 0.432978 0.248220 0.765001
O O7 0.383733 0.000000 0.861979
O O8 0.162592 0.221391 0.025196
O O9 0.121417 0.281891 0.817263
O O10 0.326947 0.241178 0.743425
O O11 0.163422 0.000000 0.821159
O O12 0.000000 0.205016 0.000000
O O13 0.962363 0.500000 0.881205
O O14 0.120330 0.277099 0.715315
O O15 0.655679 0.761726 0.522508
O O16 0.975549 0.780035 0.312875
O O17 0.843305 0.000000 0.351852
O O18 0.492610 0.500000 0.126483
O O19 0.707412 0.722716 0.943086
O O20 0.907716 0.500000 0.758672
O O21 0.458160 0.000000 0.691055
#
# Coordination Sequence:
#
# PCOD8060203 Si02
#       8
#     4   4   4   4   4   4   4   4
#     4   9  17  29  48  77 110 147 191 229 272 329
#     4  11  20  36  60  84 110 146 191 236 280 331
#     4  10  19  38  64  85 109 144 187 234 283 334
#     4  12  24  37  55  85 117 147 186 230 281 336
#     4  11  22  38  59  82 112 150 191 232 277 333
#     4  10  19  31  50  81 117 146 181 232 283 330
#     4  10  19  32  51  78 115 150 183 228 282 333
#     4   9  21  39  60  86 110 141 189 238 281 332
#
# _framework density 18.799886000000001
#
# number of rings (size 3 to 8) (size 9 to 14) (size 15 to 20)
#    0.000    1.750    2.500    3.000    0.000    3.250 
#    0.000    6.250    0.000    0.750    0.000    5.250 
#    0.000    0.000    0.000    0.000    0.000    0.000 
#
# Total GULP energy -396909.893465 kJ/mol
# GULP energy per Si atom -12403.434171 kJ/mol
# Density = 1.875710 g / cm^3
# Si number density = 18.799886 Si / 1000 Ang^3
#
#
#
# Elastic Constant Matrix: (Units=GPa)
#
#
# Indices 1 2 3 4 5 6 
#
# 1 143.8290 15.9167 38.9769 0.0000 -8.0761 0.0000
# 2 15.9167 42.4609 15.5926 0.0000 -5.4109 0.0000
# 3 38.9769 15.5926 74.4138 0.0000 1.1353 0.0000
# 4 0.0000 0.0000 0.0000 9.9436 0.0000 -1.7093
# 5 -8.0761 -5.4109 1.1353 0.0000 23.1877 0.0000
# 6 0.0000 0.0000 0.0000 -1.7093 0.0000 21.9599
#
#
#
# Elastic Compliance Matrix: (Units=1/GPa)
#
#
# Indices 1 2 3 4 5 6 
#
# 1 0.008380 -0.001249 -0.004171 0.000000 0.002832 0.000000
# 2 -0.001249 0.026630 -0.005018 0.000000 0.006025 0.000000
# 3 -0.004171 -0.005018 0.016727 0.000000 -0.003443 0.000000
# 4 0.000000 0.000000 0.000000 0.101931 0.000000 0.007934
# 5 0.002832 0.006025 -0.003443 0.000000 0.045687 0.000000
# 6 0.000000 0.000000 0.000000 0.007934 0.000000 0.046155
#
#
# Mechanical properties :
#
#
# Convention : Reuss Voigt Hill
#
# Bulk Modulus (GPa) = 32.40260 44.63067 38.51664
# Shear Modulus (GPa) = 18.07197 23.69942 20.88570
#
# Velocity S-wave (km/s) = 3.10382 3.55437 3.33670
# Velocity P-wave (km/s) = 5.48797 6.37464 5.94785
#
# Compressibility (1/GPa) = 0.03086172
#
# Stress axis : x y z
#
# Youngs Moduli (GPa) = 119.32886 37.55218 59.78360
#
# Poissons Ratio (x) = 0.04690 0.24935
# Poissons Ratio (y) = 0.14903 0.29998
# Poissons Ratio (z) = 0.49771 0.18843
#
# Static dielectric constant tensor:
#      x y z
#    x 3.756440 0.000000 -0.081030 
#    y 0.000000 3.341400 0.000000 
#    z -0.081030 0.000000 3.262790 
# 
# 
# High freq. dielectric constant tensor:
#      x y z
#    x 1.748980 0.000000 -0.010740 
#    y 0.000000 1.726850 0.000000 
#    z -0.010740 0.000000 1.695150 
# 
# From -- ./inp_files/93590.got.cif
#   From: 2010.06.25/outbox.cif.g09.slc.cpg/sg10_47_cif.got.tgz:93590.got - 2010.06.27 22:07:45.
