data_PCOD8060666
_publ_section_title
;
Structure prediction by ZEFSAII (Michael W. Deem and Ramdas Pophale) SiO2 
 PCOD8060666
Probable space group: P 2/M
;
_chemical_formula_sum "Si O2"
_cell_formula_units_Z 24
_cell_length_a 17.641299
_cell_length_b 9.065165
_cell_length_c 23.885502
_cell_angle_alpha 90.000000
_cell_angle_beta 160.586045
_cell_angle_gamma 90.000000
_cell_volume 1269.666651
_symmetry_space_group_name_H-M "P 2/M"
_symmetry_group_IT_number 10
_symmetry_cell_setting 'monoclinic'
loop_
_space_group_symop_operation_xyz
x,y,z
-x,y,-z
-x,-y,-z
x,-y,z
loop_
_atom_site_type_symbol
_atom_site_label
_atom_site_fract_x
_atom_site_fract_y
_atom_site_fract_z
Si Si1 0.599765 0.662230 0.131284
Si Si2 0.044711 0.325245 0.384406
Si Si3 0.783383 0.333720 0.809074
Si Si4 0.813920 0.828427 0.120463
Si Si5 0.064964 0.830381 0.921010
Si Si6 0.509294 0.173076 0.706385
O O1 0.586735 0.500000 0.150539
O O2 0.862784 0.713195 0.307017
O O3 0.500000 0.652277 0.000000
O O4 0.451159 0.776501 0.064009
O O5 0.072800 0.500000 0.397215
O O6 0.279440 0.251305 0.566820
O O7 0.965452 0.261145 0.269691
O O8 0.695920 0.500000 0.738830
O O9 0.582286 0.238189 0.696860
O O10 0.856291 0.264798 0.800349
O O11 0.000000 0.328413 0.000000
O O12 0.918637 0.796068 0.132899
O O13 0.820278 0.000000 0.140325
O O14 0.007882 0.000000 0.893519
O O15 0.303600 0.788919 0.116477
O O16 0.467718 0.000000 0.670370
#
# Coordination Sequence:
#
# PCOD8060666 Si02
#       6
#     4   4   4   4   4   4
#     4   8  16  31  49  69  96 130 165 201 241 287
#     4  10  20  34  51  73 101 130 164 205 245 289
#     4   9  17  30  50  74  98 128 165 200 238 290
#     4  10  19  32  52  76 100 128 164 203 243 291
#     4   9  19  34  51  74 102 130 162 201 244 290
#     4  10  19  33  53  74  99 131 164 201 245 290
#
# _framework density 18.902598999999999
#
# number of rings (size 3 to 8) (size 9 to 14) (size 15 to 20)
#    0.000    2.667    0.000    3.000    0.000    7.667 
#    0.000    1.667    0.000   10.000    0.000    0.000 
#    0.000    0.000    0.000    0.000    0.000    0.000 
#
# Total GULP energy -297568.405830 kJ/mol
# GULP energy per Si atom -12398.683576 kJ/mol
# Density = 1.885958 g / cm^3
# Si number density = 18.902599 Si / 1000 Ang^3
#
#
#
# Elastic Constant Matrix: (Units=GPa)
#
#
# Indices 1 2 3 4 5 6 
#
# 1 21.9062 7.9194 -14.4799 0.0000 -2.8891 0.0000
# 2 7.9194 82.4876 8.5510 0.0000 1.1755 0.0000
# 3 -14.4799 8.5510 31.0720 0.0000 7.9199 0.0000
# 4 0.0000 0.0000 0.0000 28.1979 0.0000 11.3401
# 5 -2.8891 1.1755 7.9199 0.0000 20.8254 0.0000
# 6 0.0000 0.0000 0.0000 11.3401 0.0000 29.5396
#
#
#
# Elastic Compliance Matrix: (Units=1/GPa)
#
#
# Indices 1 2 3 4 5 6 
#
# 1 0.074952 -0.011182 0.038972 0.000000 -0.003792 0.000000
# 2 -0.011182 0.014156 -0.009421 0.000000 0.001232 0.000000
# 3 0.038972 -0.009421 0.056943 0.000000 -0.015717 0.000000
# 4 0.000000 0.000000 0.000000 0.041938 0.000000 -0.016100
# 5 -0.003792 0.001232 -0.015717 0.000000 0.053400 0.000000
# 6 0.000000 0.000000 0.000000 -0.016100 0.000000 0.040034
#
#
# Mechanical properties :
#
#
# Convention : Reuss Voigt Hill
#
# Bulk Modulus (GPa) = 5.47076 15.49410 10.48243
# Shear Modulus (GPa) = 16.36053 24.61094 20.48574
#
# Velocity S-wave (km/s) = 2.94516 3.61222 3.29561
# Velocity P-wave (km/s) = 3.80339 5.06084 4.47649
#
# Compressibility (1/GPa) = 0.18279004
#
# Stress axis : x y z
#
# Youngs Moduli (GPa) = 13.34190 70.64342 17.56129
#
# Poissons Ratio (x) = 0.78993 -0.68440
# Poissons Ratio (y) = 0.14919 0.16544
# Poissons Ratio (z) = -0.51996 0.66551
#
# Static dielectric constant tensor:
#      x y z
#    x 3.485920 0.000000 0.402850 
#    y 0.000000 3.591650 0.000000 
#    z 0.402850 0.000000 3.382790 
# 
# 
# High freq. dielectric constant tensor:
#      x y z
#    x 1.725390 0.000000 0.026410 
#    y 0.000000 1.744570 0.000000 
#    z 0.026410 0.000000 1.709840 
# 
# From -- ./inp_files/38098.got.cif
#   From: 2010.06.25/outbox.cif.g09.slc.cpg/sg10_20_cif.got.tgz:38098.got - 2010.06.27 22:07:45.
