data_PCOD8060853
_publ_section_title
;
Structure prediction by ZEFSAII (Michael W. Deem and Ramdas Pophale) SiO2 
 PCOD8060853
Probable space group: P 2/M
;
_chemical_formula_sum "Si O2"
_cell_formula_units_Z 32
_cell_length_a 14.375964
_cell_length_b 9.352787
_cell_length_c 23.374928
_cell_angle_alpha 90.000000
_cell_angle_beta 148.067624
_cell_angle_gamma 90.000000
_cell_volume 1662.327656
_symmetry_space_group_name_H-M "P 2/M"
_symmetry_group_IT_number 10
_symmetry_cell_setting 'monoclinic'
loop_
_space_group_symop_operation_xyz
x,y,z
-x,y,-z
-x,-y,-z
x,-y,z
loop_
_atom_site_type_symbol
_atom_site_label
_atom_site_fract_x
_atom_site_fract_y
_atom_site_fract_z
Si Si1 0.529613 0.833515 0.687077
Si Si2 0.071400 0.162430 0.100554
Si Si3 0.922218 0.333842 0.401229
Si Si4 0.978329 0.670812 0.671145
Si Si5 0.773829 0.669398 0.000035
Si Si6 0.454789 0.334273 0.755982
Si Si7 0.634635 0.832572 0.520406
Si Si8 0.310759 0.330372 0.918094
O O1 0.730388 0.781564 0.793319
O O2 0.424041 0.748852 0.680705
O O3 0.452764 0.794971 0.585548
O O4 0.514367 0.000000 0.693369
O O5 0.961186 0.263609 0.084056
O O6 0.058351 0.000000 0.116060
O O7 0.000000 0.177300 0.000000
O O8 0.969742 0.500000 0.427304
O O9 0.712594 0.309339 0.290353
O O10 0.000000 0.261860 0.500000
O O11 0.007689 0.272283 0.387372
O O12 0.956005 0.500000 0.662675
O O13 0.815272 0.743984 0.618698
O O14 0.156799 0.721705 0.795462
O O15 0.789627 0.500000 0.005685
O O16 0.726229 0.725083 0.037732
O O17 0.625299 0.724303 0.878348
O O18 0.475761 0.500000 0.751496
O O19 0.500000 0.784345 0.500000
O O20 0.678267 0.000000 0.549183
O O21 0.320500 0.500000 0.921469
O O22 0.500000 0.264890 0.000000
#
# Coordination Sequence:
#
# PCOD8060853 Si02
#       8
#     4   4   4   4   4   4   4   4
#     4  10  21  37  55  76 105 142 182 221 269 325
#     4  10  20  35  54  76 104 140 179 220 268 325
#     4   9  17  30  51  78 106 134 170 215 265 314
#     4  10  20  36  59  84 110 144 187 229 267 319
#     4  10  20  32  51  80 109 137 175 218 267 319
#     4  10  19  32  53  81 109 138 171 216 267 320
#     4  10  23  41  58  77 107 147 186 227 278 328
#     4   9  18  34  56  83 116 149 179 219 274 329
#
# _framework density 19.250115000000001
#
# number of rings (size 3 to 8) (size 9 to 14) (size 15 to 20)
#    0.000    2.250    1.250    1.500    1.750    5.500 
#    0.000    0.625    0.000    5.250    0.000    0.000 
#    0.000    0.000    0.000    0.000    0.000    0.000 
#
# Total GULP energy -396805.610521 kJ/mol
# GULP energy per Si atom -12400.175329 kJ/mol
# Density = 1.920630 g / cm^3
# Si number density = 19.250115 Si / 1000 Ang^3
#
#
#
# Elastic Constant Matrix: (Units=GPa)
#
#
# Indices 1 2 3 4 5 6 
#
# 1 139.9262 35.3152 46.3279 0.0000 -1.6399 0.0000
# 2 35.3152 28.3744 24.1236 0.0000 1.0860 0.0000
# 3 46.3279 24.1236 107.3707 0.0000 2.8129 0.0000
# 4 0.0000 0.0000 0.0000 18.2097 0.0000 -6.0029
# 5 -1.6399 1.0860 2.8129 0.0000 34.2635 0.0000
# 6 0.0000 0.0000 0.0000 -6.0029 0.0000 -15.5206
#
#
#
# Elastic Compliance Matrix: (Units=1/GPa)
#
#
# Indices 1 2 3 4 5 6 
#
# 1 0.010801 -0.011740 -0.002050 0.000000 0.001057 0.000000
# 2 -0.011740 0.056338 -0.007547 0.000000 -0.001728 0.000000
# 3 -0.002050 -0.007547 0.011916 0.000000 -0.000837 0.000000
# 4 0.000000 0.000000 0.000000 0.048706 0.000000 -0.018838
# 5 0.001057 -0.001728 -0.000837 0.000000 0.029360 0.000000
# 6 0.000000 0.000000 0.000000 -0.018838 0.000000 -0.057144
#
#
# Mechanical properties :
#
#
# Convention : Reuss Voigt Hill
#
# Bulk Modulus (GPa) = 27.48804 54.13384 40.81094
# Shear Modulus (GPa) = 32.30464 18.71747 25.51105
#
# Velocity S-wave (km/s) = 4.10097 3.12160 3.64434
# Velocity P-wave (km/s) = 6.06089 6.41677 6.24136
#
# Compressibility (1/GPa) = 0.03637946
#
# Stress axis : x y z
#
# Youngs Moduli (GPa) = 92.58479 17.75014 83.92310
#
# Poissons Ratio (x) = 0.20839 0.17206
# Poissons Ratio (y) = 1.08698 0.63335
# Poissons Ratio (z) = 0.18982 0.13396
#
# Static dielectric constant tensor:
#      x y z
#    x 3.711330 0.000000 0.040030 
#    y 0.000000 3.120550 0.000000 
#    z 0.040030 0.000000 3.754070 
# 
# 
# High freq. dielectric constant tensor:
#      x y z
#    x 1.760180 0.000000 0.001590 
#    y 0.000000 1.705680 0.000000 
#    z 0.001590 0.000000 1.762230 
# 
# From -- ./inp_files/66451.got.cif
#   From: 2010.06.25/outbox.cif.g09.slc.cpg/sg10_34_cif.got.tgz:66451.got - 2010.06.27 22:07:45.
