data_PCOD8060581
_publ_section_title
;
Structure prediction by ZEFSAII (Michael W. Deem and Ramdas Pophale) SiO2 
 PCOD8060581
Probable space group: P 2/M
;
_chemical_formula_sum "Si O2"
_cell_formula_units_Z 32
_cell_length_a 19.950979
_cell_length_b 13.754224
_cell_length_c 17.860315
_cell_angle_alpha 90.000000
_cell_angle_beta 158.485787
_cell_angle_gamma 90.000000
_cell_volume 1797.373139
_symmetry_space_group_name_H-M "P 2/M"
_symmetry_group_IT_number 10
_symmetry_cell_setting 'monoclinic'
loop_
_space_group_symop_operation_xyz
x,y,z
-x,y,-z
-x,-y,-z
x,-y,z
loop_
_atom_site_type_symbol
_atom_site_label
_atom_site_fract_x
_atom_site_fract_y
_atom_site_fract_z
Si Si1 0.920807 0.605625 0.335534
Si Si2 0.503871 0.390930 0.089600
Si Si3 0.663426 0.200407 0.324594
Si Si4 0.621831 0.111514 0.432516
Si Si5 0.957706 0.887118 0.875495
Si Si6 0.948161 0.194624 0.311478
Si Si7 0.795271 0.113092 0.000874
Si Si8 0.368704 0.888061 0.929584
O O1 0.994090 0.500000 0.385568
O O2 0.986845 0.689727 0.348880
O O3 0.000000 0.627594 0.500000
O O4 0.704116 0.607853 0.102126
O O5 0.589896 0.500000 0.187711
O O6 0.618843 0.312494 0.256877
O O7 0.500000 0.357159 0.000000
O O8 0.693840 0.187490 0.444777
O O9 0.842819 0.155381 0.468515
O O10 0.491445 0.129525 0.130245
O O11 0.745129 0.129415 0.634250
O O12 0.647735 0.000000 0.431419
O O13 0.413831 0.132658 0.238562
O O14 0.084222 0.842292 0.941220
O O15 0.009540 0.000000 0.934894
O O16 0.000000 0.837455 0.000000
O O17 0.842176 0.164873 0.127245
O O18 0.827354 0.165105 0.259744
O O19 0.838257 0.000000 0.058239
O O20 0.324592 0.000000 0.869444
O O21 0.500000 0.844100 0.000000
#
# Coordination Sequence:
#
# PCOD8060581 Si02
#       8
#     4   4   4   4   4   4   4   4
#     4  10  21  36  55  78 103 134 175 224 276 327
#     4  10  20  36  55  76 105 136 172 222 278 326
#     4  12  22  34  56  77 102 140 178 223 270 316
#     4  10  19  32  51  74 104 141 176 214 260 312
#     4   9  18  32  50  76 106 135 174 218 261 314
#     4  12  23  34  57  76 101 139 181 221 268 322
#     4  10  19  33  52  74 103 141 179 212 258 315
#     4  11  25  40  51  71 103 138 184 230 264 307
#
# _framework density 17.80376
#
# number of rings (size 3 to 8) (size 9 to 14) (size 15 to 20)
#    0.000    1.500    3.750    1.875    1.750    3.500 
#    0.000    3.750    0.000    0.000    0.000    0.000 
#    0.000    2.000    0.000    5.250    0.000    0.250 
#
# Total GULP energy -396515.735807 kJ/mol
# GULP energy per Si atom -12391.116744 kJ/mol
# Density = 1.776324 g / cm^3
# Si number density = 17.803760 Si / 1000 Ang^3
#
#
#
# Elastic Constant Matrix: (Units=GPa)
#
#
# Indices 1 2 3 4 5 6 
#
# 1 66.4848 30.4031 28.2782 0.0000 1.9665 0.0000
# 2 30.4031 78.9603 32.7910 0.0000 -9.4352 0.0000
# 3 28.2782 32.7910 103.2899 0.0000 12.4047 0.0000
# 4 0.0000 0.0000 0.0000 17.7658 0.0000 0.9258
# 5 1.9665 -9.4352 12.4047 0.0000 33.3179 0.0000
# 6 0.0000 0.0000 0.0000 0.9258 0.0000 8.0529
#
#
#
# Elastic Compliance Matrix: (Units=1/GPa)
#
#
# Indices 1 2 3 4 5 6 
#
# 1 0.019310 -0.006390 -0.003040 0.000000 -0.001818 0.000000
# 2 -0.006390 0.018005 -0.004841 0.000000 0.007278 0.000000
# 3 -0.003040 -0.004841 0.012764 0.000000 -0.005944 0.000000
# 4 0.000000 0.000000 0.000000 0.056627 0.000000 -0.006510
# 5 -0.001818 0.007278 -0.005944 0.000000 0.034395 0.000000
# 6 0.000000 0.000000 0.000000 -0.006510 0.000000 0.124927
#
#
# Mechanical properties :
#
#
# Convention : Reuss Voigt Hill
#
# Bulk Modulus (GPa) = 46.42860 47.96439 47.19650
# Shear Modulus (GPa) = 16.57012 22.31151 19.44082
#
# Velocity S-wave (km/s) = 3.05406 3.54388 3.30805
# Velocity P-wave (km/s) = 6.21055 6.61397 6.41543
#
# Compressibility (1/GPa) = 0.02153845
#
# Stress axis : x y z
#
# Youngs Moduli (GPa) = 51.78738 55.54043 78.34408
#
# Poissons Ratio (x) = 0.35490 0.23814
# Poissons Ratio (y) = 0.33092 0.37923
# Poissons Ratio (z) = 0.15742 0.26885
#
# Static dielectric constant tensor:
#      x y z
#    x 3.287170 0.000000 0.160410 
#    y 0.000000 3.280330 0.000000 
#    z 0.160410 0.000000 3.403180 
# 
# 
# High freq. dielectric constant tensor:
#      x y z
#    x 1.665080 0.000000 0.025390 
#    y 0.000000 1.657780 0.000000 
#    z 0.025390 0.000000 1.705010 
# 
# From -- ./inp_files/79729.got.cif
#   From: 2010.06.25/outbox.cif.g09.slc.cpg/sg10_40_cif.got.tgz:79729.got - 2010.06.27 22:07:45.
