data_PCOD8060641
_publ_section_title
;
Structure prediction by ZEFSAII (Michael W. Deem and Ramdas Pophale) SiO2 
 PCOD8060641
Probable space group: P 2/M
;
_chemical_formula_sum "Si O2"
_cell_formula_units_Z 28
_cell_length_a 20.485747
_cell_length_b 8.976061
_cell_length_c 18.000688
_cell_angle_alpha 90.000000
_cell_angle_beta 27.538134
_cell_angle_gamma 90.000000
_cell_volume 1530.337128
_symmetry_space_group_name_H-M "P 2/M"
_symmetry_group_IT_number 10
_symmetry_cell_setting 'monoclinic'
loop_
_space_group_symop_operation_xyz
x,y,z
-x,y,-z
-x,-y,-z
x,-y,z
loop_
_atom_site_type_symbol
_atom_site_label
_atom_site_fract_x
_atom_site_fract_y
_atom_site_fract_z
Si Si1 0.160028 0.671844 0.398440
Si Si2 0.335356 0.668301 0.648847
Si Si3 0.606522 0.824953 0.554525
Si Si4 0.217543 0.328160 0.501918
Si Si5 0.863818 0.172252 0.714675
Si Si6 0.079821 0.173718 0.181268
Si Si7 0.288982 0.825571 0.840702
O O1 0.115525 0.500000 0.434193
O O2 0.255392 0.691387 0.375876
O O3 0.230761 0.731846 0.249508
O O4 0.025322 0.776652 0.544950
O O5 0.500000 0.677605 0.500000
O O6 0.282080 0.500000 0.693575
O O7 0.304871 0.755058 0.603141
O O8 0.251394 0.743577 0.801598
O O9 0.665446 0.763907 0.572346
O O10 0.442873 0.778565 0.715278
O O11 0.628085 0.000000 0.529541
O O12 0.225341 0.500000 0.517740
O O13 0.060906 0.271133 0.678119
O O14 0.825386 0.201783 0.839925
O O15 0.847098 0.000000 0.710949
O O16 0.037276 0.000000 0.219510
O O17 0.174443 0.224280 0.016607
O O18 0.284313 0.000000 0.829518
#
# Coordination Sequence:
#
# PCOD8060641 Si02
#       7
#     4   4   4   4   4   4   4
#     4   9  16  26  41  62  90 122 154 190 230 271
#     4   9  17  30  49  72  96 122 155 194 232 274
#     4  10  19  32  52  73  94 124 159 194 234 279
#     4  10  20  32  47  70  99 127 157 195 237 280
#     4   9  15  24  42  66  90 118 153 191 229 271
#     4   9  18  32  49  71  99 126 154 193 238 281
#     4   9  18  33  52  73  96 123 157 194 233 280
#
# _framework density 18.296621999999999
#
# number of rings (size 3 to 8) (size 9 to 14) (size 15 to 20)
#    0.000    2.714    0.000    3.000    0.000    5.143 
#    0.000    0.714    0.000    5.143    0.000    6.000 
#    0.000    0.000    0.000    0.000    0.000    0.000 
#
# Total GULP energy -347003.023086 kJ/mol
# GULP energy per Si atom -12392.965110 kJ/mol
# Density = 1.825498 g / cm^3
# Si number density = 18.296622 Si / 1000 Ang^3
#
#
#
# Elastic Constant Matrix: (Units=GPa)
#
#
# Indices 1 2 3 4 5 6 
#
# 1 65.6259 22.5876 -14.0882 0.0000 -1.3297 0.0000
# 2 22.5876 64.0057 1.8214 0.0000 -1.4537 0.0000
# 3 -14.0882 1.8214 15.1867 0.0000 -0.3131 0.0000
# 4 0.0000 0.0000 0.0000 16.0733 0.0000 5.5861
# 5 -1.3297 -1.4537 -0.3131 0.0000 15.1103 0.0000
# 6 0.0000 0.0000 0.0000 5.5861 0.0000 35.8872
#
#
#
# Elastic Compliance Matrix: (Units=1/GPa)
#
#
# Indices 1 2 3 4 5 6 
#
# 1 0.023127 -0.008765 0.022540 0.000000 0.001659 0.000000
# 2 -0.008765 0.019032 -0.010396 0.000000 0.000844 0.000000
# 3 0.022540 -0.010396 0.088062 0.000000 0.002808 0.000000
# 4 0.000000 0.000000 0.000000 0.065773 0.000000 -0.010238
# 5 0.001659 0.000844 0.002808 0.000000 0.066466 0.000000
# 6 0.000000 0.000000 0.000000 -0.010238 0.000000 0.029459
#
#
# Mechanical properties :
#
#
# Convention : Reuss Voigt Hill
#
# Bulk Modulus (GPa) = 7.30051 18.38441 12.84246
# Shear Modulus (GPa) = 15.11393 22.38065 18.74729
#
# Velocity S-wave (km/s) = 2.87723 3.50124 3.20446
# Velocity P-wave (km/s) = 3.87771 5.13952 4.55255
#
# Compressibility (1/GPa) = 0.13697672
#
# Stress axis : x y z
#
# Youngs Moduli (GPa) = 43.23924 52.54336 11.35570
#
# Poissons Ratio (x) = 0.46056 -0.25596
# Poissons Ratio (y) = 0.37900 0.11806
# Poissons Ratio (z) = -0.97460 0.54626
#
# Static dielectric constant tensor:
#      x y z
#    x 3.833850 0.000000 0.572340 
#    y 0.000000 3.430910 0.000000 
#    z 0.572340 0.000000 3.126640 
# 
# 
# High freq. dielectric constant tensor:
#      x y z
#    x 1.716900 0.000000 0.037240 
#    y 0.000000 1.720430 0.000000 
#    z 0.037240 0.000000 1.658470 
# 
# From -- ./inp_files/37912.got.cif
#   From: 2010.06.25/outbox.cif.g09.slc.cpg/sg10_19_cif.got.tgz:37912.got - 2010.06.27 22:07:45.
