data_PCOD8060103
_publ_section_title
;
Structure prediction by ZEFSAII (Michael W. Deem and Ramdas Pophale) SiO2 
 PCOD8060103
Probable space group: P 2/M
;
_chemical_formula_sum "Si O2"
_cell_formula_units_Z 32
_cell_length_a 22.609983
_cell_length_b 8.819884
_cell_length_c 14.729495
_cell_angle_alpha 90.000000
_cell_angle_beta 146.142226
_cell_angle_gamma 90.000000
_cell_volume 1636.477531
_symmetry_space_group_name_H-M "P 2/M"
_symmetry_group_IT_number 10
_symmetry_cell_setting 'monoclinic'
loop_
_space_group_symop_operation_xyz
x,y,z
-x,y,-z
-x,-y,-z
x,-y,z
loop_
_atom_site_type_symbol
_atom_site_label
_atom_site_fract_x
_atom_site_fract_y
_atom_site_fract_z
Si Si1 0.057129 0.823471 0.314367
Si Si2 0.894441 0.679056 0.810778
Si Si3 0.272097 0.330776 0.902304
Si Si4 0.650426 0.170898 0.737893
Si Si5 0.100613 0.821296 0.570967
Si Si6 0.156748 0.330517 0.944438
Si Si7 0.474159 0.320101 0.266403
Si Si8 0.324173 0.170066 0.433189
O O1 0.107108 0.728512 0.296229
O O2 0.100966 0.764203 0.467251
O O3 0.932349 0.795088 0.157023
O O4 0.080749 0.000000 0.328702
O O5 0.885835 0.500000 0.806485
O O6 0.789925 0.751117 0.721655
O O7 0.000000 0.735600 0.000000
O O8 0.279914 0.500000 0.871873
O O9 0.215308 0.224834 0.756472
O O10 0.198001 0.329803 0.895277
O O11 0.390325 0.271995 0.080240
O O12 0.558018 0.244542 0.679611
O O13 0.619288 0.165506 0.592919
O O14 0.673646 0.000000 0.803401
O O15 0.751840 0.279475 0.871650
O O16 0.000000 0.752487 0.500000
O O17 0.089876 0.000000 0.559317
O O18 0.117455 0.500000 0.921920
O O19 0.472626 0.500000 0.275771
O O20 0.593358 0.260791 0.395786
O O21 0.309072 0.000000 0.452224
#
# Coordination Sequence:
#
# PCOD8060103 Si02
#       8
#     4   4   4   4   4   4   4   4
#     4  11  22  36  56  82 114 151 191 235 283 337
#     4  11  25  43  62  84 112 150 194 238 284 334
#     4   9  19  33  51  79 113 149 184 223 275 334
#     4  10  20  33  52  80 113 147 187 233 283 338
#     4  10  20  34  54  84 118 151 187 228 282 342
#     4  10  19  31  49  77 112 149 188 227 276 336
#     4  10  21  36  55  82 114 149 189 232 283 340
#     4  11  23  38  57  81 109 146 191 237 286 337
#
# _framework density 19.554193999999999
#
# number of rings (size 3 to 8) (size 9 to 14) (size 15 to 20)
#    0.000    1.750    1.250    4.125    0.000   10.250 
#    0.000    0.000    0.000    0.750    0.000    5.250 
#    0.000    0.000    0.000    0.000    0.000    0.000 
#
# Total GULP energy -396659.586592 kJ/mol
# GULP energy per Si atom -12395.612081 kJ/mol
# Density = 1.950969 g / cm^3
# Si number density = 19.554194 Si / 1000 Ang^3
#
#
#
# Elastic Constant Matrix: (Units=GPa)
#
#
# Indices 1 2 3 4 5 6 
#
# 1 52.4920 31.5103 51.2213 0.0000 -6.2456 0.0000
# 2 31.5103 70.5909 33.0617 0.0000 -0.9163 0.0000
# 3 51.2213 33.0617 116.5464 0.0000 10.5344 0.0000
# 4 0.0000 0.0000 0.0000 20.5238 0.0000 -0.0823
# 5 -6.2456 -0.9163 10.5344 0.0000 29.7257 0.0000
# 6 0.0000 0.0000 0.0000 -0.0823 0.0000 26.1479
#
#
#
# Elastic Compliance Matrix: (Units=1/GPa)
#
#
# Indices 1 2 3 4 5 6 
#
# 1 0.045644 -0.011662 -0.018168 0.000000 0.015669 0.000000
# 2 -0.011662 0.019459 -0.000235 0.000000 -0.001767 0.000000
# 3 -0.018168 -0.000235 0.017539 0.000000 -0.010040 0.000000
# 4 0.000000 0.000000 0.000000 0.048725 0.000000 0.000153
# 5 0.015669 -0.001767 -0.010040 0.000000 0.040437 0.000000
# 6 0.000000 0.000000 0.000000 0.000153 0.000000 0.038244
#
#
# Mechanical properties :
#
#
# Convention : Reuss Voigt Hill
#
# Bulk Modulus (GPa) = 44.42129 52.35732 48.38930
# Shear Modulus (GPa) = 18.00620 23.53521 20.77070
#
# Velocity S-wave (km/s) = 3.03782 3.47304 3.26270
# Velocity P-wave (km/s) = 5.92206 6.55105 6.24448
#
# Compressibility (1/GPa) = 0.02251173
#
# Stress axis : x y z
#
# Youngs Moduli (GPa) = 21.90876 51.39038 57.01489
#
# Poissons Ratio (x) = 0.59931 1.03586
# Poissons Ratio (y) = 0.25550 0.01340
# Poissons Ratio (z) = 0.39804 0.01208
#
# Static dielectric constant tensor:
#      x y z
#    x 3.373910 0.000000 -0.014160 
#    y 0.000000 3.613570 0.000000 
#    z -0.014160 0.000000 3.693600 
# 
# 
# High freq. dielectric constant tensor:
#      x y z
#    x 1.724890 0.000000 0.004480 
#    y 0.000000 1.766650 0.000000 
#    z 0.004480 0.000000 1.769390 
# 
# From -- ./inp_files/71620.got.cif
#   From: 2010.06.25/outbox.cif.g09.slc.cpg/sg10_36_cif.got.tgz:71620.got - 2010.06.27 22:07:45.
