data_PCOD8060616
_publ_section_title
;
Structure prediction by ZEFSAII (Michael W. Deem and Ramdas Pophale) SiO2 
 PCOD8060616
Probable space group: P 2/M
;
_chemical_formula_sum "Si O2"
_cell_formula_units_Z 22
_cell_length_a 23.154373
_cell_length_b 8.209915
_cell_length_c 5.258555
_cell_angle_alpha 90.000000
_cell_angle_beta 81.843014
_cell_angle_gamma 90.000000
_cell_volume 989.514095
_symmetry_space_group_name_H-M "P 2/M"
_symmetry_group_IT_number 10
_symmetry_cell_setting 'monoclinic'
loop_
_space_group_symop_operation_xyz
x,y,z
-x,y,-z
-x,-y,-z
x,-y,z
loop_
_atom_site_type_symbol
_atom_site_label
_atom_site_fract_x
_atom_site_fract_y
_atom_site_fract_z
Si Si1 0.434398 0.693712 0.036705
Si Si2 0.067250 0.177774 0.530017
Si Si3 0.632308 0.693467 0.422194
Si Si4 0.821744 0.812995 0.827585
Si Si5 0.237007 0.808363 0.637584
Si Si6 0.961150 0.500000 0.268958
O O1 0.436222 0.500000 0.038360
O O2 0.400316 0.758374 0.305783
O O3 0.500000 0.764076 0.000000
O O4 0.402649 0.756710 0.802423
O O5 0.108230 0.206081 0.256813
O O6 0.077151 0.332759 0.710629
O O7 0.000000 0.169369 0.500000
O O8 0.084559 0.000000 0.644040
O O9 0.637079 0.500000 0.420838
O O10 0.695759 0.769302 0.371282
O O11 0.788543 0.731295 0.606703
O O12 0.802899 0.000000 0.853228
O O13 0.799805 0.730678 0.103216
O O14 0.226850 0.000000 0.635408
O O15 0.000000 0.500000 0.500000
O O16 0.000000 0.500000 0.000000
#
# Coordination Sequence:
#
# PCOD8060616 Si02
#       6
#     4   4   4   4   4   2
#     4   9  17  30  51  77 105 136 170 215 265 309
#     4   9  19  38  62  86 114 150 190 239 294 348
#     4  10  19  32  51  77 104 132 176 219 255 312
#     4   9  19  35  55  78 103 136 181 220 263 327
#     4  10  20  36  54  74 106 143 176 216 266 321
#     4  10  22  38  56  84 116 144 184 228 279 348
#
# _framework density 22.233135000000001
#
# number of rings (size 3 to 8) (size 9 to 14) (size 15 to 20)
#    0.000    2.545    0.000    1.636    0.000    5.455 
#    3.273    5.455    0.000    3.273    0.000    0.000 
#    0.000    0.000    0.000    0.000    0.000    0.000 
#
# Total GULP energy -272603.704618 kJ/mol
# GULP energy per Si atom -12391.077483 kJ/mol
# Density = 2.218253 g / cm^3
# Si number density = 22.233135 Si / 1000 Ang^3
#
#
#
# Elastic Constant Matrix: (Units=GPa)
#
#
# Indices 1 2 3 4 5 6 
#
# 1 133.0191 -11.8827 55.3963 0.0000 -15.9630 0.0000
# 2 -11.8827 82.6328 19.0114 0.0000 -9.9283 0.0000
# 3 55.3963 19.0114 190.2413 0.0000 -14.0338 0.0000
# 4 0.0000 0.0000 0.0000 12.8668 0.0000 -10.0561
# 5 -15.9630 -9.9283 -14.0338 0.0000 46.7437 0.0000
# 6 0.0000 0.0000 0.0000 -10.0561 0.0000 22.4614
#
#
#
# Elastic Compliance Matrix: (Units=1/GPa)
#
#
# Indices 1 2 3 4 5 6 
#
# 1 0.009180 0.002277 -0.002693 0.000000 0.002810 0.000000
# 2 0.002277 0.013200 -0.001757 0.000000 0.003054 0.000000
# 3 -0.002693 -0.001757 0.006260 0.000000 0.000586 0.000000
# 4 0.000000 0.000000 0.000000 0.119551 0.000000 0.053524
# 5 0.002810 0.003054 0.000586 0.000000 0.023178 0.000000
# 6 0.000000 0.000000 0.000000 0.053524 0.000000 0.068484
#
#
# Mechanical properties :
#
#
# Convention : Reuss Voigt Hill
#
# Bulk Modulus (GPa) = 41.16245 58.99371 50.07808
# Shear Modulus (GPa) = 19.81791 39.30559 29.56175
#
# Velocity S-wave (km/s) = 2.98882 4.20918 3.65036
# Velocity P-wave (km/s) = 5.51950 7.08623 6.35136
#
# Compressibility (1/GPa) = 0.02429399
#
# Stress axis : x y z
#
# Youngs Moduli (GPa) = 108.93156 75.75529 159.75410
#
# Poissons Ratio (x) = -0.17253 0.43029
# Poissons Ratio (y) = -0.24808 0.28069
# Poissons Ratio (z) = 0.29340 0.13310
#
# Static dielectric constant tensor:
#      x y z
#    x 3.929020 0.000000 -0.046270 
#    y 0.000000 4.500990 0.000000 
#    z -0.046270 0.000000 4.382100 
# 
# 
# High freq. dielectric constant tensor:
#      x y z
#    x 1.874420 0.000000 -0.013470 
#    y 0.000000 1.839980 0.000000 
#    z -0.013470 0.000000 1.884950 
# 
# From -- ./inp_files/11993.got.cif
#   From: 2010.06.25/outbox.cif.g09.slc.cpg/sg10_6_cif.got.tgz:11993.got - 2010.06.27 22:07:45.
