data_PCOD8060730
_publ_section_title
;
Structure prediction by ZEFSAII (Michael W. Deem and Ramdas Pophale) SiO2 
 PCOD8060730
Probable space group: P 2/M
;
_chemical_formula_sum "Si O2"
_cell_formula_units_Z 32
_cell_length_a 30.908211
_cell_length_b 9.293336
_cell_length_c 11.827939
_cell_angle_alpha 90.000000
_cell_angle_beta 30.645608
_cell_angle_gamma 90.000000
_cell_volume 1731.776024
_symmetry_space_group_name_H-M "P 2/M"
_symmetry_group_IT_number 10
_symmetry_cell_setting 'monoclinic'
loop_
_space_group_symop_operation_xyz
x,y,z
-x,y,-z
-x,-y,-z
x,-y,z
loop_
_atom_site_type_symbol
_atom_site_label
_atom_site_fract_x
_atom_site_fract_y
_atom_site_fract_z
Si Si1 0.474244 0.668469 0.433438
Si Si2 0.742165 0.666851 0.342355
Si Si3 0.109668 0.829884 0.864523
Si Si4 0.597891 0.834229 0.783201
Si Si5 0.281893 0.664913 0.858199
Si Si6 0.228411 0.170787 0.193435
Si Si7 0.921592 0.830507 0.316590
Si Si8 0.383016 0.834787 0.003075
O O1 0.500000 0.718947 0.500000
O O2 0.487203 0.500000 0.386564
O O3 0.378355 0.717725 0.629485
O O4 0.532053 0.747175 0.212252
O O5 0.738659 0.500000 0.384568
O O6 0.817692 0.745022 0.235781
O O7 0.651723 0.736940 0.576573
O O8 0.761391 0.684703 0.166078
O O9 0.107381 0.773161 0.740847
O O10 0.128191 0.000000 0.830868
O O11 0.018938 0.789793 0.125520
O O12 0.638474 0.814885 0.816627
O O13 0.604111 0.000000 0.730045
O O14 0.500000 0.783388 0.000000
O O15 0.279376 0.500000 0.905084
O O16 0.233167 0.760293 0.059276
O O17 0.141012 0.228490 0.445786
O O18 0.305392 0.222509 0.101023
O O19 0.228455 0.000000 0.180030
O O20 0.913093 0.000000 0.327552
O O21 0.401645 0.000000 0.932796
#
# Coordination Sequence:
#
# PCOD8060730 Si02
#       8
#     4   4   4   4   4   4   4   4
#     4  10  19  33  52  71  98 140 185 219 252 307
#     4  11  23  37  54  77 109 145 180 218 262 316
#     4   9  17  35  62  84 107 139 173 212 264 322
#     4  10  21  37  56  79 108 141 178 220 266 319
#     4  10  22  38  51  70 104 144 182 218 260 310
#     4  10  19  32  52  79 106 131 170 219 265 313
#     4   8  16  33  59  87 109 133 168 217 271 317
#     4  10  20  32  51  80 108 132 167 220 271 312
#
# _framework density 18.47814
#
# number of rings (size 3 to 8) (size 9 to 14) (size 15 to 20)
#    0.000    2.250    1.250    2.625    0.000    4.500 
#    0.000    4.375    0.000    3.750    0.000    0.000 
#    0.000    0.000    0.000    0.000    0.000    0.000 
#
# Total GULP energy -396824.391243 kJ/mol
# GULP energy per Si atom -12400.762226 kJ/mol
# Density = 1.843608 g / cm^3
# Si number density = 18.478140 Si / 1000 Ang^3
#
#
#
# Elastic Constant Matrix: (Units=GPa)
#
#
# Indices 1 2 3 4 5 6 
#
# 1 84.3426 37.1394 46.8540 0.0000 -6.2255 0.0000
# 2 37.1394 59.4561 53.1852 0.0000 0.0916 0.0000
# 3 46.8540 53.1852 140.2391 0.0000 0.7203 0.0000
# 4 0.0000 0.0000 0.0000 3.0740 0.0000 -0.4390
# 5 -6.2255 0.0916 0.7203 0.0000 29.0684 0.0000
# 6 0.0000 0.0000 0.0000 -0.4390 0.0000 25.1022
#
#
#
# Elastic Compliance Matrix: (Units=1/GPa)
#
#
# Indices 1 2 3 4 5 6 
#
# 1 0.017319 -0.008522 -0.002574 0.000000 0.003800 0.000000
# 2 -0.008522 0.029648 -0.008388 0.000000 -0.001711 0.000000
# 3 -0.002574 -0.008388 0.011176 0.000000 -0.000802 0.000000
# 4 0.000000 0.000000 0.000000 0.326123 0.000000 0.005703
# 5 0.003800 -0.001711 -0.000802 0.000000 0.035241 0.000000
# 6 0.000000 0.000000 0.000000 0.005703 0.000000 0.039937
#
#
# Mechanical properties :
#
#
# Convention : Reuss Voigt Hill
#
# Bulk Modulus (GPa) = 52.14946 62.04389 57.09667
# Shear Modulus (GPa) = 9.90483 21.23953 15.57218
#
# Velocity S-wave (km/s) = 2.31774 3.39402 2.90614
# Velocity P-wave (km/s) = 5.95366 7.00064 6.49827
#
# Compressibility (1/GPa) = 0.01917565
#
# Stress axis : x y z
#
# Youngs Moduli (GPa) = 57.73889 33.72866 89.47803
#
# Poissons Ratio (x) = 0.28743 0.23032
# Poissons Ratio (y) = 0.49204 0.75055
# Poissons Ratio (z) = 0.14862 0.28292
#
# Static dielectric constant tensor:
#      x y z
#    x 3.372290 0.000000 0.030960 
#    y 0.000000 3.169860 0.000000 
#    z 0.030960 0.000000 3.644260 
# 
# 
# High freq. dielectric constant tensor:
#      x y z
#    x 1.716270 0.000000 0.000570 
#    y 0.000000 1.696060 0.000000 
#    z 0.000570 0.000000 1.719350 
# 
# From -- ./inp_files/58097.got.cif
#   From: 2010.06.25/outbox.cif.g09.slc.cpg/sg10_30_cif.got.tgz:58097.got - 2010.06.27 22:07:45.
