data_PCOD8060409
_publ_section_title
;
Structure prediction by ZEFSAII (Michael W. Deem and Ramdas Pophale) SiO2 
 PCOD8060409
Probable space group: P 2/M
;
_chemical_formula_sum "Si O2"
_cell_formula_units_Z 32
_cell_length_a 20.033246
_cell_length_b 8.628841
_cell_length_c 13.814919
_cell_angle_alpha 90.000000
_cell_angle_beta 39.009799
_cell_angle_gamma 90.000000
_cell_volume 1503.196111
_symmetry_space_group_name_H-M "P 2/M"
_symmetry_group_IT_number 10
_symmetry_cell_setting 'monoclinic'
loop_
_space_group_symop_operation_xyz
x,y,z
-x,y,-z
-x,-y,-z
x,-y,z
loop_
_atom_site_type_symbol
_atom_site_label
_atom_site_fract_x
_atom_site_fract_y
_atom_site_fract_z
Si Si1 0.954109 0.182773 0.408366
Si Si2 0.147010 0.681257 0.290993
Si Si3 0.729803 0.676879 0.148645
Si Si4 0.801298 0.683082 0.425966
Si Si5 0.883169 0.314989 0.127239
Si Si6 0.419774 0.819249 0.314311
Si Si7 0.360658 0.318646 0.946679
Si Si8 0.398595 0.166009 0.555512
O O1 0.879014 0.224094 0.583442
O O2 0.899484 0.243061 0.372578
O O3 0.069412 0.263450 0.291443
O O4 0.970397 0.000000 0.384907
O O5 0.127618 0.500000 0.331088
O O6 0.269781 0.714500 0.127857
O O7 0.745682 0.500000 0.101408
O O8 0.838711 0.744613 0.072628
O O9 0.683012 0.758822 0.105331
O O10 0.655554 0.693578 0.326314
O O11 0.808980 0.500000 0.428059
O O12 0.812637 0.738063 0.300359
O O13 0.689399 0.739320 0.598408
O O14 0.886163 0.500000 0.124449
O O15 0.000000 0.243244 0.000000
O O16 0.528327 0.756375 0.142825
O O17 0.431226 0.774275 0.413461
O O18 0.411147 0.000000 0.301932
O O19 0.381919 0.500000 0.909147
O O20 0.500000 0.120475 0.500000
O O21 0.333900 0.000000 0.621421
#
# Coordination Sequence:
#
# PCOD8060409 Si02
#       8
#     4   4   4   4   4   4   4   4
#     4  11  23  41  65  92 120 152 190 238 295 357
#     4  10  21  41  67  94 119 148 190 243 296 349
#     4  10  19  32  52  80 110 148 194 241 282 332
#     4  11  22  38  62  87 117 158 202 245 291 346
#     4   9  19  33  53  81 115 152 195 244 291 337
#     4  11  22  36  55  80 119 161 200 243 292 350
#     4  10  22  36  58  89 121 152 196 248 295 345
#     4  10  19  32  48  71 107 151 192 232 277 331
#
# _framework density 21.287973000000001
#
# number of rings (size 3 to 8) (size 9 to 14) (size 15 to 20)
#    0.000    1.750    2.500    3.000    1.750    1.750 
#    0.000    0.625    0.000    5.625    0.000    0.000 
#    0.000    0.000    0.000    0.000    0.000    0.000 
#
# Total GULP energy -396469.594289 kJ/mol
# GULP energy per Si atom -12389.674822 kJ/mol
# Density = 2.123952 g / cm^3
# Si number density = 21.287973 Si / 1000 Ang^3
#
#
#
# Elastic Constant Matrix: (Units=GPa)
#
#
# Indices 1 2 3 4 5 6 
#
# 1 56.0802 9.2979 1.9424 0.0000 -12.6478 0.0000
# 2 9.2979 64.1876 13.9775 0.0000 -7.9755 0.0000
# 3 1.9424 13.9775 80.7314 0.0000 -28.4110 0.0000
# 4 0.0000 0.0000 0.0000 16.5566 0.0000 0.5936
# 5 -12.6478 -7.9755 -28.4110 0.0000 34.1744 0.0000
# 6 0.0000 0.0000 0.0000 0.5936 0.0000 28.1165
#
#
#
# Elastic Compliance Matrix: (Units=1/GPa)
#
#
# Indices 1 2 3 4 5 6 
#
# 1 0.020322 -0.002466 0.003367 0.000000 0.009745 0.000000
# 2 -0.002466 0.016591 -0.002504 0.000000 0.000877 0.000000
# 3 0.003367 -0.002504 0.018337 0.000000 0.015906 0.000000
# 4 0.000000 0.000000 0.000000 0.060445 0.000000 -0.001276
# 5 0.009745 0.000877 0.015906 0.000000 0.046297 0.000000
# 6 0.000000 0.000000 0.000000 -0.001276 0.000000 0.035593
#
#
# Mechanical properties :
#
#
# Convention : Reuss Voigt Hill
#
# Bulk Modulus (GPa) = 19.21473 27.93721 23.57597
# Shear Modulus (GPa) = 22.92122 27.48826 25.20474
#
# Velocity S-wave (km/s) = 3.28490 3.59731 3.44465
# Velocity P-wave (km/s) = 4.84078 5.51417 5.18841
#
# Compressibility (1/GPa) = 0.05204340
#
# Stress axis : x y z
#
# Youngs Moduli (GPa) = 49.20868 60.27387 54.53409
#
# Poissons Ratio (x) = 0.14865 -0.18364
# Poissons Ratio (y) = 0.12136 0.13658
# Poissons Ratio (z) = -0.16571 0.15095
#
# Static dielectric constant tensor:
#      x y z
#    x 3.936360 0.000000 -0.141450 
#    y 0.000000 3.629510 0.000000 
#    z -0.141450 0.000000 3.662830 
# 
# 
# High freq. dielectric constant tensor:
#      x y z
#    x 1.835940 0.000000 -0.016880 
#    y 0.000000 1.817750 0.000000 
#    z -0.016880 0.000000 1.822660 
# 
# From -- ./inp_files/69995.got.cif
#   From: 2010.06.25/outbox.cif.g09.slc.cpg/sg10_35_cif.got.tgz:69995.got - 2010.06.27 22:07:45.
