data_PCOD8060116
_publ_section_title
;
Structure prediction by ZEFSAII (Michael W. Deem and Ramdas Pophale) SiO2 
 PCOD8060116
Probable space group: P 2/M
;
_chemical_formula_sum "Si O2"
_cell_formula_units_Z 24
_cell_length_a 11.160271
_cell_length_b 9.051571
_cell_length_c 13.853275
_cell_angle_alpha 90.000000
_cell_angle_beta 78.815470
_cell_angle_gamma 90.000000
_cell_volume 1372.851346
_symmetry_space_group_name_H-M "P 2/M"
_symmetry_group_IT_number 10
_symmetry_cell_setting 'monoclinic'
loop_
_space_group_symop_operation_xyz
x,y,z
-x,y,-z
-x,-y,-z
x,-y,z
loop_
_atom_site_type_symbol
_atom_site_label
_atom_site_fract_x
_atom_site_fract_y
_atom_site_fract_z
Si Si1 0.399096 0.673914 0.644049
Si Si2 0.133793 0.833486 0.024090
Si Si3 0.905020 0.174163 0.597502
Si Si4 0.775349 0.669289 0.164992
Si Si5 0.331116 0.674392 0.444510
Si Si6 0.041112 0.669223 0.213875
O O1 0.379987 0.500000 0.644622
O O2 0.326965 0.738595 0.747558
O O3 0.341091 0.733227 0.553056
O O4 0.541954 0.712642 0.629460
O O5 0.135150 0.740634 0.122735
O O6 0.176040 0.000000 0.039748
O O7 0.227845 0.761433 0.933542
O O8 0.000000 0.830220 0.000000
O O9 0.772705 0.237250 0.594003
O O10 0.953779 0.243755 0.687743
O O11 0.000000 0.219691 0.500000
O O12 0.895468 0.000000 0.611765
O O13 0.746675 0.500000 0.143021
O O14 0.904315 0.682598 0.197399
O O15 0.303707 0.500000 0.444829
O O16 0.079860 0.500000 0.223843
#
# Coordination Sequence:
#
# PCOD8060116 Si02
#       6
#     4   4   4   4   4   4
#     4   8  15  29  51  75  97 122 156 202 242 274
#     4   9  17  29  45  68  99 130 157 191 238 285
#     4  11  23  35  47  68 100 132 159 192 236 283
#     4   9  16  28  48  74  99 123 158 199 237 280
#     4   9  17  32  52  72  95 126 163 197 235 281
#     4  10  19  31  50  73  96 126 162 198 235 279
#
# _framework density 17.481864999999999
#
# number of rings (size 3 to 8) (size 9 to 14) (size 15 to 20)
#    0.000    2.667    0.000    3.500    0.000    5.333 
#    0.000    3.333    0.000    1.000    0.000    7.000 
#    0.000    0.000    0.000    0.000    0.000    0.000 
#
# Total GULP energy -297571.242771 kJ/mol
# GULP energy per Si atom -12398.801782 kJ/mol
# Density = 1.744208 g / cm^3
# Si number density = 17.481865 Si / 1000 Ang^3
#
#
#
# Elastic Constant Matrix: (Units=GPa)
#
#
# Indices 1 2 3 4 5 6 
#
# 1 49.0260 29.1190 33.9155 0.0000 -18.1230 0.0000
# 2 29.1190 77.0889 53.2525 0.0000 -10.9484 0.0000
# 3 33.9155 53.2525 130.3427 0.0000 -32.6311 0.0000
# 4 0.0000 0.0000 0.0000 28.1985 0.0000 -1.3567
# 5 -18.1230 -10.9484 -32.6311 0.0000 32.4052 0.0000
# 6 0.0000 0.0000 0.0000 -1.3567 0.0000 17.5821
#
#
#
# Elastic Compliance Matrix: (Units=1/GPa)
#
#
# Indices 1 2 3 4 5 6 
#
# 1 0.031642 -0.009309 -0.001053 0.000000 0.013491 0.000000
# 2 -0.009309 0.020888 -0.007552 0.000000 -0.005754 0.000000
# 3 -0.001053 -0.007552 0.013699 0.000000 0.010654 0.000000
# 4 0.000000 0.000000 0.000000 0.035595 0.000000 0.002747
# 5 0.013491 -0.005754 0.010654 0.000000 0.047188 0.000000
# 6 0.000000 0.000000 0.000000 0.002747 0.000000 0.057088
#
#
# Mechanical properties :
#
#
# Convention : Reuss Voigt Hill
#
# Bulk Modulus (GPa) = 32.89369 54.33684 43.61527
# Shear Modulus (GPa) = 19.83647 24.98188 22.40917
#
# Velocity S-wave (km/s) = 3.37217 3.78433 3.58418
# Velocity P-wave (km/s) = 5.83256 7.08832 6.49088
#
# Compressibility (1/GPa) = 0.03040096
#
# Stress axis : x y z
#
# Youngs Moduli (GPa) = 31.60402 47.87389 72.99956
#
# Poissons Ratio (x) = 0.44565 0.07684
# Poissons Ratio (y) = 0.29420 0.55131
# Poissons Ratio (z) = 0.03327 0.36156
#
# Static dielectric constant tensor:
#      x y z
#    x 3.092000 0.000000 -0.330260 
#    y 0.000000 3.198660 0.000000 
#    z -0.330260 0.000000 3.509430 
# 
# 
# High freq. dielectric constant tensor:
#      x y z
#    x 1.647950 0.000000 -0.018410 
#    y 0.000000 1.665490 0.000000 
#    z -0.018410 0.000000 1.682720 
# 
# From -- ./inp_files/45166.got.cif
#   From: 2010.06.25/outbox.cif.g09.slc.cpg/sg10_23_cif.got.tgz:45166.got - 2010.06.27 22:07:45.
