data_PCOD8060966
_publ_section_title
;
Structure prediction by ZEFSAII (Michael W. Deem and Ramdas Pophale) SiO2 
 PCOD8060966
Probable space group: P 2/M
;
_chemical_formula_sum "Si O2"
_cell_formula_units_Z 32
_cell_length_a 28.274684
_cell_length_b 8.981178
_cell_length_c 22.841479
_cell_angle_alpha 90.000000
_cell_angle_beta 17.525644
_cell_angle_gamma 90.000000
_cell_volume 1746.678994
_symmetry_space_group_name_H-M "P 2/M"
_symmetry_group_IT_number 10
_symmetry_cell_setting 'monoclinic'
loop_
_space_group_symop_operation_xyz
x,y,z
-x,y,-z
-x,-y,-z
x,-y,z
loop_
_atom_site_type_symbol
_atom_site_label
_atom_site_fract_x
_atom_site_fract_y
_atom_site_fract_z
Si Si1 0.866570 0.173838 0.024638
Si Si2 0.510260 0.668203 0.245468
Si Si3 0.705120 0.174278 0.338467
Si Si4 0.606642 0.326511 0.262043
Si Si5 0.174616 0.326799 0.690477
Si Si6 0.710594 0.173955 0.916629
Si Si7 0.659828 0.824703 0.843045
Si Si8 0.024327 0.331278 0.540225
O O1 0.791499 0.206378 0.176052
O O2 0.766899 0.250416 0.091687
O O3 0.881563 0.000000 0.994128
O O4 0.034812 0.250205 0.820740
O O5 0.543331 0.500000 0.185393
O O6 0.594970 0.699674 0.206772
O O7 0.325846 0.696148 0.471285
O O8 0.571914 0.781068 0.124022
O O9 0.534467 0.247984 0.536616
O O10 0.808741 0.247077 0.266796
O O11 0.686540 0.000000 0.372990
O O12 0.602808 0.500000 0.282697
O O13 0.142347 0.500000 0.740490
O O14 0.654721 0.220384 0.917462
O O15 0.871817 0.251866 0.747785
O O16 0.741631 0.000000 0.883060
O O17 0.812855 0.748002 0.633133
O O18 0.679317 0.000000 0.811357
O O19 0.500000 0.768300 0.000000
O O20 0.031049 0.500000 0.555134
O O21 0.000000 0.321618 0.500000
#
# Coordination Sequence:
#
# PCOD8060966 Si02
#       8
#     4   4   4   4   4   4   4   4
#     4  11  22  34  51  77 106 134 166 212 268 317
#     4   9  20  38  55  73  99 132 172 215 256 300
#     4  10  20  34  52  76 105 134 167 211 264 317
#     4  10  21  36  54  75 100 133 172 214 260 311
#     4  10  21  36  54  75 101 137 177 215 258 311
#     4  10  19  32  55  80 100 133 175 209 248 300
#     4   9  18  33  52  78 112 140 165 205 252 296
#     4   9  17  30  50  76 105 136 169 205 244 288
#
# _framework density 18.32048
#
# number of rings (size 3 to 8) (size 9 to 14) (size 15 to 20)
#    0.000    2.250    0.000    3.750    0.000   10.250 
#    0.000    1.250    0.000    3.000    0.000    0.000 
#    0.000    0.000    0.000    0.000    0.000    0.000 
#
# Total GULP energy -396882.501392 kJ/mol
# GULP energy per Si atom -12402.578169 kJ/mol
# Density = 1.827878 g / cm^3
# Si number density = 18.320480 Si / 1000 Ang^3
#
#
#
# Elastic Constant Matrix: (Units=GPa)
#
#
# Indices 1 2 3 4 5 6 
#
# 1 69.6034 49.0321 68.7104 0.0000 -26.2656 0.0000
# 2 49.0321 103.3796 59.6573 0.0000 -8.5890 0.0000
# 3 68.7104 59.6573 104.0233 0.0000 -21.1706 0.0000
# 4 0.0000 0.0000 0.0000 37.7128 0.0000 -2.2267
# 5 -26.2656 -8.5890 -21.1706 0.0000 36.9039 0.0000
# 6 0.0000 0.0000 0.0000 -2.2267 0.0000 27.2489
#
#
#
# Elastic Compliance Matrix: (Units=1/GPa)
#
#
# Indices 1 2 3 4 5 6 
#
# 1 0.056047 -0.008935 -0.027400 0.000000 0.022092 0.000000
# 2 -0.008935 0.015964 -0.004292 0.000000 -0.005107 0.000000
# 3 -0.027400 -0.004292 0.029438 0.000000 -0.003613 0.000000
# 4 0.000000 0.000000 0.000000 0.026645 0.000000 0.002177
# 5 0.022092 -0.005107 -0.003613 0.000000 0.039560 0.000000
# 6 0.000000 0.000000 0.000000 0.002177 0.000000 0.036877
#
#
# Mechanical properties :
#
#
# Convention : Reuss Voigt Hill
#
# Bulk Modulus (GPa) = 49.52163 70.20065 59.86114
# Shear Modulus (GPa) = 17.09303 27.01354 22.05329
#
# Velocity S-wave (km/s) = 3.05782 3.84409 3.47327
# Velocity P-wave (km/s) = 6.28939 7.62260 6.98786
#
# Compressibility (1/GPa) = 0.02019320
#
# Stress axis : x y z
#
# Youngs Moduli (GPa) = 17.84225 62.64153 33.96945
#
# Poissons Ratio (x) = 0.55972 0.93076
# Poissons Ratio (y) = 0.15943 0.14581
# Poissons Ratio (z) = 0.48888 0.26889
#
# Static dielectric constant tensor:
#      x y z
#    x 3.218590 0.000000 -0.195730 
#    y 0.000000 3.471780 0.000000 
#    z -0.195730 0.000000 3.374170 
# 
# 
# High freq. dielectric constant tensor:
#      x y z
#    x 1.689680 0.000000 -0.015720 
#    y 0.000000 1.723190 0.000000 
#    z -0.015720 0.000000 1.711600 
# 
# From -- ./inp_files/86905.got.cif
#   From: 2010.06.25/outbox.cif.g09.slc.cpg/sg10_44_cif.got.tgz:86905.got - 2010.06.27 22:07:45.
