data_PCOD8060282
_publ_section_title
;
Structure prediction by ZEFSAII (Michael W. Deem and Ramdas Pophale) SiO2 
 PCOD8060282
Probable space group: P 2/M
;
_chemical_formula_sum "Si O2"
_cell_formula_units_Z 28
_cell_length_a 8.339884
_cell_length_b 15.134844
_cell_length_c 12.400218
_cell_angle_alpha 90.000000
_cell_angle_beta 72.350609
_cell_angle_gamma 90.000000
_cell_volume 1491.516712
_symmetry_space_group_name_H-M "P 2/M"
_symmetry_group_IT_number 10
_symmetry_cell_setting 'monoclinic'
loop_
_space_group_symop_operation_xyz
x,y,z
-x,y,-z
-x,-y,-z
x,-y,z
loop_
_atom_site_type_symbol
_atom_site_label
_atom_site_fract_x
_atom_site_fract_y
_atom_site_fract_z
Si Si1 0.474271 0.599486 0.125094
Si Si2 0.264954 0.098180 0.928343
Si Si3 0.354930 0.290182 0.450114
Si Si4 0.099532 0.753026 0.671050
Si Si5 0.045880 0.901539 0.169929
Si Si6 0.843172 0.600262 0.675898
Si Si7 0.395779 0.753564 0.770230
O O1 0.542878 0.500000 0.122543
O O2 0.277817 0.604988 0.195790
O O3 0.584855 0.658477 0.180691
O O4 0.500000 0.635345 0.000000
O O5 0.402197 0.168381 0.857890
O O6 0.116946 0.096663 0.871783
O O7 0.345562 0.000000 0.918294
O O8 0.200903 0.126813 0.060586
O O9 0.500000 0.329839 0.500000
O O10 0.219320 0.229867 0.542523
O O11 0.257520 0.369895 0.410988
O O12 0.450184 0.227786 0.343880
O O13 0.215394 0.743584 0.751742
O O14 0.973790 0.834728 0.723873
O O15 0.999938 0.663198 0.668194
O O16 0.076031 0.000000 0.210931
O O17 0.907189 0.500000 0.644012
#
# Coordination Sequence:
#
# PCOD8060282 Si02
#       7
#     4   4   4   4   4   4   4
#     4   9  19  35  51  69 100 139 171 200 247 309
#     4   8  14  27  49  75 101 129 167 208 247 298
#     4   9  19  35  51  72 101 135 171 206 247 300
#     4  10  19  31  52  78 103 129 170 213 248 295
#     4   8  15  28  47  74 104 132 163 204 253 299
#     4  10  21  35  52  76 102 132 169 210 253 294
#     4   9  18  32  52  74 101 136 167 206 256 296
#
# _framework density 18.772838
#
# number of rings (size 3 to 8) (size 9 to 14) (size 15 to 20)
#    0.000    3.000    0.000    1.286    2.000    2.000 
#    0.000    3.571    0.000   12.429    0.000    0.000 
#    0.000    0.000    0.000    0.000    0.000    0.000 
#
# Total GULP energy -346963.870876 kJ/mol
# GULP energy per Si atom -12391.566817 kJ/mol
# Density = 1.873011 g / cm^3
# Si number density = 18.772838 Si / 1000 Ang^3
#
#
#
# Elastic Constant Matrix: (Units=GPa)
#
#
# Indices 1 2 3 4 5 6 
#
# 1 51.3357 45.6407 37.7793 0.0000 -8.9577 0.0000
# 2 45.6407 122.1054 71.6730 0.0000 -16.5064 0.0000
# 3 37.7793 71.6730 138.0421 0.0000 -20.2560 0.0000
# 4 0.0000 0.0000 0.0000 23.9994 0.0000 -6.3583
# 5 -8.9577 -16.5064 -20.2560 0.0000 17.1172 0.0000
# 6 0.0000 0.0000 0.0000 -6.3583 0.0000 7.4255
#
#
#
# Elastic Compliance Matrix: (Units=1/GPa)
#
#
# Indices 1 2 3 4 5 6 
#
# 1 0.030454 -0.009089 -0.003102 0.000000 0.003502 0.000000
# 2 -0.009089 0.014855 -0.004624 0.000000 0.004096 0.000000
# 3 -0.003102 -0.004624 0.011619 0.000000 0.007667 0.000000
# 4 0.000000 0.000000 0.000000 0.053894 0.000000 0.046149
# 5 0.003502 0.004096 0.007667 0.000000 0.073277 0.000000
# 6 0.000000 0.000000 0.000000 0.046149 0.000000 0.174187
#
#
# Mechanical properties :
#
#
# Convention : Reuss Voigt Hill
#
# Bulk Modulus (GPa) = 42.92210 69.07437 55.99824
# Shear Modulus (GPa) = 12.50992 20.13442 16.32217
#
# Velocity S-wave (km/s) = 2.58424 3.27850 2.95185
# Velocity P-wave (km/s) = 5.64074 7.15585 6.44299
#
# Compressibility (1/GPa) = 0.02329802
#
# Stress axis : x y z
#
# Youngs Moduli (GPa) = 32.83631 67.31674 86.06512
#
# Poissons Ratio (x) = 0.61186 0.26694
# Poissons Ratio (y) = 0.29846 0.39800
# Poissons Ratio (z) = 0.10184 0.31130
#
# Static dielectric constant tensor:
#      x y z
#    x 3.196510 0.000000 -0.204080 
#    y 0.000000 3.546060 0.000000 
#    z -0.204080 0.000000 3.820450 
# 
# 
# High freq. dielectric constant tensor:
#      x y z
#    x 1.705530 0.000000 -0.013620 
#    y 0.000000 1.713870 0.000000 
#    z -0.013620 0.000000 1.740000 
# 
# From -- ./inp_files/42663.got.cif
#   From: 2010.06.25/outbox.cif.g09.slc.cpg/sg10_22_cif.got.tgz:42663.got - 2010.06.27 22:07:45.
