data_PCOD8060799
_publ_section_title
;
Structure prediction by ZEFSAII (Michael W. Deem and Ramdas Pophale) SiO2 
 PCOD8060799
Probable space group: P 2/M
;
_chemical_formula_sum "Si O2"
_cell_formula_units_Z 28
_cell_length_a 14.155097
_cell_length_b 9.130633
_cell_length_c 17.613051
_cell_angle_alpha 90.000000
_cell_angle_beta 43.068961
_cell_angle_gamma 90.000000
_cell_volume 1554.502868
_symmetry_space_group_name_H-M "P 2/M"
_symmetry_group_IT_number 10
_symmetry_cell_setting 'monoclinic'
loop_
_space_group_symop_operation_xyz
x,y,z
-x,y,-z
-x,-y,-z
x,-y,z
loop_
_atom_site_type_symbol
_atom_site_label
_atom_site_fract_x
_atom_site_fract_y
_atom_site_fract_z
Si Si1 0.090664 0.328306 0.255767
Si Si2 0.773925 0.328299 0.416696
Si Si3 0.130631 0.170468 0.081233
Si Si4 0.316828 0.827718 0.836120
Si Si5 0.187410 0.170386 0.757141
Si Si6 0.141046 0.828765 0.376954
Si Si7 0.630917 0.170770 0.634580
O O1 0.117668 0.500000 0.238754
O O2 0.160413 0.258698 0.140599
O O3 0.162926 0.259731 0.286822
O O4 0.928380 0.289141 0.353381
O O5 0.749713 0.500000 0.424712
O O6 0.744682 0.257710 0.352199
O O7 0.666569 0.261868 0.539050
O O8 0.976133 0.197515 0.141906
O O9 0.157493 0.000000 0.082270
O O10 0.234201 0.235376 0.956918
O O11 0.254949 0.764607 0.794064
O O12 0.477079 0.786095 0.750593
O O13 0.292063 0.000000 0.849300
O O14 0.222335 0.000000 0.724946
O O15 0.268368 0.786881 0.355939
O O16 0.000000 0.777826 0.500000
O O17 0.136091 0.000000 0.360401
O O18 0.644013 0.000000 0.606409
#
# Coordination Sequence:
#
# PCOD8060799 Si02
#       7
#     4   4   4   4   4   4   4
#     4  10  20  33  52  77 103 131 166 208 251 295
#     4  10  20  33  49  74 105 134 167 205 249 298
#     4   9  17  32  55  78 101 129 167 210 247 289
#     4   9  18  33  53  77 101 131 169 208 249 293
#     4   9  17  31  54  78 100 129 168 209 248 291
#     4  10  19  32  53  78 100 127 167 209 250 296
#     4  10  20  34  52  74 103 133 165 206 252 300
#
# _framework density 18.012188999999999
#
# number of rings (size 3 to 8) (size 9 to 14) (size 15 to 20)
#    0.000    2.429    1.429    1.286    0.000    4.286 
#    0.000    5.714    0.000    7.714    0.000    0.000 
#    0.000    0.000    0.000    0.000    0.000    0.000 
#
# Total GULP energy -347291.327943 kJ/mol
# GULP energy per Si atom -12403.261712 kJ/mol
# Density = 1.797119 g / cm^3
# Si number density = 18.012189 Si / 1000 Ang^3
#
#
#
# Elastic Constant Matrix: (Units=GPa)
#
#
# Indices 1 2 3 4 5 6 
#
# 1 124.9868 43.9346 83.3647 0.0000 18.5981 0.0000
# 2 43.9346 55.5761 48.9649 0.0000 11.8677 0.0000
# 3 83.3647 48.9649 122.5272 0.0000 18.0554 0.0000
# 4 0.0000 0.0000 0.0000 6.7426 0.0000 -5.8538
# 5 18.5981 11.8677 18.0554 0.0000 29.1366 0.0000
# 6 0.0000 0.0000 0.0000 -5.8538 0.0000 7.9344
#
#
#
# Elastic Compliance Matrix: (Units=1/GPa)
#
#
# Indices 1 2 3 4 5 6 
#
# 1 0.015578 -0.004210 -0.008478 0.000000 -0.002975 0.000000
# 2 -0.004210 0.029554 -0.008329 0.000000 -0.004189 0.000000
# 3 -0.008478 -0.008329 0.017565 0.000000 -0.002080 0.000000
# 4 0.000000 0.000000 0.000000 0.412578 0.000000 0.304391
# 5 -0.002975 -0.004189 -0.002080 0.000000 0.039216 0.000000
# 6 0.000000 0.000000 0.000000 0.304391 0.000000 0.350606
#
#
# Mechanical properties :
#
#
# Convention : Reuss Voigt Hill
#
# Bulk Modulus (GPa) = 48.39577 72.84651 60.62114
# Shear Modulus (GPa) = 5.47034 17.21778 11.34406
#
# Velocity S-wave (km/s) = 1.74460 3.09511 2.51230
# Velocity P-wave (km/s) = 5.56640 7.30093 6.49186
#
# Compressibility (1/GPa) = 0.02066296
#
# Stress axis : x y z
#
# Youngs Moduli (GPa) = 64.19149 33.83612 56.93194
#
# Poissons Ratio (x) = 0.14246 0.48268
# Poissons Ratio (y) = 0.27026 0.47417
# Poissons Ratio (z) = 0.54423 0.28181
#
# Static dielectric constant tensor:
#      x y z
#    x 3.314180 0.000000 0.109280 
#    y 0.000000 3.099260 0.000000 
#    z 0.109280 0.000000 3.343760 
# 
# 
# High freq. dielectric constant tensor:
#      x y z
#    x 1.695720 0.000000 0.013780 
#    y 0.000000 1.677270 0.000000 
#    z 0.013780 0.000000 1.695430 
# 
# From -- ./inp_files/49078.got.cif
#   From: 2010.06.25/outbox.cif.g09.slc.cpg/sg10_25_cif.got.tgz:49078.got - 2010.06.27 22:07:45.
