data_PCOD8060884
_publ_section_title
;
Structure prediction by ZEFSAII (Michael W. Deem and Ramdas Pophale) SiO2 
 PCOD8060884
Probable space group: P 2/M
;
_chemical_formula_sum "Si O2"
_cell_formula_units_Z 24
_cell_length_a 18.244486
_cell_length_b 7.627439
_cell_length_c 27.373161
_cell_angle_alpha 90.000000
_cell_angle_beta 19.375912
_cell_angle_gamma 90.000000
_cell_volume 1263.762069
_symmetry_space_group_name_H-M "P 2/M"
_symmetry_group_IT_number 10
_symmetry_cell_setting 'monoclinic'
loop_
_space_group_symop_operation_xyz
x,y,z
-x,y,-z
-x,-y,-z
x,-y,z
loop_
_atom_site_type_symbol
_atom_site_label
_atom_site_fract_x
_atom_site_fract_y
_atom_site_fract_z
Si Si1 0.324770 0.801541 0.280765
Si Si2 0.930165 0.696791 0.466916
Si Si3 0.789877 0.207433 0.104724
Si Si4 0.415674 0.500000 0.474452
Si Si5 0.852552 0.500000 0.257855
Si Si6 0.185297 0.205731 0.022314
Si Si7 0.370115 0.800326 0.427187
O O1 0.241406 0.692698 0.379861
O O2 0.162393 0.781768 0.336905
O O3 0.326247 0.000000 0.299114
O O4 0.572223 0.751205 0.107865
O O5 0.975467 0.500000 0.421849
O O6 0.843022 0.798931 0.474150
O O7 0.571037 0.277422 0.268735
O O8 0.790146 0.000000 0.107920
O O9 0.798886 0.267572 0.043494
O O10 0.000000 0.289388 0.000000
O O11 0.676134 0.500000 0.324319
O O12 0.271452 0.500000 0.613358
O O13 0.348420 0.675193 0.487453
O O14 0.000548 0.324117 0.163943
O O15 0.121877 0.000000 0.068064
O O16 0.408793 0.000000 0.421170
#
# Coordination Sequence:
#
# PCOD8060884 Si02
#       7
#     4   4   4   2   2   4   4
#     4  10  19  32  53  86 126 162 197 229 281 354
#     4  11  20  31  53  88 126 161 197 228 283 356
#     4   9  17  30  52  84 116 148 184 225 286 354
#     4  11  26  45  58  89 106 155 207 248 290 350
#     4  11  26  43  64  79 118 147 205 256 288 336
#     4  10  21  37  60  88 118 155 191 235 295 351
#     4  11  21  38  61  85 121 155 188 242 294 348
#
# _framework density 18.990915999999999
#
# number of rings (size 3 to 8) (size 9 to 14) (size 15 to 20)
#    0.000    1.667    2.500    4.000    2.333    3.333 
#    0.000    3.333    0.000    2.000    0.000    3.500 
#    0.000    0.000    0.000    0.000    0.000    0.000 
#
# Total GULP energy -297576.134864 kJ/mol
# GULP energy per Si atom -12399.005619 kJ/mol
# Density = 1.894769 g / cm^3
# Si number density = 18.990916 Si / 1000 Ang^3
#
#
#
# Elastic Constant Matrix: (Units=GPa)
#
#
# Indices 1 2 3 4 5 6 
#
# 1 105.5430 29.9543 54.4963 0.0000 -21.9568 0.0000
# 2 29.9543 93.2884 38.7774 0.0000 -2.4674 0.0000
# 3 54.4963 38.7774 99.2283 0.0000 -18.8668 0.0000
# 4 0.0000 0.0000 0.0000 27.4476 0.0000 1.2002
# 5 -21.9568 -2.4674 -18.8668 0.0000 33.0633 0.0000
# 6 0.0000 0.0000 0.0000 1.2002 0.0000 6.3039
#
#
#
# Elastic Compliance Matrix: (Units=1/GPa)
#
#
# Indices 1 2 3 4 5 6 
#
# 1 0.014367 -0.001967 -0.005985 0.000000 0.005979 0.000000
# 2 -0.001967 0.013203 -0.004644 0.000000 -0.002971 0.000000
# 3 -0.005985 -0.004644 0.016105 0.000000 0.004869 0.000000
# 4 0.000000 0.000000 0.000000 0.036739 0.000000 -0.006995
# 5 0.005979 -0.002971 0.004869 0.000000 0.036772 0.000000
# 6 0.000000 0.000000 0.000000 -0.006995 0.000000 0.159963
#
#
# Mechanical properties :
#
#
# Convention : Reuss Voigt Hill
#
# Bulk Modulus (GPa) = 54.10368 60.50174 57.30271
# Shear Modulus (GPa) = 16.20727 25.01841 20.61284
#
# Velocity S-wave (km/s) = 2.92451 3.63352 3.29812
# Velocity P-wave (km/s) = 6.32098 7.03781 6.68900
#
# Compressibility (1/GPa) = 0.01848303
#
# Stress axis : x y z
#
# Youngs Moduli (GPa) = 69.60258 75.74057 62.09140
#
# Poissons Ratio (x) = 0.14901 0.37161
# Poissons Ratio (y) = 0.13693 0.28835
# Poissons Ratio (z) = 0.41656 0.35174
#
# Static dielectric constant tensor:
#      x y z
#    x 3.475760 0.000000 -0.414480 
#    y 0.000000 3.400080 0.000000 
#    z -0.414480 0.000000 3.443070 
# 
# 
# High freq. dielectric constant tensor:
#      x y z
#    x 1.726020 0.000000 -0.036420 
#    y 0.000000 1.744410 0.000000 
#    z -0.036420 0.000000 1.716160 
# 
# From -- ./inp_files/93373.got.cif
#   From: 2010.06.25/outbox.cif.g09.slc.cpg/sg10_47_cif.got.tgz:93373.got - 2010.06.27 22:07:45.
