data_PCOD8060793
_publ_section_title
;
Structure prediction by ZEFSAII (Michael W. Deem and Ramdas Pophale) SiO2 
 PCOD8060793
Probable space group: P 2/M
;
_chemical_formula_sum "Si O2"
_cell_formula_units_Z 28
_cell_length_a 19.078180
_cell_length_b 8.660293
_cell_length_c 14.271267
_cell_angle_alpha 90.000000
_cell_angle_beta 138.320185
_cell_angle_gamma 90.000000
_cell_volume 1567.950446
_symmetry_space_group_name_H-M "P 2/M"
_symmetry_group_IT_number 10
_symmetry_cell_setting 'monoclinic'
loop_
_space_group_symop_operation_xyz
x,y,z
-x,y,-z
-x,-y,-z
x,-y,z
loop_
_atom_site_type_symbol
_atom_site_label
_atom_site_fract_x
_atom_site_fract_y
_atom_site_fract_z
Si Si1 0.295115 0.321871 0.002872
Si Si2 0.507683 0.178446 0.897866
Si Si3 0.381934 0.178875 0.471829
Si Si4 0.891244 0.680562 0.492880
Si Si5 0.886594 0.180475 0.290521
Si Si6 0.606177 0.678696 0.705747
Si Si7 0.294650 0.179635 0.582697
O O1 0.267357 0.500000 0.958220
O O2 0.197234 0.218436 0.873417
O O3 0.399432 0.282812 0.049093
O O4 0.312186 0.285947 0.129716
O O5 0.399104 0.231975 0.742003
O O6 0.531898 0.000000 0.898723
O O7 0.500000 0.207700 0.000000
O O8 0.341276 0.274480 0.341045
O O9 0.501146 0.222610 0.617777
O O10 0.307111 0.214822 0.485013
O O11 0.379143 0.000000 0.442988
O O12 0.914234 0.500000 0.514953
O O13 0.852763 0.733226 0.351932
O O14 0.802764 0.719276 0.480265
O O15 0.998276 0.767476 0.628528
O O16 0.886900 0.000000 0.311815
O O17 0.573893 0.500000 0.671977
O O18 0.271924 0.000000 0.579439
#
# Coordination Sequence:
#
# PCOD8060793 Si02
#       7
#     4   4   4   4   4   4   4
#     4  11  22  35  53  79 109 141 178 222 271 321
#     4  10  20  33  50  74 107 145 178 214 264 320
#     4  10  19  32  53  77 106 142 182 223 261 317
#     4  11  22  37  58  82 109 140 180 225 267 316
#     4  11  22  38  59  79 106 143 183 224 265 315
#     4  10  20  33  51  76 109 142 177 222 270 321
#     4  10  20  34  52  79 111 143 181 221 266 319
#
# _framework density 17.857707000000001
#
# number of rings (size 3 to 8) (size 9 to 14) (size 15 to 20)
#    0.000    1.571    1.429    6.429    0.000    4.857 
#    0.000    0.000    0.000    0.857    0.000    6.000 
#    0.000    0.000    0.000    0.000    0.000    0.000 
#
# Total GULP energy -347318.641402 kJ/mol
# GULP energy per Si atom -12404.237193 kJ/mol
# Density = 1.781706 g / cm^3
# Si number density = 17.857707 Si / 1000 Ang^3
#
#
#
# Elastic Constant Matrix: (Units=GPa)
#
#
# Indices 1 2 3 4 5 6 
#
# 1 89.9999 27.2385 54.1960 0.0000 -4.6225 0.0000
# 2 27.2385 57.0013 24.6279 0.0000 -3.5002 0.0000
# 3 54.1960 24.6279 92.4407 0.0000 -3.6481 0.0000
# 4 0.0000 0.0000 0.0000 27.5539 0.0000 -1.4203
# 5 -4.6225 -3.5002 -3.6481 0.0000 21.2381 0.0000
# 6 0.0000 0.0000 0.0000 -1.4203 0.0000 26.5392
#
#
#
# Elastic Compliance Matrix: (Units=1/GPa)
#
#
# Indices 1 2 3 4 5 6 
#
# 1 0.018243 -0.004549 -0.009420 0.000000 0.001603 0.000000
# 2 -0.004549 0.021080 -0.002870 0.000000 0.001991 0.000000
# 3 -0.009420 -0.002870 0.017122 0.000000 0.000418 0.000000
# 4 0.000000 0.000000 0.000000 0.036393 0.000000 0.001948
# 5 0.001603 0.001991 0.000418 0.000000 0.047834 0.000000
# 6 0.000000 0.000000 0.000000 0.001948 0.000000 0.037784
#
#
# Mechanical properties :
#
#
# Convention : Reuss Voigt Hill
#
# Bulk Modulus (GPa) = 43.92696 50.17407 47.05051
# Shear Modulus (GPa) = 22.75592 23.95822 23.35707
#
# Velocity S-wave (km/s) = 3.57359 3.66678 3.62049
# Velocity P-wave (km/s) = 6.45594 6.78857 6.62434
#
# Compressibility (1/GPa) = 0.02276506
#
# Stress axis : x y z
#
# Youngs Moduli (GPa) = 54.81604 47.43900 58.40495
#
# Poissons Ratio (x) = 0.21580 0.55019
# Poissons Ratio (y) = 0.24936 0.16765
# Poissons Ratio (z) = 0.51638 0.13617
#
# Static dielectric constant tensor:
#      x y z
#    x 3.282030 0.000000 -0.170740 
#    y 0.000000 3.372390 0.000000 
#    z -0.170740 0.000000 3.319180 
# 
# 
# High freq. dielectric constant tensor:
#      x y z
#    x 1.683980 0.000000 -0.012290 
#    y 0.000000 1.702890 0.000000 
#    z -0.012290 0.000000 1.680620 
# 
# From -- ./inp_files/68685.got.cif
#   From: 2010.06.25/outbox.cif.g09.slc.cpg/sg10_35_cif.got.tgz:68685.got - 2010.06.27 22:07:45.
