data_PCOD8060811
_publ_section_title
;
Structure prediction by ZEFSAII (Michael W. Deem and Ramdas Pophale) SiO2 
 PCOD8060811
Probable space group: P 2/M
;
_chemical_formula_sum "Si O2"
_cell_formula_units_Z 28
_cell_length_a 19.855882
_cell_length_b 9.200903
_cell_length_c 15.138633
_cell_angle_alpha 90.000000
_cell_angle_beta 147.051722
_cell_angle_gamma 90.000000
_cell_volume 1504.217946
_symmetry_space_group_name_H-M "P 2/M"
_symmetry_group_IT_number 10
_symmetry_cell_setting 'monoclinic'
loop_
_space_group_symop_operation_xyz
x,y,z
-x,y,-z
-x,-y,-z
x,-y,z
loop_
_atom_site_type_symbol
_atom_site_label
_atom_site_fract_x
_atom_site_fract_y
_atom_site_fract_z
Si Si1 0.136092 0.335216 0.173049
Si Si2 0.973604 0.161429 0.614012
Si Si3 0.385957 0.829136 0.436797
Si Si4 0.436690 0.330107 0.021325
Si Si5 0.803323 0.162845 0.259626
Si Si6 0.831230 0.337197 0.584677
Si Si7 0.590270 0.829168 0.333000
O O1 0.145711 0.500000 0.146891
O O2 0.254846 0.246537 0.265542
O O3 0.140472 0.332198 0.282154
O O4 0.000000 0.268384 0.000000
O O5 0.883820 0.194075 0.434000
O O6 0.951669 0.278839 0.666429
O O7 0.114311 0.174941 0.737575
O O8 0.949328 0.000000 0.625027
O O9 0.500000 0.776513 0.500000
O O10 0.423781 0.789055 0.578866
O O11 0.363799 0.000000 0.401246
O O12 0.455315 0.500000 0.058819
O O13 0.294289 0.291098 0.853738
O O14 0.500000 0.279310 0.000000
O O15 0.482580 0.244070 0.157968
O O16 0.744744 0.000000 0.199851
O O17 0.799081 0.500000 0.518115
O O18 0.718062 0.232563 0.434979
O O19 0.586507 0.000000 0.313659
#
# Coordination Sequence:
#
# PCOD8060811 Si02
#       7
#     4   4   4   4   4   4   4
#     4   9  19  36  55  78 110 143 179 219 263 324
#     4   9  18  34  54  75 100 134 175 213 256 310
#     4   9  19  37  59  83 110 140 180 228 277 325
#     4  11  23  36  51  76 108 139 175 219 264 307
#     4   9  19  35  53  73 101 137 175 213 254 308
#     4  10  19  32  53  78 105 135 172 215 260 308
#     4  10  20  35  56  78 105 140 178 217 261 317
#
# _framework density 18.614325000000001
#
# number of rings (size 3 to 8) (size 9 to 14) (size 15 to 20)
#    0.000    2.429    0.000    3.000    0.000    6.286 
#    2.571    1.429    0.000    0.000    0.000    0.000 
#    0.000    0.000    0.000    0.000    0.000    0.000 
#
# Total GULP energy -347129.671617 kJ/mol
# GULP energy per Si atom -12397.488272 kJ/mol
# Density = 1.857196 g / cm^3
# Si number density = 18.614325 Si / 1000 Ang^3
#
#
#
# Elastic Constant Matrix: (Units=GPa)
#
#
# Indices 1 2 3 4 5 6 
#
# 1 100.9205 50.5042 32.3628 0.0000 17.2839 0.0000
# 2 50.5042 85.5389 42.2952 0.0000 6.8387 0.0000
# 3 32.3628 42.2952 81.0948 0.0000 22.4856 0.0000
# 4 0.0000 0.0000 0.0000 29.1042 0.0000 2.1072
# 5 17.2839 6.8387 22.4856 0.0000 21.8707 0.0000
# 6 0.0000 0.0000 0.0000 2.1072 0.0000 26.0434
#
#
#
# Elastic Compliance Matrix: (Units=1/GPa)
#
#
# Indices 1 2 3 4 5 6 
#
# 1 0.016024 -0.009369 0.001666 0.000000 -0.011446 0.000000
# 2 -0.009369 0.021620 -0.010792 0.000000 0.011739 0.000000
# 3 0.001666 -0.010792 0.023393 0.000000 -0.021993 0.000000
# 4 0.000000 0.000000 0.000000 0.034562 0.000000 -0.002796
# 5 -0.011446 0.011739 -0.021993 0.000000 0.073709 0.000000
# 6 0.000000 0.000000 0.000000 -0.002796 0.000000 0.038624
#
#
# Mechanical properties :
#
#
# Convention : Reuss Voigt Hill
#
# Bulk Modulus (GPa) = 41.58777 57.54207 49.56492
# Shear Modulus (GPa) = 19.76770 24.89644 22.33207
#
# Velocity S-wave (km/s) = 3.26231 3.66114 3.46746
# Velocity P-wave (km/s) = 6.04818 6.98941 6.53576
#
# Compressibility (1/GPa) = 0.02404553
#
# Stress axis : x y z
#
# Youngs Moduli (GPa) = 62.40783 46.25336 42.74748
#
# Poissons Ratio (x) = 0.43336 -0.07120
# Poissons Ratio (y) = 0.58471 0.46133
# Poissons Ratio (z) = -0.10395 0.49917
#
# Static dielectric constant tensor:
#      x y z
#    x 3.513570 0.000000 0.115200 
#    y 0.000000 3.498100 0.000000 
#    z 0.115200 0.000000 3.349500 
# 
# 
# High freq. dielectric constant tensor:
#      x y z
#    x 1.721750 0.000000 0.004900 
#    y 0.000000 1.723410 0.000000 
#    z 0.004900 0.000000 1.712220 
# 
# From -- ./inp_files/50053.got.cif
#   From: 2010.06.25/outbox.cif.g09.slc.cpg/sg10_26_cif.got.tgz:50053.got - 2010.06.27 22:07:45.
