data_PCOD8060368
_publ_section_title
;
Structure prediction by ZEFSAII (Michael W. Deem and Ramdas Pophale) SiO2 
 PCOD8060368
Probable space group: P 2/M
;
_chemical_formula_sum "Si O2"
_cell_formula_units_Z 26
_cell_length_a 21.931933
_cell_length_b 16.376338
_cell_length_c 21.829927
_cell_angle_alpha 90.000000
_cell_angle_beta 166.622790
_cell_angle_gamma 90.000000
_cell_volume 1813.994861
_symmetry_space_group_name_H-M "P 2/M"
_symmetry_group_IT_number 10
_symmetry_cell_setting 'monoclinic'
loop_
_space_group_symop_operation_xyz
x,y,z
-x,y,-z
-x,-y,-z
x,-y,z
loop_
_atom_site_type_symbol
_atom_site_label
_atom_site_fract_x
_atom_site_fract_y
_atom_site_fract_z
Si Si1 0.127651 0.756733 0.557526
Si Si2 0.829124 0.903460 0.654468
Si Si3 0.235284 0.000000 0.778019
Si Si4 0.661055 0.158511 0.045687
Si Si5 0.765478 0.902532 0.728759
Si Si6 0.268900 0.411754 0.727257
Si Si7 0.364185 0.096773 0.113696
O O1 0.235375 0.664895 0.648461
O O2 0.000000 0.765042 0.500000
O O3 0.893148 0.774566 0.280292
O O4 0.379169 0.816911 0.799166
O O5 0.793676 0.866359 0.687842
O O6 0.603180 0.871361 0.388726
O O7 0.810838 0.000000 0.641756
O O8 0.105011 0.875738 0.896314
O O9 0.219830 0.921272 0.805725
O O10 0.000000 0.000000 0.500000
O O11 0.500000 0.000000 0.000000
O O12 0.615512 0.143924 0.929943
O O13 0.500000 0.869547 0.500000
O O14 0.768335 0.000000 0.729514
O O15 0.000000 0.869006 0.000000
O O16 0.330462 0.500000 0.754781
O O17 0.000000 0.422037 0.500000
O O18 0.500000 0.388743 0.000000
O O19 0.373753 0.000000 0.110959
#
# Coordination Sequence:
#
# PCOD8060368 Si02
#       7
#     4   4   2   4   4   4   4
#     4  11  21  33  48  63  82  99 126 163 213 258
#     4   9  17  27  42  55  71  98 127 162 200 239
#     4  12  24  34  44  56  74 100 132 172 216 252
#     4  12  22  34  45  59  78 105 136 174 207 243
#     4   9  15  23  36  56  77  92 113 149 201 249
#     4   9  17  30  48  67  84 100 117 144 193 259
#     4  10  19  32  42  53  72 100 140 170 198 232
#
# _framework density 14.333005
#
# number of rings (size 3 to 8) (size 9 to 14) (size 15 to 20)
#    0.000    1.846    0.769    6.462    0.000    3.692 
#    0.000    0.000    0.000    0.000    0.000    0.000 
#    0.000    0.000    0.000    0.000    0.000    0.000 
#
# Total GULP energy -322291.691558 kJ/mol
# GULP energy per Si atom -12395.834291 kJ/mol
# Density = 1.430038 g / cm^3
# Si number density = 14.333005 Si / 1000 Ang^3
#
#
#
# Elastic Constant Matrix: (Units=GPa)
#
#
# Indices 1 2 3 4 5 6 
#
# 1 122.3598 35.6057 81.6492 0.0000 -1.1933 0.0000
# 2 35.6057 54.1988 31.8354 0.0000 -2.0851 0.0000
# 3 81.6492 31.8354 172.3384 0.0000 4.7939 0.0000
# 4 0.0000 0.0000 0.0000 14.3997 0.0000 -2.5129
# 5 -1.1933 -2.0851 4.7939 0.0000 28.3928 0.0000
# 6 0.0000 0.0000 0.0000 -2.5129 0.0000 3.7914
#
#
#
# Elastic Compliance Matrix: (Units=1/GPa)
#
#
# Indices 1 2 3 4 5 6 
#
# 1 0.013371 -0.005615 -0.005327 0.000000 0.001049 0.000000
# 2 -0.005615 0.023189 -0.001672 0.000000 0.001749 0.000000
# 3 -0.005327 -0.001672 0.008686 0.000000 -0.001813 0.000000
# 4 0.000000 0.000000 0.000000 0.078528 0.000000 0.052047
# 5 0.001049 0.001749 -0.001813 0.000000 0.035699 0.000000
# 6 0.000000 0.000000 0.000000 0.052047 0.000000 0.298249
#
#
# Mechanical properties :
#
#
# Convention : Reuss Voigt Hill
#
# Bulk Modulus (GPa) = 49.95535 71.89752 60.92644
# Shear Modulus (GPa) = 10.21195 22.63724 16.42459
#
# Velocity S-wave (km/s) = 2.67212 3.97845 3.38883
# Velocity P-wave (km/s) = 6.66704 8.44838 7.61001
#
# Compressibility (1/GPa) = 0.02001787
#
# Stress axis : x y z
#
# Youngs Moduli (GPa) = 74.78673 43.12435 115.13324
#
# Poissons Ratio (x) = 0.24214 0.61331
# Poissons Ratio (y) = 0.41993 0.19250
# Poissons Ratio (z) = 0.39838 0.07210
#
# Static dielectric constant tensor:
#      x y z
#    x 2.740410 0.000000 -0.031360 
#    y 0.000000 2.832830 0.000000 
#    z -0.031360 0.000000 3.041240 
# 
# 
# High freq. dielectric constant tensor:
#      x y z
#    x 1.527240 0.000000 0.000560 
#    y 0.000000 1.494220 0.000000 
#    z 0.000560 0.000000 1.578840 
# 
# From -- ./inp_files/81274.got.cif
#   From: 2010.06.25/outbox.cif.g09.slc.cpg/sg10_41_cif.got.tgz:81274.got - 2010.06.27 22:07:45.
