data_PCOD8060375
_publ_section_title
;
Structure prediction by ZEFSAII (Michael W. Deem and Ramdas Pophale) SiO2 
 PCOD8060375
Probable space group: P 2/M
;
_chemical_formula_sum "Si O2"
_cell_formula_units_Z 32
_cell_length_a 15.139749
_cell_length_b 18.068534
_cell_length_c 15.050959
_cell_angle_alpha 90.000000
_cell_angle_beta 149.620529
_cell_angle_gamma 90.000000
_cell_volume 2082.187934
_symmetry_space_group_name_H-M "P 2/M"
_symmetry_group_IT_number 10
_symmetry_cell_setting 'monoclinic'
loop_
_space_group_symop_operation_xyz
x,y,z
-x,y,-z
-x,-y,-z
x,-y,z
loop_
_atom_site_type_symbol
_atom_site_label
_atom_site_fract_x
_atom_site_fract_y
_atom_site_fract_z
Si Si1 0.637480 0.414807 0.544058
Si Si2 0.006111 0.655135 0.108861
Si Si3 0.423417 0.414045 0.709183
Si Si4 0.736226 0.083412 0.627061
Si Si5 0.638015 0.916211 0.747154
Si Si6 0.052832 0.411523 0.448534
Si Si7 0.793965 0.413006 0.074396
Si Si8 0.047747 0.824126 0.939353
O O1 0.500000 0.392622 0.500000
O O2 0.700411 0.500000 0.609821
O O3 0.550809 0.401903 0.373421
O O4 0.797808 0.358807 0.689006
O O5 0.876049 0.602185 0.049197
O O6 0.947272 0.738214 0.080688
O O7 0.000000 0.635826 0.000000
O O8 0.412518 0.500000 0.722367
O O9 0.243834 0.378232 0.590080
O O10 0.596105 0.380089 0.906648
O O11 0.565901 0.108260 0.421837
O O12 0.689648 0.086856 0.689627
O O13 0.901214 0.136451 0.750678
O O14 0.789253 0.000000 0.646861
O O15 0.662797 0.000000 0.804244
O O16 0.761729 0.861236 0.911673
O O17 0.054276 0.500000 0.444223
O O18 0.000000 0.383361 0.500000
O O19 0.912550 0.379106 0.256184
O O20 0.783138 0.500000 0.076997
O O21 0.000000 0.835410 0.000000
#
# Coordination Sequence:
#
# PCOD8060375 Si02
#       8
#     4   4   4   4   4   4   4   4
#     4  10  19  32  46  59  77 108 152 192 220 252
#     4  11  21  31  40  60  84 113 147 181 224 258
#     4   9  17  30  46  64  82 102 135 176 219 261
#     4   8  13  23  39  55  68  94 130 163 204 245
#     4   8  13  23  39  54  70  94 126 164 204 247
#     4   9  17  30  48  68  87 103 126 172 229 273
#     4  10  19  32  48  62  82 110 142 181 215 259
#     4   9  17  27  34  53  79 100 128 171 212 250
#
# _framework density 15.368449
#
# number of rings (size 3 to 8) (size 9 to 14) (size 15 to 20)
#    0.000    2.750    1.250    2.250    0.000    4.000 
#    9.000    2.500    0.000    0.000    0.000    0.000 
#    0.000    0.000    0.000    0.000    0.000    2.500 
#
# Total GULP energy -396579.640960 kJ/mol
# GULP energy per Si atom -12393.113780 kJ/mol
# Density = 1.533347 g / cm^3
# Si number density = 15.368449 Si / 1000 Ang^3
#
#
#
# Elastic Constant Matrix: (Units=GPa)
#
#
# Indices 1 2 3 4 5 6 
#
# 1 73.6054 5.8498 43.7465 0.0000 4.9624 0.0000
# 2 5.8498 23.4890 30.2244 0.0000 0.2689 0.0000
# 3 43.7465 30.2244 139.3671 0.0000 19.4158 0.0000
# 4 0.0000 0.0000 0.0000 15.4459 0.0000 1.4182
# 5 4.9624 0.2689 19.4158 0.0000 17.6321 0.0000
# 6 0.0000 0.0000 0.0000 1.4182 0.0000 2.4547
#
#
#
# Elastic Compliance Matrix: (Units=1/GPa)
#
#
# Indices 1 2 3 4 5 6 
#
# 1 0.017003 0.004211 -0.006585 0.000000 0.002402 0.000000
# 2 0.004211 0.063962 -0.017591 0.000000 0.017210 0.000000
# 3 -0.006585 -0.017591 0.015074 0.000000 -0.014478 0.000000
# 4 0.000000 0.000000 0.000000 0.068369 0.000000 -0.039500
# 5 0.002402 0.017210 -0.014478 0.000000 0.071718 0.000000
# 6 0.000000 0.000000 0.000000 -0.039500 0.000000 0.430204
#
#
# Mechanical properties :
#
#
# Convention : Reuss Voigt Hill
#
# Bulk Modulus (GPa) = 17.82203 44.01143 30.91673
# Shear Modulus (GPa) = 6.89689 17.54927 12.22308
#
# Velocity S-wave (km/s) = 2.12072 3.38287 2.82323
# Velocity P-wave (km/s) = 4.19741 6.63009 5.54871
#
# Compressibility (1/GPa) = 0.05611032
#
# Stress axis : x y z
#
# Youngs Moduli (GPa) = 58.81279 15.63417 66.33864
#
# Poissons Ratio (x) = -0.06584 0.43684
# Poissons Ratio (y) = -0.24768 1.16696
# Poissons Ratio (z) = 0.38729 0.27502
#
# Static dielectric constant tensor:
#      x y z
#    x 2.668200 0.000000 0.210250 
#    y 0.000000 2.702870 0.000000 
#    z 0.210250 0.000000 3.412130 
# 
# 
# High freq. dielectric constant tensor:
#      x y z
#    x 1.536930 0.000000 0.020980 
#    y 0.000000 1.546870 0.000000 
#    z 0.020980 0.000000 1.610440 
# 
# From -- ./inp_files/67728.got.cif
#   From: 2010.06.25/outbox.cif.g09.slc.cpg/sg10_34_cif.got.tgz:67728.got - 2010.06.27 22:07:45.
