data_PCOD8060583
_publ_section_title
;
Structure prediction by ZEFSAII (Michael W. Deem and Ramdas Pophale) SiO2 
 PCOD8060583
Probable space group: P 2/M
;
_chemical_formula_sum "Si O2"
_cell_formula_units_Z 32
_cell_length_a 20.748468
_cell_length_b 9.164744
_cell_length_c 12.167425
_cell_angle_alpha 90.000000
_cell_angle_beta 52.013097
_cell_angle_gamma 90.000000
_cell_volume 1823.537666
_symmetry_space_group_name_H-M "P 2/M"
_symmetry_group_IT_number 10
_symmetry_cell_setting 'monoclinic'
loop_
_space_group_symop_operation_xyz
x,y,z
-x,y,-z
-x,-y,-z
x,-y,z
loop_
_atom_site_type_symbol
_atom_site_label
_atom_site_fract_x
_atom_site_fract_y
_atom_site_fract_z
Si Si1 0.793242 0.673292 0.063585
Si Si2 0.379096 0.171186 0.360449
Si Si3 0.974132 0.326443 0.908942
Si Si4 0.290460 0.328495 0.071185
Si Si5 0.272601 0.667900 0.637351
Si Si6 0.478565 0.670517 0.899737
Si Si7 0.237341 0.828798 0.340519
Si Si8 0.870117 0.667466 0.383586
O O1 0.797278 0.500000 0.062483
O O2 0.743464 0.726943 0.222833
O O3 0.885573 0.736391 0.967544
O O4 0.746816 0.728350 0.004071
O O5 0.345034 0.236454 0.509671
O O6 0.466571 0.241603 0.243970
O O7 0.317870 0.211915 0.325662
O O8 0.389532 0.000000 0.363923
O O9 0.971751 0.500000 0.920427
O O10 0.039910 0.279828 0.747603
O O11 0.000000 0.261102 0.000000
O O12 0.277103 0.500000 0.102907
O O13 0.243089 0.245368 0.216538
O O14 0.385645 0.288425 0.971560
O O15 0.301079 0.500000 0.606917
O O16 0.188742 0.687406 0.658943
O O17 0.496726 0.500000 0.865677
O O18 0.500000 0.722001 0.000000
O O19 0.157673 0.767139 0.485807
O O20 0.227038 0.000000 0.336419
O O21 0.870138 0.500000 0.423199
#
# Coordination Sequence:
#
# PCOD8060583 Si02
#       8
#     4   4   4   4   4   4   4   4
#     4   9  17  30  50  77 105 131 161 202 249 296
#     4  10  20  32  50  75 100 127 164 209 249 290
#     4   9  14  25  48  80 107 125 157 205 250 289
#     4  10  20  34  52  74 101 131 165 204 248 297
#     4   9  16  29  50  75 102 130 160 197 246 297
#     4  10  19  32  51  74  98 127 166 209 249 291
#     4  10  20  33  49  71 101 133 166 204 248 294
#     4   9  16  27  50  78 101 127 161 202 246 291
#
# _framework density 17.548307000000001
#
# number of rings (size 3 to 8) (size 9 to 14) (size 15 to 20)
#    0.000    2.500    2.500    0.750    0.000    1.750 
#    0.000    1.875    0.000    9.375    0.000    0.000 
#    0.000    0.000    0.000    0.000    0.000    0.000 
#
# Total GULP energy -396837.315674 kJ/mol
# GULP energy per Si atom -12401.166115 kJ/mol
# Density = 1.750837 g / cm^3
# Si number density = 17.548307 Si / 1000 Ang^3
#
#
#
# Elastic Constant Matrix: (Units=GPa)
#
#
# Indices 1 2 3 4 5 6 
#
# 1 108.6687 31.4161 78.4670 0.0000 1.3579 0.0000
# 2 31.4161 45.7152 54.3409 0.0000 1.2409 0.0000
# 3 78.4670 54.3409 173.5440 0.0000 2.7508 0.0000
# 4 0.0000 0.0000 0.0000 2.1384 0.0000 0.9637
# 5 1.3579 1.2409 2.7508 0.0000 26.5450 0.0000
# 6 0.0000 0.0000 0.0000 0.9637 0.0000 9.6982
#
#
#
# Elastic Compliance Matrix: (Units=1/GPa)
#
#
# Indices 1 2 3 4 5 6 
#
# 1 0.013975 -0.003333 -0.005275 0.000000 -0.000012 0.000000
# 2 -0.003333 0.035645 -0.009646 0.000000 -0.000496 0.000000
# 3 -0.005275 -0.009646 0.011175 0.000000 -0.000437 0.000000
# 4 0.000000 0.000000 0.000000 0.489566 0.000000 -0.048649
# 5 -0.000012 -0.000496 -0.000437 0.000000 0.037741 0.000000
# 6 0.000000 0.000000 0.000000 -0.048649 0.000000 0.107946
#
#
# Mechanical properties :
#
#
# Convention : Reuss Voigt Hill
#
# Bulk Modulus (GPa) = 41.17637 72.93067 57.05352
# Shear Modulus (GPa) = 6.75080 18.58990 12.67035
#
# Velocity S-wave (km/s) = 1.96350 3.25831 2.68997
# Velocity P-wave (km/s) = 5.35313 7.47031 6.49852
#
# Compressibility (1/GPa) = 0.02428578
#
# Stress axis : x y z
#
# Youngs Moduli (GPa) = 71.55711 28.05414 89.48873
#
# Poissons Ratio (x) = 0.09352 0.47202
# Poissons Ratio (y) = 0.23853 0.86324
# Poissons Ratio (z) = 0.37744 0.27062
#
# Static dielectric constant tensor:
#      x y z
#    x 3.197190 0.000000 -0.038960 
#    y 0.000000 2.938610 0.000000 
#    z -0.038960 0.000000 3.372340 
# 
# 
# High freq. dielectric constant tensor:
#      x y z
#    x 1.654460 0.000000 -0.005660 
#    y 0.000000 1.647020 0.000000 
#    z -0.005660 0.000000 1.693340 
# 
# From -- ./inp_files/55183.got.cif
#   From: 2010.06.25/outbox.cif.g09.slc.cpg/sg10_28_cif.got.tgz:55183.got - 2010.06.27 22:07:45.
