data_PCOD8060969
_publ_section_title
;
Structure prediction by ZEFSAII (Michael W. Deem and Ramdas Pophale) SiO2 
 PCOD8060969
Probable space group: P 2/M
;
_chemical_formula_sum "Si O2"
_cell_formula_units_Z 30
_cell_length_a 13.771218
_cell_length_b 13.159543
_cell_length_c 25.335075
_cell_angle_alpha 90.000000
_cell_angle_beta 159.340262
_cell_angle_gamma 90.000000
_cell_volume 1619.889423
_symmetry_space_group_name_H-M "P 2/M"
_symmetry_group_IT_number 10
_symmetry_cell_setting 'monoclinic'
loop_
_space_group_symop_operation_xyz
x,y,z
-x,y,-z
-x,-y,-z
x,-y,z
loop_
_atom_site_type_symbol
_atom_site_label
_atom_site_fract_x
_atom_site_fract_y
_atom_site_fract_z
Si Si1 0.820562 0.890220 0.156467
Si Si2 0.704766 0.752218 0.007339
Si Si3 0.953502 0.887159 0.418575
Si Si4 0.685063 0.111454 0.903507
Si Si5 0.885618 0.618414 0.836075
Si Si6 0.404997 0.380303 0.510595
Si Si7 0.000000 0.737254 0.000000
Si Si8 0.941079 0.233659 0.312574
O O1 0.964356 0.861350 0.284626
O O2 0.945004 0.000000 0.200898
O O3 0.500000 0.907935 0.000000
O O4 0.855264 0.792722 0.136357
O O5 0.800362 0.839840 0.015493
O O6 0.378528 0.731726 0.846114
O O7 0.839366 0.646798 0.056787
O O8 0.633401 0.901286 0.248074
O O9 0.061235 0.807855 0.429414
O O10 0.000000 0.839381 0.500000
O O11 0.094533 0.000000 0.485841
O O12 0.817953 0.000000 0.961279
O O13 0.748419 0.188519 0.887964
O O14 0.888308 0.500000 0.848533
O O15 0.628105 0.650329 0.668532
O O16 0.882381 0.670957 0.891928
O O17 0.500000 0.345755 0.500000
O O18 0.348567 0.500000 0.481920
O O19 0.120459 0.327056 0.382617
#
# Coordination Sequence:
#
# PCOD8060969 Si02
#       8
#     4   4   4   4   4   4   2   4
#     4   9  16  28  50  78 107 135 167 206 254 309
#     4   9  18  32  52  80 103 137 175 218 261 308
#     4   9  18  31  49  74 105 139 172 207 254 311
#     4   9  17  30  48  74 106 136 170 210 255 312
#     4  10  21  37  55  74 103 138 179 224 273 321
#     4  10  22  39  57  77 105 143 180 221 275 330
#     4  10  20  32  54  78 100 136 180 224 266 314
#     4  10  19  32  55  80 105 136 178 219 260 313
#
# _framework density 18.519783
#
# number of rings (size 3 to 8) (size 9 to 14) (size 15 to 20)
#    0.000    2.533    0.000    2.000    1.867    3.733 
#    0.000    0.000    0.000   13.200    0.000    0.000 
#    0.000    0.000    0.000    0.000    0.000    0.000 
#
# Total GULP energy -371694.739290 kJ/mol
# GULP energy per Si atom -12389.824643 kJ/mol
# Density = 1.847763 g / cm^3
# Si number density = 18.519783 Si / 1000 Ang^3
#
#
#
# Elastic Constant Matrix: (Units=GPa)
#
#
# Indices 1 2 3 4 5 6 
#
# 1 120.0111 54.3348 42.7594 0.0000 -14.9344 0.0000
# 2 54.3348 86.6734 38.4046 0.0000 1.9365 0.0000
# 3 42.7594 38.4046 61.7141 0.0000 -12.0383 0.0000
# 4 0.0000 0.0000 0.0000 32.3483 0.0000 3.4868
# 5 -14.9344 1.9365 -12.0383 0.0000 34.9313 0.0000
# 6 0.0000 0.0000 0.0000 3.4868 0.0000 30.1043
#
#
#
# Elastic Compliance Matrix: (Units=1/GPa)
#
#
# Indices 1 2 3 4 5 6 
#
# 1 0.013436 -0.006631 -0.004278 0.000000 0.004638 0.000000
# 2 -0.006631 0.019926 -0.009192 0.000000 -0.007108 0.000000
# 3 -0.004278 -0.009192 0.026406 0.000000 0.007781 0.000000
# 4 0.000000 0.000000 0.000000 0.031304 0.000000 -0.003626
# 5 0.004638 -0.007108 0.007781 0.000000 0.033686 0.000000
# 6 0.000000 0.000000 0.000000 -0.003626 0.000000 0.033638
#
#
# Mechanical properties :
#
#
# Convention : Reuss Voigt Hill
#
# Bulk Modulus (GPa) = 51.11018 59.93292 55.52155
# Shear Modulus (GPa) = 24.37580 28.33677 26.35629
#
# Velocity S-wave (km/s) = 3.63189 3.91587 3.77655
# Velocity P-wave (km/s) = 6.72644 7.27167 7.00436
#
# Compressibility (1/GPa) = 0.01956557
#
# Stress axis : x y z
#
# Youngs Moduli (GPa) = 74.42596 50.18498 37.86997
#
# Poissons Ratio (x) = 0.33277 0.16202
# Poissons Ratio (y) = 0.49351 0.34811
# Poissons Ratio (z) = 0.31842 0.46131
#
# Static dielectric constant tensor:
#      x y z
#    x 3.641990 0.000000 -0.271850 
#    y 0.000000 3.504320 0.000000 
#    z -0.271850 0.000000 3.407620 
# 
# 
# High freq. dielectric constant tensor:
#      x y z
#    x 1.725260 0.000000 -0.019630 
#    y 0.000000 1.714530 0.000000 
#    z -0.019630 0.000000 1.696120 
# 
# From -- ./inp_files/93274.got.cif
#   From: 2010.06.25/outbox.cif.g09.slc.cpg/sg10_47_cif.got.tgz:93274.got - 2010.06.27 22:07:45.
