data_PCOD8060967
_publ_section_title
;
Structure prediction by ZEFSAII (Michael W. Deem and Ramdas Pophale) SiO2 
 PCOD8060967
Probable space group: P 2/M
;
_chemical_formula_sum "Si O2"
_cell_formula_units_Z 24
_cell_length_a 9.868282
_cell_length_b 9.904054
_cell_length_c 29.093238
_cell_angle_alpha 90.000000
_cell_angle_beta 152.891377
_cell_angle_gamma 90.000000
_cell_volume 1295.703136
_symmetry_space_group_name_H-M "P 2/M"
_symmetry_group_IT_number 10
_symmetry_cell_setting 'monoclinic'
loop_
_space_group_symop_operation_xyz
x,y,z
-x,y,-z
-x,-y,-z
x,-y,z
loop_
_atom_site_type_symbol
_atom_site_label
_atom_site_fract_x
_atom_site_fract_y
_atom_site_fract_z
Si Si1 0.128926 0.650179 0.435279
Si Si2 0.126973 0.158393 0.181208
Si Si3 0.791198 0.840502 0.168393
Si Si4 0.202482 0.650812 0.349936
Si Si5 0.877251 0.160462 0.011489
Si Si6 0.792713 0.158097 0.395097
O O1 0.028398 0.500000 0.420361
O O2 0.132750 0.659104 0.382194
O O3 0.451368 0.681845 0.554025
O O4 0.897151 0.761278 0.382090
O O5 0.448561 0.199425 0.298914
O O6 0.870747 0.202084 0.139927
O O7 0.110944 0.000000 0.169764
O O8 0.066273 0.219840 0.111879
O O9 0.461168 0.793738 0.082029
O O10 0.017063 0.765637 0.269586
O O11 0.835785 0.000000 0.188850
O O12 0.123928 0.500000 0.307924
O O13 0.898119 0.000000 0.015957
O O14 0.000000 0.220356 0.000000
O O15 0.000000 0.203062 0.500000
O O16 0.827288 0.000000 0.395429
#
# Coordination Sequence:
#
# PCOD8060967 Si02
#       6
#     4   4   4   4   4   4
#     4   9  19  35  52  72 102 141 180 213 254 313
#     4   9  18  32  49  74 112 144 168 211 264 309
#     4  10  19  32  55  80 102 134 177 215 258 312
#     4   9  19  35  53  74 104 139 172 215 266 309
#     4   9  18  31  50  78 107 136 175 217 258 308
#     4  10  20  32  50  77 110 140 170 215 266 304
#
# _framework density 18.522760999999999
#
# number of rings (size 3 to 8) (size 9 to 14) (size 15 to 20)
#    0.000    2.667    0.000    2.500    2.333    5.000 
#    0.000    2.500    0.000    3.500    0.000    0.000 
#    0.000    0.000    0.000    0.000    0.000    0.000 
#
# Total GULP energy -297474.092930 kJ/mol
# GULP energy per Si atom -12394.753872 kJ/mol
# Density = 1.848060 g / cm^3
# Si number density = 18.522761 Si / 1000 Ang^3
#
#
#
# Elastic Constant Matrix: (Units=GPa)
#
#
# Indices 1 2 3 4 5 6 
#
# 1 125.9977 29.2883 67.9614 0.0000 14.7894 0.0000
# 2 29.2883 34.3509 25.4373 0.0000 1.8834 0.0000
# 3 67.9614 25.4373 112.4014 0.0000 -8.7930 0.0000
# 4 0.0000 0.0000 0.0000 15.5110 0.0000 0.0194
# 5 14.7894 1.8834 -8.7930 0.0000 27.1678 0.0000
# 6 0.0000 0.0000 0.0000 0.0194 0.0000 20.5471
#
#
#
# Elastic Compliance Matrix: (Units=1/GPa)
#
#
# Indices 1 2 3 4 5 6 
#
# 1 0.015303 -0.005988 -0.008738 0.000000 -0.010743 0.000000
# 2 -0.005988 0.038022 -0.005064 0.000000 -0.001015 0.000000
# 3 -0.008738 -0.005064 0.016134 0.000000 0.010329 0.000000
# 4 0.000000 0.000000 0.000000 0.064470 0.000000 -0.000061
# 5 -0.010743 -0.001015 0.010329 0.000000 0.046070 0.000000
# 6 0.000000 0.000000 0.000000 -0.000061 0.000000 0.048669
#
#
# Mechanical properties :
#
#
# Convention : Reuss Voigt Hill
#
# Bulk Modulus (GPa) = 33.46728 57.56933 45.51831
# Shear Modulus (GPa) = 17.97228 22.64938 20.31083
#
# Velocity S-wave (km/s) = 3.11831 3.50063 3.31499
# Velocity P-wave (km/s) = 5.57428 6.89108 6.26736
#
# Compressibility (1/GPa) = 0.02987993
#
# Stress axis : x y z
#
# Youngs Moduli (GPa) = 65.34853 26.30053 61.98169
#
# Poissons Ratio (x) = 0.15748 0.54158
# Poissons Ratio (y) = 0.39130 0.31385
# Poissons Ratio (z) = 0.57100 0.13318
#
# Static dielectric constant tensor:
#      x y z
#    x 3.567190 0.000000 0.010430 
#    y 0.000000 3.138150 0.000000 
#    z 0.010430 0.000000 3.542530 
# 
# 
# High freq. dielectric constant tensor:
#      x y z
#    x 1.727150 0.000000 0.001270 
#    y 0.000000 1.677220 0.000000 
#    z 0.001270 0.000000 1.721920 
# 
# From -- ./inp_files/27986.got.cif
#   From: 2010.06.25/outbox.cif.g09.slc.cpg/sg10_14_cif.got.tgz:27986.got - 2010.06.27 22:07:45.
