data_PCOD8060850
_publ_section_title
;
Structure prediction by ZEFSAII (Michael W. Deem and Ramdas Pophale) SiO2 
 PCOD8060850
Probable space group: P 2/M
;
_chemical_formula_sum "Si O2"
_cell_formula_units_Z 28
_cell_length_a 10.287907
_cell_length_b 10.773089
_cell_length_c 14.743019
_cell_angle_alpha 90.000000
_cell_angle_beta 115.872673
_cell_angle_gamma 90.000000
_cell_volume 1470.223244
_symmetry_space_group_name_H-M "P 2/M"
_symmetry_group_IT_number 10
_symmetry_cell_setting 'monoclinic'
loop_
_space_group_symop_operation_xyz
x,y,z
-x,y,-z
-x,-y,-z
x,-y,z
loop_
_atom_site_type_symbol
_atom_site_label
_atom_site_fract_x
_atom_site_fract_y
_atom_site_fract_z
Si Si1 0.769672 0.000000 0.936209
Si Si2 0.650023 0.357912 0.015364
Si Si3 0.636928 0.354629 0.318870
Si Si4 0.869350 0.242475 0.730731
Si Si5 0.003685 0.000000 0.153682
Si Si6 0.332610 0.358481 0.466572
Si Si7 0.844496 0.643272 0.226928
Si Si8 0.662383 0.747543 0.832975
O O1 0.669610 0.880769 0.885821
O O2 0.895876 0.000000 0.902249
O O3 0.840246 0.000000 0.060324
O O4 0.640585 0.500000 0.040940
O O5 0.683812 0.350976 0.919552
O O6 0.500000 0.292584 0.000000
O O7 0.776854 0.297097 0.114483
O O8 0.597485 0.500000 0.291681
O O9 0.700591 0.334116 0.438241
O O10 0.761215 0.301623 0.289502
O O11 0.491699 0.273112 0.261743
O O12 0.747125 0.250996 0.615875
O O13 0.793321 0.275669 0.802895
O O14 0.958058 0.114794 0.768599
O O15 0.984867 0.339883 0.727761
O O16 0.500000 0.340453 0.500000
O O17 0.287023 0.500000 0.424835
O O18 0.813037 0.500000 0.225143
#
# Coordination Sequence:
#
# PCOD8060850 Si02
#       8
#     2   4   4   4   2   4   4   4
#     4   9  20  36  57  83 111 147 195 241 277 333
#     4  10  19  32  53  80 112 149 182 220 284 350
#     4  10  20  36  58  83 119 156 181 228 294 341
#     4  11  22  37  59  83 109 149 195 239 280 335
#     4   9  20  40  57  78 115 152 186 237 299 326
#     4  10  20  35  58  89 116 144 189 236 283 342
#     4  10  21  35  54  84 116 147 185 230 284 347
#     4  11  20  35  58  81 110 151 191 231 284 335
#
# _framework density 19.044727000000002
#
# number of rings (size 3 to 8) (size 9 to 14) (size 15 to 20)
#    0.000    1.857    2.857    1.714    0.000    4.000 
#    0.000    5.714    0.000    0.857    0.000    0.000 
#    0.000    0.000    0.000    0.000    0.000    0.000 
#
# Total GULP energy -346899.480563 kJ/mol
# GULP energy per Si atom -12389.267163 kJ/mol
# Density = 1.900138 g / cm^3
# Si number density = 19.044727 Si / 1000 Ang^3
#
#
#
# Elastic Constant Matrix: (Units=GPa)
#
#
# Indices 1 2 3 4 5 6 
#
# 1 117.4423 20.0741 41.4516 0.0000 -7.1712 0.0000
# 2 20.0741 56.5376 44.1070 0.0000 7.2946 0.0000
# 3 41.4516 44.1070 128.6796 0.0000 -1.5213 0.0000
# 4 0.0000 0.0000 0.0000 30.5471 0.0000 3.7179
# 5 -7.1712 7.2946 -1.5213 0.0000 29.9627 0.0000
# 6 0.0000 0.0000 0.0000 3.7179 0.0000 15.2602
#
#
#
# Elastic Compliance Matrix: (Units=1/GPa)
#
#
# Indices 1 2 3 4 5 6 
#
# 1 0.009888 -0.001911 -0.002498 0.000000 0.002705 0.000000
# 2 -0.001911 0.025763 -0.008300 0.000000 -0.007151 0.000000
# 3 -0.002498 -0.008300 0.011445 0.000000 0.002004 0.000000
# 4 0.000000 0.000000 0.000000 0.033737 0.000000 -0.008219
# 5 0.002705 -0.007151 0.002004 0.000000 0.035865 0.000000
# 6 0.000000 0.000000 0.000000 -0.008219 0.000000 0.067533
#
#
# Mechanical properties :
#
#
# Convention : Reuss Voigt Hill
#
# Bulk Modulus (GPa) = 46.12903 57.10275 51.61589
# Shear Modulus (GPa) = 23.05475 28.28912 25.67194
#
# Velocity S-wave (km/s) = 3.48308 3.85828 3.67547
# Velocity P-wave (km/s) = 6.36002 7.06378 6.72112
#
# Compressibility (1/GPa) = 0.02167832
#
# Stress axis : x y z
#
# Youngs Moduli (GPa) = 101.12827 38.81465 87.37715
#
# Poissons Ratio (x) = 0.07417 0.21830
# Poissons Ratio (y) = 0.19324 0.72522
# Poissons Ratio (z) = 0.25266 0.32216
#
# Static dielectric constant tensor:
#      x y z
#    x 3.433050 0.000000 0.002110 
#    y 0.000000 3.305050 0.000000 
#    z 0.002110 0.000000 3.776840 
# 
# 
# High freq. dielectric constant tensor:
#      x y z
#    x 1.741900 0.000000 -0.001640 
#    y 0.000000 1.703330 0.000000 
#    z -0.001640 0.000000 1.749460 
# 
# From -- ./inp_files/61311.got.cif
#   From: 2010.06.25/outbox.cif.g09.slc.cpg/sg10_31_cif.got.tgz:61311.got - 2010.06.27 22:07:45.
