data_PCOD8060646
_publ_section_title
;
Structure prediction by ZEFSAII (Michael W. Deem and Ramdas Pophale) SiO2 
 PCOD8060646
Probable space group: P 2/M
;
_chemical_formula_sum "Si O2"
_cell_formula_units_Z 28
_cell_length_a 17.527611
_cell_length_b 9.227682
_cell_length_c 14.164933
_cell_angle_alpha 90.000000
_cell_angle_beta 43.915756
_cell_angle_gamma 90.000000
_cell_volume 1589.054978
_symmetry_space_group_name_H-M "P 2/M"
_symmetry_group_IT_number 10
_symmetry_cell_setting 'monoclinic'
loop_
_space_group_symop_operation_xyz
x,y,z
-x,y,-z
-x,-y,-z
x,-y,z
loop_
_atom_site_type_symbol
_atom_site_label
_atom_site_fract_x
_atom_site_fract_y
_atom_site_fract_z
Si Si1 0.328525 0.172431 0.329510
Si Si2 0.901493 0.833343 0.807794
Si Si3 0.244646 0.666712 0.919607
Si Si4 0.283442 0.168694 0.164090
Si Si5 0.887081 0.333742 0.145637
Si Si6 0.576045 0.828318 0.136912
Si Si7 0.144817 0.168648 0.634441
O O1 0.301747 0.241296 0.250219
O O2 0.449765 0.221039 0.253527
O O3 0.241249 0.233565 0.482803
O O4 0.319181 0.000000 0.333245
O O5 0.839909 0.798558 0.763812
O O6 0.030630 0.803784 0.680760
O O7 0.877784 0.000000 0.857742
O O8 0.855449 0.732359 0.931152
O O9 0.259459 0.500000 0.935500
O O10 0.213330 0.682317 0.837985
O O11 0.358607 0.751368 0.836200
O O12 0.304738 0.000000 0.158084
O O13 0.371775 0.226077 0.008762
O O14 0.906616 0.500000 0.157518
O O15 0.852780 0.245754 0.267699
O O16 0.000000 0.271366 0.000000
O O17 0.589569 0.000000 0.136574
O O18 0.163587 0.000000 0.637252
#
# Coordination Sequence:
#
# PCOD8060646 Si02
#       7
#     4   4   4   4   4   4   4
#     4   9  17  30  48  73 104 135 164 197 238 286
#     4   9  17  29  47  75 103 127 159 199 243 288
#     4  10  19  32  52  74  95 122 161 207 251 289
#     4   8  14  26  48  74  99 130 166 199 235 281
#     4  10  20  35  53  72  94 127 165 199 245 301
#     4   9  17  31  52  75  99 129 167 204 238 279
#     4  10  20  31  48  76 105 130 160 200 245 288
#
# _framework density 17.620536999999999
#
# number of rings (size 3 to 8) (size 9 to 14) (size 15 to 20)
#    0.000    2.714    1.429    1.714    0.000    3.714 
#    0.000    4.286    0.000   14.571    0.000    5.000 
#    0.000    0.000    0.000    0.000    0.000    0.000 
#
# Total GULP energy -347128.350913 kJ/mol
# GULP energy per Si atom -12397.441104 kJ/mol
# Density = 1.758043 g / cm^3
# Si number density = 17.620537 Si / 1000 Ang^3
#
#
#
# Elastic Constant Matrix: (Units=GPa)
#
#
# Indices 1 2 3 4 5 6 
#
# 1 128.7235 40.8975 78.6750 0.0000 -11.5774 0.0000
# 2 40.8975 45.4816 33.1456 0.0000 -2.4865 0.0000
# 3 78.6750 33.1456 129.2137 0.0000 -13.4519 0.0000
# 4 0.0000 0.0000 0.0000 5.0622 0.0000 -8.7676
# 5 -11.5774 -2.4865 -13.4519 0.0000 23.6652 0.0000
# 6 0.0000 0.0000 0.0000 -8.7676 0.0000 9.8870
#
#
#
# Elastic Compliance Matrix: (Units=1/GPa)
#
#
# Indices 1 2 3 4 5 6 
#
# 1 0.014594 -0.008243 -0.006503 0.000000 0.002577 0.000000
# 2 -0.008243 0.031728 -0.003394 0.000000 -0.002628 0.000000
# 3 -0.006503 -0.003394 0.012968 0.000000 0.003834 0.000000
# 4 0.000000 0.000000 0.000000 -0.368623 0.000000 -0.326889
# 5 0.002577 -0.002628 0.003834 0.000000 0.045420 0.000000
# 6 0.000000 0.000000 0.000000 -0.326889 0.000000 -0.188736
#
#
# Mechanical properties :
#
#
# Convention : Reuss Voigt Hill
#
# Bulk Modulus (GPa) = 43.45659 67.65055 55.55357
# Shear Modulus (GPa) = -12.23394 17.76959 2.76782
#
# Velocity S-wave (km/s) = -2.63782 3.17907 1.25467
# Velocity P-wave (km/s) = 3.92920 7.20775 5.80475
#
# Compressibility (1/GPa) = 0.02301147
#
# Stress axis : x y z
#
# Youngs Moduli (GPa) = 68.52151 31.51750 77.11068
#
# Poissons Ratio (x) = 0.25979 0.50147
# Poissons Ratio (y) = 0.56481 0.26168
# Poissons Ratio (z) = 0.44561 0.10696
#
# Static dielectric constant tensor:
#      x y z
#    x 3.461790 0.000000 -0.088480 
#    y 0.000000 2.966740 0.000000 
#    z -0.088480 0.000000 3.249240 
# 
# 
# High freq. dielectric constant tensor:
#      x y z
#    x 1.694930 0.000000 -0.007740 
#    y 0.000000 1.645790 0.000000 
#    z -0.007740 0.000000 1.663670 
# 
# From -- ./inp_files/55010.got.cif
#   From: 2010.06.25/outbox.cif.g09.slc.cpg/sg10_28_cif.got.tgz:55010.got - 2010.06.27 22:07:45.
