data_PCOD8060882
_publ_section_title
;
Structure prediction by ZEFSAII (Michael W. Deem and Ramdas Pophale) SiO2 
 PCOD8060882
Probable space group: P 2/M
;
_chemical_formula_sum "Si O2"
_cell_formula_units_Z 32
_cell_length_a 11.053588
_cell_length_b 8.762552
_cell_length_c 21.759387
_cell_angle_alpha 90.000000
_cell_angle_beta 49.400417
_cell_angle_gamma 90.000000
_cell_volume 1600.221994
_symmetry_space_group_name_H-M "P 2/M"
_symmetry_group_IT_number 10
_symmetry_cell_setting 'monoclinic'
loop_
_space_group_symop_operation_xyz
x,y,z
-x,y,-z
-x,-y,-z
x,-y,z
loop_
_atom_site_type_symbol
_atom_site_label
_atom_site_fract_x
_atom_site_fract_y
_atom_site_fract_z
Si Si1 0.371722 0.180383 0.993252
Si Si2 0.177621 0.819566 0.459168
Si Si3 0.925741 0.823320 0.840256
Si Si4 0.259759 0.818323 0.687157
Si Si5 0.172963 0.323062 0.589234
Si Si6 0.513825 0.671929 0.165891
Si Si7 0.515759 0.320285 0.688988
Si Si8 0.161985 0.670483 0.248877
O O1 0.408812 0.220845 0.910792
O O2 0.372774 0.000000 0.999918
O O3 0.500000 0.249249 0.000000
O O4 0.193270 0.244417 0.068124
O O5 0.226420 0.768208 0.511530
O O6 0.303368 0.740910 0.371694
O O7 0.000000 0.763805 0.500000
O O8 0.192504 0.000000 0.448297
O O9 0.836830 0.794770 0.805317
O O10 0.104634 0.754018 0.776573
O O11 0.945014 0.000000 0.845972
O O12 0.262873 0.745209 0.618591
O O13 0.417158 0.767866 0.669975
O O14 0.253041 0.000000 0.682634
O O15 0.219814 0.500000 0.566945
O O16 0.983191 0.298626 0.657096
O O17 0.564327 0.500000 0.132380
O O18 0.566625 0.715730 0.217551
O O19 0.323923 0.688897 0.232324
O O20 0.514871 0.500000 0.676320
O O21 0.145711 0.500000 0.225690
#
# Coordination Sequence:
#
# PCOD8060882 Si02
#       8
#     4   4   4   4   4   4   4   4
#     4  10  19  32  53  84 117 148 186 232 284 344
#     4  11  24  41  62  91 123 152 187 232 286 343
#     4   9  18  33  53  80 113 147 183 230 283 335
#     4  10  21  39  61  84 114 152 198 244 288 339
#     4  10  20  36  60  88 117 153 194 237 287 339
#     4  10  21  35  53  80 113 149 188 233 287 342
#     4  11  24  42  61  82 113 153 197 241 287 343
#     4   9  17  30  51  80 112 145 182 225 279 340
#
# _framework density 19.997225
#
# number of rings (size 3 to 8) (size 9 to 14) (size 15 to 20)
#    0.000    2.000    1.250    2.250    0.000    5.250 
#    0.000    3.125    0.000    3.750    0.000    0.000 
#    0.000    0.000    0.000    0.000    0.000    0.000 
#
# Total GULP energy -396681.109347 kJ/mol
# GULP energy per Si atom -12396.284667 kJ/mol
# Density = 1.995171 g / cm^3
# Si number density = 19.997225 Si / 1000 Ang^3
#
#
#
# Elastic Constant Matrix: (Units=GPa)
#
#
# Indices 1 2 3 4 5 6 
#
# 1 71.5934 12.6094 23.1605 0.0000 5.4243 0.0000
# 2 12.6094 30.9662 15.8599 0.0000 -2.3254 0.0000
# 3 23.1605 15.8599 97.4572 0.0000 5.2784 0.0000
# 4 0.0000 0.0000 0.0000 29.9287 0.0000 2.3680
# 5 5.4243 -2.3254 5.2784 0.0000 23.1917 0.0000
# 6 0.0000 0.0000 0.0000 2.3680 0.0000 21.5842
#
#
#
# Elastic Compliance Matrix: (Units=1/GPa)
#
#
# Indices 1 2 3 4 5 6 
#
# 1 0.016089 -0.005424 -0.002741 0.000000 -0.003683 0.000000
# 2 -0.005424 0.037616 -0.005169 0.000000 0.006217 0.000000
# 3 -0.002741 -0.005169 0.011894 0.000000 -0.002584 0.000000
# 4 0.000000 0.000000 0.000000 0.033705 0.000000 -0.003698
# 5 -0.003683 0.006217 -0.002584 0.000000 0.045192 0.000000
# 6 0.000000 0.000000 0.000000 -0.003698 0.000000 0.046736
#
#
# Mechanical properties :
#
#
# Convention : Reuss Voigt Hill
#
# Bulk Modulus (GPa) = 25.68737 33.69737 29.69237
# Shear Modulus (GPa) = 21.65651 24.83338 23.24494
#
# Velocity S-wave (km/s) = 3.29443 3.52780 3.41311
# Velocity P-wave (km/s) = 5.22919 5.78631 5.51479
#
# Compressibility (1/GPa) = 0.03892964
#
# Stress axis : x y z
#
# Youngs Moduli (GPa) = 62.15455 26.58424 84.07891
#
# Poissons Ratio (x) = 0.14419 0.23049
# Poissons Ratio (y) = 0.33712 0.43463
# Poissons Ratio (z) = 0.17039 0.13742
#
# Static dielectric constant tensor:
#      x y z
#    x 3.502170 0.000000 -0.204810 
#    y 0.000000 3.526540 0.000000 
#    z -0.204810 0.000000 3.763500 
# 
# 
# High freq. dielectric constant tensor:
#      x y z
#    x 1.762900 0.000000 -0.005830 
#    y 0.000000 1.773190 0.000000 
#    z -0.005830 0.000000 1.787410 
# 
# From -- ./inp_files/83567.got.cif
#   From: 2010.06.25/outbox.cif.g09.slc.cpg/sg10_42_cif.got.tgz:83567.got - 2010.06.27 22:07:45.
