data_PCOD8060034
_publ_section_title
;
Structure prediction by ZEFSAII (Michael W. Deem and Ramdas Pophale) SiO2 
 PCOD8060034
Probable space group: P 2/M
;
_chemical_formula_sum "Si O2"
_cell_formula_units_Z 32
_cell_length_a 20.890575
_cell_length_b 9.265342
_cell_length_c 24.760162
_cell_angle_alpha 90.000000
_cell_angle_beta 159.279615
_cell_angle_gamma 90.000000
_cell_volume 1695.635636
_symmetry_space_group_name_H-M "P 2/M"
_symmetry_group_IT_number 10
_symmetry_cell_setting 'monoclinic'
loop_
_space_group_symop_operation_xyz
x,y,z
-x,y,-z
-x,-y,-z
x,-y,z
loop_
_atom_site_type_symbol
_atom_site_label
_atom_site_fract_x
_atom_site_fract_y
_atom_site_fract_z
Si Si1 0.374372 0.663157 0.017453
Si Si2 0.898886 0.165617 0.138319
Si Si3 0.804424 0.168695 0.827488
Si Si4 0.791322 0.834092 0.692368
Si Si5 0.363587 0.837579 0.842372
Si Si6 0.533705 0.665785 0.409313
Si Si7 0.849856 0.335843 0.587050
Si Si8 0.108674 0.659326 0.705773
O O1 0.426148 0.500000 0.073577
O O2 0.282849 0.739228 0.997626
O O3 0.234495 0.670508 0.857858
O O4 0.557457 0.746427 0.145254
O O5 0.996941 0.186898 0.157664
O O6 0.048936 0.213405 0.299634
O O7 0.845819 0.000000 0.107184
O O8 0.773794 0.206188 0.740879
O O9 0.654687 0.250779 0.744661
O O10 0.785298 0.000000 0.824341
O O11 0.000000 0.225465 0.000000
O O12 0.657532 0.730581 0.554475
O O13 0.732977 0.000000 0.635631
O O14 0.170602 0.772035 0.709041
O O15 0.330183 0.000000 0.796384
O O16 0.500000 0.831303 0.000000
O O17 0.495709 0.500000 0.393732
O O18 0.636828 0.680177 0.432586
O O19 0.912895 0.500000 0.653187
O O20 0.903005 0.311835 0.565468
O O21 0.126089 0.500000 0.693874
#
# Coordination Sequence:
#
# PCOD8060034 Si02
#       8
#     4   4   4   4   4   4   4   4
#     4   9  15  22  31  44  67 100 135 169 208 255
#     4   9  15  23  37  56  76  99 133 178 219 253
#     4  10  21  36  51  67  91 123 154 184 223 272
#     4   9  18  32  49  68  90 118 152 188 227 272
#     4   9  15  20  27  42  65  95 133 173 208 244
#     4  10  19  31  49  72  94 117 149 189 230 271
#     4   8  15  26  38  54  78 106 135 170 214 261
#     4   8  13  21  31  43  64  97 133 166 203 249
#
# _framework density 18.871979
#
# number of rings (size 3 to 8) (size 9 to 14) (size 15 to 20)
#    0.000    3.000    0.000    2.625    0.000    7.750 
#    0.000    0.000    0.000    0.000    0.000    0.000 
#    0.000    0.000    0.000    1.125    0.000   24.750 
#
# Total GULP energy -396531.452155 kJ/mol
# GULP energy per Si atom -12391.607880 kJ/mol
# Density = 1.882903 g / cm^3
# Si number density = 18.871979 Si / 1000 Ang^3
#
#
#
# Elastic Constant Matrix: (Units=GPa)
#
#
# Indices 1 2 3 4 5 6 
#
# 1 67.8151 48.8404 45.8206 0.0000 48.5960 0.0000
# 2 48.8404 120.3077 42.5428 0.0000 32.8588 0.0000
# 3 45.8206 42.5428 70.9284 0.0000 33.2503 0.0000
# 4 0.0000 0.0000 0.0000 20.0516 0.0000 16.8377
# 5 48.5960 32.8588 33.2503 0.0000 35.3758 0.0000
# 6 0.0000 0.0000 0.0000 16.8377 0.0000 24.9134
#
#
#
# Elastic Compliance Matrix: (Units=1/GPa)
#
#
# Indices 1 2 3 4 5 6 
#
# 1 1.107720 -0.046940 0.009763 0.000000 -1.487260 0.000000
# 2 -0.046940 0.013568 -0.003816 0.000000 0.055465 0.000000
# 3 0.009763 -0.003816 0.026290 0.000000 -0.034577 0.000000
# 4 0.000000 0.000000 0.000000 0.115316 0.000000 -0.077936
# 5 -1.487260 0.055465 -0.034577 0.000000 2.052310 0.000000
# 6 0.000000 0.000000 0.000000 -0.077936 0.000000 0.092812
#
#
# Mechanical properties :
#
#
# Convention : Reuss Voigt Hill
#
# Bulk Modulus (GPa) = 0.93845 59.27319 30.10582
# Shear Modulus (GPa) = 1.30032 24.19133 12.74583
#
# Velocity S-wave (km/s) = 0.83097 3.58420 2.60163
# Velocity P-wave (km/s) = 1.19123 6.97172 5.00120
#
# Compressibility (1/GPa) = 1.06559228
#
# Stress axis : x y z
#
# Youngs Moduli (GPa) = 0.90276 73.70093 38.03717
#
# Poissons Ratio (x) = 3.45950 -0.37135
# Poissons Ratio (y) = 0.04238 0.14515
# Poissons Ratio (z) = -0.00881 0.28125
#
# Static dielectric constant tensor:
#      x y z
#    x 3.609080 0.000000 0.697370 
#    y 0.000000 3.548180 0.000000 
#    z 0.697370 0.000000 3.073570 
# 
# 
# High freq. dielectric constant tensor:
#      x y z
#    x 1.721970 0.000000 0.061480 
#    y 0.000000 1.740990 0.000000 
#    z 0.061480 0.000000 1.676030 
# 
# From -- ./inp_files/95754.got.cif
#   From: 2010.06.25/outbox.cif.g09.slc.cpg/sg10_48_cif.got.tgz:95754.got - 2010.06.27 22:07:45.
