data_PCOD8060452
_publ_section_title
;
Structure prediction by ZEFSAII (Michael W. Deem and Ramdas Pophale) SiO2 
 PCOD8060452
Probable space group: P 2/M
;
_chemical_formula_sum "Si O2"
_cell_formula_units_Z 28
_cell_length_a 17.167278
_cell_length_b 9.096382
_cell_length_c 20.542055
_cell_angle_alpha 90.000000
_cell_angle_beta 28.027907
_cell_angle_gamma 90.000000
_cell_volume 1507.373611
_symmetry_space_group_name_H-M "P 2/M"
_symmetry_group_IT_number 10
_symmetry_cell_setting 'monoclinic'
loop_
_space_group_symop_operation_xyz
x,y,z
-x,y,-z
-x,-y,-z
x,-y,z
loop_
_atom_site_type_symbol
_atom_site_label
_atom_site_fract_x
_atom_site_fract_y
_atom_site_fract_z
Si Si1 0.010183 0.175260 0.419187
Si Si2 0.368234 0.171065 0.143765
Si Si3 0.884154 0.673011 0.027162
Si Si4 0.510612 0.328402 0.297419
Si Si5 0.073087 0.830526 0.138566
Si Si6 0.551946 0.166655 0.137897
Si Si7 0.814763 0.174614 0.438334
O O1 0.186801 0.234218 0.262911
O O2 0.000000 0.240275 0.500000
O O3 0.873387 0.228293 0.467482
O O4 0.004435 0.000000 0.427419
O O5 0.418231 0.195577 0.181180
O O6 0.365094 0.000000 0.128701
O O7 0.500000 0.252502 0.000000
O O8 0.898743 0.500000 0.005599
O O9 0.694922 0.716050 0.186150
O O10 0.948101 0.746386 0.913752
O O11 0.000000 0.729101 0.000000
O O12 0.477410 0.500000 0.329892
O O13 0.503429 0.284085 0.227552
O O14 0.365815 0.243740 0.443580
O O15 0.945154 0.770097 0.287362
O O16 0.034764 0.000000 0.152794
O O17 0.260812 0.809394 0.026590
O O18 0.534021 0.000000 0.178650
O O19 0.800826 0.000000 0.446585
#
# Coordination Sequence:
#
# PCOD8060452 Si02
#       7
#     4   4   4   4   4   4   4
#     4   9  16  25  40  64  93 127 165 201 237 276
#     4   9  15  23  40  67  93 118 156 205 247 280
#     4   9  19  37  58  77  97 123 158 199 241 289
#     4  10  20  33  51  73  95 124 162 198 236 289
#     4   9  18  31  50  77 104 130 160 197 245 295
#     4   9  16  29  49  71  96 126 162 205 248 287
#     4  10  19  32  49  72 104 135 164 201 243 288
#
# _framework density 18.575354999999998
#
# number of rings (size 3 to 8) (size 9 to 14) (size 15 to 20)
#    0.000    2.714    0.000    2.143    0.000    7.143 
#    0.000    0.714    0.000    8.571    0.000    0.000 
#    0.000    0.000    0.000    0.000    0.000    0.000 
#
# Total GULP energy -346996.516556 kJ/mol
# GULP energy per Si atom -12392.732734 kJ/mol
# Density = 1.853308 g / cm^3
# Si number density = 18.575355 Si / 1000 Ang^3
#
#
#
# Elastic Constant Matrix: (Units=GPa)
#
#
# Indices 1 2 3 4 5 6 
#
# 1 75.1520 25.6450 48.5233 0.0000 -10.3423 0.0000
# 2 25.6450 26.2564 23.9599 0.0000 -3.2232 0.0000
# 3 48.5233 23.9599 112.5505 0.0000 -10.8259 0.0000
# 4 0.0000 0.0000 0.0000 21.6553 0.0000 -3.6890
# 5 -10.3423 -3.2232 -10.8259 0.0000 25.8389 0.0000
# 6 0.0000 0.0000 0.0000 -3.6890 0.0000 9.7522
#
#
#
# Elastic Compliance Matrix: (Units=1/GPa)
#
#
# Indices 1 2 3 4 5 6 
#
# 1 0.023735 -0.016974 -0.006157 0.000000 0.004803 0.000000
# 2 -0.016974 0.059484 -0.005507 0.000000 -0.001681 0.000000
# 3 -0.006157 -0.005507 0.012930 0.000000 0.002266 0.000000
# 4 0.000000 0.000000 0.000000 0.049359 0.000000 0.018671
# 5 0.004803 -0.001681 0.002266 0.000000 0.041363 0.000000
# 6 0.000000 0.000000 0.000000 0.018671 0.000000 0.109604
#
#
# Mechanical properties :
#
#
# Convention : Reuss Voigt Hill
#
# Bulk Modulus (GPa) = 25.72540 45.57950 35.65245
# Shear Modulus (GPa) = 13.63481 19.17133 16.40307
#
# Velocity S-wave (km/s) = 2.71223 3.21609 2.97485
# Velocity P-wave (km/s) = 4.86699 6.19531 5.57088
#
# Compressibility (1/GPa) = 0.03887209
#
# Stress axis : x y z
#
# Youngs Moduli (GPa) = 42.13137 16.81138 77.34131
#
# Poissons Ratio (x) = 0.28536 0.47622
# Poissons Ratio (y) = 0.71514 0.42589
# Poissons Ratio (z) = 0.25942 0.09257
#
# Static dielectric constant tensor:
#      x y z
#    x 3.366690 0.000000 -0.155430 
#    y 0.000000 3.015620 0.000000 
#    z -0.155430 0.000000 3.734920 
# 
# 
# High freq. dielectric constant tensor:
#      x y z
#    x 1.707230 0.000000 -0.010500 
#    y 0.000000 1.673940 0.000000 
#    z -0.010500 0.000000 1.737320 
# 
# From -- ./inp_files/85615.got.cif
#   From: 2010.06.25/outbox.cif.g09.slc.cpg/sg10_43_cif.got.tgz:85615.got - 2010.06.27 22:07:45.
