data_PCOD8060148
_publ_section_title
;
Structure prediction by ZEFSAII (Michael W. Deem and Ramdas Pophale) SiO2 
 PCOD8060148
Probable space group: P 2/M
;
_chemical_formula_sum "Si O2"
_cell_formula_units_Z 28
_cell_length_a 9.073216
_cell_length_b 7.753412
_cell_length_c 30.094546
_cell_angle_alpha 90.000000
_cell_angle_beta 138.914184
_cell_angle_gamma 90.000000
_cell_volume 1391.335862
_symmetry_space_group_name_H-M "P 2/M"
_symmetry_group_IT_number 10
_symmetry_cell_setting 'monoclinic'
loop_
_space_group_symop_operation_xyz
x,y,z
-x,y,-z
-x,-y,-z
x,-y,z
loop_
_atom_site_type_symbol
_atom_site_label
_atom_site_fract_x
_atom_site_fract_y
_atom_site_fract_z
Si Si1 0.079999 0.701703 0.800521
Si Si2 0.422605 0.298297 0.800521
Si Si3 0.986646 0.500000 0.424700
Si Si4 0.408348 0.807328 0.330961
Si Si5 0.747757 0.705420 0.065637
Si Si6 0.080428 0.294580 0.065637
Si Si7 0.636853 0.500000 0.424700
Si Si8 0.253543 0.807328 0.669039
O O1 0.024217 0.500000 0.790292
O O2 0.269788 0.743578 0.807915
O O3 0.167380 0.772306 0.867486
O O4 0.856095 0.801099 0.736569
O O5 0.427242 0.500000 0.790292
O O6 0.670052 0.227694 0.867486
O O7 0.326751 0.198901 0.736569
O O8 0.824624 0.500000 0.429850
O O9 0.944787 0.671094 0.385748
O O10 0.243855 0.500000 0.500000
O O11 0.483953 0.671094 0.385748
O O12 0.531276 0.762545 0.312510
O O13 0.472343 0.000000 0.361744
O O14 0.741567 0.500000 0.063790
O O15 0.914460 0.776647 0.065784
O O16 0.500000 0.779563 0.000000
O O17 0.077383 0.500000 0.063790
O O18 0.000000 0.220437 0.000000
O O19 0.163622 0.000000 0.638256
#
# Coordination Sequence:
#
# PCOD8060148 Si02
#       8
#     4   4   2   4   4   4   2   4
#     4  10  19  31  50  75 105 144 188 232 279 329
#     4  10  19  31  50  75 105 144 188 232 279 329
#     4   9  18  34  57  85 116 145 176 221 273 325
#     4  10  20  34  55  82 111 145 184 225 273 328
#     4   9  16  26  43  70 105 143 185 233 281 330
#     4   9  16  26  43  70 105 143 185 233 281 330
#     4   9  18  34  57  85 116 145 176 221 273 325
#     4  10  20  34  55  82 111 145 184 225 273 328
#
# _framework density 20.124547
#
# number of rings (size 3 to 8) (size 9 to 14) (size 15 to 20)
#    0.000    2.429    1.429    1.714    0.000    5.714 
#    0.000    2.857    0.000    2.571    0.000    2.000 
#    0.000    0.000    0.000    0.000    0.000    0.000 
#
# Total GULP energy -347233.449548 kJ/mol
# GULP energy per Si atom -12401.194627 kJ/mol
# Density = 2.007874 g / cm^3
# Si number density = 20.124547 Si / 1000 Ang^3
#
#
#
# Elastic Constant Matrix: (Units=GPa)
#
#
# Indices 1 2 3 4 5 6 
#
# 1 105.5335 30.7698 57.3596 0.0000 0.0585 0.0000
# 2 30.7698 87.9894 55.2354 0.0000 1.2051 0.0000
# 3 57.3596 55.2354 174.0424 0.0000 3.3160 0.0000
# 4 0.0000 0.0000 0.0000 3.5129 0.0000 -0.4277
# 5 0.0585 1.2051 3.3160 0.0000 24.8417 0.0000
# 6 0.0000 0.0000 0.0000 -0.4277 0.0000 12.1960
#
#
#
# Elastic Compliance Matrix: (Units=1/GPa)
#
#
# Indices 1 2 3 4 5 6 
#
# 1 0.011856 -0.002116 -0.003246 0.000000 0.000508 0.000000
# 2 -0.002116 0.014570 -0.003923 0.000000 -0.000178 0.000000
# 3 -0.003246 -0.003923 0.008077 0.000000 -0.000880 0.000000
# 4 0.000000 0.000000 0.000000 0.285889 0.000000 0.010026
# 5 0.000508 -0.000178 -0.000880 0.000000 0.040380 0.000000
# 6 0.000000 0.000000 0.000000 0.010026 0.000000 0.082345
#
#
# Mechanical properties :
#
#
# Convention : Reuss Voigt Hill
#
# Bulk Modulus (GPa) = 62.75773 72.69944 67.72858
# Shear Modulus (GPa) = 10.70664 23.05682 16.88173
#
# Velocity S-wave (km/s) = 2.30906 3.38850 2.89945
# Velocity P-wave (km/s) = 6.19365 7.17722 6.70350
#
# Compressibility (1/GPa) = 0.01593429
#
# Stress axis : x y z
#
# Youngs Moduli (GPa) = 84.34291 68.63316 123.80205
#
# Poissons Ratio (x) = 0.14520 0.40184
# Poissons Ratio (y) = 0.17843 0.48574
# Poissons Ratio (z) = 0.27376 0.26928
#
# Static dielectric constant tensor:
#      x y z
#    x 3.528650 0.000000 0.010060 
#    y 0.000000 3.414550 0.000000 
#    z 0.010060 0.000000 3.732880 
# 
# 
# High freq. dielectric constant tensor:
#      x y z
#    x 1.770430 0.000000 0.000640 
#    y 0.000000 1.768570 0.000000 
#    z 0.000640 0.000000 1.783520 
# 
# From -- ./inp_files/92156.got.cif
#   From: 2010.06.25/outbox.cif.g09.slc.cpg/sg10_47_cif.got.tgz:92156.got - 2010.06.27 22:07:45.
