data_PCOD8060675
_publ_section_title
;
Structure prediction by ZEFSAII (Michael W. Deem and Ramdas Pophale) SiO2 
 PCOD8060675
Probable space group: P 2/M
;
_chemical_formula_sum "Si O2"
_cell_formula_units_Z 28
_cell_length_a 22.874364
_cell_length_b 8.752611
_cell_length_c 9.341068
_cell_angle_alpha 90.000000
_cell_angle_beta 52.340285
_cell_angle_gamma 90.000000
_cell_volume 1480.533430
_symmetry_space_group_name_H-M "P 2/M"
_symmetry_group_IT_number 10
_symmetry_cell_setting 'monoclinic'
loop_
_space_group_symop_operation_xyz
x,y,z
-x,y,-z
-x,-y,-z
x,-y,z
loop_
_atom_site_type_symbol
_atom_site_label
_atom_site_fract_x
_atom_site_fract_y
_atom_site_fract_z
Si Si1 0.500870 0.817989 0.661026
Si Si2 0.929134 0.681503 0.692565
Si Si3 0.222874 0.819122 0.070613
Si Si4 0.770997 0.320623 0.249583
Si Si5 0.361780 0.818794 0.046080
Si Si6 0.643087 0.181551 0.622104
Si Si7 0.064533 0.320917 0.997957
O O1 0.500000 0.753975 0.500000
O O2 0.574188 0.759627 0.631513
O O3 0.498837 0.000000 0.661629
O O4 0.430483 0.752506 0.852406
O O5 0.919320 0.500000 0.698925
O O6 0.941852 0.743983 0.832966
O O7 0.000000 0.738858 0.500000
O O8 0.853773 0.757318 0.747940
O O9 0.241242 0.750970 0.887991
O O10 0.220312 0.000000 0.059832
O O11 0.286286 0.764668 0.084768
O O12 0.757410 0.500000 0.255539
O O13 0.717368 0.248922 0.445783
O O14 0.853729 0.285217 0.184048
O O15 0.365462 0.756851 0.203026
O O16 0.367134 0.000000 0.040127
O O17 0.648439 0.000000 0.611082
O O18 0.049986 0.500000 0.026176
O O19 0.000000 0.242417 0.000000
#
# Coordination Sequence:
#
# PCOD8060675 Si02
#       7
#     4   4   4   4   4   4   4
#     4   9  16  28  50  77 101 130 169 207 245 294
#     4   9  18  32  50  72  99 131 167 206 248 297
#     4  10  19  33  53  74 100 134 171 210 250 296
#     4  10  20  34  52  74 101 132 168 208 251 303
#     4   9  18  31  49  77 106 131 165 209 253 295
#     4  10  19  32  52  76 103 132 164 207 253 297
#     4   8  15  29  48  68  90 121 162 203 240 284
#
# _framework density 18.912102999999998
#
# number of rings (size 3 to 8) (size 9 to 14) (size 15 to 20)
#    0.000    2.714    0.000    3.000    0.000    5.429 
#    0.000    2.857    0.000   17.143    0.000    0.000 
#    0.000    0.000    0.000    0.000    0.000    0.000 
#
# Total GULP energy -347131.948643 kJ/mol
# GULP energy per Si atom -12397.569594 kJ/mol
# Density = 1.886906 g / cm^3
# Si number density = 18.912103 Si / 1000 Ang^3
#
#
#
# Elastic Constant Matrix: (Units=GPa)
#
#
# Indices 1 2 3 4 5 6 
#
# 1 167.1195 25.4004 82.2450 0.0000 -6.3657 0.0000
# 2 25.4004 27.9063 23.0116 0.0000 -1.9430 0.0000
# 3 82.2450 23.0116 171.7469 0.0000 -11.6632 0.0000
# 4 0.0000 0.0000 0.0000 22.4994 0.0000 -2.9799
# 5 -6.3657 -1.9430 -11.6632 0.0000 31.0592 0.0000
# 6 0.0000 0.0000 0.0000 -2.9799 0.0000 15.8413
#
#
#
# Elastic Compliance Matrix: (Units=1/GPa)
#
#
# Indices 1 2 3 4 5 6 
#
# 1 0.008376 -0.004850 -0.003351 0.000000 0.000155 0.000000
# 2 -0.004850 0.043101 -0.003424 0.000000 0.000417 0.000000
# 3 -0.003351 -0.003424 0.008029 0.000000 0.002114 0.000000
# 4 0.000000 0.000000 0.000000 0.045581 0.000000 0.008574
# 5 0.000155 0.000417 0.002114 0.000000 0.033048 0.000000
# 6 0.000000 0.000000 0.000000 0.008574 0.000000 0.064739
#
#
# Mechanical properties :
#
#
# Convention : Reuss Voigt Hill
#
# Bulk Modulus (GPa) = 27.58085 69.78742 48.68414
# Shear Modulus (GPa) = 20.98990 29.62102 25.30546
#
# Velocity S-wave (km/s) = 3.33508 3.96188 3.66191
# Velocity P-wave (km/s) = 5.42639 7.60984 6.60891
#
# Compressibility (1/GPa) = 0.03625703
#
# Stress axis : x y z
#
# Youngs Moduli (GPa) = 119.39298 23.20120 124.54267
#
# Poissons Ratio (x) = 0.11252 0.41729
# Poissons Ratio (y) = 0.57905 0.42645
# Poissons Ratio (z) = 0.40003 0.07944
#
# Static dielectric constant tensor:
#      x y z
#    x 3.788370 0.000000 -0.038290 
#    y 0.000000 3.020690 0.000000 
#    z -0.038290 0.000000 3.633130 
# 
# 
# High freq. dielectric constant tensor:
#      x y z
#    x 1.746550 0.000000 -0.007930 
#    y 0.000000 1.689510 0.000000 
#    z -0.007930 0.000000 1.743340 
# 
# From -- ./inp_files/34565.got.cif
#   From: 2010.06.25/outbox.cif.g09.slc.cpg/sg10_18_cif.got.tgz:34565.got - 2010.06.27 22:07:45.
