data_PCOD8060187
_publ_section_title
;
Structure prediction by ZEFSAII (Michael W. Deem and Ramdas Pophale) SiO2 
 PCOD8060187
Probable space group: P 2/M
;
_chemical_formula_sum "Si O2"
_cell_formula_units_Z 28
_cell_length_a 12.617022
_cell_length_b 9.260862
_cell_length_c 14.424078
_cell_angle_alpha 90.000000
_cell_angle_beta 124.154241
_cell_angle_gamma 90.000000
_cell_volume 1394.696370
_symmetry_space_group_name_H-M "P 2/M"
_symmetry_group_IT_number 10
_symmetry_cell_setting 'monoclinic'
loop_
_space_group_symop_operation_xyz
x,y,z
-x,y,-z
-x,-y,-z
x,-y,z
loop_
_atom_site_type_symbol
_atom_site_label
_atom_site_fract_x
_atom_site_fract_y
_atom_site_fract_z
Si Si1 0.659696 0.170280 0.382621
Si Si2 0.780036 0.670739 0.280454
Si Si3 0.767382 0.670096 0.978565
Si Si4 0.356840 0.155416 0.931619
Si Si5 0.244744 0.835167 0.371051
Si Si6 0.366351 0.166559 0.238894
Si Si7 0.985458 0.666917 0.228686
O O1 0.766656 0.257089 0.375115
O O2 0.687515 0.216497 0.501706
O O3 0.512486 0.214595 0.287363
O O4 0.678835 0.000000 0.375436
O O5 0.760693 0.500000 0.279145
O O6 0.666727 0.743712 0.167870
O O7 0.910062 0.707342 0.287095
O O8 0.742922 0.500000 0.963575
O O9 0.744223 0.736844 0.865247
O O10 0.660934 0.750547 0.985699
O O11 0.903204 0.704137 0.095350
O O12 0.279573 0.000000 0.892631
O O13 0.500000 0.106651 0.000000
O O14 0.346223 0.812127 0.338640
O O15 0.115920 0.750766 0.286647
O O16 0.202874 0.000000 0.359347
O O17 0.345664 0.000000 0.199815
O O18 0.019048 0.500000 0.246146
#
# Coordination Sequence:
#
# PCOD8060187 Si02
#       7
#     4   4   4   4   4   4   4
#     4  10  21  38  59  84 114 147 185 232 285 334
#     4  10  21  36  55  81 113 148 185 227 277 333
#     4  10  21  36  55  81 113 148 185 227 277 333
#     4  10  19  31  50  78 111 146 183 226 278 332
#     4  10  22  39  60  83 109 147 193 237 277 328
#     4  10  21  38  59  84 114 147 185 232 285 334
#     4   9  21  40  57  79 114 151 184 225 281 335
#
# _framework density 20.076055
#
# number of rings (size 3 to 8) (size 9 to 14) (size 15 to 20)
#    0.000    2.143    0.000    3.429    0.000   12.571 
#    0.000    5.714    0.000    2.571    0.000    0.000 
#    0.000    0.000    0.000    0.000    0.000    0.000 
#
# Total GULP energy -346958.905268 kJ/mol
# GULP energy per Si atom -12391.389474 kJ/mol
# Density = 2.003036 g / cm^3
# Si number density = 20.076055 Si / 1000 Ang^3
#
#
#
# Elastic Constant Matrix: (Units=GPa)
#
#
# Indices 1 2 3 4 5 6 
#
# 1 43.6374 19.9843 22.3824 0.0000 3.4602 0.0000
# 2 19.9843 73.9825 33.9262 0.0000 2.3594 0.0000
# 3 22.3824 33.9262 89.7131 0.0000 -8.8909 0.0000
# 4 0.0000 0.0000 0.0000 19.0797 0.0000 -14.5286
# 5 3.4602 2.3594 -8.8909 0.0000 32.8861 0.0000
# 6 0.0000 0.0000 0.0000 -14.5286 0.0000 -6.7585
#
#
#
# Elastic Compliance Matrix: (Units=1/GPa)
#
#
# Indices 1 2 3 4 5 6 
#
# 1 0.028401 -0.004962 -0.005621 0.000000 -0.004152 0.000000
# 2 -0.004962 0.017497 -0.005602 0.000000 -0.002248 0.000000
# 3 -0.005621 -0.005602 0.015172 0.000000 0.005095 0.000000
# 4 0.000000 0.000000 0.000000 0.019876 0.000000 -0.042727
# 5 -0.004152 -0.002248 0.005095 0.000000 0.032384 0.000000
# 6 0.000000 0.000000 0.000000 -0.042727 0.000000 -0.056112
#
#
# Mechanical properties :
#
#
# Convention : Reuss Voigt Hill
#
# Bulk Modulus (GPa) = 34.84090 39.99098 37.41594
# Shear Modulus (GPa) = 50.42658 17.77746 34.10202
#
# Velocity S-wave (km/s) = 5.01720 2.97897 4.12593
# Velocity P-wave (km/s) = 7.13829 5.63874 6.43236
#
# Compressibility (1/GPa) = 0.02870190
#
# Stress axis : x y z
#
# Youngs Moduli (GPa) = 35.21052 57.15109 65.90957
#
# Poissons Ratio (x) = 0.28357 0.37046
# Poissons Ratio (y) = 0.17470 0.36921
# Poissons Ratio (z) = 0.19791 0.32015
#
# Static dielectric constant tensor:
#      x y z
#    x 3.647990 0.000000 -0.312530 
#    y 0.000000 3.611590 0.000000 
#    z -0.312530 0.000000 3.843180 
# 
# 
# High freq. dielectric constant tensor:
#      x y z
#    x 1.774050 0.000000 -0.012020 
#    y 0.000000 1.787600 0.000000 
#    z -0.012020 0.000000 1.783620 
# 
# From -- ./inp_files/49393.got.cif
#   From: 2010.06.25/outbox.cif.g09.slc.cpg/sg10_25_cif.got.tgz:49393.got - 2010.06.27 22:07:45.
