data_PCOD8060026
_publ_section_title
;
Structure prediction by ZEFSAII (Michael W. Deem and Ramdas Pophale) SiO2 
 PCOD8060026
Probable space group: P 2/M
;
_chemical_formula_sum "Si O2"
_cell_formula_units_Z 32
_cell_length_a 17.660767
_cell_length_b 9.128632
_cell_length_c 24.059549
_cell_angle_alpha 90.000000
_cell_angle_beta 152.409388
_cell_angle_gamma 90.000000
_cell_volume 1796.491568
_symmetry_space_group_name_H-M "P 2/M"
_symmetry_group_IT_number 10
_symmetry_cell_setting 'monoclinic'
loop_
_space_group_symop_operation_xyz
x,y,z
-x,y,-z
-x,-y,-z
x,-y,z
loop_
_atom_site_type_symbol
_atom_site_label
_atom_site_fract_x
_atom_site_fract_y
_atom_site_fract_z
Si Si1 0.793409 0.825998 0.629499
Si Si2 0.456026 0.329248 0.604970
Si Si3 0.586286 0.327571 0.809815
Si Si4 0.654397 0.173369 0.133550
Si Si5 0.527516 0.173541 0.881408
Si Si6 0.258947 0.329277 0.294639
Si Si7 0.155901 0.826087 0.843792
Si Si8 0.053015 0.326748 0.975533
O O1 0.698690 0.766518 0.514066
O O2 0.704161 0.762202 0.625959
O O3 0.979821 0.765743 0.748266
O O4 0.784960 0.000000 0.625049
O O5 0.413952 0.500000 0.571516
O O6 0.493703 0.287141 0.692904
O O7 0.612569 0.288275 0.669452
O O8 0.586187 0.500000 0.819932
O O9 0.495838 0.250178 0.802051
O O10 0.770971 0.264430 0.927471
O O11 0.627820 0.222683 0.180479
O O12 0.811313 0.227461 0.199438
O O13 0.651181 0.000000 0.130784
O O14 0.500000 0.235161 0.000000
O O15 0.530576 0.000000 0.874814
O O16 0.699584 0.227413 0.020841
O O17 0.269446 0.500000 0.316555
O O18 0.079168 0.283723 0.156728
O O19 0.152658 0.000000 0.842630
O O20 0.065740 0.500000 0.991261
O O21 0.000000 0.257415 0.000000
#
# Coordination Sequence:
#
# PCOD8060026 Si02
#       8
#     4   4   4   4   4   4   4   4
#     4  11  22  33  48  70  96 123 155 199 241 274
#     4  10  21  36  50  64  88 128 170 198 225 270
#     4  10  19  31  49  71  96 124 155 195 237 276
#     4   7  11  23  46  72  95 122 152 181 220 277
#     4   9  16  28  50  77 100 121 149 186 231 286
#     4  10  19  33  53  71  90 120 160 200 234 276
#     4   8  15  29  48  72 100 125 151 186 231 280
#     4   9  15  28  50  72  90 115 156 195 226 269
#
# _framework density 17.812497
#
# number of rings (size 3 to 8) (size 9 to 14) (size 15 to 20)
#    0.000    2.750    1.250    3.000    0.000    2.500 
#    0.000    0.625    0.000    6.375    0.000    5.250 
#    0.000    0.000    0.000    0.000    0.000    0.000 
#
# Total GULP energy -396528.010887 kJ/mol
# GULP energy per Si atom -12391.500340 kJ/mol
# Density = 1.777196 g / cm^3
# Si number density = 17.812497 Si / 1000 Ang^3
#
#
#
# Elastic Constant Matrix: (Units=GPa)
#
#
# Indices 1 2 3 4 5 6 
#
# 1 139.7772 35.4366 38.6870 0.0000 -21.2569 0.0000
# 2 35.4366 32.6337 28.2151 0.0000 -6.9380 0.0000
# 3 38.6870 28.2151 66.7308 0.0000 -15.5528 0.0000
# 4 0.0000 0.0000 0.0000 11.6966 0.0000 -9.4742
# 5 -21.2569 -6.9380 -15.5528 0.0000 21.7311 0.0000
# 6 0.0000 0.0000 0.0000 -9.4742 0.0000 20.8380
#
#
#
# Elastic Compliance Matrix: (Units=1/GPa)
#
#
# Indices 1 2 3 4 5 6 
#
# 1 0.010877 -0.009899 -0.000453 0.000000 0.007155 0.000000
# 2 -0.009899 0.057325 -0.019792 0.000000 -0.005546 0.000000
# 3 -0.000453 -0.019792 0.026453 0.000000 0.012170 0.000000
# 4 0.000000 0.000000 0.000000 0.135335 0.000000 0.061532
# 5 0.007155 -0.005546 0.012170 0.000000 0.059956 0.000000
# 6 0.000000 0.000000 0.000000 0.061532 0.000000 0.075965
#
#
# Mechanical properties :
#
#
# Convention : Reuss Voigt Hill
#
# Bulk Modulus (GPa) = 29.09656 49.31322 39.20489
# Shear Modulus (GPa) = 11.42451 19.97335 15.69893
#
# Velocity S-wave (km/s) = 2.53529 3.35223 2.97196
# Velocity P-wave (km/s) = 4.99406 6.53667 5.81673
#
# Compressibility (1/GPa) = 0.03436832
#
# Stress axis : x y z
#
# Youngs Moduli (GPa) = 91.93435 17.44436 37.80263
#
# Poissons Ratio (x) = 0.17267 0.01713
# Poissons Ratio (y) = 0.91002 0.74819
# Poissons Ratio (z) = 0.04166 0.34526
#
# Static dielectric constant tensor:
#      x y z
#    x 3.656740 0.000000 0.114280 
#    y 0.000000 2.836330 0.000000 
#    z 0.114280 0.000000 3.260960 
# 
# 
# High freq. dielectric constant tensor:
#      x y z
#    x 1.702750 0.000000 -0.004490 
#    y 0.000000 1.646130 0.000000 
#    z -0.004490 0.000000 1.666980 
# 
# From -- ./inp_files/89972.got.cif
#   From: 2010.06.25/outbox.cif.g09.slc.cpg/sg10_45_cif.got.tgz:89972.got - 2010.06.27 22:07:45.
