data_PCOD8060792
_publ_section_title
;
Structure prediction by ZEFSAII (Michael W. Deem and Ramdas Pophale) SiO2 
 PCOD8060792
Probable space group: P 2/M
;
_chemical_formula_sum "Si O2"
_cell_formula_units_Z 32
_cell_length_a 17.551188
_cell_length_b 8.874204
_cell_length_c 23.542286
_cell_angle_alpha 90.000000
_cell_angle_beta 30.669977
_cell_angle_gamma 90.000000
_cell_volume 1870.394913
_symmetry_space_group_name_H-M "P 2/M"
_symmetry_group_IT_number 10
_symmetry_cell_setting 'monoclinic'
loop_
_space_group_symop_operation_xyz
x,y,z
-x,y,-z
-x,-y,-z
x,-y,z
loop_
_atom_site_type_symbol
_atom_site_label
_atom_site_fract_x
_atom_site_fract_y
_atom_site_fract_z
Si Si1 0.461540 0.325486 0.635426
Si Si2 0.225168 0.822479 0.590263
Si Si3 0.902970 0.323156 0.433828
Si Si4 0.628485 0.172268 0.193792
Si Si5 0.676596 0.175249 0.663683
Si Si6 0.184854 0.674567 0.734260
Si Si7 0.118050 0.833150 0.373635
Si Si8 0.961259 0.826823 0.960609
O O1 0.507436 0.500000 0.607786
O O2 0.607123 0.228582 0.530104
O O3 0.387536 0.280937 0.742349
O O4 0.343739 0.292683 0.661355
O O5 0.109345 0.751826 0.619844
O O6 0.172713 0.773332 0.685860
O O7 0.217454 0.000000 0.589742
O O8 0.897729 0.500000 0.430049
O O9 0.762828 0.271678 0.561396
O O10 0.061855 0.277666 0.360215
O O11 0.499524 0.205088 0.230160
O O12 0.619729 0.000000 0.221506
O O13 0.785768 0.201845 0.062241
O O14 0.726815 0.221184 0.695825
O O15 0.718202 0.000000 0.626602
O O16 0.169724 0.500000 0.727958
O O17 0.050541 0.718473 0.861789
O O18 0.000000 0.835028 0.500000
O O19 0.135954 0.000000 0.335742
O O20 0.006188 0.000000 0.920001
O O21 0.000000 0.782258 0.000000
#
# Coordination Sequence:
#
# PCOD8060792 Si02
#       8
#     4   4   4   4   4   4   4   4
#     4  11  22  35  52  76 105 135 170 213 260 308
#     4  12  24  37  54  74 101 137 176 213 256 310
#     4  11  20  30  47  73 104 135 168 206 255 308
#     4  10  19  32  53  77 104 139 177 214 253 299
#     4   9  17  30  48  72 102 138 174 209 250 300
#     4  11  24  39  54  74 103 136 174 218 264 306
#     4   8  15  28  45  67  99 136 172 204 244 301
#     4  10  20  35  55  78 102 134 179 220 254 299
#
# _framework density 17.108687
#
# number of rings (size 3 to 8) (size 9 to 14) (size 15 to 20)
#    0.000    1.750    2.500    4.125    0.000    6.000 
#    0.000    0.000    0.000    0.000    0.000    0.875 
#    0.000    7.000    0.000    0.000    0.000    0.000 
#
# Total GULP energy -396822.621287 kJ/mol
# GULP energy per Si atom -12400.706915 kJ/mol
# Density = 1.706975 g / cm^3
# Si number density = 17.108687 Si / 1000 Ang^3
#
#
#
# Elastic Constant Matrix: (Units=GPa)
#
#
# Indices 1 2 3 4 5 6 
#
# 1 131.0085 65.3429 35.2953 0.0000 -10.9247 0.0000
# 2 65.3429 107.0638 30.3905 0.0000 -0.3692 0.0000
# 3 35.2953 30.3905 46.3384 0.0000 -0.6864 0.0000
# 4 0.0000 0.0000 0.0000 18.1698 0.0000 -0.7479
# 5 -10.9247 -0.3692 -0.6864 0.0000 22.2017 0.0000
# 6 0.0000 0.0000 0.0000 -0.7479 0.0000 23.8720
#
#
#
# Elastic Compliance Matrix: (Units=1/GPa)
#
#
# Indices 1 2 3 4 5 6 
#
# 1 0.012694 -0.006153 -0.005545 0.000000 0.005972 0.000000
# 2 -0.006153 0.014459 -0.004840 0.000000 -0.002937 0.000000
# 3 -0.005545 -0.004840 0.028950 0.000000 -0.001914 0.000000
# 4 0.000000 0.000000 0.000000 0.055107 0.000000 0.001727
# 5 0.005972 -0.002937 -0.001914 0.000000 0.047872 0.000000
# 6 0.000000 0.000000 0.000000 0.001727 0.000000 0.041944
#
#
# Mechanical properties :
#
#
# Convention : Reuss Voigt Hill
#
# Bulk Modulus (GPa) = 43.42652 60.71868 52.07260
# Shear Modulus (GPa) = 20.68017 23.07417 21.87717
#
# Velocity S-wave (km/s) = 3.48048 3.67642 3.57979
# Velocity P-wave (km/s) = 6.44899 7.32041 6.89848
#
# Compressibility (1/GPa) = 0.02302741
#
# Stress axis : x y z
#
# Youngs Moduli (GPa) = 78.77877 69.16117 34.54250
#
# Poissons Ratio (x) = 0.42552 0.19154
# Poissons Ratio (y) = 0.48470 0.16718
# Poissons Ratio (z) = 0.43683 0.33473
#
# Static dielectric constant tensor:
#      x y z
#    x 3.603780 0.000000 -0.248160 
#    y 0.000000 3.221520 0.000000 
#    z -0.248160 0.000000 2.947820 
# 
# 
# High freq. dielectric constant tensor:
#      x y z
#    x 1.669950 0.000000 -0.017000 
#    y 0.000000 1.665230 0.000000 
#    z -0.017000 0.000000 1.620010 
# 
# From -- ./inp_files/49790.got.cif
#   From: 2010.06.25/outbox.cif.g09.slc.cpg/sg10_25_cif.got.tgz:49790.got - 2010.06.27 22:07:45.
