data_PCOD8060832
_publ_section_title
;
Structure prediction by ZEFSAII (Michael W. Deem and Ramdas Pophale) SiO2 
 PCOD8060832
Probable space group: P 2/M
;
_chemical_formula_sum "Si O2"
_cell_formula_units_Z 20
_cell_length_a 12.591426
_cell_length_b 8.668899
_cell_length_c 29.352747
_cell_angle_alpha 90.000000
_cell_angle_beta 160.235528
_cell_angle_gamma 90.000000
_cell_volume 1083.434591
_symmetry_space_group_name_H-M "P 2/M"
_symmetry_group_IT_number 10
_symmetry_cell_setting 'monoclinic'
loop_
_space_group_symop_operation_xyz
x,y,z
-x,y,-z
-x,-y,-z
x,-y,z
loop_
_atom_site_type_symbol
_atom_site_label
_atom_site_fract_x
_atom_site_fract_y
_atom_site_fract_z
Si Si1 0.633508 0.179388 0.350137
Si Si2 0.640592 0.319887 0.849886
Si Si3 0.167799 0.670400 0.341291
Si Si4 0.103323 0.821165 0.686430
Si Si5 0.471012 0.681900 0.598182
O O1 0.475533 0.279710 0.247312
O O2 0.471796 0.225510 0.332374
O O3 0.000000 0.220250 0.500000
O O4 0.578207 0.000000 0.317609
O O5 0.592766 0.500000 0.839762
O O6 0.451798 0.224953 0.811951
O O7 0.000000 0.269886 0.000000
O O8 0.500000 0.661940 0.500000
O O9 0.013928 0.500000 0.278565
O O10 0.239886 0.727589 0.318880
O O11 0.938896 0.784409 0.276701
O O12 0.862279 0.725599 0.558297
O O13 0.042064 0.000000 0.652780
O O14 0.467622 0.500000 0.606278
#
# Coordination Sequence:
#
# PCOD8060832 Si02
#       5
#     4   4   4   4   4
#     4  11  22  35  55  84 113 143 178 223 279 327
#     4  11  24  40  58  79 106 146 189 225 268 324
#     4   8  16  30  48  74 106 141 179 219 266 317
#     4  11  20  31  51  79 110 143 178 222 275 322
#     4  10  19  32  53  79 109 144 181 223 267 316
#
# _framework density 18.459814000000001
#
# number of rings (size 3 to 8) (size 9 to 14) (size 15 to 20)
#    0.000    1.800    2.000    4.800    0.000    6.800 
#    0.000    0.000    0.000    1.200    0.000    8.400 
#    0.000    0.000    0.000    0.000    0.000    0.000 
#
# Total GULP energy -248002.427906 kJ/mol
# GULP energy per Si atom -12400.121395 kJ/mol
# Density = 1.841780 g / cm^3
# Si number density = 18.459814 Si / 1000 Ang^3
#
#
#
# Elastic Constant Matrix: (Units=GPa)
#
#
# Indices 1 2 3 4 5 6 
#
# 1 136.1602 26.0409 34.5306 0.0000 21.5752 0.0000
# 2 26.0409 48.9944 18.5406 -0.0001 6.4615 0.0000
# 3 34.5306 18.5406 62.5657 -0.0002 7.5652 0.0001
# 4 0.0000 -0.0001 -0.0002 15.7606 0.0000 2.2981
# 5 21.5752 6.4615 7.5652 0.0000 19.5741 0.0000
# 6 0.0000 0.0000 0.0001 2.2981 0.0000 20.4420
#
#
#
# Elastic Compliance Matrix: (Units=1/GPa)
#
#
# Indices 1 2 3 4 5 6 
#
# 1 0.010250 -0.002860 -0.003732 0.000000 -0.008911 0.000000
# 2 -0.002860 0.024302 -0.005281 0.000000 -0.002828 0.000000
# 3 -0.003732 -0.005281 0.019826 0.000000 -0.001806 0.000000
# 4 0.000000 0.000000 0.000000 0.064507 0.000000 -0.007252
# 5 -0.008911 -0.002828 -0.001806 0.000000 0.062542 0.000000
# 6 0.000000 0.000000 0.000000 -0.007252 0.000000 0.049734
#
#
# Mechanical properties :
#
#
# Convention : Reuss Voigt Hill
#
# Bulk Modulus (GPa) = 32.64585 45.10496 38.87540
# Shear Modulus (GPa) = 18.85954 22.39589 20.62772
#
# Velocity S-wave (km/s) = 3.19980 3.48692 3.34644
# Velocity P-wave (km/s) = 5.60132 6.37955 6.00306
#
# Compressibility (1/GPa) = 0.03063176
#
# Stress axis : x y z
#
# Youngs Moduli (GPa) = 97.56351 41.14836 50.43847
#
# Poissons Ratio (x) = 0.11770 0.18822
# Poissons Ratio (y) = 0.27907 0.26637
# Poissons Ratio (z) = 0.36408 0.21731
#
# Static dielectric constant tensor:
#      x y z
#    x 3.926360 0.000000 0.232680 
#    y 0.000000 3.393730 0.000000 
#    z 0.232680 0.000000 3.009790 
# 
# 
# High freq. dielectric constant tensor:
#      x y z
#    x 1.735900 0.000000 0.018720 
#    y 0.000000 1.723790 0.000000 
#    z 0.018720 0.000000 1.660570 
# 
# From -- ./inp_files/22178.got.cif
#   From: 2010.06.25/outbox.cif.g09.slc.cpg/sg10_12_cif.got.tgz:22178.got - 2010.06.27 22:07:45.
