data_PCOD8060661
_publ_section_title
;
Structure prediction by ZEFSAII (Michael W. Deem and Ramdas Pophale) SiO2 
 PCOD8060661
Probable space group: P 2/M
;
_chemical_formula_sum "Si O2"
_cell_formula_units_Z 24
_cell_length_a 18.897042
_cell_length_b 9.050835
_cell_length_c 9.067544
_cell_angle_alpha 90.000000
_cell_angle_beta 121.260321
_cell_angle_gamma 90.000000
_cell_volume 1325.702310
_symmetry_space_group_name_H-M "P 2/M"
_symmetry_group_IT_number 10
_symmetry_cell_setting 'monoclinic'
loop_
_space_group_symop_operation_xyz
x,y,z
-x,y,-z
-x,-y,-z
x,-y,z
loop_
_atom_site_type_symbol
_atom_site_label
_atom_site_fract_x
_atom_site_fract_y
_atom_site_fract_z
Si Si1 0.982355 0.671444 0.650819
Si Si2 0.830332 0.824718 0.637881
Si Si3 0.500583 0.329411 0.667398
Si Si4 0.668913 0.328629 0.346549
Si Si5 0.585522 0.166431 0.005593
Si Si6 0.079468 0.837291 0.983087
O O1 0.967581 0.500000 0.667604
O O2 0.900686 0.759995 0.607456
O O3 0.000000 0.702800 0.500000
O O4 0.062819 0.724697 0.831120
O O5 0.743017 0.755841 0.503984
O O6 0.829022 0.000000 0.613812
O O7 0.846831 0.784067 0.828320
O O8 0.500000 0.271106 0.500000
O O9 0.526432 0.500000 0.703995
O O10 0.410438 0.303476 0.637272
O O11 0.570832 0.238418 0.829986
O O12 0.691012 0.500000 0.351577
O O13 0.653516 0.260685 0.167891
O O14 0.618558 0.000000 0.021489
O O15 0.500000 0.169450 0.000000
O O16 0.098888 0.000000 0.938103
O O17 0.000000 0.847645 0.000000
#
# Coordination Sequence:
#
# PCOD8060661 Si02
#       6
#     4   4   4   4   4   4
#     4  10  20  33  51  76 102 129 164 203 242 289
#     4  10  20  34  52  74 100 129 164 204 246 293
#     4   9  18  33  52  74 100 131 166 204 247 294
#     4  10  19  32  52  75  99 129 165 204 247 293
#     4   9  17  30  49  72  98 130 167 203 241 291
#     4   8  16  31  50  71  95 128 166 200 239 290
#
# _framework density 18.103611999999998
#
# number of rings (size 3 to 8) (size 9 to 14) (size 15 to 20)
#    0.000    2.667    0.000    3.000    0.000    8.000 
#    0.000    1.667    0.000    6.000    0.000    0.000 
#    0.000    0.000    0.000    0.000    0.000    0.000 
#
# Total GULP energy -297555.607786 kJ/mol
# GULP energy per Si atom -12398.150324 kJ/mol
# Density = 1.806241 g / cm^3
# Si number density = 18.103612 Si / 1000 Ang^3
#
#
#
# Elastic Constant Matrix: (Units=GPa)
#
#
# Indices 1 2 3 4 5 6 
#
# 1 28.6561 36.0540 40.8874 0.0000 -5.3095 0.0000
# 2 36.0540 125.6260 87.9851 0.0000 -4.4701 0.0000
# 3 40.8874 87.9851 178.1562 0.0000 -4.5144 0.0000
# 4 0.0000 0.0000 0.0000 39.3717 0.0000 2.2121
# 5 -5.3095 -4.4701 -4.5144 0.0000 27.4132 0.0000
# 6 0.0000 0.0000 0.0000 2.2121 0.0000 15.8000
#
#
#
# Elastic Compliance Matrix: (Units=1/GPa)
#
#
# Indices 1 2 3 4 5 6 
#
# 1 0.063820 -0.012073 -0.008456 0.000000 0.009000 0.000000
# 2 -0.012073 0.014481 -0.004398 0.000000 -0.000701 0.000000
# 3 -0.008456 -0.004398 0.009707 0.000000 -0.000757 0.000000
# 4 0.000000 0.000000 0.000000 0.025600 0.000000 -0.003584
# 5 0.009000 -0.000701 -0.000757 0.000000 0.037983 0.000000
# 6 0.000000 0.000000 0.000000 -0.003584 0.000000 0.063793
#
#
# Mechanical properties :
#
#
# Convention : Reuss Voigt Hill
#
# Bulk Modulus (GPa) = 26.21133 73.58791 49.89962
# Shear Modulus (GPa) = 17.98845 27.68443 22.83644
#
# Velocity S-wave (km/s) = 3.15562 3.91477 3.55551
# Velocity P-wave (km/s) = 5.27136 7.82115 6.66924
#
# Compressibility (1/GPa) = 0.03815144
#
# Stress axis : x y z
#
# Youngs Moduli (GPa) = 15.66917 69.05759 103.02005
#
# Poissons Ratio (x) = 0.83374 0.87116
# Poissons Ratio (y) = 0.18918 0.45313
# Poissons Ratio (z) = 0.13250 0.30375
#
# Static dielectric constant tensor:
#      x y z
#    x 2.921230 0.000000 0.027130 
#    y 0.000000 3.490410 0.000000 
#    z 0.027130 0.000000 3.816500 
# 
# 
# High freq. dielectric constant tensor:
#      x y z
#    x 1.654490 0.000000 0.000370 
#    y 0.000000 1.712550 0.000000 
#    z 0.000370 0.000000 1.720100 
# 
# From -- ./inp_files/33435.got.cif
#   From: 2010.06.25/outbox.cif.g09.slc.cpg/sg10_17_cif.got.tgz:33435.got - 2010.06.27 22:07:45.
