data_PCOD8060861
_publ_section_title
;
Structure prediction by ZEFSAII (Michael W. Deem and Ramdas Pophale) SiO2 
 PCOD8060861
Probable space group: P 2/M
;
_chemical_formula_sum "Si O2"
_cell_formula_units_Z 32
_cell_length_a 14.248623
_cell_length_b 9.151209
_cell_length_c 12.590083
_cell_angle_alpha 90.000000
_cell_angle_beta 84.571180
_cell_angle_gamma 90.000000
_cell_volume 1634.284094
_symmetry_space_group_name_H-M "P 2/M"
_symmetry_group_IT_number 10
_symmetry_cell_setting 'monoclinic'
loop_
_space_group_symop_operation_xyz
x,y,z
-x,y,-z
-x,-y,-z
x,-y,z
loop_
_atom_site_type_symbol
_atom_site_label
_atom_site_fract_x
_atom_site_fract_y
_atom_site_fract_z
Si Si1 0.369301 0.331116 0.273015
Si Si2 0.263011 0.826324 0.866067
Si Si3 0.229523 0.165818 0.638490
Si Si4 0.540794 0.328600 0.110143
Si Si5 0.162433 0.670146 0.242641
Si Si6 0.598749 0.833801 0.522516
Si Si7 0.901935 0.828374 0.956339
Si Si8 0.108400 0.167151 0.461495
O O1 0.381706 0.500000 0.298402
O O2 0.461558 0.273268 0.201702
O O3 0.274725 0.304983 0.214025
O O4 0.354198 0.248667 0.384814
O O5 0.226550 0.763155 0.756138
O O6 0.362607 0.756612 0.884254
O O7 0.276979 0.000000 0.858467
O O8 0.184928 0.780736 0.960023
O O9 0.336588 0.177101 0.587715
O O10 0.161797 0.239454 0.557581
O O11 0.194512 0.000000 0.653518
O O12 0.560916 0.500000 0.120465
O O13 0.500000 0.290883 0.000000
O O14 0.137008 0.500000 0.245943
O O15 0.105904 0.745880 0.153979
O O16 0.128660 0.737630 0.356571
O O17 0.500000 0.760357 0.500000
O O18 0.582981 0.000000 0.560848
O O19 0.900229 0.000000 0.933256
O O20 0.000000 0.781939 0.000000
O O21 0.000000 0.170189 0.500000
O O22 0.143885 0.000000 0.438121
#
# Coordination Sequence:
#
# PCOD8060861 Si02
#       8
#     4   4   4   4   4   4   4   4
#     4  10  21  36  55  81 113 152 192 234 285 343
#     4  10  21  38  60  88 119 150 193 247 294 343
#     4   9  18  34  55  84 118 149 185 234 289 341
#     4  10  21  38  58  80 112 155 198 238 289 351
#     4  11  23  40  62  88 122 156 195 246 295 351
#     4  10  19  32  53  81 112 147 187 233 284 338
#     4  10  23  41  64  90 117 152 197 247 296 353
#     4  10  21  37  63  90 115 155 199 241 294 351
#
# _framework density 19.580438000000001
#
# number of rings (size 3 to 8) (size 9 to 14) (size 15 to 20)
#    0.000    2.000    1.250    1.875    1.750    4.500 
#    0.000    1.250    0.000    0.000    0.000    0.000 
#    0.000    0.000    0.000    0.000    0.000    0.000 
#
# Total GULP energy -396799.180091 kJ/mol
# GULP energy per Si atom -12399.974378 kJ/mol
# Density = 1.953587 g / cm^3
# Si number density = 19.580438 Si / 1000 Ang^3
#
#
#
# Elastic Constant Matrix: (Units=GPa)
#
#
# Indices 1 2 3 4 5 6 
#
# 1 115.7102 36.2371 50.6200 0.0000 12.6989 0.0000
# 2 36.2371 49.7252 41.8783 0.0000 6.3531 0.0000
# 3 50.6200 41.8783 137.8131 0.0000 16.0086 0.0000
# 4 0.0000 0.0000 0.0000 4877.7087 0.0000 -846.6592
# 5 12.6989 6.3531 16.0086 0.0000 34.4402 0.0000
# 6 0.0000 0.0000 0.0000 -846.6592 0.0000 170.1892
#
#
#
# Elastic Compliance Matrix: (Units=1/GPa)
#
#
# Indices 1 2 3 4 5 6 
#
# 1 0.011868 -0.006601 -0.002100 0.000000 -0.002182 0.000000
# 2 -0.006601 0.030749 -0.006917 0.000000 -0.000023 0.000000
# 3 -0.002100 -0.006917 0.010456 0.000000 -0.002810 0.000000
# 4 0.000000 0.000000 0.000000 0.001502 0.000000 0.007473
# 5 -0.002182 -0.000023 -0.002810 0.000000 0.031151 0.000000
# 6 0.000000 0.000000 0.000000 0.007473 0.000000 0.043051
#
#
# Mechanical properties :
#
#
# Convention : Reuss Voigt Hill
#
# Bulk Modulus (GPa) = 45.79297 62.30215 54.04756
# Shear Modulus (GPa) = 29.88809 1028.10182 528.99495
#
# Velocity S-wave (km/s) = 3.91119 22.93917 16.45453
# Velocity P-wave (km/s) = 6.62076 27.08312 19.71458
#
# Compressibility (1/GPa) = 0.02183742
#
# Stress axis : x y z
#
# Youngs Moduli (GPa) = 84.26253 32.52092 95.64250
#
# Poissons Ratio (x) = 0.21469 0.20081
# Poissons Ratio (y) = 0.55626 0.66152
# Poissons Ratio (z) = 0.17692 0.22493
#
# Static dielectric constant tensor:
#      x y z
#    x 3.774150 0.000000 0.046500 
#    y 0.000000 3.361620 0.000000 
#    z 0.046500 0.000000 3.665470 
# 
# 
# High freq. dielectric constant tensor:
#      x y z
#    x 1.776830 0.000000 0.003040 
#    y 0.000000 1.734650 0.000000 
#    z 0.003040 0.000000 1.773670 
# 
# From -- ./inp_files/49877.got.cif
#   From: 2010.06.25/outbox.cif.g09.slc.cpg/sg10_25_cif.got.tgz:49877.got - 2010.06.27 22:07:45.
