data_PCOD8060027
_publ_section_title
;
Structure prediction by ZEFSAII (Michael W. Deem and Ramdas Pophale) SiO2 
 PCOD8060027
Probable space group: P 2/M
;
_chemical_formula_sum "Si O2"
_cell_formula_units_Z 28
_cell_length_a 19.175201
_cell_length_b 8.857068
_cell_length_c 11.637541
_cell_angle_alpha 90.000000
_cell_angle_beta 52.265995
_cell_angle_gamma 90.000000
_cell_volume 1563.115203
_symmetry_space_group_name_H-M "P 2/M"
_symmetry_group_IT_number 10
_symmetry_cell_setting 'monoclinic'
loop_
_space_group_symop_operation_xyz
x,y,z
-x,y,-z
-x,-y,-z
x,-y,z
loop_
_atom_site_type_symbol
_atom_site_label
_atom_site_fract_x
_atom_site_fract_y
_atom_site_fract_z
Si Si1 0.097775 0.680862 0.430203
Si Si2 0.197182 0.664586 0.539729
Si Si3 0.465010 0.178080 0.308468
Si Si4 0.661581 0.827206 0.177627
Si Si5 0.255669 0.174322 0.145085
Si Si6 0.316876 0.679961 0.608928
Si Si7 0.367974 0.333051 0.210787
O O1 0.105301 0.500000 0.422010
O O2 0.123970 0.745496 0.532011
O O3 0.164298 0.743652 0.267742
O O4 0.000000 0.737662 0.500000
O O5 0.159478 0.500000 0.609566
O O6 0.230356 0.743080 0.624759
O O7 0.283684 0.650900 0.375594
O O8 0.564589 0.223164 0.236974
O O9 0.405412 0.246443 0.469924
O O10 0.443901 0.245563 0.204022
O O11 0.450184 0.000000 0.318744
O O12 0.695714 0.723059 0.246411
O O13 0.660149 0.000000 0.220980
O O14 0.729701 0.804315 0.005097
O O15 0.340625 0.242541 0.124323
O O16 0.248433 0.000000 0.187211
O O17 0.323318 0.500000 0.587123
O O18 0.402336 0.500000 0.142007
#
# Coordination Sequence:
#
# PCOD8060027 Si02
#       7
#     4   4   4   4   4   4   4
#     4   9  17  32  56  81 102 123 150 193 249 304
#     4   7  13  27  46  70  96 119 148 190 237 284
#     4  10  19  32  49  68  94 130 171 211 251 290
#     4  10  22  35  46  65  97 136 172 207 246 292
#     4  10  20  34  50  70  99 132 164 199 246 300
#     4  10  19  31  49  71  96 128 169 212 246 284
#     4   9  17  31  49  70  97 126 162 206 247 291
#
# _framework density 17.912946999999999
#
# number of rings (size 3 to 8) (size 9 to 14) (size 15 to 20)
#    0.000    2.714    0.000    3.857    0.000    4.857 
#    0.000    3.571    0.000    0.857    0.000    6.000 
#    0.000    0.000    0.000    0.000    0.000    0.000 
#
# Total GULP energy -346984.582887 kJ/mol
# GULP energy per Si atom -12392.306532 kJ/mol
# Density = 1.787218 g / cm^3
# Si number density = 17.912947 Si / 1000 Ang^3
#
#
#
# Elastic Constant Matrix: (Units=GPa)
#
#
# Indices 1 2 3 4 5 6 
#
# 1 149.5815 42.2853 54.2298 0.0000 2.4162 0.0000
# 2 42.2853 67.8607 25.7862 0.0000 4.2878 0.0000
# 3 54.2298 25.7862 62.0831 0.0000 3.5756 0.0000
# 4 0.0000 0.0000 0.0000 18.2904 0.0000 4.5517
# 5 2.4162 4.2878 3.5756 0.0000 13.7953 0.0000
# 6 0.0000 0.0000 0.0000 4.5517 0.0000 23.8627
#
#
#
# Elastic Compliance Matrix: (Units=1/GPa)
#
#
# Indices 1 2 3 4 5 6 
#
# 1 0.010508 -0.003697 -0.007718 0.000000 0.001309 0.000000
# 2 -0.003697 0.018978 -0.004416 0.000000 -0.004106 0.000000
# 3 -0.007718 -0.004416 0.024898 0.000000 -0.003729 0.000000
# 4 0.000000 0.000000 0.000000 0.057398 0.000000 -0.010949
# 5 0.001309 -0.004106 -0.003729 0.000000 0.074502 0.000000
# 6 0.000000 0.000000 0.000000 -0.010949 0.000000 0.043995
#
#
# Mechanical properties :
#
#
# Convention : Reuss Voigt Hill
#
# Bulk Modulus (GPa) = 44.01391 58.23643 51.12517
# Shear Modulus (GPa) = 18.55187 21.67128 20.11158
#
# Velocity S-wave (km/s) = 3.22167 3.48201 3.35437
# Velocity P-wave (km/s) = 6.20187 6.98192 6.60343
#
# Compressibility (1/GPa) = 0.02272009
#
# Stress axis : x y z
#
# Youngs Moduli (GPa) = 95.16990 52.69385 40.16354
#
# Poissons Ratio (x) = 0.19483 0.30998
# Poissons Ratio (y) = 0.35188 0.17737
# Poissons Ratio (z) = 0.73453 0.23270
#
# Static dielectric constant tensor:
#      x y z
#    x 3.743700 0.000000 0.243990 
#    y 0.000000 3.282110 0.000000 
#    z 0.243990 0.000000 3.001060 
# 
# 
# High freq. dielectric constant tensor:
#      x y z
#    x 1.697680 0.000000 0.020860 
#    y 0.000000 1.686540 0.000000 
#    z 0.020860 0.000000 1.660680 
# 
# From -- ./inp_files/54732.got.cif
#   From: 2010.06.25/outbox.cif.g09.slc.cpg/sg10_28_cif.got.tgz:54732.got - 2010.06.27 22:07:45.
