data_PCOD8060242
_publ_section_title
;
Structure prediction by ZEFSAII (Michael W. Deem and Ramdas Pophale) SiO2 
 PCOD8060242
Probable space group: P 2/M
;
_chemical_formula_sum "Si O2"
_cell_formula_units_Z 26
_cell_length_a 17.849546
_cell_length_b 9.664566
_cell_length_c 9.235605
_cell_angle_alpha 90.000000
_cell_angle_beta 51.686659
_cell_angle_gamma 90.000000
_cell_volume 1250.088954
_symmetry_space_group_name_H-M "P 2/M"
_symmetry_group_IT_number 10
_symmetry_cell_setting 'monoclinic'
loop_
_space_group_symop_operation_xyz
x,y,z
-x,y,-z
-x,-y,-z
x,-y,z
loop_
_atom_site_type_symbol
_atom_site_label
_atom_site_fract_x
_atom_site_fract_y
_atom_site_fract_z
Si Si1 0.210119 0.339203 0.416204
Si Si2 0.666548 0.654765 0.996367
Si Si3 0.912107 0.845225 0.019779
Si Si4 0.035247 0.155412 0.607704
Si Si5 0.500000 0.754005 0.000000
Si Si6 0.355782 0.847196 0.394974
Si Si7 0.298481 0.160074 0.772708
O O1 0.196569 0.500000 0.468426
O O2 0.115193 0.257252 0.573406
O O3 0.290881 0.278369 0.422299
O O4 0.238727 0.315486 0.213364
O O5 0.669566 0.500000 0.056470
O O6 0.660256 0.758821 0.138696
O O7 0.577366 0.662636 0.992827
O O8 0.941415 0.846545 0.817984
O O9 0.904156 0.000000 0.096481
O O10 0.805818 0.779088 0.153717
O O11 0.000000 0.768350 0.000000
O O12 0.000000 0.218108 0.500000
O O13 0.077464 0.000000 0.539497
O O14 0.547545 0.846422 0.815809
O O15 0.371725 0.824896 0.549300
O O16 0.308852 0.000000 0.429583
O O17 0.286884 0.000000 0.834151
#
# Coordination Sequence:
#
# PCOD8060242 Si02
#       7
#     4   4   4   4   2   4   4
#     4  10  21  36  55  80 112 152 192 232 280 335
#     4  10  22  40  60  82 114 152 190 232 282 342
#     4   9  17  31  52  78 110 147 186 228 274 325
#     4  10  19  31  51  78 107 144 191 237 280 328
#     4  10  22  40  62  88 112 144 188 234 284 342
#     4  10  21  38  61  86 112 143 183 232 284 339
#     4  10  21  37  59  87 116 148 188 236 286 335
#
# _framework density 20.798521000000001
#
# number of rings (size 3 to 8) (size 9 to 14) (size 15 to 20)
#    0.000    2.154    0.000    2.769    0.000    9.538 
#    0.000    3.077    0.000    1.846    0.000    0.000 
#    0.000    0.000    0.000    0.000    0.000    0.000 
#
# Total GULP energy -322172.089171 kJ/mol
# GULP energy per Si atom -12391.234199 kJ/mol
# Density = 2.075118 g / cm^3
# Si number density = 20.798521 Si / 1000 Ang^3
#
#
#
# Elastic Constant Matrix: (Units=GPa)
#
#
# Indices 1 2 3 4 5 6 
#
# 1 77.1795 19.5893 27.5224 0.0000 4.8474 0.0000
# 2 19.5893 96.4045 32.9318 0.0000 4.1477 0.0000
# 3 27.5224 32.9318 114.3285 0.0000 5.5631 0.0000
# 4 0.0000 0.0000 0.0000 124.5687 0.0000 -65.8593
# 5 4.8474 4.1477 5.5631 0.0000 32.5972 0.0000
# 6 0.0000 0.0000 0.0000 -65.8593 0.0000 69.5870
#
#
#
# Elastic Compliance Matrix: (Units=1/GPa)
#
#
# Indices 1 2 3 4 5 6 
#
# 1 0.014561 -0.001912 -0.002885 0.000000 -0.001430 0.000000
# 2 -0.001912 0.011783 -0.002899 0.000000 -0.000720 0.000000
# 3 -0.002885 -0.002899 0.010323 0.000000 -0.000964 0.000000
# 4 0.000000 0.000000 0.000000 0.016068 0.000000 0.015207
# 5 -0.001430 -0.000720 -0.000964 0.000000 0.031146 0.000000
# 6 0.000000 0.000000 0.000000 0.015207 0.000000 0.028763
#
#
# Mechanical properties :
#
#
# Convention : Reuss Voigt Hill
#
# Bulk Modulus (GPa) = 47.00216 49.77771 48.38993
# Shear Modulus (GPa) = 37.00271 59.20851 48.10561
#
# Velocity S-wave (km/s) = 4.22252 5.34130 4.81451
# Velocity P-wave (km/s) = 6.81328 7.87556 7.36360
#
# Compressibility (1/GPa) = 0.02127562
#
# Stress axis : x y z
#
# Youngs Moduli (GPa) = 68.67849 84.87099 96.87035
#
# Poissons Ratio (x) = 0.16225 0.27947
# Poissons Ratio (y) = 0.13129 0.28079
# Poissons Ratio (z) = 0.19813 0.24601
#
# Static dielectric constant tensor:
#      x y z
#    x 3.608640 0.000000 -0.105120 
#    y 0.000000 3.460410 0.000000 
#    z -0.105120 0.000000 4.075710 
# 
# 
# High freq. dielectric constant tensor:
#      x y z
#    x 1.798670 0.000000 0.003500 
#    y 0.000000 1.783430 0.000000 
#    z 0.003500 0.000000 1.829230 
# 
# From -- ./inp_files/34208.got.cif
#   From: 2010.06.25/outbox.cif.g09.slc.cpg/sg10_18_cif.got.tgz:34208.got - 2010.06.27 22:07:45.
