data_PCOD8060432
_publ_section_title
;
Structure prediction by ZEFSAII (Michael W. Deem and Ramdas Pophale) SiO2 
 PCOD8060432
Probable space group: P 2/M
;
_chemical_formula_sum "Si O2"
_cell_formula_units_Z 32
_cell_length_a 22.626037
_cell_length_b 9.055857
_cell_length_c 27.892627
_cell_angle_alpha 90.000000
_cell_angle_beta 161.793919
_cell_angle_gamma 90.000000
_cell_volume 1785.616443
_symmetry_space_group_name_H-M "P 2/M"
_symmetry_group_IT_number 10
_symmetry_cell_setting 'monoclinic'
loop_
_space_group_symop_operation_xyz
x,y,z
-x,y,-z
-x,-y,-z
x,-y,z
loop_
_atom_site_type_symbol
_atom_site_label
_atom_site_fract_x
_atom_site_fract_y
_atom_site_fract_z
Si Si1 0.080085 0.332954 0.702985
Si Si2 0.581226 0.324979 0.720864
Si Si3 0.900675 0.828027 0.027390
Si Si4 0.161689 0.337605 0.164056
Si Si5 0.339149 0.166750 0.835898
Si Si6 0.598065 0.334104 0.969168
Si Si7 0.132977 0.830071 0.888050
Si Si8 0.815437 0.173613 0.567476
O O1 0.017552 0.500000 0.642868
O O2 0.155554 0.255420 0.712860
O O3 0.244839 0.331799 0.868861
O O4 0.901469 0.241856 0.585146
O O5 0.565401 0.500000 0.716124
O O6 0.726701 0.262908 0.872068
O O7 0.650058 0.286997 0.719549
O O8 0.382607 0.248339 0.574860
O O9 0.869668 0.000000 0.992859
O O10 0.914838 0.792754 0.094279
O O11 0.100762 0.777543 0.158212
O O12 0.191032 0.500000 0.209930
O O13 0.000000 0.347684 0.000000
O O14 0.278405 0.000000 0.776967
O O15 0.500000 0.168342 0.000000
O O16 0.415811 0.243036 0.846560
O O17 0.533046 0.500000 0.907354
O O18 0.684211 0.262578 0.987544
O O19 0.949520 0.788660 0.715630
O O20 0.186841 0.000000 0.921932
O O21 0.788806 0.000000 0.539388
#
# Coordination Sequence:
#
# PCOD8060432 Si02
#       8
#     4   4   4   4   4   4   4   4
#     4   9  16  26  40  61  90 121 155 195 236 279
#     4  10  20  34  51  72  97 124 157 197 238 281
#     4  10  19  32  52  75  96 122 158 197 237 282
#     4   8  16  31  49  69  94 122 154 195 238 278
#     4   9  15  23  37  58  86 120 156 194 235 277
#     4   9  16  25  40  62  88 121 158 194 234 279
#     4   9  19  33  47  68  99 129 157 194 239 285
#     4  10  19  32  49  69  96 129 161 194 237 285
#
# _framework density 17.920981000000001
#
# number of rings (size 3 to 8) (size 9 to 14) (size 15 to 20)
#    0.000    2.750    0.000    3.000    0.000    8.750 
#    0.000    0.625    0.000    3.750    0.000    0.875 
#    0.000    7.000    0.000    0.000    0.000    0.000 
#
# Total GULP energy -396731.138543 kJ/mol
# GULP energy per Si atom -12397.848079 kJ/mol
# Density = 1.788019 g / cm^3
# Si number density = 17.920981 Si / 1000 Ang^3
#
#
#
# Elastic Constant Matrix: (Units=GPa)
#
#
# Indices 1 2 3 4 5 6 
#
# 1 38.5516 41.0432 63.0642 0.0000 51.3614 0.0000
# 2 41.0432 125.6829 54.7540 0.0000 33.5901 0.0000
# 3 63.0642 54.7540 60.5225 0.0000 28.3141 0.0000
# 4 0.0000 0.0000 0.0000 20.8778 0.0000 13.4196
# 5 51.3614 33.5901 28.3141 0.0000 29.8276 0.0000
# 6 0.0000 0.0000 0.0000 13.4196 0.0000 33.6338
#
#
#
# Elastic Compliance Matrix: (Units=1/GPa)
#
#
# Indices 1 2 3 4 5 6 
#
# 1 -0.015220 -0.005582 0.010267 0.000000 0.022748 0.000000
# 2 -0.005582 0.011781 -0.005634 0.000000 0.001693 0.000000
# 3 0.010267 -0.005634 0.029185 0.000000 -0.039039 0.000000
# 4 0.000000 0.000000 0.000000 0.064419 0.000000 -0.025702
# 5 0.022748 0.001693 -0.039039 0.000000 0.029507 0.000000
# 6 0.000000 0.000000 0.000000 -0.025702 0.000000 0.039987
#
#
# Mechanical properties :
#
#
# Convention : Reuss Voigt Hill
#
# Bulk Modulus (GPa) = 41.93130 60.27552 51.10341
# Shear Modulus (GPa) = 29.49758 21.26089 25.37924
#
# Velocity S-wave (km/s) = 4.06147 3.44811 3.76729
# Velocity P-wave (km/s) = 6.74112 7.03986 6.89211
#
# Compressibility (1/GPa) = 0.02384853
#
# Stress axis : x y z
#
# Youngs Moduli (GPa) = -65.70320 84.87956 34.26474
#
# Poissons Ratio (x) = 0.47383 -0.35180
# Poissons Ratio (y) = -0.36678 0.19303
# Poissons Ratio (z) = 0.67459 0.47818
#
# Static dielectric constant tensor:
#      x y z
#    x 3.444300 0.000000 0.399160 
#    y 0.000000 3.504250 0.000000 
#    z 0.399160 0.000000 2.983640 
# 
# 
# High freq. dielectric constant tensor:
#      x y z
#    x 1.692090 0.000000 0.037490 
#    y 0.000000 1.709480 0.000000 
#    z 0.037490 0.000000 1.646080 
# 
# From -- ./inp_files/54806.got.cif
#   From: 2010.06.25/outbox.cif.g09.slc.cpg/sg10_28_cif.got.tgz:54806.got - 2010.06.27 22:07:45.
