data_PCOD8060954
_publ_section_title
;
Structure prediction by ZEFSAII (Michael W. Deem and Ramdas Pophale) SiO2 
 PCOD8060954
Probable space group: P 2/M
;
_chemical_formula_sum "Si O2"
_cell_formula_units_Z 32
_cell_length_a 14.238598
_cell_length_b 8.687055
_cell_length_c 20.668391
_cell_angle_alpha 90.000000
_cell_angle_beta 43.050101
_cell_angle_gamma 90.000000
_cell_volume 1745.165762
_symmetry_space_group_name_H-M "P 2/M"
_symmetry_group_IT_number 10
_symmetry_cell_setting 'monoclinic'
loop_
_space_group_symop_operation_xyz
x,y,z
-x,y,-z
-x,-y,-z
x,-y,z
loop_
_atom_site_type_symbol
_atom_site_label
_atom_site_fract_x
_atom_site_fract_y
_atom_site_fract_z
Si Si1 0.353653 0.819417 0.695822
Si Si2 0.923280 0.818850 0.225025
Si Si3 0.923863 0.319961 0.357765
Si Si4 0.351430 0.675266 0.831913
Si Si5 0.086577 0.180895 0.393796
Si Si6 0.341060 0.321199 0.321060
Si Si7 0.071184 0.322381 0.031515
Si Si8 0.341868 0.818040 0.458842
O O1 0.232426 0.758408 0.710591
O O2 0.317754 0.778244 0.787216
O O3 0.504905 0.757401 0.599469
O O4 0.358729 0.000000 0.688665
O O5 0.979171 0.727921 0.259278
O O6 0.018917 0.783583 0.115680
O O7 0.926762 0.000000 0.237120
O O8 0.942771 0.500000 0.359533
O O9 0.764086 0.271188 0.442137
O O10 0.009196 0.228556 0.368111
O O11 0.342162 0.500000 0.812216
O O12 0.503957 0.710010 0.783085
O O13 0.235786 0.706582 0.944233
O O14 0.234231 0.266090 0.320348
O O15 0.000000 0.233863 0.500000
O O16 0.111149 0.000000 0.381195
O O17 0.318604 0.500000 0.348998
O O18 0.311178 0.220844 0.399776
O O19 0.036919 0.500000 0.064245
O O20 0.000000 0.273357 0.000000
O O21 0.324106 0.000000 0.478263
#
# Coordination Sequence:
#
# PCOD8060954 Si02
#       8
#     4   4   4   4   4   4   4   4
#     4   9  19  33  52  77 109 148 186 224 267 320
#     4  11  23  38  55  79 112 149 189 231 275 326
#     4  12  25  39  56  79 109 146 186 229 277 330
#     4   9  18  32  53  82 114 145 179 226 274 319
#     4  11  22  37  59  83 110 144 181 225 277 327
#     4  10  19  32  54  84 113 142 181 225 272 322
#     4  10  19  34  57  83 113 148 186 228 274 322
#     4  10  19  34  53  77 110 147 185 224 269 320
#
# _framework density 18.336368
#
# number of rings (size 3 to 8) (size 9 to 14) (size 15 to 20)
#    0.000    1.750    2.500    2.625    0.000    3.250 
#    0.000    2.500    0.000    0.750    0.000    5.250 
#    0.000    0.000    0.000    0.000    0.000    0.000 
#
# Total GULP energy -396813.076396 kJ/mol
# GULP energy per Si atom -12400.408637 kJ/mol
# Density = 1.829463 g / cm^3
# Si number density = 18.336368 Si / 1000 Ang^3
#
#
#
# Elastic Constant Matrix: (Units=GPa)
#
#
# Indices 1 2 3 4 5 6 
#
# 1 98.6007 19.3033 45.1037 0.0000 -3.7697 0.0000
# 2 19.3033 38.2569 18.8709 0.0000 -5.9801 0.0000
# 3 45.1037 18.8709 86.4278 0.0000 -4.5219 0.0000
# 4 0.0000 0.0000 0.0000 28.5914 0.0000 0.4678
# 5 -3.7697 -5.9801 -4.5219 0.0000 25.4948 0.0000
# 6 0.0000 0.0000 0.0000 0.4678 0.0000 25.7777
#
#
#
# Elastic Compliance Matrix: (Units=1/GPa)
#
#
# Indices 1 2 3 4 5 6 
#
# 1 0.013804 -0.003821 -0.006369 0.000000 0.000015 0.000000
# 2 -0.003821 0.031224 -0.004512 0.000000 0.005959 0.000000
# 3 -0.006369 -0.004512 0.015922 0.000000 0.000824 0.000000
# 4 0.000000 0.000000 0.000000 0.034986 0.000000 -0.000635
# 5 0.000015 0.005959 0.000824 0.000000 0.040770 0.000000
# 6 0.000000 0.000000 0.000000 -0.000635 0.000000 0.038805
#
#
# Mechanical properties :
#
#
# Convention : Reuss Voigt Hill
#
# Bulk Modulus (GPa) = 31.69865 43.31568 37.50716
# Shear Modulus (GPa) = 23.20949 25.30660 24.25805
#
# Velocity S-wave (km/s) = 3.56162 3.71904 3.64118
# Velocity P-wave (km/s) = 5.85135 6.48967 6.17876
#
# Compressibility (1/GPa) = 0.03154709
#
# Stress axis : x y z
#
# Youngs Moduli (GPa) = 72.44367 32.02659 62.80576
#
# Poissons Ratio (x) = 0.12238 0.39999
# Poissons Ratio (y) = 0.27682 0.28336
# Poissons Ratio (z) = 0.46137 0.14449
#
# Static dielectric constant tensor:
#      x y z
#    x 3.454780 0.000000 -0.336300 
#    y 0.000000 3.343390 0.000000 
#    z -0.336300 0.000000 3.410440 
# 
# 
# High freq. dielectric constant tensor:
#      x y z
#    x 1.700180 0.000000 -0.019080 
#    y 0.000000 1.714570 0.000000 
#    z -0.019080 0.000000 1.697910 
# 
# From -- ./inp_files/84706.got.cif
#   From: 2010.06.25/outbox.cif.g09.slc.cpg/sg10_43_cif.got.tgz:84706.got - 2010.06.27 22:07:45.
