data_PCOD8060839
_publ_section_title
;
Structure prediction by ZEFSAII (Michael W. Deem and Ramdas Pophale) SiO2 
 PCOD8060839
Probable space group: P 2/M
;
_chemical_formula_sum "Si O2"
_cell_formula_units_Z 32
_cell_length_a 20.220734
_cell_length_b 9.006372
_cell_length_c 26.023390
_cell_angle_alpha 90.000000
_cell_angle_beta 158.527281
_cell_angle_gamma 90.000000
_cell_volume 1734.845387
_symmetry_space_group_name_H-M "P 2/M"
_symmetry_group_IT_number 10
_symmetry_cell_setting 'monoclinic'
loop_
_space_group_symop_operation_xyz
x,y,z
-x,y,-z
-x,-y,-z
x,-y,z
loop_
_atom_site_type_symbol
_atom_site_label
_atom_site_fract_x
_atom_site_fract_y
_atom_site_fract_z
Si Si1 0.110325 0.326136 0.391577
Si Si2 0.200261 0.323201 0.154890
Si Si3 0.494571 0.324914 0.286152
Si Si4 0.692070 0.323405 0.656319
Si Si5 0.209311 0.824407 0.790919
Si Si6 0.621403 0.823630 0.900241
Si Si7 0.002520 0.675975 0.803447
Si Si8 0.490361 0.824849 0.913995
O O1 0.083431 0.500000 0.377091
O O2 0.317337 0.281834 0.550985
O O3 0.986266 0.249835 0.345109
O O4 0.051880 0.271046 0.292850
O O5 0.199283 0.500000 0.155474
O O6 0.334395 0.267880 0.207289
O O7 0.265258 0.259311 0.256461
O O8 0.000000 0.260682 0.000000
O O9 0.479542 0.500000 0.265131
O O10 0.481727 0.240157 0.223236
O O11 0.500000 0.257425 0.500000
O O12 0.683408 0.500000 0.651764
O O13 0.843505 0.271162 0.725989
O O14 0.301970 0.772999 0.803999
O O15 0.182982 0.000000 0.773912
O O16 0.337273 0.764412 0.929547
O O17 0.503561 0.772766 0.864622
O O18 0.635529 0.000000 0.906605
O O19 0.820070 0.757289 0.048581
O O20 0.033493 0.500000 0.828701
O O21 0.500116 0.000000 0.925720
#
# Coordination Sequence:
#
# PCOD8060839 Si02
#       8
#     4   4   4   4   4   4   4   4
#     4  10  20  33  50  78 112 140 166 204 262 320
#     4   9  16  28  48  71  94 128 173 211 245 292
#     4  10  21  36  52  74 109 143 170 210 260 308
#     4   9  16  27  47  75 101 127 166 213 254 297
#     4   9  16  32  56  77 100 133 171 214 257 298
#     4  11  21  35  54  78 103 133 175 217 255 304
#     4  10  19  32  53  80 107 133 167 215 266 308
#     4   8  16  31  53  78 101 129 171 219 256 291
#
# _framework density 18.445447000000001
#
# number of rings (size 3 to 8) (size 9 to 14) (size 15 to 20)
#    0.000    2.500    1.250    2.625    0.000    5.500 
#    0.000    3.125    0.000    7.500    0.000    0.000 
#    0.000    0.000    0.000    0.000    0.000    0.000 
#
# Total GULP energy -396750.461299 kJ/mol
# GULP energy per Si atom -12398.451916 kJ/mol
# Density = 1.840346 g / cm^3
# Si number density = 18.445447 Si / 1000 Ang^3
#
#
#
# Elastic Constant Matrix: (Units=GPa)
#
#
# Indices 1 2 3 4 5 6 
#
# 1 144.0338 23.9272 52.7309 0.0000 10.2434 0.0000
# 2 23.9272 23.2254 21.9514 0.0000 2.0339 0.0000
# 3 52.7309 21.9514 94.0772 0.0000 2.6839 0.0000
# 4 0.0000 0.0000 0.0000 6.1880 0.0000 -8.8307
# 5 10.2434 2.0339 2.6839 0.0000 35.6793 0.0000
# 6 0.0000 0.0000 0.0000 -8.8307 0.0000 16.8447
#
#
#
# Elastic Compliance Matrix: (Units=1/GPa)
#
#
# Indices 1 2 3 4 5 6 
#
# 1 0.009498 -0.005935 -0.003879 0.000000 -0.002097 0.000000
# 2 -0.005935 0.059117 -0.010442 0.000000 -0.000881 0.000000
# 3 -0.003879 -0.010442 0.015224 0.000000 0.000564 0.000000
# 4 0.000000 0.000000 0.000000 0.641598 0.000000 0.336353
# 5 -0.002097 -0.000881 0.000564 0.000000 0.028637 0.000000
# 6 0.000000 0.000000 0.000000 0.336353 0.000000 0.235697
#
#
# Mechanical properties :
#
#
# Convention : Reuss Voigt Hill
#
# Bulk Modulus (GPa) = 23.08047 50.95061 37.01554
# Shear Modulus (GPa) = 4.78594 22.59086 13.68840
#
# Velocity S-wave (km/s) = 1.61254 3.50342 2.72711
# Velocity P-wave (km/s) = 4.00088 6.63684 5.47972
#
# Compressibility (1/GPa) = 0.04332668
#
# Stress axis : x y z
#
# Youngs Moduli (GPa) = 105.28540 16.91553 65.68483
#
# Poissons Ratio (x) = 0.10040 0.25479
# Poissons Ratio (y) = 0.62489 0.68590
# Poissons Ratio (z) = 0.40840 0.17664
#
# Static dielectric constant tensor:
#      x y z
#    x 3.746670 0.000000 0.062320 
#    y 0.000000 2.947450 0.000000 
#    z 0.062320 0.000000 3.420250 
# 
# 
# High freq. dielectric constant tensor:
#      x y z
#    x 1.732130 0.000000 0.007730 
#    y 0.000000 1.668630 0.000000 
#    z 0.007730 0.000000 1.714020 
# 
# From -- ./inp_files/93812.got.cif
#   From: 2010.06.25/outbox.cif.g09.slc.cpg/sg10_47_cif.got.tgz:93812.got - 2010.06.27 22:07:45.
