data_PCOD8060231
_publ_section_title
;
Structure prediction by ZEFSAII (Michael W. Deem and Ramdas Pophale) SiO2 
 PCOD8060231
Probable space group: P 2/M
;
_chemical_formula_sum "Si O2"
_cell_formula_units_Z 32
_cell_length_a 14.499877
_cell_length_b 9.116281
_cell_length_c 25.879932
_cell_angle_alpha 90.000000
_cell_angle_beta 29.381681
_cell_angle_gamma 90.000000
_cell_volume 1678.398119
_symmetry_space_group_name_H-M "P 2/M"
_symmetry_group_IT_number 10
_symmetry_cell_setting 'monoclinic'
loop_
_space_group_symop_operation_xyz
x,y,z
-x,y,-z
-x,-y,-z
x,-y,z
loop_
_atom_site_type_symbol
_atom_site_label
_atom_site_fract_x
_atom_site_fract_y
_atom_site_fract_z
Si Si1 0.311439 0.673526 0.566757
Si Si2 0.729773 0.174262 0.992539
Si Si3 0.421542 0.827456 0.304376
Si Si4 0.770227 0.325738 0.507461
Si Si5 0.811439 0.173526 0.066757
Si Si6 0.129817 0.661225 0.386831
Si Si7 0.629818 0.161225 0.886831
Si Si8 0.921542 0.327456 0.804376
O O1 0.500000 0.740909 0.500000
O O2 0.327293 0.500000 0.554947
O O3 0.286780 0.735266 0.520836
O O4 0.136013 0.717206 0.688209
O O5 0.864972 0.250168 0.885041
O O6 0.755867 0.000000 0.974068
O O7 0.786780 0.235266 0.020836
O O8 0.508962 0.215355 0.091389
O O9 0.364972 0.750168 0.385041
O O10 0.636013 0.782794 0.188209
O O11 0.296876 0.775292 0.316132
O O12 0.393977 0.000000 0.323695
O O13 0.744133 0.500000 0.525932
O O14 0.991038 0.284645 0.408611
O O15 0.827293 0.000000 0.054947
O O16 0.000000 0.240909 0.000000
O O17 0.214785 0.500000 0.332877
O O18 0.000000 0.649337 0.500000
O O19 0.796876 0.275292 0.816132
O O20 0.714785 0.000000 0.832877
O O21 0.500000 0.149337 0.000000
O O22 0.893977 0.500000 0.823695
#
# Coordination Sequence:
#
# PCOD8060231 Si02
#       8
#     4   4   4   4   4   4   4   4
#     4   9  19  35  52  71  98 133 170 203 241 294
#     4   9  18  34  54  73  98 134 166 194 242 303
#     4  10  19  31  51  78 102 126 162 207 247 284
#     4   9  18  34  54  73  98 134 166 194 242 303
#     4   9  19  35  52  71  98 133 170 203 241 294
#     4   8  15  29  49  73 101 131 160 192 241 303
#     4   8  15  29  49  73 101 131 160 192 241 303
#     4  10  19  31  51  78 102 126 162 207 247 284
#
# _framework density 19.065798999999998
#
# number of rings (size 3 to 8) (size 9 to 14) (size 15 to 20)
#    0.000    3.000    0.000    2.250    0.000    6.500 
#    0.000    2.500    0.000    5.250    0.000    0.000 
#    0.000    0.000    0.000    0.000    0.000    0.000 
#
# Total GULP energy -396631.634432 kJ/mol
# GULP energy per Si atom -12394.738576 kJ/mol
# Density = 1.902240 g / cm^3
# Si number density = 19.065799 Si / 1000 Ang^3
#
#
#
# Elastic Constant Matrix: (Units=GPa)
#
#
# Indices 1 2 3 4 5 6 
#
# 1 119.7095 16.9936 21.5597 0.0000 -7.2618 0.0000
# 2 16.9936 46.3712 23.6721 0.0000 -2.0299 0.0000
# 3 21.5597 23.6721 58.5860 0.0000 -9.7492 0.0000
# 4 0.0000 0.0000 0.0000 19.7624 0.0000 -4.2863
# 5 -7.2618 -2.0299 -9.7492 0.0000 30.5449 0.0000
# 6 0.0000 0.0000 0.0000 -4.2863 0.0000 16.6987
#
#
#
# Elastic Compliance Matrix: (Units=1/GPa)
#
#
# Indices 1 2 3 4 5 6 
#
# 1 0.009147 -0.002126 -0.002290 0.000000 0.001302 0.000000
# 2 -0.002126 0.027757 -0.010783 0.000000 -0.002102 0.000000
# 3 -0.002290 -0.010783 0.023296 0.000000 0.006175 0.000000
# 4 0.000000 0.000000 0.000000 0.053584 0.000000 0.013754
# 5 0.001302 -0.002102 0.006175 0.000000 0.034879 0.000000
# 6 0.000000 0.000000 0.000000 0.013754 0.000000 0.063415
#
#
# Mechanical properties :
#
#
# Convention : Reuss Voigt Hill
#
# Bulk Modulus (GPa) = 33.55524 38.79082 36.17303
# Shear Modulus (GPa) = 19.80898 24.23062 22.01980
#
# Velocity S-wave (km/s) = 3.22682 3.56883 3.40212
# Velocity P-wave (km/s) = 5.61436 6.11326 5.86912
#
# Compressibility (1/GPa) = 0.02980160
#
# Stress axis : x y z
#
# Youngs Moduli (GPa) = 109.32755 36.02734 42.92551
#
# Poissons Ratio (x) = 0.07659 0.09832
# Poissons Ratio (y) = 0.23241 0.46286
# Poissons Ratio (z) = 0.25040 0.38848
#
# Static dielectric constant tensor:
#      x y z
#    x 4.038490 0.000000 -0.254980 
#    y 0.000000 3.231960 0.000000 
#    z -0.254980 0.000000 3.364880 
# 
# 
# High freq. dielectric constant tensor:
#      x y z
#    x 1.747990 0.000000 -0.004530 
#    y 0.000000 1.712190 0.000000 
#    z -0.004530 0.000000 1.730240 
# 
# From -- ./inp_files/93116.got.cif
#   From: 2010.06.25/outbox.cif.g09.slc.cpg/sg10_47_cif.got.tgz:93116.got - 2010.06.27 22:07:45.
