data_PCOD8060742
_publ_section_title
;
Structure prediction by ZEFSAII (Michael W. Deem and Ramdas Pophale) SiO2 
 PCOD8060742
Probable space group: P 2/M
;
_chemical_formula_sum "Si O2"
_cell_formula_units_Z 28
_cell_length_a 12.549367
_cell_length_b 8.974019
_cell_length_c 14.969567
_cell_angle_alpha 90.000000
_cell_angle_beta 105.927959
_cell_angle_gamma 90.000000
_cell_volume 1621.122709
_symmetry_space_group_name_H-M "P 2/M"
_symmetry_group_IT_number 10
_symmetry_cell_setting 'monoclinic'
loop_
_space_group_symop_operation_xyz
x,y,z
-x,y,-z
-x,-y,-z
x,-y,z
loop_
_atom_site_type_symbol
_atom_site_label
_atom_site_fract_x
_atom_site_fract_y
_atom_site_fract_z
Si Si1 0.196919 0.676675 0.724116
Si Si2 0.605659 0.675601 0.719072
Si Si3 0.341580 0.174189 0.896040
Si Si4 0.757895 0.324505 0.591649
Si Si5 0.584892 0.173432 0.893675
Si Si6 0.634081 0.323918 0.386820
Si Si7 0.014592 0.176245 0.401046
O O1 0.184860 0.500000 0.720125
O O2 0.243314 0.729907 0.830259
O O3 0.279564 0.737272 0.666447
O O4 0.077834 0.748622 0.681602
O O5 0.595867 0.500000 0.724419
O O6 0.700935 0.720270 0.671528
O O7 0.638073 0.739458 0.823068
O O8 0.487754 0.743592 0.659407
O O9 0.458234 0.224424 0.879815
O O10 0.320885 0.000000 0.874293
O O11 0.342986 0.209596 0.001881
O O12 0.784915 0.500000 0.591710
O O13 0.674216 0.275350 0.493906
O O14 0.868880 0.230641 0.609667
O O15 0.588595 0.000000 0.873097
O O16 0.628043 0.500000 0.378419
O O17 0.000000 0.228915 0.500000
O O18 0.005564 0.000000 0.390283
#
# Coordination Sequence:
#
# PCOD8060742 Si02
#       7
#     4   4   4   4   4   4   4
#     4  11  20  32  55  80 104 136 174 216 262 306
#     4  10  19  32  52  79 108 139 175 214 257 305
#     4   9  18  33  51  75 106 140 174 210 258 309
#     4  10  20  35  54  74 104 143 179 215 255 306
#     4   9  18  32  51  74 106 143 173 207 256 313
#     4   9  17  30  49  76 107 138 169 206 255 307
#     4  11  23  37  53  74 103 138 178 221 259 301
#
# _framework density 17.271982000000001
#
# number of rings (size 3 to 8) (size 9 to 14) (size 15 to 20)
#    0.000    2.143    2.857    2.143    0.000    3.429 
#    0.000    2.143    0.000    2.571    0.000    6.000 
#    0.000    0.000    0.000    0.000    0.000    0.000 
#
# Total GULP energy -347249.465079 kJ/mol
# GULP energy per Si atom -12401.766610 kJ/mol
# Density = 1.723267 g / cm^3
# Si number density = 17.271982 Si / 1000 Ang^3
#
#
#
# Elastic Constant Matrix: (Units=GPa)
#
#
# Indices 1 2 3 4 5 6 
#
# 1 99.3880 38.9185 60.7155 0.0000 -5.2526 0.0000
# 2 38.9185 46.3432 40.6990 0.0000 0.4754 0.0000
# 3 60.7155 40.6990 127.7780 0.0000 -5.6357 0.0000
# 4 0.0000 0.0000 0.0000 27.8355 0.0000 -0.7946
# 5 -5.2526 0.4754 -5.6357 0.0000 26.7447 0.0000
# 6 0.0000 0.0000 0.0000 -0.7946 0.0000 23.7109
#
#
#
# Elastic Compliance Matrix: (Units=1/GPa)
#
#
# Indices 1 2 3 4 5 6 
#
# 1 0.017102 -0.010204 -0.004764 0.000000 0.002536 0.000000
# 2 -0.010204 0.036222 -0.006869 0.000000 -0.004095 0.000000
# 3 -0.004764 -0.006869 0.012357 0.000000 0.001790 0.000000
# 4 0.000000 0.000000 0.000000 0.035960 0.000000 0.001205
# 5 0.002536 -0.004095 0.001790 0.000000 0.038339 0.000000
# 6 0.000000 0.000000 0.000000 0.001205 0.000000 0.042215
#
#
# Mechanical properties :
#
#
# Convention : Reuss Voigt Hill
#
# Bulk Modulus (GPa) = 45.44275 61.57501 53.50888
# Shear Modulus (GPa) = 21.44047 24.53663 22.98855
#
# Velocity S-wave (km/s) = 3.52709 3.77318 3.65221
# Velocity P-wave (km/s) = 6.55396 7.39663 6.98801
#
# Compressibility (1/GPa) = 0.02200571
#
# Stress axis : x y z
#
# Youngs Moduli (GPa) = 58.47392 27.60756 80.92738
#
# Poissons Ratio (x) = 0.28170 0.38555
# Poissons Ratio (y) = 0.59666 0.55592
# Poissons Ratio (z) = 0.27858 0.18965
#
# Static dielectric constant tensor:
#      x y z
#    x 3.112850 0.000000 0.000110 
#    y 0.000000 3.009160 0.000000 
#    z 0.000110 0.000000 3.277960 
# 
# 
# High freq. dielectric constant tensor:
#      x y z
#    x 1.648940 0.000000 0.002580 
#    y 0.000000 1.653220 0.000000 
#    z 0.002580 0.000000 1.671550 
# 
# From -- ./inp_files/49059.got.cif
#   From: 2010.06.25/outbox.cif.g09.slc.cpg/sg10_25_cif.got.tgz:49059.got - 2010.06.27 22:07:45.
