data_PCOD8060211
_publ_section_title
;
Structure prediction by ZEFSAII (Michael W. Deem and Ramdas Pophale) SiO2 
 PCOD8060211
Probable space group: P 2/M
;
_chemical_formula_sum "Si O2"
_cell_formula_units_Z 32
_cell_length_a 22.956609
_cell_length_b 9.019829
_cell_length_c 12.619065
_cell_angle_alpha 90.000000
_cell_angle_beta 135.354880
_cell_angle_gamma 90.000000
_cell_volume 1836.164333
_symmetry_space_group_name_H-M "P 2/M"
_symmetry_group_IT_number 10
_symmetry_cell_setting 'monoclinic'
loop_
_space_group_symop_operation_xyz
x,y,z
-x,y,-z
-x,-y,-z
x,-y,z
loop_
_atom_site_type_symbol
_atom_site_label
_atom_site_fract_x
_atom_site_fract_y
_atom_site_fract_z
Si Si1 0.655773 0.175141 0.056214
Si Si2 0.778097 0.328339 0.051938
Si Si3 0.032736 0.670033 0.654192
Si Si4 0.818943 0.175250 0.663253
Si Si5 0.990836 0.825175 0.803351
Si Si6 0.173941 0.174831 0.092470
Si Si7 0.674664 0.175057 0.324047
Si Si8 0.490035 0.666208 0.862298
O O1 0.719103 0.241454 0.054602
O O2 0.684058 0.218538 0.212340
O O3 0.651505 0.000000 0.036947
O O4 0.565976 0.241685 0.911705
O O5 0.752303 0.500000 0.014187
O O6 0.869471 0.304752 0.215320
O O7 0.772507 0.261005 0.926208
O O8 0.009330 0.500000 0.645301
O O9 0.000000 0.726018 0.500000
O O10 0.984520 0.769875 0.675405
O O11 0.911183 0.240744 0.762121
O O12 0.790566 0.217767 0.745745
O O13 0.754211 0.235419 0.492033
O O14 0.823594 0.000000 0.658684
O O15 0.986967 0.000000 0.799925
O O16 0.077660 0.771964 0.966583
O O17 0.180413 0.000000 0.077688
O O18 0.595616 0.252251 0.276047
O O19 0.662763 0.000000 0.320992
O O20 0.489477 0.500000 0.813923
O O21 0.500000 0.660686 0.000000
#
# Coordination Sequence:
#
# PCOD8060211 Si02
#       8
#     4   4   4   4   4   4   4   4
#     4  10  19  31  51  76 101 128 161 197 238 294
#     4  10  20  33  49  69  96 129 167 206 243 285
#     4   9  19  33  45  62  95 135 165 197 244 291
#     4   9  17  30  50  74 100 128 161 206 250 288
#     4   9  17  29  48  72  94 124 168 209 243 281
#     4   9  17  32  51  70  95 130 170 206 244 287
#     4   9  18  31  48  74 104 130 157 195 244 293
#     4   9  17  31  50  72 100 131 160 192 236 290
#
# _framework density 17.427634000000001
#
# number of rings (size 3 to 8) (size 9 to 14) (size 15 to 20)
#    0.000    2.750    0.000    1.500    1.750    4.250 
#    0.000    1.875    0.000    3.750    0.000    5.250 
#    0.000    0.000    0.000    0.000    0.000    0.000 
#
# Total GULP energy -396711.786946 kJ/mol
# GULP energy per Si atom -12397.243342 kJ/mol
# Density = 1.738797 g / cm^3
# Si number density = 17.427634 Si / 1000 Ang^3
#
#
#
# Elastic Constant Matrix: (Units=GPa)
#
#
# Indices 1 2 3 4 5 6 
#
# 1 107.7305 38.6240 56.7420 0.0000 -5.1416 0.0000
# 2 38.6240 49.1596 25.8900 0.0000 4.1093 0.0000
# 3 56.7420 25.8900 79.8648 0.0000 -5.1399 0.0000
# 4 0.0000 0.0000 0.0000 18.4261 0.0000 3.6254
# 5 -5.1416 4.1093 -5.1399 0.0000 14.3371 0.0000
# 6 0.0000 0.0000 0.0000 3.6254 0.0000 15.2030
#
#
#
# Elastic Compliance Matrix: (Units=1/GPa)
#
#
# Indices 1 2 3 4 5 6 
#
# 1 0.017877 -0.009707 -0.009174 0.000000 0.005904 0.000000
# 2 -0.009707 0.031323 -0.004155 0.000000 -0.013949 0.000000
# 3 -0.009174 -0.004155 0.020729 0.000000 0.005332 0.000000
# 4 0.000000 0.000000 0.000000 0.056943 0.000000 -0.013579
# 5 0.005904 -0.013949 0.005332 0.000000 0.077776 0.000000
# 6 0.000000 0.000000 0.000000 -0.013579 0.000000 0.069015
#
#
# Mechanical properties :
#
#
# Convention : Reuss Voigt Hill
#
# Bulk Modulus (GPa) = 41.91793 53.25188 47.58491
# Shear Modulus (GPa) = 15.25847 17.29316 16.27581
#
# Velocity S-wave (km/s) = 2.96215 3.15347 3.05931
# Velocity P-wave (km/s) = 5.98364 6.62431 6.31211
#
# Compressibility (1/GPa) = 0.02385614
#
# Stress axis : x y z
#
# Youngs Moduli (GPa) = 55.93924 31.92532 48.24122
#
# Poissons Ratio (x) = 0.30991 0.44256
# Poissons Ratio (y) = 0.54303 0.20044
# Poissons Ratio (z) = 0.51319 0.13265
#
# Static dielectric constant tensor:
#      x y z
#    x 3.284480 0.000000 0.053590 
#    y 0.000000 3.188550 0.000000 
#    z 0.053590 0.000000 3.304670 
# 
# 
# High freq. dielectric constant tensor:
#      x y z
#    x 1.669710 0.000000 0.001580 
#    y 0.000000 1.662880 0.000000 
#    z 0.001580 0.000000 1.657570 
# 
# From -- ./inp_files/52758.got.cif
#   From: 2010.06.25/outbox.cif.g09.slc.cpg/sg10_27_cif.got.tgz:52758.got - 2010.06.27 22:07:45.
