data_PCOD8060749
_publ_section_title
;
Structure prediction by ZEFSAII (Michael W. Deem and Ramdas Pophale) SiO2 
 PCOD8060749
Probable space group: P 2/M
;
_chemical_formula_sum "Si O2"
_cell_formula_units_Z 28
_cell_length_a 11.805388
_cell_length_b 9.517561
_cell_length_c 14.957633
_cell_angle_alpha 90.000000
_cell_angle_beta 119.199631
_cell_angle_gamma 90.000000
_cell_volume 1467.053150
_symmetry_space_group_name_H-M "P 2/M"
_symmetry_group_IT_number 10
_symmetry_cell_setting 'monoclinic'
loop_
_space_group_symop_operation_xyz
x,y,z
-x,y,-z
-x,-y,-z
x,-y,z
loop_
_atom_site_type_symbol
_atom_site_label
_atom_site_fract_x
_atom_site_fract_y
_atom_site_fract_z
Si Si1 0.751248 0.843730 0.705644
Si Si2 0.632818 0.338639 0.803292
Si Si3 0.123793 0.334854 0.987296
Si Si4 0.904559 0.164872 0.382305
Si Si5 0.039689 0.839053 0.797724
Si Si6 0.378166 0.844420 0.517127
Si Si7 0.653076 0.336533 0.326838
O O1 0.652436 0.741937 0.717839
O O2 0.745004 0.828550 0.595764
O O3 0.899223 0.813493 0.787342
O O4 0.709485 0.000000 0.718721
O O5 0.657657 0.500000 0.790140
O O6 0.483947 0.315259 0.779671
O O7 0.740334 0.287271 0.915435
O O8 0.118921 0.500000 0.967536
O O9 0.130253 0.259496 0.893147
O O10 0.000000 0.288643 0.000000
O O11 0.963712 0.201623 0.308316
O O12 0.768508 0.246847 0.329424
O O13 0.000000 0.215009 0.500000
O O14 0.876272 0.000000 0.383203
O O15 0.084966 0.000000 0.825686
O O16 0.500000 0.829731 0.500000
O O17 0.372495 0.717541 0.583413
O O18 0.375540 0.000000 0.562484
O O19 0.692482 0.500000 0.344282
#
# Coordination Sequence:
#
# PCOD8060749 Si02
#       7
#     4   4   4   4   4   4   4
#     4  10  19  32  53  82 113 145 184 230 284 342
#     4  10  21  36  53  80 117 151 185 228 285 342
#     4  10  20  36  58  83 115 157 194 230 286 349
#     4  10  22  43  66  84 113 154 195 239 287 345
#     4  10  21  36  58  87 113 144 191 245 291 331
#     4  10  19  32  52  79 112 150 189 226 280 351
#     4  11  23  37  56  83 117 152 191 241 289 339
#
# _framework density 19.085881000000001
#
# number of rings (size 3 to 8) (size 9 to 14) (size 15 to 20)
#    0.000    1.857    2.857    1.286    0.000    5.429 
#    0.000    2.143    0.000    4.286    0.000    0.000 
#    0.000    0.000    0.000    0.000    0.000    0.000 
#
# Total GULP energy -347027.210482 kJ/mol
# GULP energy per Si atom -12393.828946 kJ/mol
# Density = 1.904244 g / cm^3
# Si number density = 19.085881 Si / 1000 Ang^3
#
#
#
# Elastic Constant Matrix: (Units=GPa)
#
#
# Indices 1 2 3 4 5 6 
#
# 1 76.2496 40.7571 43.7088 0.0000 10.2639 0.0000
# 2 40.7571 64.4238 42.9643 0.0000 4.7616 0.0000
# 3 43.7088 42.9643 101.4756 0.0000 8.0572 0.0000
# 4 0.0000 0.0000 0.0000 16.2868 0.0000 0.3407
# 5 10.2639 4.7616 8.0572 0.0000 31.3641 0.0000
# 6 0.0000 0.0000 0.0000 0.3407 0.0000 31.4597
#
#
#
# Elastic Compliance Matrix: (Units=1/GPa)
#
#
# Indices 1 2 3 4 5 6 
#
# 1 0.021986 -0.010453 -0.004695 0.000000 -0.004402 0.000000
# 2 -0.010453 0.026627 -0.006862 0.000000 0.001141 0.000000
# 3 -0.004695 -0.006862 0.014881 0.000000 -0.001245 0.000000
# 4 0.000000 0.000000 0.000000 0.061413 0.000000 -0.000665
# 5 -0.004402 0.001141 -0.001245 0.000000 0.033471 0.000000
# 6 0.000000 0.000000 0.000000 -0.000665 0.000000 0.031794
#
#
# Mechanical properties :
#
#
# Convention : Reuss Voigt Hill
#
# Bulk Modulus (GPa) = 51.34903 55.22327 53.28615
# Shear Modulus (GPa) = 20.77427 23.47004 22.12216
#
# Velocity S-wave (km/s) = 3.30277 3.51052 3.40823
# Velocity P-wave (km/s) = 6.44259 6.74007 6.59301
#
# Compressibility (1/GPa) = 0.01947456
#
# Stress axis : x y z
#
# Youngs Moduli (GPa) = 45.48387 37.55587 67.19993
#
# Poissons Ratio (x) = 0.39256 0.31549
# Poissons Ratio (y) = 0.47543 0.46113
# Poissons Ratio (z) = 0.21354 0.25771
#
# Static dielectric constant tensor:
#      x y z
#    x 3.486520 0.000000 0.281350 
#    y 0.000000 3.415180 0.000000 
#    z 0.281350 0.000000 3.723710 
# 
# 
# High freq. dielectric constant tensor:
#      x y z
#    x 1.730900 0.000000 0.020260 
#    y 0.000000 1.736880 0.000000 
#    z 0.020260 0.000000 1.740960 
# 
# From -- ./inp_files/49094.got.cif
#   From: 2010.06.25/outbox.cif.g09.slc.cpg/sg10_25_cif.got.tgz:49094.got - 2010.06.27 22:07:45.
