data_PCOD8060530
_publ_section_title
;
Structure prediction by ZEFSAII (Michael W. Deem and Ramdas Pophale) SiO2 
 PCOD8060530
Probable space group: P 2/M
;
_chemical_formula_sum "Si O2"
_cell_formula_units_Z 28
_cell_length_a 14.218929
_cell_length_b 9.350297
_cell_length_c 18.500252
_cell_angle_alpha 90.000000
_cell_angle_beta 37.475274
_cell_angle_gamma 90.000000
_cell_volume 1496.486158
_symmetry_space_group_name_H-M "P 2/M"
_symmetry_group_IT_number 10
_symmetry_cell_setting 'monoclinic'
loop_
_space_group_symop_operation_xyz
x,y,z
-x,y,-z
-x,-y,-z
x,-y,z
loop_
_atom_site_type_symbol
_atom_site_label
_atom_site_fract_x
_atom_site_fract_y
_atom_site_fract_z
Si Si1 0.873864 0.837169 0.370432
Si Si2 0.889607 0.662538 0.502210
Si Si3 0.531278 0.751005 0.560639
Si Si4 0.728797 0.837519 0.078142
Si Si5 0.981965 0.670345 0.844845
Si Si6 0.542340 0.653243 0.710280
Si Si7 0.794384 0.154541 0.200017
O O1 0.910597 0.778723 0.427146
O O2 0.692534 0.837101 0.459423
O O3 0.972733 0.733352 0.259689
O O4 0.932525 0.000000 0.328765
O O5 0.926530 0.500000 0.453347
O O6 0.713641 0.672023 0.636963
O O7 0.000000 0.708276 0.500000
O O8 0.500000 0.678979 0.500000
O O9 0.544418 0.644134 0.620721
O O10 0.385511 0.851853 0.667490
O O11 0.555824 0.779882 0.194910
O O12 0.816651 0.829022 0.100837
O O13 0.719292 0.000000 0.055274
O O14 0.818333 0.738020 0.967038
O O15 0.969818 0.500000 0.849097
O O16 0.116095 0.714202 0.819078
O O17 0.473906 0.500000 0.776826
O O18 0.865188 0.000000 0.181092
#
# Coordination Sequence:
#
# PCOD8060530 Si02
#       7
#     4   4   4   4   4   4   4
#     4  11  22  36  55  81 111 144 185 226 269 322
#     4   9  19  38  62  87 116 144 171 212 269 330
#     4  10  19  32  50  77 108 149 181 222 266 320
#     4  10  21  37  54  73 102 143 187 228 270 316
#     4  12  24  35  50  73 105 144 185 230 274 317
#     4   9  19  34  54  82 110 140 180 221 263 316
#     4  10  20  34  51  72 100 142 190 230 269 316
#
# _framework density 18.710495999999999
#
# number of rings (size 3 to 8) (size 9 to 14) (size 15 to 20)
#    0.000    1.857    1.429    3.000    0.000    9.714 
#    0.000    0.000    0.000    0.857    0.000    6.000 
#    0.000    0.000    0.000    0.000    0.000    0.000 
#
# Total GULP energy -347012.413251 kJ/mol
# GULP energy per Si atom -12393.300473 kJ/mol
# Density = 1.866791 g / cm^3
# Si number density = 18.710496 Si / 1000 Ang^3
#
#
#
# Elastic Constant Matrix: (Units=GPa)
#
#
# Indices 1 2 3 4 5 6 
#
# 1 93.3197 40.3764 22.8390 0.0000 -7.4255 0.0000
# 2 40.3764 157.9381 56.1594 0.0000 -1.6510 0.0000
# 3 22.8390 56.1594 91.5229 0.0000 -3.6863 0.0000
# 4 0.0000 0.0000 0.0000 25.7494 0.0000 1.5800
# 5 -7.4255 -1.6510 -3.6863 0.0000 14.3591 0.0000
# 6 0.0000 0.0000 0.0000 1.5800 0.0000 18.1569
#
#
#
# Elastic Compliance Matrix: (Units=1/GPa)
#
#
# Indices 1 2 3 4 5 6 
#
# 1 0.012675 -0.002735 -0.001246 0.000000 0.005920 0.000000
# 2 -0.002735 0.008691 -0.004716 0.000000 -0.001626 0.000000
# 3 -0.001246 -0.004716 0.014230 0.000000 0.002467 0.000000
# 4 0.000000 0.000000 0.000000 0.039044 0.000000 -0.003398
# 5 0.005920 -0.001626 0.002467 0.000000 0.073150 0.000000
# 6 0.000000 0.000000 0.000000 -0.003398 0.000000 0.055371
#
#
# Mechanical properties :
#
#
# Convention : Reuss Voigt Hill
#
# Bulk Modulus (GPa) = 54.93926 64.61448 59.77687
# Shear Modulus (GPa) = 22.06302 26.54680 24.30491
#
# Velocity S-wave (km/s) = 3.43764 3.77081 3.60807
# Velocity P-wave (km/s) = 6.72183 7.31898 7.02675
#
# Compressibility (1/GPa) = 0.01820192
#
# Stress axis : x y z
#
# Youngs Moduli (GPa) = 78.89253 115.06596 70.27380
#
# Poissons Ratio (x) = 0.31476 0.08757
# Poissons Ratio (y) = 0.21581 0.33138
# Poissons Ratio (z) = 0.09831 0.54260
#
# Static dielectric constant tensor:
#      x y z
#    x 3.167740 0.000000 -0.020370 
#    y 0.000000 3.371840 0.000000 
#    z -0.020370 0.000000 3.504780 
# 
# 
# High freq. dielectric constant tensor:
#      x y z
#    x 1.689210 0.000000 -0.005230 
#    y 0.000000 1.728130 0.000000 
#    z -0.005230 0.000000 1.730410 
# 
# From -- ./inp_files/77711.got.cif
#   From: 2010.06.25/outbox.cif.g09.slc.cpg/sg10_39_cif.got.tgz:77711.got - 2010.06.27 22:07:45.
