data_PCOD8060024
_publ_section_title
;
Structure prediction by ZEFSAII (Michael W. Deem and Ramdas Pophale) SiO2 
 PCOD8060024
Probable space group: P 2/M
;
_chemical_formula_sum "Si O2"
_cell_formula_units_Z 28
_cell_length_a 31.503421
_cell_length_b 9.128870
_cell_length_c 31.503432
_cell_angle_alpha 90.000000
_cell_angle_beta 170.523617
_cell_angle_gamma 90.000000
_cell_volume 1491.663065
_symmetry_space_group_name_H-M "P 2/M"
_symmetry_group_IT_number 10
_symmetry_cell_setting 'monoclinic'
loop_
_space_group_symop_operation_xyz
x,y,z
-x,y,-z
-x,-y,-z
x,-y,z
loop_
_atom_site_type_symbol
_atom_site_label
_atom_site_fract_x
_atom_site_fract_y
_atom_site_fract_z
Si Si1 0.236584 0.169839 0.263416
Si Si2 0.905751 0.326066 0.594239
Si Si3 0.191943 0.325876 0.308127
Si Si4 0.049046 0.826015 0.451019
Si Si5 0.667211 0.674274 0.832855
Si Si6 0.380594 0.673519 0.119397
Si Si7 0.476138 0.826361 0.023805
O O1 0.500000 0.213175 0.500000
O O2 0.215512 0.265208 0.284482
O O3 0.230253 0.000000 0.269750
O O4 0.000000 0.213175 0.000000
O O5 0.908887 0.500000 0.591097
O O6 0.928369 0.249836 0.571644
O O7 0.644395 0.270355 0.358597
O O8 0.141389 0.270357 0.855592
O O9 0.193353 0.500000 0.306721
O O10 0.930158 0.267106 0.071331
O O11 0.428777 0.267102 0.569940
O O12 0.787679 0.770513 0.215379
O O13 0.052182 0.000000 0.447884
O O14 0.284724 0.770505 0.712414
O O15 0.666469 0.500000 0.833579
O O16 0.643266 0.739134 0.856741
O O17 0.379349 0.500000 0.120649
O O18 0.477440 0.000000 0.022542
O O19 0.500000 0.759796 0.000000
#
# Coordination Sequence:
#
# PCOD8060024 Si02
#       7
#     4   4   4   4   4   4   4
#     4  10  21  36  52  70  96 131 164 192 228 280
#     4  10  19  31  49  71  95 126 161 193 227 275
#     4  10  19  31  51  76  98 121 153 199 244 276
#     4  10  19  31  49  71  95 122 152 194 241 277
#     4   9  17  30  49  74  99 122 155 197 238 277
#     4   9  17  30  49  71  95 126 161 193 227 275
#     4   9  17  30  49  71  92 119 158 196 231 279
#
# _framework density 18.770996
#
# number of rings (size 3 to 8) (size 9 to 14) (size 15 to 20)
#    0.000    2.429    0.000    3.000    0.000    5.714 
#    0.000    0.000    0.000    7.714    0.000    0.000 
#    0.000    0.000    0.000    0.000    0.000    0.000 
#
# Total GULP energy -347278.982708 kJ/mol
# GULP energy per Si atom -12402.820811 kJ/mol
# Density = 1.872827 g / cm^3
# Si number density = 18.770996 Si / 1000 Ang^3
#
#
#
# Elastic Constant Matrix: (Units=GPa)
#
#
# Indices 1 2 3 4 5 6 
#
# 1 199.2965 31.5811 112.1552 0.0000 -0.7123 0.0000
# 2 31.5811 18.2278 23.9766 0.0000 -0.6691 0.0000
# 3 112.1552 23.9766 213.8787 0.0000 1.9857 0.0000
# 4 0.0000 0.0000 0.0000 14.4717 0.0000 -4.4010
# 5 -0.7123 -0.6691 1.9857 0.0000 39.7989 0.0000
# 6 0.0000 0.0000 0.0000 -4.4010 0.0000 64.2689
#
#
#
# Elastic Compliance Matrix: (Units=1/GPa)
#
#
# Indices 1 2 3 4 5 6 
#
# 1 0.008531 -0.010427 -0.003306 0.000000 0.000142 0.000000
# 2 -0.010427 0.077177 -0.003196 0.000000 0.001270 0.000000
# 3 -0.003306 -0.003196 0.006772 0.000000 -0.000451 0.000000
# 4 0.000000 0.000000 0.000000 0.070570 0.000000 0.004832
# 5 0.000142 0.001270 -0.000451 0.000000 0.025173 0.000000
# 6 0.000000 0.000000 0.000000 0.004832 0.000000 0.015891
#
#
# Mechanical properties :
#
#
# Convention : Reuss Voigt Hill
#
# Bulk Modulus (GPa) = 17.05838 85.20320 51.13079
# Shear Modulus (GPa) = 19.41670 41.28722 30.35196
#
# Velocity S-wave (km/s) = 3.21970 4.69499 4.02551
# Velocity P-wave (km/s) = 4.78845 8.65333 6.99319
#
# Compressibility (1/GPa) = 0.05862221
#
# Stress axis : x y z
#
# Youngs Moduli (GPa) = 117.22240 12.95725 147.67564
#
# Poissons Ratio (x) = 0.13510 0.48820
# Poissons Ratio (y) = 1.22222 0.47198
# Poissons Ratio (z) = 0.38753 0.04141
#
# Static dielectric constant tensor:
#      x y z
#    x 3.594870 0.000000 0.033350 
#    y 0.000000 2.908760 0.000000 
#    z 0.033350 0.000000 3.972610 
# 
# 
# High freq. dielectric constant tensor:
#      x y z
#    x 1.748380 0.000000 0.000450 
#    y 0.000000 1.674570 0.000000 
#    z 0.000450 0.000000 1.753510 
# 
# From -- ./inp_files/13563.got.cif
#   From: 2010.06.25/outbox.cif.g09.slc.cpg/sg10_7_cif.got.tgz:13563.got - 2010.06.27 22:07:45.
