data_PCOD8060902
_publ_section_title
;
Structure prediction by ZEFSAII (Michael W. Deem and Ramdas Pophale) SiO2 
 PCOD8060902
Probable space group: P 2/M
;
_chemical_formula_sum "Si O2"
_cell_formula_units_Z 32
_cell_length_a 24.778013
_cell_length_b 16.939974
_cell_length_c 9.376254
_cell_angle_alpha 90.000000
_cell_angle_beta 26.487010
_cell_angle_gamma 90.000000
_cell_volume 1755.247955
_symmetry_space_group_name_H-M "P 2/M"
_symmetry_group_IT_number 10
_symmetry_cell_setting 'monoclinic'
loop_
_space_group_symop_operation_xyz
x,y,z
-x,y,-z
-x,-y,-z
x,-y,z
loop_
_atom_site_type_symbol
_atom_site_label
_atom_site_fract_x
_atom_site_fract_y
_atom_site_fract_z
Si Si1 0.713071 0.222683 0.202429
Si Si2 0.359842 0.091240 0.812124
Si Si3 0.723322 0.824951 0.710831
Si Si4 0.478581 0.288809 0.888362
Si Si5 0.091743 0.087669 0.910433
Si Si6 0.958089 0.782515 0.754248
Si Si7 0.392147 0.592222 0.867260
Si Si8 0.817970 0.298776 0.680466
O O1 0.683410 0.131330 0.235336
O O2 0.604576 0.273795 0.515491
O O3 0.816466 0.237672 0.076850
O O4 0.744804 0.251977 0.971373
O O5 0.500000 0.111118 0.500000
O O6 0.332529 0.000000 0.855591
O O7 0.292796 0.118675 0.114810
O O8 0.784862 0.872312 0.436279
O O9 0.803567 0.748438 0.565757
O O10 0.598168 0.791684 0.943462
O O11 0.417458 0.362746 0.954391
O O12 0.500000 0.313127 0.000000
O O13 0.120118 0.000000 0.905292
O O14 0.024961 0.142159 0.184562
O O15 0.000000 0.079176 0.000000
O O16 0.000000 0.810680 0.500000
O O17 0.037962 0.705781 0.618844
O O18 0.500000 0.613425 0.500000
O O19 0.390175 0.500000 0.901958
O O20 0.252882 0.616934 0.152525
#
# Coordination Sequence:
#
# PCOD8060902 Si02
#       8
#     4   4   4   4   4   4   4   4
#     4  10  19  34  54  79 112 143 191 233 278 330
#     4  10  19  32  54  80 110 150 195 247 292 334
#     4  10  19  34  55  77 108 147 192 237 286 334
#     4  11  21  34  56  86 115 148 179 229 281 339
#     4  11  22  36  52  76 110 147 194 244 287 329
#     4  10  21  37  55  78 108 150 191 238 278 331
#     4  10  20  36  63  91 115 144 177 222 280 342
#     4   9  18  34  58  82 107 140 187 227 267 327
#
# _framework density 18.231041999999999
#
# number of rings (size 3 to 8) (size 9 to 14) (size 15 to 20)
#    0.000    1.875    3.750    1.125    0.000    1.000 
#    0.000    0.000    0.000    6.000    0.000   11.375 
#    0.000    0.000    0.000    0.000    0.000    0.000 
#
# Total GULP energy -396470.012758 kJ/mol
# GULP energy per Si atom -12389.687899 kJ/mol
# Density = 1.818955 g / cm^3
# Si number density = 18.231042 Si / 1000 Ang^3
#
#
#
# Elastic Constant Matrix: (Units=GPa)
#
#
# Indices 1 2 3 4 5 6 
#
# 1 89.5931 38.2821 29.9230 0.0000 -12.5109 0.0000
# 2 38.2821 94.1138 38.5130 0.0000 -11.5160 0.0000
# 3 29.9230 38.5130 57.7550 0.0000 -19.9691 0.0000
# 4 0.0000 0.0000 0.0000 24.6696 0.0000 2.0012
# 5 -12.5109 -11.5160 -19.9691 0.0000 32.6350 0.0000
# 6 0.0000 0.0000 0.0000 2.0012 0.0000 6.8742
#
#
#
# Elastic Compliance Matrix: (Units=1/GPa)
#
#
# Indices 1 2 3 4 5 6 
#
# 1 0.014512 -0.003926 -0.004384 0.000000 0.001496 0.000000
# 2 -0.003926 0.015702 -0.008931 0.000000 -0.001429 0.000000
# 3 -0.004384 -0.008931 0.030276 0.000000 0.013694 0.000000
# 4 0.000000 0.000000 0.000000 0.041516 0.000000 -0.012086
# 5 0.001496 -0.001429 0.013694 0.000000 0.039090 0.000000
# 6 0.000000 0.000000 0.000000 -0.012086 0.000000 0.148991
#
#
# Mechanical properties :
#
#
# Convention : Reuss Voigt Hill
#
# Bulk Modulus (GPa) = 38.44799 50.54423 44.49611
# Shear Modulus (GPa) = 15.00432 21.81866 18.41149
#
# Velocity S-wave (km/s) = 2.87193 3.46321 3.18134
# Velocity P-wave (km/s) = 5.66854 6.61636 6.16071
#
# Compressibility (1/GPa) = 0.02600916
#
# Stress axis : x y z
#
# Youngs Moduli (GPa) = 68.90810 63.68543 33.03000
#
# Poissons Ratio (x) = 0.25004 0.14479
# Poissons Ratio (y) = 0.27055 0.29498
# Poissons Ratio (z) = 0.30206 0.56875
#
# Static dielectric constant tensor:
#      x y z
#    x 3.558200 0.000000 -0.100930 
#    y 0.000000 3.192610 0.000000 
#    z -0.100930 0.000000 3.560130 
# 
# 
# High freq. dielectric constant tensor:
#      x y z
#    x 1.706570 0.000000 -0.005860 
#    y 0.000000 1.675840 0.000000 
#    z -0.005860 0.000000 1.709860 
# 
# From -- ./inp_files/36432.got.cif
#   From: 2010.06.25/outbox.cif.g09.slc.cpg/sg10_19_cif.got.tgz:36432.got - 2010.06.27 22:07:45.
