data_PCOD8060168
_publ_section_title
;
Structure prediction by ZEFSAII (Michael W. Deem and Ramdas Pophale) SiO2 
 PCOD8060168
Probable space group: P 2/M
;
_chemical_formula_sum "Si O2"
_cell_formula_units_Z 18
_cell_length_a 7.512065
_cell_length_b 12.669524
_cell_length_c 11.015393
_cell_angle_alpha 90.000000
_cell_angle_beta 66.826309
_cell_angle_gamma 90.000000
_cell_volume 963.794654
_symmetry_space_group_name_H-M "P 2/M"
_symmetry_group_IT_number 10
_symmetry_cell_setting 'monoclinic'
loop_
_space_group_symop_operation_xyz
x,y,z
-x,y,-z
-x,-y,-z
x,-y,z
loop_
_atom_site_type_symbol
_atom_site_label
_atom_site_fract_x
_atom_site_fract_y
_atom_site_fract_z
Si Si1 0.045620 0.381196 0.618451
Si Si2 0.500000 0.219873 0.000000
Si Si3 0.610979 0.617889 0.771207
Si Si4 0.387539 0.256650 0.646276
Si Si5 0.212077 0.123013 0.911323
O O1 0.129228 0.500000 0.578348
O O2 0.191204 0.313399 0.658185
O O3 0.000000 0.328963 0.500000
O O4 0.838221 0.384478 0.738829
O O5 0.476443 0.296356 0.118356
O O6 0.673260 0.143368 0.993817
O O7 0.525939 0.500000 0.814957
O O8 0.542352 0.657410 0.656280
O O9 0.500000 0.204410 0.500000
O O10 0.318496 0.172150 0.764665
O O11 0.199431 0.000000 0.886090
O O12 0.000000 0.169633 0.000000
#
# Coordination Sequence:
#
# PCOD8060168 Si02
#       5
#     4   2   4   4   4
#     4  10  19  31  50  76 109 145 176 205 249 312
#     4  10  20  36  58  80 104 138 180 222 264 314
#     4  10  20  33  52  80 113 145 176 212 256 312
#     4  11  21  34  55  82 110 140 177 220 265 312
#     4  10  22  40  60  78 102 138 180 226 273 321
#
# _framework density 18.676179000000001
#
# number of rings (size 3 to 8) (size 9 to 14) (size 15 to 20)
#    0.000    1.778    2.222    2.667    0.000    1.333 
#    0.000    0.000    0.000   11.333    0.000    0.000 
#    0.000    0.000    0.000    0.000    0.000    0.000 
#
# Total GULP energy -223014.176240 kJ/mol
# GULP energy per Si atom -12389.676458 kJ/mol
# Density = 1.863367 g / cm^3
# Si number density = 18.676179 Si / 1000 Ang^3
#
#
#
# Elastic Constant Matrix: (Units=GPa)
#
#
# Indices 1 2 3 4 5 6 
#
# 1 125.8611 34.5762 31.5774 0.0000 7.4893 0.0000
# 2 34.5762 68.1925 28.9177 0.0000 1.1087 0.0000
# 3 31.5774 28.9177 80.2782 0.0000 0.0977 0.0000
# 4 0.0000 0.0000 0.0000 22.7312 0.0000 -0.3096
# 5 7.4893 1.1087 0.0977 0.0000 30.2071 0.0000
# 6 0.0000 0.0000 0.0000 -0.3096 0.0000 27.7968
#
#
#
# Elastic Compliance Matrix: (Units=1/GPa)
#
#
# Indices 1 2 3 4 5 6 
#
# 1 0.009757 -0.003876 -0.002439 0.000000 -0.002269 0.000000
# 2 -0.003876 0.018860 -0.005269 0.000000 0.000286 0.000000
# 3 -0.002439 -0.005269 0.015313 0.000000 0.000749 0.000000
# 4 0.000000 0.000000 0.000000 0.043999 0.000000 0.000490
# 5 -0.002269 0.000286 0.000749 0.000000 0.033654 0.000000
# 6 0.000000 0.000000 0.000000 0.000490 0.000000 0.035981
#
#
# Mechanical properties :
#
#
# Convention : Reuss Voigt Hill
#
# Bulk Modulus (GPa) = 48.16659 51.60825 49.88742
# Shear Modulus (GPa) = 26.64495 28.09773 27.37134
#
# Velocity S-wave (km/s) = 3.78124 3.88296 3.83244
# Velocity P-wave (km/s) = 6.70150 6.91349 6.80832
#
# Compressibility (1/GPa) = 0.02076128
#
# Stress axis : x y z
#
# Youngs Moduli (GPa) = 102.49057 53.02366 65.30306
#
# Poissons Ratio (x) = 0.20552 0.15927
# Poissons Ratio (y) = 0.39726 0.34410
# Poissons Ratio (z) = 0.24997 0.27940
#
# Static dielectric constant tensor:
#      x y z
#    x 3.718340 0.000000 0.144020 
#    y 0.000000 3.269190 0.000000 
#    z 0.144020 0.000000 3.916440 
# 
# 
# High freq. dielectric constant tensor:
#      x y z
#    x 1.743330 0.000000 0.005480 
#    y 0.000000 1.706190 0.000000 
#    z 0.005480 0.000000 1.724130 
# 
# From -- ./inp_files/6585.got.cif
#   From: 2010.06.25/outbox.cif.g09.slc.cpg/sg10_4_cif.got.tgz:6585.got - 2010.06.27 22:07:45.
