data_PCOD8060778
_publ_section_title
;
Structure prediction by ZEFSAII (Michael W. Deem and Ramdas Pophale) SiO2 
 PCOD8060778
Probable space group: P 2/M
;
_chemical_formula_sum "Si O2"
_cell_formula_units_Z 28
_cell_length_a 15.929443
_cell_length_b 13.963661
_cell_length_c 9.001615
_cell_angle_alpha 90.000000
_cell_angle_beta 50.469746
_cell_angle_gamma 90.000000
_cell_volume 1544.319791
_symmetry_space_group_name_H-M "P 2/M"
_symmetry_group_IT_number 10
_symmetry_cell_setting 'monoclinic'
loop_
_space_group_symop_operation_xyz
x,y,z
-x,y,-z
-x,-y,-z
x,-y,z
loop_
_atom_site_type_symbol
_atom_site_label
_atom_site_fract_x
_atom_site_fract_y
_atom_site_fract_z
Si Si1 0.715542 0.390774 0.906038
Si Si2 0.020509 0.215711 0.804462
Si Si3 0.957897 0.390016 0.708976
Si Si4 0.223359 0.886604 0.429946
Si Si5 0.895479 0.103987 0.721564
Si Si6 0.496652 0.389544 0.672278
Si Si7 0.607966 0.265314 0.786118
O O1 0.714119 0.500000 0.849057
O O2 0.829591 0.367637 0.856498
O O3 0.694097 0.324213 0.788138
O O4 0.625181 0.374102 0.132757
O O5 0.129110 0.158530 0.638755
O O6 0.024303 0.327842 0.755677
O O7 0.914550 0.176520 0.834909
O O8 0.000000 0.202696 0.000000
O O9 0.984363 0.500000 0.715766
O O10 0.000000 0.360018 0.500000
O O11 0.202660 0.866884 0.277457
O O12 0.337054 0.833030 0.334156
O O13 0.231994 0.000000 0.454728
O O14 0.000000 0.098898 0.500000
O O15 0.872878 0.000000 0.818235
O O16 0.500000 0.352814 0.500000
O O17 0.532711 0.500000 0.643547
O O18 0.581071 0.328305 0.672764
O O19 0.500000 0.240216 0.000000
#
# Coordination Sequence:
#
# PCOD8060778 Si02
#       7
#     4   4   4   4   4   4   4
#     4   9  17  31  52  76 101 130 166 207 247 292
#     4  11  21  32  51  77 106 135 166 205 253 309
#     4  10  20  34  52  74 104 140 173 206 246 297
#     4  10  21  37  55  74  98 130 171 219 261 299
#     4   8  15  30  51  71  92 122 163 209 251 291
#     4   9  18  32  51  77 107 136 166 201 244 297
#     4  10  19  32  53  76  99 129 169 212 253 298
#
# _framework density 18.130960000000002
#
# number of rings (size 3 to 8) (size 9 to 14) (size 15 to 20)
#    0.000    2.429    0.000    4.714    0.000    4.571 
#    0.000    0.714    0.000    0.429    0.000    0.000 
#    0.000    0.000    0.000    0.000    0.000    0.000 
#
# Total GULP energy -347120.909642 kJ/mol
# GULP energy per Si atom -12397.175344 kJ/mol
# Density = 1.808969 g / cm^3
# Si number density = 18.130960 Si / 1000 Ang^3
#
#
#
# Elastic Constant Matrix: (Units=GPa)
#
#
# Indices 1 2 3 4 5 6 
#
# 1 63.8431 53.2183 48.9025 0.0000 9.4706 0.0000
# 2 53.2183 114.6960 57.3555 0.0000 3.5198 0.0000
# 3 48.9025 57.3555 82.3598 0.0000 14.8053 0.0000
# 4 0.0000 0.0000 0.0000 15.6469 0.0000 -8.6170
# 5 9.4706 3.5198 14.8053 0.0000 31.0948 0.0000
# 6 0.0000 0.0000 0.0000 -8.6170 0.0000 27.6333
#
#
#
# Elastic Compliance Matrix: (Units=1/GPa)
#
#
# Indices 1 2 3 4 5 6 
#
# 1 0.033689 -0.008902 -0.013277 0.000000 -0.002931 0.000000
# 2 -0.008902 0.016026 -0.006601 0.000000 0.004040 0.000000
# 3 -0.013277 -0.006601 0.025985 0.000000 -0.007581 0.000000
# 4 0.000000 0.000000 0.000000 0.077161 0.000000 0.024062
# 5 -0.002931 0.004040 -0.007581 0.000000 0.036205 0.000000
# 6 0.000000 0.000000 0.000000 0.024062 0.000000 0.043691
#
#
# Mechanical properties :
#
#
# Convention : Reuss Voigt Hill
#
# Bulk Modulus (GPa) = 55.12746 64.42793 59.77769
# Shear Modulus (GPa) = 16.87110 21.63650 19.25380
#
# Velocity S-wave (km/s) = 3.05374 3.45823 3.26226
# Velocity P-wave (km/s) = 6.55019 7.18037 6.87251
#
# Compressibility (1/GPa) = 0.01813978
#
# Stress axis : x y z
#
# Youngs Moduli (GPa) = 29.68362 62.39736 38.48353
#
# Poissons Ratio (x) = 0.55547 0.51094
# Poissons Ratio (y) = 0.26425 0.25404
# Poissons Ratio (z) = 0.39410 0.41190
#
# Static dielectric constant tensor:
#      x y z
#    x 3.426810 0.000000 -0.046160 
#    y 0.000000 3.457320 0.000000 
#    z -0.046160 0.000000 3.130510 
# 
# 
# High freq. dielectric constant tensor:
#      x y z
#    x 1.687850 0.000000 -0.004560 
#    y 0.000000 1.711080 0.000000 
#    z -0.004560 0.000000 1.680120 
# 
# From -- ./inp_files/28960.got.cif
#   From: 2010.06.25/outbox.cif.g09.slc.cpg/sg10_15_cif.got.tgz:28960.got - 2010.06.27 22:07:45.
