data_PCOD8060387
_publ_section_title
;
Structure prediction by ZEFSAII (Michael W. Deem and Ramdas Pophale) SiO2 
 PCOD8060387
Probable space group: P 2/M
;
_chemical_formula_sum "Si O2"
_cell_formula_units_Z 32
_cell_length_a 14.434901
_cell_length_b 8.801131
_cell_length_c 14.462973
_cell_angle_alpha 90.000000
_cell_angle_beta 87.592384
_cell_angle_gamma 90.000000
_cell_volume 1835.804076
_symmetry_space_group_name_H-M "P 2/M"
_symmetry_group_IT_number 10
_symmetry_cell_setting 'monoclinic'
loop_
_space_group_symop_operation_xyz
x,y,z
-x,y,-z
-x,-y,-z
x,-y,z
loop_
_atom_site_type_symbol
_atom_site_label
_atom_site_fract_x
_atom_site_fract_y
_atom_site_fract_z
Si Si1 0.267545 0.820728 0.872478
Si Si2 0.869696 0.178765 0.276250
Si Si3 0.795605 0.172644 0.657567
Si Si4 0.472271 0.820243 0.900926
Si Si5 0.340823 0.819420 0.190108
Si Si6 0.798453 0.678789 0.944643
Si Si7 0.058718 0.826304 0.187184
Si Si8 0.897358 0.817982 0.479219
O O1 0.225164 0.781446 0.773502
O O2 0.373033 0.757404 0.871125
O O3 0.263528 0.000000 0.892108
O O4 0.204532 0.736451 0.950283
O O5 0.866561 0.246404 0.380290
O O6 0.957395 0.241876 0.214531
O O7 0.885243 0.000000 0.285041
O O8 0.704801 0.245613 0.712468
O O9 0.882566 0.185771 0.721799
O O10 0.824623 0.249211 0.558691
O O11 0.770282 0.000000 0.637100
O O12 0.550979 0.773758 0.822475
O O13 0.466451 0.000000 0.909416
O O14 0.500000 0.752088 0.000000
O O15 0.287968 0.753318 0.104245
O O16 0.326265 0.000000 0.185872
O O17 0.788325 0.500000 0.940980
O O18 0.896268 0.727175 0.896081
O O19 0.053952 0.000000 0.152708
O O20 0.000000 0.758877 0.500000
O O21 0.896226 0.000000 0.482946
#
# Coordination Sequence:
#
# PCOD8060387 Si02
#       8
#     4   4   4   4   4   4   4   4
#     4  10  19  32  47  65  90 121 157 192 223 264
#     4   9  17  27  44  68  92 120 155 191 222 259
#     4   8  13  21  40  66  92 116 140 180 224 266
#     4   9  15  26  47  68  86 117 155 191 226 263
#     4   9  16  29  48  69  90 118 155 187 224 271
#     4  11  21  31  44  66  93 122 151 186 230 272
#     4   9  16  29  46  66  90 121 155 183 216 265
#     4   9  13  21  39  68  98 115 140 187 234 263
#
# _framework density 17.431054
#
# number of rings (size 3 to 8) (size 9 to 14) (size 15 to 20)
#    0.000    2.750    2.500    1.875    0.000    0.500 
#    0.000    4.375    0.000    0.750    0.000   15.750 
#    0.000    0.000    0.000    5.625    0.000    6.250 
#
# Total GULP energy -396545.228408 kJ/mol
# GULP energy per Si atom -12392.038388 kJ/mol
# Density = 1.739138 g / cm^3
# Si number density = 17.431054 Si / 1000 Ang^3
#
#
#
# Elastic Constant Matrix: (Units=GPa)
#
#
# Indices 1 2 3 4 5 6 
#
# 1 124.3428 12.3538 76.2203 0.0000 -10.8291 0.0000
# 2 12.3538 25.4536 16.2393 0.0000 -3.2230 0.0000
# 3 76.2203 16.2393 131.8394 0.0000 -13.0222 0.0000
# 4 0.0000 0.0000 0.0000 1.5629 0.0000 0.0463
# 5 -10.8291 -3.2230 -13.0222 0.0000 25.5668 0.0000
# 6 0.0000 0.0000 0.0000 0.0463 0.0000 3.7605
#
#
#
# Elastic Compliance Matrix: (Units=1/GPa)
#
#
# Indices 1 2 3 4 5 6 
#
# 1 0.012578 -0.001479 -0.006930 0.000000 0.001611 0.000000
# 2 -0.001479 0.043009 -0.004179 0.000000 0.002667 0.000000
# 3 -0.006930 -0.004179 0.012388 0.000000 0.002847 0.000000
# 4 0.000000 0.000000 0.000000 0.640069 0.000000 -0.007874
# 5 0.001611 0.002667 0.002847 0.000000 0.041582 0.000000
# 6 0.000000 0.000000 0.000000 -0.007874 0.000000 0.266021
#
#
# Mechanical properties :
#
#
# Convention : Reuss Voigt Hill
#
# Bulk Modulus (GPa) = 23.36597 54.58473 38.97535
# Shear Modulus (GPa) = 4.73894 17.96619 11.35256
#
# Velocity S-wave (km/s) = 1.65063 3.21393 2.55479
# Velocity P-wave (km/s) = 4.13118 6.71976 5.57771
#
# Compressibility (1/GPa) = 0.04279729
#
# Stress axis : x y z
#
# Youngs Moduli (GPa) = 79.50597 23.25101 80.72627
#
# Poissons Ratio (x) = 0.03439 0.55945
# Poissons Ratio (y) = 0.11760 0.33736
# Poissons Ratio (z) = 0.55099 0.09717
#
# Static dielectric constant tensor:
#      x y z
#    x 3.409220 0.000000 -0.270870 
#    y 0.000000 2.673810 0.000000 
#    z -0.270870 0.000000 3.409320 
# 
# 
# High freq. dielectric constant tensor:
#      x y z
#    x 1.668070 0.000000 -0.021000 
#    y 0.000000 1.611740 0.000000 
#    z -0.021000 0.000000 1.667570 
# 
# From -- ./inp_files/66106.got.cif
#   From: 2010.06.25/outbox.cif.g09.slc.cpg/sg10_34_cif.got.tgz:66106.got - 2010.06.27 22:07:45.
