data_PCOD8060910
_publ_section_title
;
Structure prediction by ZEFSAII (Michael W. Deem and Ramdas Pophale) SiO2 
 PCOD8060910
Probable space group: P 2/M
;
_chemical_formula_sum "Si O2"
_cell_formula_units_Z 32
_cell_length_a 20.233653
_cell_length_b 9.044910
_cell_length_c 25.128995
_cell_angle_alpha 90.000000
_cell_angle_beta 157.292671
_cell_angle_gamma 90.000000
_cell_volume 1775.284763
_symmetry_space_group_name_H-M "P 2/M"
_symmetry_group_IT_number 10
_symmetry_cell_setting 'monoclinic'
loop_
_space_group_symop_operation_xyz
x,y,z
-x,y,-z
-x,-y,-z
x,-y,z
loop_
_atom_site_type_symbol
_atom_site_label
_atom_site_fract_x
_atom_site_fract_y
_atom_site_fract_z
Si Si1 0.012030 0.673538 0.655636
Si Si2 0.671108 0.169033 0.158012
Si Si3 0.618330 0.325625 0.773508
Si Si4 0.156270 0.324632 0.150586
Si Si5 0.498060 0.169280 0.858818
Si Si6 0.944955 0.674918 0.086369
Si Si7 0.850282 0.326144 0.129517
Si Si8 0.662976 0.175113 0.371272
O O1 0.983638 0.500000 0.626631
O O2 0.178553 0.721602 0.746798
O O3 0.032991 0.714919 0.733444
O O4 0.852248 0.761014 0.514003
O O5 0.644353 0.187073 0.201274
O O6 0.719713 0.000000 0.179445
O O7 0.500000 0.216333 0.000000
O O8 0.581158 0.500000 0.749457
O O9 0.668421 0.277399 0.749486
O O10 0.447919 0.237992 0.662207
O O11 0.771538 0.278650 0.926976
O O12 0.150321 0.500000 0.145674
O O13 0.116422 0.267861 0.181560
O O14 0.000000 0.262301 0.000000
O O15 0.419900 0.229003 0.745693
O O16 0.555080 0.000000 0.895136
O O17 0.663383 0.260062 0.998579
O O18 0.953929 0.500000 0.095476
O O19 0.940275 0.739316 0.142838
O O20 0.824995 0.500000 0.105612
O O21 0.672295 0.000000 0.382095
#
# Coordination Sequence:
#
# PCOD8060910 Si02
#       8
#     4   4   4   4   4   4   4   4
#     4  11  24  38  54  79 108 137 174 216 259 309
#     4  10  20  37  60  80 103 136 170 209 260 313
#     4   9  15  27  50  76 104 136 170 211 258 306
#     4   7  11  20  40  73 105 132 164 204 254 306
#     4  10  21  36  56  80 103 134 175 213 253 310
#     4   8  13  24  46  77 107 132 164 210 261 305
#     4  10  19  32  54  81 106 134 170 216 261 304
#     4  11  23  37  53  75 107 143 177 213 256 308
#
# _framework density 18.025276999999999
#
# number of rings (size 3 to 8) (size 9 to 14) (size 15 to 20)
#    0.000    2.500    2.500    2.250    0.000    2.250 
#    0.000    2.500    0.000    4.875    0.000    5.250 
#    0.000    0.000    0.000    0.000    0.000    0.000 
#
# Total GULP energy -396550.380509 kJ/mol
# GULP energy per Si atom -12392.199391 kJ/mol
# Density = 1.798425 g / cm^3
# Si number density = 18.025277 Si / 1000 Ang^3
#
#
#
# Elastic Constant Matrix: (Units=GPa)
#
#
# Indices 1 2 3 4 5 6 
#
# 1 108.1712 24.0868 22.7653 0.0000 14.2452 0.0000
# 2 24.0868 41.6071 29.5585 0.0000 1.5514 0.0000
# 3 22.7653 29.5585 61.9616 0.0000 6.6072 0.0000
# 4 0.0000 0.0000 0.0000 14.3311 0.0000 -12.2682
# 5 14.2452 1.5514 6.6072 0.0000 22.4119 0.0000
# 6 0.0000 0.0000 0.0000 -12.2682 0.0000 -3.0765
#
#
#
# Elastic Compliance Matrix: (Units=1/GPa)
#
#
# Indices 1 2 3 4 5 6 
#
# 1 0.011612 -0.005977 -0.000694 0.000000 -0.006762 0.000000
# 2 -0.005977 0.039589 -0.017348 0.000000 0.006173 0.000000
# 3 -0.000694 -0.017348 0.025290 0.000000 -0.005814 0.000000
# 4 0.000000 0.000000 0.000000 0.015809 0.000000 -0.063044
# 5 -0.006762 0.006173 -0.005814 0.000000 0.050204 0.000000
# 6 0.000000 0.000000 0.000000 -0.063044 0.000000 -0.073644
#
#
# Mechanical properties :
#
#
# Convention : Reuss Voigt Hill
#
# Bulk Modulus (GPa) = 35.14619 40.50677 37.82648
# Shear Modulus (GPa) = 39.56272 15.75525 27.65899
#
# Velocity S-wave (km/s) = 4.69000 2.95967 3.92146
# Velocity P-wave (km/s) = 6.99062 5.84812 6.44474
#
# Compressibility (1/GPa) = 0.02845259
#
# Stress axis : x y z
#
# Youngs Moduli (GPa) = 86.11643 25.25974 39.54202
#
# Poissons Ratio (x) = 0.15099 0.02744
# Poissons Ratio (y) = 0.51475 0.68596
# Poissons Ratio (z) = 0.05975 0.43820
#
# Static dielectric constant tensor:
#      x y z
#    x 4.009960 0.000000 0.047850 
#    y 0.000000 3.043790 0.000000 
#    z 0.047850 0.000000 3.052660 
# 
# 
# High freq. dielectric constant tensor:
#      x y z
#    x 1.721780 0.000000 0.011280 
#    y 0.000000 1.669180 0.000000 
#    z 0.011280 0.000000 1.663480 
# 
# From -- ./inp_files/93767.got.cif
#   From: 2010.06.25/outbox.cif.g09.slc.cpg/sg10_47_cif.got.tgz:93767.got - 2010.06.27 22:07:45.
