data_PCOD8060033
_publ_section_title
;
Structure prediction by ZEFSAII (Michael W. Deem and Ramdas Pophale) SiO2 
 PCOD8060033
Probable space group: P 2/M
;
_chemical_formula_sum "Si O2"
_cell_formula_units_Z 32
_cell_length_a 21.059751
_cell_length_b 8.617650
_cell_length_c 12.603691
_cell_angle_alpha 90.000000
_cell_angle_beta 126.604721
_cell_angle_gamma 90.000000
_cell_volume 1836.242647
_symmetry_space_group_name_H-M "P 2/M"
_symmetry_group_IT_number 10
_symmetry_cell_setting 'monoclinic'
loop_
_space_group_symop_operation_xyz
x,y,z
-x,y,-z
-x,-y,-z
x,-y,z
loop_
_atom_site_type_symbol
_atom_site_label
_atom_site_fract_x
_atom_site_fract_y
_atom_site_fract_z
Si Si1 0.925175 0.819440 0.045839
Si Si2 0.818389 0.180233 0.528289
Si Si3 0.091455 0.318862 0.193048
Si Si4 0.662788 0.320478 0.286627
Si Si5 0.821370 0.180062 0.142809
Si Si6 0.499586 0.174883 0.873485
Si Si7 0.662161 0.679791 0.036305
Si Si8 0.090595 0.680431 0.574050
O O1 0.860496 0.779131 0.069643
O O2 0.005238 0.726629 0.151969
O O3 0.946626 0.000000 0.066132
O O4 0.889945 0.770735 0.897356
O O5 0.842231 0.276027 0.655789
O O6 0.728387 0.220341 0.411354
O O7 0.876112 0.220075 0.489134
O O8 0.826080 0.000000 0.561584
O O9 0.093589 0.500000 0.171372
O O10 0.675155 0.500000 0.325833
O O11 0.577357 0.266580 0.244292
O O12 0.670904 0.289002 0.169931
O O13 0.729219 0.223227 0.042367
O O14 0.861431 0.285068 0.271969
O O15 0.831674 0.000000 0.182803
O O16 0.497898 0.000000 0.827474
O O17 0.500000 0.175611 0.000000
O O18 0.577681 0.261340 0.909120
O O19 0.670908 0.500000 0.017338
O O20 0.100497 0.500000 0.555419
O O21 0.000000 0.727847 0.500000
#
# Coordination Sequence:
#
# PCOD8060033 Si02
#       8
#     4   4   4   4   4   4   4   4
#     4  10  21  38  57  78 103 133 174 221 266 309
#     4  12  23  35  53  75 104 138 174 215 261 309
#     4  11  22  37  57  78 101 133 175 221 267 311
#     4  10  19  32  49  73 104 137 174 212 255 306
#     4  11  22  34  52  76 104 137 173 213 258 309
#     4   9  17  29  47  70 100 136 174 210 251 303
#     4  10  19  31  49  72 104 139 173 213 254 303
#     4  11  23  36  50  71 102 138 174 211 255 311
#
# _framework density 17.426891000000001
#
# number of rings (size 3 to 8) (size 9 to 14) (size 15 to 20)
#    0.000    1.500    1.250    6.000    0.000    7.500 
#    0.000    0.000    0.000    0.000    0.000    0.875 
#    0.000    7.000    0.000    0.000    0.000    0.000 
#
# Total GULP energy -396960.786527 kJ/mol
# GULP energy per Si atom -12405.024579 kJ/mol
# Density = 1.738723 g / cm^3
# Si number density = 17.426891 Si / 1000 Ang^3
#
#
#
# Elastic Constant Matrix: (Units=GPa)
#
#
# Indices 1 2 3 4 5 6 
#
# 1 71.3353 14.6968 29.9627 0.0000 17.0608 0.0000
# 2 14.6968 60.4890 11.3830 0.0000 2.9551 0.0000
# 3 29.9627 11.3830 62.4588 0.0000 8.7463 0.0000
# 4 0.0000 0.0000 0.0000 26.1234 0.0000 8.1829
# 5 17.0608 2.9551 8.7463 0.0000 25.2334 0.0000
# 6 0.0000 0.0000 0.0000 8.1829 0.0000 20.7367
#
#
#
# Elastic Compliance Matrix: (Units=1/GPa)
#
#
# Indices 1 2 3 4 5 6 
#
# 1 0.020480 -0.002986 -0.007767 0.000000 -0.010805 0.000000
# 2 -0.002986 0.017577 -0.001855 0.000000 0.000604 0.000000
# 3 -0.007767 -0.001855 0.020294 0.000000 -0.001565 0.000000
# 4 0.000000 0.000000 0.000000 0.043679 0.000000 -0.017236
# 5 -0.010805 0.000604 -0.001565 0.000000 0.047407 0.000000
# 6 0.000000 0.000000 0.000000 -0.017236 0.000000 0.055025
#
#
# Mechanical properties :
#
#
# Convention : Reuss Voigt Hill
#
# Bulk Modulus (GPa) = 30.18130 34.04090 32.11110
# Shear Modulus (GPa) = 20.77049 23.63474 22.20261
#
# Velocity S-wave (km/s) = 3.45608 3.68669 3.57325
# Velocity P-wave (km/s) = 5.76909 6.13988 5.95737
#
# Compressibility (1/GPa) = 0.03313310
#
# Stress axis : x y z
#
# Youngs Moduli (GPa) = 48.82737 56.89199 49.27548
#
# Poissons Ratio (x) = 0.16991 0.38275
# Poissons Ratio (y) = 0.14582 0.09142
# Poissons Ratio (z) = 0.37926 0.10555
#
# Static dielectric constant tensor:
#      x y z
#    x 3.321560 0.000000 0.156100 
#    y 0.000000 3.382350 0.000000 
#    z 0.156100 0.000000 3.100650 
# 
# 
# High freq. dielectric constant tensor:
#      x y z
#    x 1.665310 0.000000 0.021510 
#    y 0.000000 1.693340 0.000000 
#    z 0.021510 0.000000 1.648060 
# 
# From -- ./inp_files/54889.got.cif
#   From: 2010.06.25/outbox.cif.g09.slc.cpg/sg10_28_cif.got.tgz:54889.got - 2010.06.27 22:07:45.
