data_PCOD8060117
_publ_section_title
;
Structure prediction by ZEFSAII (Michael W. Deem and Ramdas Pophale) SiO2 
 PCOD8060117
Probable space group: P 2/M
;
_chemical_formula_sum "Si O2"
_cell_formula_units_Z 32
_cell_length_a 12.961465
_cell_length_b 9.466534
_cell_length_c 15.363316
_cell_angle_alpha 90.000000
_cell_angle_beta 71.904025
_cell_angle_gamma 90.000000
_cell_volume 1791.840439
_symmetry_space_group_name_H-M "P 2/M"
_symmetry_group_IT_number 10
_symmetry_cell_setting 'monoclinic'
loop_
_space_group_symop_operation_xyz
x,y,z
-x,y,-z
-x,-y,-z
x,-y,z
loop_
_atom_site_type_symbol
_atom_site_label
_atom_site_fract_x
_atom_site_fract_y
_atom_site_fract_z
Si Si1 0.102449 0.159346 0.915292
Si Si2 0.301972 0.659930 0.280628
Si Si3 0.346501 0.836854 0.610551
Si Si4 0.613090 0.344646 0.924364
Si Si5 0.796862 0.158691 0.937026
Si Si6 0.854344 0.664937 0.265248
Si Si7 0.418298 0.162215 0.395904
Si Si8 0.092844 0.663377 0.229639
O O1 0.129315 0.271133 0.834387
O O2 0.086647 0.000000 0.880992
O O3 0.199550 0.162997 0.959417
O O4 0.000000 0.204685 0.000000
O O5 0.293595 0.500000 0.316873
O O6 0.389444 0.673638 0.179528
O O7 0.344845 0.752099 0.348426
O O8 0.181340 0.710915 0.279510
O O9 0.244690 0.740842 0.661529
O O10 0.454908 0.789928 0.635229
O O11 0.366805 0.815683 0.503661
O O12 0.319493 0.000000 0.638727
O O13 0.663674 0.500000 0.931032
O O14 0.680392 0.218722 0.946249
O O15 0.500000 0.330836 0.000000
O O16 0.890358 0.248350 0.863644
O O17 0.807667 0.000000 0.898804
O O18 0.826608 0.500000 0.263251
O O19 0.966919 0.686310 0.290883
O O20 0.412656 0.000000 0.369208
O O21 0.114458 0.500000 0.201642
#
# Coordination Sequence:
#
# PCOD8060117 Si02
#       8
#     4   4   4   4   4   4   4   4
#     4  10  20  34  50  73 107 142 175 214 263 309
#     4   9  18  33  55  79 104 138 176 218 266 312
#     4   9  20  39  59  79 108 140 169 216 277 323
#     4   9  19  35  51  70 104 144 175 212 264 312
#     4  10  19  31  50  73  98 135 180 219 256 302
#     4  11  22  34  54  82 109 140 183 223 261 318
#     4   9  19  38  61  81 103 137 178 217 267 327
#     4   9  19  35  51  73 108 143 173 210 261 314
#
# _framework density 17.858733000000001
#
# number of rings (size 3 to 8) (size 9 to 14) (size 15 to 20)
#    0.000    2.500    1.250    2.250    0.000    6.000 
#    0.000    4.375    0.000    3.750    0.000    0.000 
#    0.000    0.000    0.000    0.000    0.000    0.000 
#
# Total GULP energy -396543.082013 kJ/mol
# GULP energy per Si atom -12391.971313 kJ/mol
# Density = 1.781809 g / cm^3
# Si number density = 17.858733 Si / 1000 Ang^3
#
#
#
# Elastic Constant Matrix: (Units=GPa)
#
#
# Indices 1 2 3 4 5 6 
#
# 1 117.7353 67.5574 58.0643 0.0000 -3.5804 0.0000
# 2 67.5574 101.7464 49.6358 0.0000 -1.6388 0.0000
# 3 58.0643 49.6358 68.4726 0.0000 -7.4703 0.0000
# 4 0.0000 0.0000 0.0000 28.3933 0.0000 2.4123
# 5 -3.5804 -1.6388 -7.4703 0.0000 30.0785 0.0000
# 6 0.0000 0.0000 0.0000 2.4123 0.0000 29.6903
#
#
#
# Elastic Compliance Matrix: (Units=1/GPa)
#
#
# Indices 1 2 3 4 5 6 
#
# 1 0.017071 -0.006567 -0.009799 0.000000 -0.000759 0.000000
# 2 -0.006567 0.017845 -0.007551 0.000000 -0.001685 0.000000
# 3 -0.009799 -0.007551 0.029001 0.000000 0.005625 0.000000
# 4 0.000000 0.000000 0.000000 0.035464 0.000000 -0.002881
# 5 -0.000759 -0.001685 0.005625 0.000000 0.034461 0.000000
# 6 0.000000 0.000000 0.000000 -0.002881 0.000000 0.033915
#
#
# Mechanical properties :
#
#
# Convention : Reuss Voigt Hill
#
# Bulk Modulus (GPa) = 62.17364 70.94105 66.55734
# Shear Modulus (GPa) = 22.62924 25.14555 23.88739
#
# Velocity S-wave (km/s) = 3.56353 3.75644 3.66125
# Velocity P-wave (km/s) = 7.19871 7.65664 7.43120
#
# Compressibility (1/GPa) = 0.01608399
#
# Stress axis : x y z
#
# Youngs Moduli (GPa) = 58.57816 56.03727 34.48147
#
# Poissons Ratio (x) = 0.36799 0.33787
# Poissons Ratio (y) = 0.38468 0.26037
# Poissons Ratio (z) = 0.57399 0.42314
#
# Static dielectric constant tensor:
#      x y z
#    x 3.498720 0.000000 -0.045880 
#    y 0.000000 3.387660 0.000000 
#    z -0.045880 0.000000 3.146330 
# 
# 
# High freq. dielectric constant tensor:
#      x y z
#    x 1.696740 0.000000 -0.003250 
#    y 0.000000 1.695900 0.000000 
#    z -0.003250 0.000000 1.669850 
# 
# From -- ./inp_files/66546.got.cif
#   From: 2010.06.25/outbox.cif.g09.slc.cpg/sg10_34_cif.got.tgz:66546.got - 2010.06.27 22:07:45.
