data_PCOD8060017
_publ_section_title
;
Structure prediction by ZEFSAII (Michael W. Deem and Ramdas Pophale) SiO2 
 PCOD8060017
Probable space group: P 2/M
;
_chemical_formula_sum "Si O2"
_cell_formula_units_Z 30
_cell_length_a 11.792904
_cell_length_b 9.456682
_cell_length_c 24.958284
_cell_angle_alpha 90.000000
_cell_angle_beta 142.486830
_cell_angle_gamma 90.000000
_cell_volume 1694.928820
_symmetry_space_group_name_H-M "P 2/M"
_symmetry_group_IT_number 10
_symmetry_cell_setting 'monoclinic'
loop_
_space_group_symop_operation_xyz
x,y,z
-x,y,-z
-x,-y,-z
x,-y,z
loop_
_atom_site_type_symbol
_atom_site_label
_atom_site_fract_x
_atom_site_fract_y
_atom_site_fract_z
Si Si1 0.821378 0.163144 0.901989
Si Si2 0.459339 0.339638 0.778589
Si Si3 0.914824 0.659124 0.310656
Si Si4 0.500000 0.752564 0.500000
Si Si5 0.214203 0.159927 0.479226
Si Si6 0.609714 0.335745 0.367246
Si Si7 0.757440 0.163641 0.757500
Si Si8 0.844103 0.654603 0.697052
O O1 0.636949 0.240795 0.853275
O O2 0.858133 0.183722 0.852334
O O3 0.791822 0.000000 0.905436
O O4 0.000000 0.225180 0.000000
O O5 0.532960 0.500000 0.809116
O O6 0.305275 0.306845 0.766078
O O7 0.356940 0.312916 0.683285
O O8 0.954231 0.500000 0.348389
O O9 0.029494 0.779144 0.383588
O O10 0.971087 0.665192 0.269752
O O11 0.609680 0.841642 0.495754
O O12 0.657121 0.663327 0.590322
O O13 0.236593 0.254791 0.540715
O O14 0.177346 0.000000 0.483448
O O15 0.608178 0.500000 0.382891
O O16 0.417495 0.265356 0.311947
O O17 0.879281 0.221027 0.753673
O O18 0.702322 0.000000 0.727632
O O19 0.837811 0.500000 0.722542
#
# Coordination Sequence:
#
# PCOD8060017 Si02
#       8
#     4   4   4   2   4   4   4   4
#     4   9  19  36  58  83 107 130 157 198 256 315
#     4   9  19  36  55  75 100 130 166 208 249 299
#     4   9  20  36  50  68  98 137 175 208 249 295
#     4  10  20  30  46  66 100 136 176 220 254 284
#     4  11  21  31  45  68  98 133 177 218 252 290
#     4  10  19  31  49  70  96 131 169 210 258 300
#     4  10  19  31  50  76 105 131 162 209 258 300
#     4  10  19  31  50  72  99 136 176 212 251 298
#
# _framework density 17.699857999999999
#
# number of rings (size 3 to 8) (size 9 to 14) (size 15 to 20)
#    0.000    2.267    1.333    1.600    0.000    5.600 
#    0.000    2.667    0.000    0.800    0.000    5.600 
#    0.000    0.000    0.000    0.000    0.000    0.000 
#
# Total GULP energy -371825.451314 kJ/mol
# GULP energy per Si atom -12394.181710 kJ/mol
# Density = 1.765957 g / cm^3
# Si number density = 17.699858 Si / 1000 Ang^3
#
#
#
# Elastic Constant Matrix: (Units=GPa)
#
#
# Indices 1 2 3 4 5 6 
#
# 1 98.0038 43.0359 39.6117 0.0000 10.1049 0.0000
# 2 43.0359 116.0872 40.8438 0.0000 3.2785 0.0000
# 3 39.6117 40.8438 71.1573 0.0000 2.9160 0.0000
# 4 0.0000 0.0000 0.0000 21.5387 0.0000 0.2971
# 5 10.1049 3.2785 2.9160 0.0000 17.5559 0.0000
# 6 0.0000 0.0000 0.0000 0.2971 0.0000 20.1367
#
#
#
# Elastic Compliance Matrix: (Units=1/GPa)
#
#
# Indices 1 2 3 4 5 6 
#
# 1 0.014769 -0.003117 -0.006150 0.000000 -0.006897 0.000000
# 2 -0.003117 0.011469 -0.004867 0.000000 0.000460 0.000000
# 3 -0.006150 -0.004867 0.020226 0.000000 0.001089 0.000000
# 4 0.000000 0.000000 0.000000 0.046437 0.000000 -0.000685
# 5 -0.006897 0.000460 0.001089 0.000000 0.060664 0.000000
# 6 0.000000 0.000000 0.000000 -0.000685 0.000000 0.049671
#
#
# Mechanical properties :
#
#
# Convention : Reuss Voigt Hill
#
# Bulk Modulus (GPa) = 54.95510 59.13678 57.04594
# Shear Modulus (GPa) = 21.04644 22.63005 21.83824
#
# Velocity S-wave (km/s) = 3.45204 3.57955 3.51637
# Velocity P-wave (km/s) = 6.85598 7.11109 6.98470
#
# Compressibility (1/GPa) = 0.01819667
#
# Stress axis : x y z
#
# Youngs Moduli (GPa) = 67.70827 87.19142 49.44121
#
# Poissons Ratio (x) = 0.27174 0.30407
# Poissons Ratio (y) = 0.21102 0.24063
# Poissons Ratio (z) = 0.41642 0.42437
#
# Static dielectric constant tensor:
#      x y z
#    x 3.456400 0.000000 -0.182620 
#    y 0.000000 3.310080 0.000000 
#    z -0.182620 0.000000 3.047820 
# 
# 
# High freq. dielectric constant tensor:
#      x y z
#    x 1.682680 0.000000 -0.009170 
#    y 0.000000 1.692530 0.000000 
#    z -0.009170 0.000000 1.645130 
# 
# From -- ./inp_files/53037.got.cif
#   From: 2010.06.25/outbox.cif.g09.slc.cpg/sg10_27_cif.got.tgz:53037.got - 2010.06.27 22:07:45.
