data_PCOD8060481
_publ_section_title
;
Structure prediction by ZEFSAII (Michael W. Deem and Ramdas Pophale) SiO2 
 PCOD8060481
Probable space group: P 2/M
;
_chemical_formula_sum "Si O2"
_cell_formula_units_Z 32
_cell_length_a 30.625552
_cell_length_b 8.794698
_cell_length_c 21.582040
_cell_angle_alpha 90.000000
_cell_angle_beta 18.347923
_cell_angle_gamma 90.000000
_cell_volume 1829.841156
_symmetry_space_group_name_H-M "P 2/M"
_symmetry_group_IT_number 10
_symmetry_cell_setting 'monoclinic'
loop_
_space_group_symop_operation_xyz
x,y,z
-x,y,-z
-x,-y,-z
x,-y,z
loop_
_atom_site_type_symbol
_atom_site_label
_atom_site_fract_x
_atom_site_fract_y
_atom_site_fract_z
Si Si1 0.946361 0.818646 0.421130
Si Si2 0.480401 0.820123 0.306083
Si Si3 0.863648 0.320944 0.405423
Si Si4 0.779107 0.181366 0.881041
Si Si5 0.581531 0.821528 0.749582
Si Si6 0.983507 0.180061 0.122881
Si Si7 0.725416 0.179871 0.816675
Si Si8 0.789152 0.180078 0.273454
O O1 0.936821 0.748172 0.366665
O O2 0.819572 0.756865 0.634166
O O3 0.088849 0.757315 0.259625
O O4 0.944658 0.000000 0.418558
O O5 0.423374 0.773099 0.315513
O O6 0.369925 0.758096 0.506253
O O7 0.487628 0.000000 0.299555
O O8 0.636776 0.757760 0.105709
O O9 0.867409 0.500000 0.404312
O O10 0.704659 0.267215 0.617118
O O11 0.954467 0.266806 0.225118
O O12 0.780898 0.243356 0.807926
O O13 0.780298 0.000000 0.878335
O O14 0.610981 0.000000 0.717369
O O15 0.435249 0.774874 0.978348
O O16 0.874252 0.236701 0.218655
O O17 0.972861 0.000000 0.149252
O O18 0.136691 0.228730 0.890689
O O19 0.737911 0.000000 0.802578
O O20 0.790814 0.000000 0.274188
#
# Coordination Sequence:
#
# PCOD8060481 Si02
#       8
#     4   4   4   4   4   4   4   4
#     4  10  19  32  50  71  95 126 162 195 232 282
#     4   8  12  22  46  78 102 117 141 188 241 282
#     4  12  24  34  44  63  97 134 165 196 230 274
#     4   8  14  25  47  78 102 117 145 196 246 279
#     4   9  16  30  51  71  94 124 155 189 237 289
#     4   9  16  29  49  72  95 124 156 187 231 285
#     4   8  15  28  51  79  97 113 149 203 248 279
#     4   8  13  23  47  78 100 117 146 188 236 286
#
# _framework density 17.487856000000001
#
# number of rings (size 3 to 8) (size 9 to 14) (size 15 to 20)
#    0.000    3.000    1.250    3.750    0.000    2.000 
#    0.000    4.375    0.000    5.250    0.000    5.250 
#    0.000    0.000    0.000    0.000    0.000    0.000 
#
# Total GULP energy -396494.074964 kJ/mol
# GULP energy per Si atom -12390.439843 kJ/mol
# Density = 1.744805 g / cm^3
# Si number density = 17.487856 Si / 1000 Ang^3
#
#
#
# Elastic Constant Matrix: (Units=GPa)
#
#
# Indices 1 2 3 4 5 6 
#
# 1 100.2267 23.2687 65.5057 0.0000 6.9674 0.0000
# 2 23.2687 29.1126 21.0683 0.0000 -0.4162 0.0000
# 3 65.5057 21.0683 149.9428 0.0000 16.8287 0.0000
# 4 0.0000 0.0000 0.0000 3.7123 0.0000 1.1045
# 5 6.9674 -0.4162 16.8287 0.0000 18.4652 0.0000
# 6 0.0000 0.0000 0.0000 1.1045 0.0000 -5.2895
#
#
#
# Elastic Compliance Matrix: (Units=1/GPa)
#
#
# Indices 1 2 3 4 5 6 
#
# 1 0.015632 -0.008520 -0.005512 0.000000 -0.001067 0.000000
# 2 -0.008520 0.043576 -0.003199 0.000000 0.007112 0.000000
# 3 -0.005512 -0.003199 0.010361 0.000000 -0.007435 0.000000
# 4 0.000000 0.000000 0.000000 0.253618 0.000000 0.052959
# 5 -0.001067 0.007112 -0.007435 0.000000 0.061495 0.000000
# 6 0.000000 0.000000 0.000000 0.052959 0.000000 -0.177997
#
#
# Mechanical properties :
#
#
# Convention : Reuss Voigt Hill
#
# Bulk Modulus (GPa) = 28.48467 55.44082 41.96275
# Shear Modulus (GPa) = 19.77442 14.67358 17.22400
#
# Velocity S-wave (km/s) = 3.36631 2.89982 3.14174
# Velocity P-wave (km/s) = 5.60652 6.55616 6.09985
#
# Compressibility (1/GPa) = 0.03510660
#
# Stress axis : x y z
#
# Youngs Moduli (GPa) = 63.96952 22.94837 96.51236
#
# Poissons Ratio (x) = 0.19553 0.53202
# Poissons Ratio (y) = 0.54505 0.30872
# Poissons Ratio (z) = 0.35263 0.07341
#
# Static dielectric constant tensor:
#      x y z
#    x 3.088640 0.000000 0.069000 
#    y 0.000000 2.672510 0.000000 
#    z 0.069000 0.000000 3.991950 
# 
# 
# High freq. dielectric constant tensor:
#      x y z
#    x 1.646920 0.000000 0.005480 
#    y 0.000000 1.616370 0.000000 
#    z 0.005480 0.000000 1.698480 
# 
# From -- ./inp_files/75989.got.cif
#   From: 2010.06.25/outbox.cif.g09.slc.cpg/sg10_38_cif.got.tgz:75989.got - 2010.06.27 22:07:45.
