data_PCOD8060626
_publ_section_title
;
Structure prediction by ZEFSAII (Michael W. Deem and Ramdas Pophale) SiO2 
 PCOD8060626
Probable space group: P 2/M
;
_chemical_formula_sum "Si O2"
_cell_formula_units_Z 32
_cell_length_a 20.210197
_cell_length_b 9.188352
_cell_length_c 25.397156
_cell_angle_alpha 90.000000
_cell_angle_beta 158.011252
_cell_angle_gamma 90.000000
_cell_volume 1765.865079
_symmetry_space_group_name_H-M "P 2/M"
_symmetry_group_IT_number 10
_symmetry_cell_setting 'monoclinic'
loop_
_space_group_symop_operation_xyz
x,y,z
-x,y,-z
-x,-y,-z
x,-y,z
loop_
_atom_site_type_symbol
_atom_site_label
_atom_site_fract_x
_atom_site_fract_y
_atom_site_fract_z
Si Si1 0.425809 0.828450 0.501756
Si Si2 0.974183 0.831715 0.796422
Si Si3 0.744761 0.168245 0.083146
Si Si4 0.718300 0.670516 0.777217
Si Si5 0.053997 0.329617 0.957435
Si Si6 0.184540 0.170498 0.745470
Si Si7 0.861652 0.840370 0.444793
Si Si8 0.604546 0.327668 0.189090
O O1 0.500000 0.778915 0.500000
O O2 0.224596 0.772400 0.358041
O O3 0.538729 0.755046 0.631555
O O4 0.439926 0.000000 0.520012
O O5 0.076721 0.751780 0.919127
O O6 0.078147 0.803909 0.819176
O O7 0.967569 0.000000 0.807044
O O8 0.781584 0.215672 0.169927
O O9 0.685382 0.000000 0.035961
O O10 0.592935 0.270874 0.948160
O O11 0.682348 0.500000 0.745697
O O12 0.870880 0.719457 0.849291
O O13 0.781952 0.710309 0.883279
O O14 0.051408 0.500000 0.944555
O O15 0.316749 0.260918 0.806321
O O16 0.978081 0.207605 0.581284
O O17 0.221668 0.000000 0.762455
O O18 0.713280 0.722233 0.321164
O O19 0.000000 0.851832 0.500000
O O20 0.774092 0.000000 0.389181
O O21 0.608954 0.500000 0.188503
#
# Coordination Sequence:
#
# PCOD8060626 Si02
#       8
#     4   4   4   4   4   4   4   4
#     4  10  19  32  51  78 108 133 163 214 265 305
#     4  10  21  36  53  75 103 136 174 213 262 314
#     4  10  21  37  54  72 100 139 178 215 256 310
#     4   9  18  32  52  78 103 133 172 208 248 304
#     4   9  18  33  52  75 104 134 168 210 251 300
#     4   9  18  34  56  78 101 135 177 218 256 300
#     4   8  15  30  52  76 101 131 169 210 252 301
#     4  11  21  32  51  80 109 136 170 214 262 309
#
# _framework density 18.12143
#
# number of rings (size 3 to 8) (size 9 to 14) (size 15 to 20)
#    0.000    2.500    1.250    3.000    0.000    6.000 
#    0.000    2.500    0.000    3.000    0.000    0.000 
#    0.000    0.000    0.000    0.000    0.000    0.000 
#
# Total GULP energy -396774.363959 kJ/mol
# GULP energy per Si atom -12399.198874 kJ/mol
# Density = 1.808019 g / cm^3
# Si number density = 18.121430 Si / 1000 Ang^3
#
#
#
# Elastic Constant Matrix: (Units=GPa)
#
#
# Indices 1 2 3 4 5 6 
#
# 1 47.2706 29.0253 44.8014 0.0000 5.1790 0.0000
# 2 29.0253 69.0975 53.7968 0.0000 0.2839 0.0000
# 3 44.8014 53.7968 136.4124 0.0000 -6.7855 0.0000
# 4 0.0000 0.0000 0.0000 22.6167 0.0000 -3.6242
# 5 5.1790 0.2839 -6.7855 0.0000 22.2184 0.0000
# 6 0.0000 0.0000 0.0000 -3.6242 0.0000 17.2300
#
#
#
# Elastic Compliance Matrix: (Units=1/GPa)
#
#
# Indices 1 2 3 4 5 6 
#
# 1 0.035983 -0.007847 -0.009276 0.000000 -0.011120 0.000000
# 2 -0.007847 0.022772 -0.006424 0.000000 -0.000424 0.000000
# 3 -0.009276 -0.006424 0.013223 0.000000 0.006283 0.000000
# 4 0.000000 0.000000 0.000000 0.045757 0.000000 0.009625
# 5 -0.011120 -0.000424 0.006283 0.000000 0.049524 0.000000
# 6 0.000000 0.000000 0.000000 0.009625 0.000000 0.060063
#
#
# Mechanical properties :
#
#
# Convention : Reuss Voigt Hill
#
# Bulk Modulus (GPa) = 40.18845 56.44751 48.31798
# Shear Modulus (GPa) = 17.68573 20.75681 19.22127
#
# Velocity S-wave (km/s) = 3.12742 3.38809 3.26036
# Velocity P-wave (km/s) = 5.93856 6.82076 6.39489
#
# Compressibility (1/GPa) = 0.02488277
#
# Stress axis : x y z
#
# Youngs Moduli (GPa) = 27.79069 43.91299 75.62345
#
# Poissons Ratio (x) = 0.34460 0.70150
# Poissons Ratio (y) = 0.21808 0.48584
# Poissons Ratio (z) = 0.25779 0.28212
#
# Static dielectric constant tensor:
#      x y z
#    x 3.162590 0.000000 -0.241890 
#    y 0.000000 3.177820 0.000000 
#    z -0.241890 0.000000 3.646460 
# 
# 
# High freq. dielectric constant tensor:
#      x y z
#    x 1.675120 0.000000 -0.016830 
#    y 0.000000 1.689590 0.000000 
#    z -0.016830 0.000000 1.711370 
# 
# From -- ./inp_files/93778.got.cif
#   From: 2010.06.25/outbox.cif.g09.slc.cpg/sg10_47_cif.got.tgz:93778.got - 2010.06.27 22:07:45.
