data_PCOD8060846
_publ_section_title
;
Structure prediction by ZEFSAII (Michael W. Deem and Ramdas Pophale) SiO2 
 PCOD8060846
Probable space group: P 2/M
;
_chemical_formula_sum "Si O2"
_cell_formula_units_Z 32
_cell_length_a 15.057259
_cell_length_b 9.475839
_cell_length_c 23.878037
_cell_angle_alpha 90.000000
_cell_angle_beta 29.044687
_cell_angle_gamma 90.000000
_cell_volume 1654.032171
_symmetry_space_group_name_H-M "P 2/M"
_symmetry_group_IT_number 10
_symmetry_cell_setting 'monoclinic'
loop_
_space_group_symop_operation_xyz
x,y,z
-x,y,-z
-x,-y,-z
x,-y,z
loop_
_atom_site_type_symbol
_atom_site_label
_atom_site_fract_x
_atom_site_fract_y
_atom_site_fract_z
Si Si1 0.838943 0.661393 0.254876
Si Si2 0.906220 0.155183 0.690480
Si Si3 0.791297 0.833932 0.392859
Si Si4 0.513210 0.839984 0.054698
Si Si5 0.849513 0.651244 0.627720
Si Si6 0.499974 0.666685 0.758212
Si Si7 0.758736 0.335022 0.002502
Si Si8 0.486972 0.336206 0.376136
O O1 0.848124 0.500000 0.271836
O O2 0.784460 0.761905 0.336202
O O3 0.688710 0.678149 0.289931
O O4 0.029326 0.707095 0.120908
O O5 0.689527 0.165007 0.810305
O O6 0.963097 0.261965 0.610991
O O7 0.004333 0.191385 0.695201
O O8 0.971553 0.000000 0.636322
O O9 0.649441 0.761172 0.513318
O O10 0.744510 0.000000 0.412384
O O11 0.646182 0.745286 0.017453
O O12 0.590708 0.000000 0.010768
O O13 0.500000 0.776318 0.000000
O O14 0.785753 0.500000 0.688721
O O15 0.672728 0.729175 0.697946
O O16 0.000000 0.618851 0.500000
O O17 0.523189 0.500000 0.741121
O O18 0.314953 0.707157 0.894636
O O19 0.498930 0.724366 0.695183
O O20 0.728277 0.500000 0.009125
O O21 0.421688 0.500000 0.414294
#
# Coordination Sequence:
#
# PCOD8060846 Si02
#       8
#     4   4   4   4   4   4   4   4
#     4  10  22  38  59  86 113 147 191 238 288 339
#     4  10  21  35  52  78 109 144 183 220 269 327
#     4  11  23  39  59  84 115 149 189 238 289 342
#     4  10  20  35  54  77 109 149 187 224 272 329
#     4  10  19  32  53  80 110 145 182 222 272 327
#     4   9  18  34  56  83 116 150 186 231 281 335
#     4  10  20  36  57  84 116 148 189 235 279 334
#     4  10  21  39  61  84 113 149 189 236 289 342
#
# _framework density 19.346661000000001
#
# number of rings (size 3 to 8) (size 9 to 14) (size 15 to 20)
#    0.000    2.000    1.250    2.250    0.000    6.500 
#    0.000    3.750    0.000    0.000    0.000    2.625 
#    0.000    0.000    0.000    0.000    0.000    0.000 
#
# Total GULP energy -396636.522520 kJ/mol
# GULP energy per Si atom -12394.891329 kJ/mol
# Density = 1.930263 g / cm^3
# Si number density = 19.346661 Si / 1000 Ang^3
#
#
#
# Elastic Constant Matrix: (Units=GPa)
#
#
# Indices 1 2 3 4 5 6 
#
# 1 103.9151 41.1346 34.7508 0.0000 7.8771 0.0000
# 2 41.1346 65.9893 33.6262 0.0000 6.6355 0.0000
# 3 34.7508 33.6262 98.2773 0.0000 7.9452 0.0000
# 4 0.0000 0.0000 0.0000 13.3777 0.0000 -10.3294
# 5 7.8771 6.6355 7.9452 0.0000 36.5564 0.0000
# 6 0.0000 0.0000 0.0000 -10.3294 0.0000 13.7616
#
#
#
# Elastic Compliance Matrix: (Units=1/GPa)
#
#
# Indices 1 2 3 4 5 6 
#
# 1 0.013213 -0.007013 -0.002184 0.000000 -0.001100 0.000000
# 2 -0.007013 0.022221 -0.005007 0.000000 -0.001434 0.000000
# 3 -0.002184 -0.005007 0.012774 0.000000 -0.001397 0.000000
# 4 0.000000 0.000000 0.000000 0.177794 0.000000 0.133451
# 5 -0.001100 -0.001434 -0.001397 0.000000 0.028156 0.000000
# 6 0.000000 0.000000 0.000000 0.133451 0.000000 0.172834
#
#
# Mechanical properties :
#
#
# Convention : Reuss Voigt Hill
#
# Bulk Modulus (GPa) = 50.50566 54.13387 52.31977
# Shear Modulus (GPa) = 10.82251 23.31713 17.06982
#
# Velocity S-wave (km/s) = 2.36773 3.47541 2.97360
# Velocity P-wave (km/s) = 5.79975 6.64427 6.23632
#
# Compressibility (1/GPa) = 0.01979976
#
# Stress axis : x y z
#
# Youngs Moduli (GPa) = 75.68348 45.00167 78.28598
#
# Poissons Ratio (x) = 0.31560 0.17095
# Poissons Ratio (y) = 0.53077 0.39201
# Poissons Ratio (z) = 0.16527 0.22534
#
# Static dielectric constant tensor:
#      x y z
#    x 3.883440 0.000000 -0.074200 
#    y 0.000000 3.549600 0.000000 
#    z -0.074200 0.000000 3.646300 
# 
# 
# High freq. dielectric constant tensor:
#      x y z
#    x 1.757100 0.000000 -0.001670 
#    y 0.000000 1.734520 0.000000 
#    z -0.001670 0.000000 1.759240 
# 
# From -- ./inp_files/66454.got.cif
#   From: 2010.06.25/outbox.cif.g09.slc.cpg/sg10_34_cif.got.tgz:66454.got - 2010.06.27 22:07:45.
