data_PCOD8060351
_publ_section_title
;
Structure prediction by ZEFSAII (Michael W. Deem and Ramdas Pophale) SiO2 
 PCOD8060351
Probable space group: P 2/M
;
_chemical_formula_sum "Si O2"
_cell_formula_units_Z 28
_cell_length_a 22.620367
_cell_length_b 12.390921
_cell_length_c 12.075030
_cell_angle_alpha 90.000000
_cell_angle_beta 152.065157
_cell_angle_gamma 90.000000
_cell_volume 1585.515939
_symmetry_space_group_name_H-M "P 2/M"
_symmetry_group_IT_number 10
_symmetry_cell_setting 'monoclinic'
loop_
_space_group_symop_operation_xyz
x,y,z
-x,y,-z
-x,-y,-z
x,-y,z
loop_
_atom_site_type_symbol
_atom_site_label
_atom_site_fract_x
_atom_site_fract_y
_atom_site_fract_z
Si Si1 0.148454 0.381662 0.734915
Si Si2 0.129953 0.500000 0.341093
Si Si3 0.605412 0.872627 0.583885
Si Si4 0.300203 0.126348 0.692815
Si Si5 0.169598 0.500000 0.159260
Si Si6 0.475509 0.873202 0.788402
Si Si7 0.113054 0.708109 0.449391
Si Si8 0.184295 0.699083 0.031747
O O1 0.206931 0.500000 0.807640
O O2 0.170050 0.301980 0.667547
O O3 0.211446 0.337271 0.950988
O O4 0.000000 0.396063 0.500000
O O5 0.206490 0.500000 0.350715
O O6 0.166208 0.606677 0.468646
O O7 0.980113 0.500000 0.084896
O O8 0.500000 0.845628 0.500000
O O9 0.545256 0.830910 0.369578
O O10 0.639354 0.000000 0.638869
O O11 0.734389 0.806907 0.815462
O O12 0.354370 0.156656 0.661905
O O13 0.166206 0.183405 0.483561
O O14 0.276825 0.000000 0.667015
O O15 0.396643 0.172954 0.945459
O O16 0.222756 0.605237 0.182699
O O17 0.493106 0.000000 0.817812
O O18 0.963201 0.723361 0.197805
#
# Coordination Sequence:
#
# PCOD8060351 Si02
#       8
#     4   2   4   4   2   4   4   4
#     4   9  16  31  51  73 102 136 173 207 247 302
#     4   9  18  31  49  79 108 143 172 196 259 321
#     4  10  22  38  55  74 103 142 179 212 255 315
#     4   9  18  33  56  80 103 132 171 217 259 307
#     4   9  18  33  52  74 109 141 171 209 250 317
#     4   8  17  36  55  72  97 139 183 208 243 306
#     4  10  19  31  54  83 107 132 169 217 265 307
#     4  10  20  34  54  79 105 137 173 215 261 307
#
# _framework density 17.659866999999998
#
# number of rings (size 3 to 8) (size 9 to 14) (size 15 to 20)
#    0.000    2.714    1.429    0.857    4.000    0.571 
#    0.000    0.357    0.000    7.714    0.000    0.000 
#    0.000    0.000    0.000    0.000    0.000    0.000 
#
# Total GULP energy -347003.309500 kJ/mol
# GULP energy per Si atom -12392.975339 kJ/mol
# Density = 1.761967 g / cm^3
# Si number density = 17.659867 Si / 1000 Ang^3
#
#
#
# Elastic Constant Matrix: (Units=GPa)
#
#
# Indices 1 2 3 4 5 6 
#
# 1 127.5469 52.0236 50.7831 0.0000 -20.7992 0.0000
# 2 52.0236 86.5438 40.2211 0.0000 6.9986 0.0000
# 3 50.7831 40.2211 55.8218 0.0000 -7.2426 0.0000
# 4 0.0000 0.0000 0.0000 15.9731 0.0000 -2.3684
# 5 -20.7992 6.9986 -7.2426 0.0000 27.7592 0.0000
# 6 0.0000 0.0000 0.0000 -2.3684 0.0000 18.0828
#
#
#
# Elastic Compliance Matrix: (Units=1/GPa)
#
#
# Indices 1 2 3 4 5 6 
#
# 1 0.015482 -0.006523 -0.007935 0.000000 0.011175 0.000000
# 2 -0.006523 0.021979 -0.011650 0.000000 -0.013468 0.000000
# 3 -0.007935 -0.011650 0.034298 0.000000 0.005940 0.000000
# 4 0.000000 0.000000 0.000000 0.063845 0.000000 0.008362
# 5 0.011175 -0.013468 0.005940 0.000000 0.049342 0.000000
# 6 0.000000 0.000000 0.000000 0.008362 0.000000 0.056396
#
#
# Mechanical properties :
#
#
# Convention : Reuss Voigt Hill
#
# Bulk Modulus (GPa) = 51.16780 61.77422 56.47101
# Shear Modulus (GPa) = 16.66251 20.82201 18.74226
#
# Velocity S-wave (km/s) = 3.07502 3.43747 3.26128
# Velocity P-wave (km/s) = 6.45326 7.12817 6.79910
#
# Compressibility (1/GPa) = 0.01954354
#
# Stress axis : x y z
#
# Youngs Moduli (GPa) = 64.58956 45.49727 29.15599
#
# Poissons Ratio (x) = 0.29676 0.23136
# Poissons Ratio (y) = 0.42129 0.33968
# Poissons Ratio (z) = 0.51254 0.53006
#
# Static dielectric constant tensor:
#      x y z
#    x 4.196680 0.000000 -0.935350 
#    y 0.000000 3.093810 0.000000 
#    z -0.935350 0.000000 3.675410 
# 
# 
# High freq. dielectric constant tensor:
#      x y z
#    x 1.694210 0.000000 -0.019160 
#    y 0.000000 1.668620 0.000000 
#    z -0.019160 0.000000 1.655590 
# 
# From -- ./inp_files/55882.got.cif
#   From: 2010.06.25/outbox.cif.g09.slc.cpg/sg10_28_cif.got.tgz:55882.got - 2010.06.27 22:07:45.
