data_PCOD8060154
_publ_section_title
;
Structure prediction by ZEFSAII (Michael W. Deem and Ramdas Pophale) SiO2 
 PCOD8060154
Probable space group: P 2/M
;
_chemical_formula_sum "Si O2"
_cell_formula_units_Z 32
_cell_length_a 22.398277
_cell_length_b 9.068469
_cell_length_c 20.957560
_cell_angle_alpha 90.000000
_cell_angle_beta 155.326277
_cell_angle_gamma 90.000000
_cell_volume 1777.027514
_symmetry_space_group_name_H-M "P 2/M"
_symmetry_group_IT_number 10
_symmetry_cell_setting 'monoclinic'
loop_
_space_group_symop_operation_xyz
x,y,z
-x,y,-z
-x,-y,-z
x,-y,z
loop_
_atom_site_type_symbol
_atom_site_label
_atom_site_fract_x
_atom_site_fract_y
_atom_site_fract_z
Si Si1 0.693077 0.175539 0.566143
Si Si2 0.723814 0.328154 0.465401
Si Si3 0.232156 0.828614 0.691457
Si Si4 0.593225 0.836067 0.654019
Si Si5 0.763587 0.171664 0.159614
Si Si6 0.835470 0.673857 0.824608
Si Si7 0.958589 0.328994 0.588893
Si Si8 0.537778 0.170086 0.188930
O O1 0.750605 0.239073 0.555935
O O2 0.523261 0.217941 0.406528
O O3 0.790125 0.245651 0.715761
O O4 0.712412 0.000000 0.588217
O O5 0.706195 0.500000 0.463624
O O6 0.858913 0.293684 0.552129
O O7 0.582973 0.270629 0.292357
O O8 0.258748 0.774882 0.789275
O O9 0.097955 0.744253 0.531054
O O10 0.373803 0.791448 0.788874
O O11 0.194495 0.000000 0.652478
O O12 0.500000 0.841641 0.500000
O O13 0.730358 0.728717 0.779950
O O14 0.651266 0.000000 0.726604
O O15 0.887949 0.261807 0.245827
O O16 0.800976 0.000000 0.194395
O O17 0.624830 0.207715 0.983718
O O18 0.814902 0.500000 0.796464
O O19 0.000000 0.713715 0.000000
O O20 0.971705 0.500000 0.588368
O O21 0.560384 0.000000 0.230065
#
# Coordination Sequence:
#
# PCOD8060154 Si02
#       8
#     4   4   4   4   4   4   4   4
#     4  10  20  35  57  80 101 132 174 213 248 291
#     4  10  21  37  54  72  97 132 173 210 249 300
#     4   9  17  31  51  73  97 127 164 206 253 306
#     4   8  16  31  51  77 105 132 166 205 242 284
#     4  10  19  31  50  75  99 126 163 207 256 307
#     4  10  20  33  52  82 116 143 167 199 242 290
#     4  10  21  34  48  70 101 134 167 207 253 303
#     4   9  18  33  52  73  98 127 163 209 255 300
#
# _framework density 18.007601000000001
#
# number of rings (size 3 to 8) (size 9 to 14) (size 15 to 20)
#    0.000    2.500    0.000    3.000    0.000    9.250 
#    0.000    1.250    0.000    3.750    0.000    0.000 
#    0.000    0.000    0.000    0.000    0.000    0.000 
#
# Total GULP energy -396777.243524 kJ/mol
# GULP energy per Si atom -12399.288860 kJ/mol
# Density = 1.796661 g / cm^3
# Si number density = 18.007601 Si / 1000 Ang^3
#
#
#
# Elastic Constant Matrix: (Units=GPa)
#
#
# Indices 1 2 3 4 5 6 
#
# 1 80.2645 50.6079 43.4606 0.0000 -7.0799 0.0000
# 2 50.6079 84.6132 58.8551 0.0000 1.6254 0.0000
# 3 43.4606 58.8551 106.1006 0.0000 6.6659 0.0000
# 4 0.0000 0.0000 0.0000 23.2991 0.0000 5.4325
# 5 -7.0799 1.6254 6.6659 0.0000 17.6187 0.0000
# 6 0.0000 0.0000 0.0000 5.4325 0.0000 25.8804
#
#
#
# Elastic Compliance Matrix: (Units=1/GPa)
#
#
# Indices 1 2 3 4 5 6 
#
# 1 0.022486 -0.011008 -0.003827 0.000000 0.011499 0.000000
# 2 -0.011008 0.024726 -0.008999 0.000000 -0.003300 0.000000
# 3 -0.003827 -0.008999 0.016419 0.000000 -0.006920 0.000000
# 4 0.000000 0.000000 0.000000 0.045129 0.000000 -0.009473
# 5 0.011499 -0.003300 -0.006920 0.000000 0.064301 0.000000
# 6 0.000000 0.000000 0.000000 -0.009473 0.000000 0.040628
#
#
# Mechanical properties :
#
#
# Convention : Reuss Voigt Hill
#
# Bulk Modulus (GPa) = 62.64611 64.09173 63.36892
# Shear Modulus (GPa) = 18.74928 21.22996 19.98962
#
# Velocity S-wave (km/s) = 3.23024 3.43730 3.33538
# Velocity P-wave (km/s) = 6.98404 7.17092 7.07810
#
# Compressibility (1/GPa) = 0.01596268
#
# Stress axis : x y z
#
# Youngs Moduli (GPa) = 44.47220 40.44404 60.90462
#
# Poissons Ratio (x) = 0.44521 0.23307
# Poissons Ratio (y) = 0.48956 0.54808
# Poissons Ratio (z) = 0.17018 0.36396
#
# Static dielectric constant tensor:
#      x y z
#    x 3.401230 0.000000 0.221980 
#    y 0.000000 3.334920 0.000000 
#    z 0.221980 0.000000 3.373000 
# 
# 
# High freq. dielectric constant tensor:
#      x y z
#    x 1.687350 0.000000 0.013170 
#    y 0.000000 1.698770 0.000000 
#    z 0.013170 0.000000 1.689870 
# 
# From -- ./inp_files/87033.got.cif
#   From: 2010.06.25/outbox.cif.g09.slc.cpg/sg10_44_cif.got.tgz:87033.got - 2010.06.27 22:07:45.
