data_PCOD8060592
_publ_section_title
;
Structure prediction by ZEFSAII (Michael W. Deem and Ramdas Pophale) SiO2 
 PCOD8060592
Probable space group: P 2/M
;
_chemical_formula_sum "Si O2"
_cell_formula_units_Z 32
_cell_length_a 5.213648
_cell_length_b 9.696653
_cell_length_c 32.274703
_cell_angle_alpha 90.000000
_cell_angle_beta 85.370217
_cell_angle_gamma 90.000000
_cell_volume 1626.321560
_symmetry_space_group_name_H-M "P 2/M"
_symmetry_group_IT_number 10
_symmetry_cell_setting 'monoclinic'
loop_
_space_group_symop_operation_xyz
x,y,z
-x,y,-z
-x,-y,-z
x,-y,z
loop_
_atom_site_type_symbol
_atom_site_label
_atom_site_fract_x
_atom_site_fract_y
_atom_site_fract_z
Si Si1 0.825473 0.836026 0.333419
Si Si2 0.697591 0.163198 0.617163
Si Si3 0.268334 0.152121 0.126846
Si Si4 0.738177 0.835425 0.523810
Si Si5 0.495346 0.763214 0.954664
Si Si6 0.998935 0.348028 0.077352
Si Si7 0.853933 0.341980 0.251716
Si Si8 0.616878 0.657962 0.801728
O O1 0.560878 0.783872 0.357396
O O2 0.862008 0.761596 0.289622
O O3 0.055736 0.787776 0.360255
O O4 0.827465 0.000000 0.326050
O O5 0.714553 0.224439 0.570599
O O6 0.690438 0.000000 0.614319
O O7 0.453333 0.131264 0.084033
O O8 0.015723 0.239941 0.115878
O O9 0.421215 0.238803 0.159388
O O10 0.190057 0.000000 0.144218
O O11 0.500000 0.779587 0.500000
O O12 0.000000 0.779334 0.500000
O O13 0.738508 0.000000 0.524526
O O14 0.728129 0.651485 0.950625
O O15 0.222122 0.691032 0.951923
O O16 0.500000 0.836049 0.000000
O O17 0.946996 0.500000 0.096426
O O18 0.848072 0.500000 0.267586
O O19 0.601179 0.307054 0.228705
O O20 0.104793 0.313928 0.221197
O O21 0.591119 0.500000 0.817571
#
# Coordination Sequence:
#
# PCOD8060592 Si02
#       8
#     4   4   4   4   4   4   4   4
#     4  10  19  32  51  75 105 138 174 217 274 330
#     4   9  17  28  44  70 105 142 179 223 271 322
#     4  10  25  42  61  88 120 152 189 226 274 336
#     4   9  15  23  37  60  96 141 182 218 263 316
#     4  10  23  40  61  91 118 151 190 234 275 319
#     4  10  22  39  61  87 115 148 189 232 273 317
#     4  10  22  39  59  82 109 138 177 226 274 330
#     4  10  22  40  60  83 108 141 179 222 276 323
#
# _framework density 19.676307999999999
#
# number of rings (size 3 to 8) (size 9 to 14) (size 15 to 20)
#    0.750    1.500    0.000    2.625    1.750    6.250 
#    0.000    0.625    0.000    0.000    0.000    0.000 
#    0.000   10.000    0.000    0.000    0.000    0.000 
#
# Total GULP energy -396595.964872 kJ/mol
# GULP energy per Si atom -12393.623902 kJ/mol
# Density = 1.963152 g / cm^3
# Si number density = 19.676308 Si / 1000 Ang^3
#
#
#
# Elastic Constant Matrix: (Units=GPa)
#
#
# Indices 1 2 3 4 5 6 
#
# 1 126.8777 24.4670 33.3085 0.0000 18.0412 0.0000
# 2 24.4670 78.8605 52.2319 0.0000 13.6140 0.0000
# 3 33.3085 52.2319 129.0043 0.0000 13.4683 0.0000
# 4 0.0000 0.0000 0.0000 -4.0088 0.0000 8.8930
# 5 18.0412 13.6140 13.4683 0.0000 30.4915 0.0000
# 6 0.0000 0.0000 0.0000 8.8930 0.0000 7.3509
#
#
#
# Elastic Compliance Matrix: (Units=1/GPa)
#
#
# Indices 1 2 3 4 5 6 
#
# 1 0.009080 -0.001130 -0.001446 0.000000 -0.004230 0.000000
# 2 -0.001130 0.018184 -0.006597 0.000000 -0.004536 0.000000
# 3 -0.001446 -0.006597 0.010902 0.000000 -0.001015 0.000000
# 4 0.000000 0.000000 0.000000 -0.067716 0.000000 0.081922
# 5 -0.004230 -0.004536 -0.001015 0.000000 0.037772 0.000000
# 6 0.000000 0.000000 0.000000 0.081922 0.000000 0.036929
#
#
# Mechanical properties :
#
#
# Convention : Reuss Voigt Hill
#
# Bulk Modulus (GPa) = 50.45009 61.63967 56.04488
# Shear Modulus (GPa) = 71.32363 21.74905 46.53634
#
# Velocity S-wave (km/s) = 6.02720 3.32828 4.86850
# Velocity P-wave (km/s) = 8.60999 6.79446 7.75554
#
# Compressibility (1/GPa) = 0.01982157
#
# Stress axis : x y z
#
# Youngs Moduli (GPa) = 110.12754 54.99445 91.72721
#
# Poissons Ratio (x) = 0.06212 0.13260
# Poissons Ratio (y) = 0.12440 0.60513
# Poissons Ratio (z) = 0.15920 0.36280
#
# Static dielectric constant tensor:
#      x y z
#    x 3.800930 0.000000 0.078400 
#    y 0.000000 3.120680 0.000000 
#    z 0.078400 0.000000 3.556880 
# 
# 
# High freq. dielectric constant tensor:
#      x y z
#    x 1.781180 0.000000 0.008440 
#    y 0.000000 1.719590 0.000000 
#    z 0.008440 0.000000 1.768160 
# 
# From -- ./inp_files/94286.got.cif
#   From: 2010.06.25/outbox.cif.g09.slc.cpg/sg10_48_cif.got.tgz:94286.got - 2010.06.27 22:07:45.
