data_PCOD8060177
_publ_section_title
;
Structure prediction by ZEFSAII (Michael W. Deem and Ramdas Pophale) SiO2 
 PCOD8060177
Probable space group: P 2/M
;
_chemical_formula_sum "Si O2"
_cell_formula_units_Z 28
_cell_length_a 14.674046
_cell_length_b 9.403740
_cell_length_c 12.426991
_cell_angle_alpha 90.000000
_cell_angle_beta 59.303712
_cell_angle_gamma 90.000000
_cell_volume 1474.541571
_symmetry_space_group_name_H-M "P 2/M"
_symmetry_group_IT_number 10
_symmetry_cell_setting 'monoclinic'
loop_
_space_group_symop_operation_xyz
x,y,z
-x,y,-z
-x,-y,-z
x,-y,z
loop_
_atom_site_type_symbol
_atom_site_label
_atom_site_fract_x
_atom_site_fract_y
_atom_site_fract_z
Si Si1 0.942478 0.838292 0.259619
Si Si2 0.673217 0.336456 0.608042
Si Si3 0.682522 0.667292 0.175945
Si Si4 0.911338 0.656735 0.963613
Si Si5 0.296470 0.832006 0.629685
Si Si6 0.500937 0.667177 0.121212
Si Si7 0.091709 0.653244 0.529327
O O1 0.829096 0.807326 0.272811
O O2 0.932023 0.791309 0.387882
O O3 0.044237 0.757777 0.154150
O O4 0.973989 0.000000 0.233275
O O5 0.642649 0.500000 0.597418
O O6 0.665955 0.242874 0.503338
O O7 0.594771 0.273582 0.746574
O O8 0.790350 0.327640 0.590301
O O9 0.676798 0.500000 0.208290
O O10 0.645726 0.757036 0.303433
O O11 0.609535 0.705326 0.117605
O O12 0.800866 0.716393 0.074359
O O13 0.892248 0.500000 0.926285
O O14 0.000000 0.651571 0.000000
O O15 0.323934 0.000000 0.607474
O O16 0.485846 0.500000 0.118581
O O17 0.500000 0.733621 0.000000
O O18 0.091859 0.500000 0.593086
O O19 0.000000 0.644871 0.500000
#
# Coordination Sequence:
#
# PCOD8060177 Si02
#       7
#     4   4   4   4   4   4   4
#     4  10  20  32  49  74 107 144 173 211 263 316
#     4   9  18  34  57  80 106 140 175 218 267 315
#     4  10  20  34  55  80 107 141 179 221 266 316
#     4  10  19  31  50  77 107 138 171 212 261 312
#     4  10  20  34  53  79 110 140 174 217 266 320
#     4   9  19  36  57  81 106 135 177 225 266 309
#     4   9  18  32  52  78 105 136 176 219 262 310
#
# _framework density 18.988952000000001
#
# number of rings (size 3 to 8) (size 9 to 14) (size 15 to 20)
#    0.000    2.429    1.429    0.857    0.000    4.000 
#    0.000    7.857    0.000    1.714    0.000    0.000 
#    0.000    0.000    0.000    0.000    0.000    0.000 
#
# Total GULP energy -346935.487100 kJ/mol
# GULP energy per Si atom -12390.553111 kJ/mol
# Density = 1.894573 g / cm^3
# Si number density = 18.988952 Si / 1000 Ang^3
#
#
#
# Elastic Constant Matrix: (Units=GPa)
#
#
# Indices 1 2 3 4 5 6 
#
# 1 100.7825 31.7442 63.8051 0.0000 4.3090 0.0000
# 2 31.7442 56.0614 51.5972 0.0000 2.2464 0.0000
# 3 63.8051 51.5972 136.6480 0.0000 -3.8718 0.0000
# 4 0.0000 0.0000 0.0000 -98.6052 0.0000 92.5227
# 5 4.3090 2.2464 -3.8718 0.0000 27.3918 0.0000
# 6 0.0000 0.0000 0.0000 92.5227 0.0000 -64.9825
#
#
#
# Elastic Compliance Matrix: (Units=1/GPa)
#
#
# Indices 1 2 3 4 5 6 
#
# 1 0.014635 -0.002767 -0.005871 0.000000 -0.002905 0.000000
# 2 -0.002767 0.028243 -0.009464 0.000000 -0.003219 0.000000
# 3 -0.005871 -0.009464 0.013736 0.000000 0.003641 0.000000
# 4 0.000000 0.000000 0.000000 0.030185 0.000000 0.042977
# 5 -0.002905 -0.003219 0.003641 0.000000 0.037743 0.000000
# 6 0.000000 0.000000 0.000000 0.042977 0.000000 0.045803
#
#
# Mechanical properties :
#
#
# Convention : Reuss Voigt Hill
#
# Bulk Modulus (GPa) = 48.99314 65.30941 57.15128
# Shear Modulus (GPa) = 23.43545 -17.48282 2.97631
#
# Velocity S-wave (km/s) = 3.51688 -3.03757 1.25331
# Velocity P-wave (km/s) = 6.50754 4.70804 5.67951
#
# Compressibility (1/GPa) = 0.02041102
#
# Stress axis : x y z
#
# Youngs Moduli (GPa) = 68.32899 35.40651 72.80114
#
# Poissons Ratio (x) = 0.09797 0.42742
# Poissons Ratio (y) = 0.18906 0.68897
# Poissons Ratio (z) = 0.40117 0.33508
#
# Static dielectric constant tensor:
#      x y z
#    x 3.509630 0.000000 -0.168020 
#    y 0.000000 3.494190 0.000000 
#    z -0.168020 0.000000 3.612740 
# 
# 
# High freq. dielectric constant tensor:
#      x y z
#    x 1.732140 0.000000 -0.010820 
#    y 0.000000 1.718040 0.000000 
#    z -0.010820 0.000000 1.732000 
# 
# From -- ./inp_files/49630.got.cif
#   From: 2010.06.25/outbox.cif.g09.slc.cpg/sg10_25_cif.got.tgz:49630.got - 2010.06.27 22:07:45.
