data_PCOD8060494
_publ_section_title
;
Structure prediction by ZEFSAII (Michael W. Deem and Ramdas Pophale) SiO2 
 PCOD8060494
Probable space group: P 2/M
;
_chemical_formula_sum "Si O2"
_cell_formula_units_Z 32
_cell_length_a 12.377535
_cell_length_b 8.923140
_cell_length_c 23.715081
_cell_angle_alpha 90.000000
_cell_angle_beta 134.276294
_cell_angle_gamma 90.000000
_cell_volume 1875.332880
_symmetry_space_group_name_H-M "P 2/M"
_symmetry_group_IT_number 10
_symmetry_cell_setting 'monoclinic'
loop_
_space_group_symop_operation_xyz
x,y,z
-x,y,-z
-x,-y,-z
x,-y,z
loop_
_atom_site_type_symbol
_atom_site_label
_atom_site_fract_x
_atom_site_fract_y
_atom_site_fract_z
Si Si1 0.862011 0.334404 0.992559
Si Si2 0.541744 0.675554 0.410673
Si Si3 0.901489 0.322434 0.835349
Si Si4 0.953229 0.326758 0.420821
Si Si5 0.392695 0.328394 0.693538
Si Si6 0.673908 0.175463 0.838367
Si Si7 0.188560 0.827291 0.430108
Si Si8 0.223490 0.827175 0.313976
O O1 0.789966 0.500000 0.972955
O O2 0.935023 0.278828 0.078380
O O3 0.735227 0.222170 0.922726
O O4 0.000000 0.342537 0.000000
O O5 0.514995 0.500000 0.409049
O O6 0.597681 0.715419 0.368505
O O7 0.668290 0.729377 0.500088
O O8 0.389010 0.760142 0.368702
O O9 0.880194 0.500000 0.826685
O O10 0.763577 0.257136 0.821259
O O11 0.893932 0.256730 0.769897
O O12 0.000494 0.500000 0.430241
O O13 0.776305 0.301959 0.346659
O O14 0.000000 0.272453 0.500000
O O15 0.037802 0.226750 0.405937
O O16 0.442678 0.500000 0.720444
O O17 0.499621 0.222625 0.769939
O O18 0.693162 0.000000 0.838111
O O19 0.160835 0.804989 0.353776
O O20 0.220975 0.000000 0.456771
O O21 0.231443 0.000000 0.299424
#
# Coordination Sequence:
#
# PCOD8060494 Si02
#       8
#     4   4   4   4   4   4   4   4
#     4   8  16  30  47  68  99 135 169 205 247 298
#     4  11  21  35  55  75 100 137 177 212 252 302
#     4  10  19  32  50  72 100 137 174 208 249 300
#     4  10  20  38  58  75  96 128 175 220 257 301
#     4  10  20  34  53  75 102 134 171 216 258 298
#     4  11  20  29  47  75 106 136 168 206 252 308
#     4  11  24  38  52  74 105 136 170 215 262 305
#     4  11  23  36  50  74 107 139 171 211 256 304
#
# _framework density 17.063635999999999
#
# number of rings (size 3 to 8) (size 9 to 14) (size 15 to 20)
#    0.000    1.750    2.500    3.750    0.000    7.500 
#    0.000    0.000    0.000    0.000    0.000    0.875 
#    0.000    7.000    0.000    0.000    0.000    0.000 
#
# Total GULP energy -396861.006454 kJ/mol
# GULP energy per Si atom -12401.906452 kJ/mol
# Density = 1.702480 g / cm^3
# Si number density = 17.063636 Si / 1000 Ang^3
#
#
#
# Elastic Constant Matrix: (Units=GPa)
#
#
# Indices 1 2 3 4 5 6 
#
# 1 56.9026 35.6228 36.1681 0.0000 -13.2281 0.0000
# 2 35.6228 93.6951 60.5083 0.0000 -0.2544 0.0000
# 3 36.1681 60.5083 130.9898 0.0000 -0.9025 0.0000
# 4 0.0000 0.0000 0.0000 21.8703 0.0000 -4.6291
# 5 -13.2281 -0.2544 -0.9025 0.0000 10.9448 0.0000
# 6 0.0000 0.0000 0.0000 -4.6291 0.0000 22.0990
#
#
#
# Elastic Compliance Matrix: (Units=1/GPa)
#
#
# Indices 1 2 3 4 5 6 
#
# 1 0.038517 -0.011195 -0.005148 0.000000 0.045868 0.000000
# 2 -0.011195 0.018465 -0.005532 0.000000 -0.013558 0.000000
# 3 -0.005148 -0.005532 0.011574 0.000000 -0.005396 0.000000
# 4 0.000000 0.000000 0.000000 0.047845 0.000000 0.010022
# 5 0.045868 -0.013558 -0.005396 0.000000 0.146044 0.000000
# 6 0.000000 0.000000 0.000000 0.010022 0.000000 0.047350
#
#
# Mechanical properties :
#
#
# Convention : Reuss Voigt Hill
#
# Bulk Modulus (GPa) = 40.31225 60.68732 50.49979
# Shear Modulus (GPa) = 13.81929 20.93540 17.37734
#
# Velocity S-wave (km/s) = 2.84890 3.50652 3.19468
# Velocity P-wave (km/s) = 5.87347 7.21365 6.57778
#
# Compressibility (1/GPa) = 0.02480635
#
# Stress axis : x y z
#
# Youngs Moduli (GPa) = 25.96243 54.15662 86.40333
#
# Poissons Ratio (x) = 0.60630 0.44477
# Poissons Ratio (y) = 0.29066 0.47796
# Poissons Ratio (z) = 0.13364 0.29958
#
# Static dielectric constant tensor:
#      x y z
#    x 2.902380 0.000000 -0.005520 
#    y 0.000000 3.263210 0.000000 
#    z -0.005520 0.000000 3.545540 
# 
# 
# High freq. dielectric constant tensor:
#      x y z
#    x 1.616560 0.000000 0.003730 
#    y 0.000000 1.667230 0.000000 
#    z 0.003730 0.000000 1.667580 
# 
# From -- ./inp_files/83648.got.cif
#   From: 2010.06.25/outbox.cif.g09.slc.cpg/sg10_42_cif.got.tgz:83648.got - 2010.06.27 22:07:45.
