data_PCOD8060887
_publ_section_title
;
Structure prediction by ZEFSAII (Michael W. Deem and Ramdas Pophale) SiO2 
 PCOD8060887
Probable space group: P 2/M
;
_chemical_formula_sum "Si O2"
_cell_formula_units_Z 32
_cell_length_a 11.011826
_cell_length_b 9.126000
_cell_length_c 16.533629
_cell_angle_alpha 90.000000
_cell_angle_beta 87.697742
_cell_angle_gamma 90.000000
_cell_volume 1660.188092
_symmetry_space_group_name_H-M "P 2/M"
_symmetry_group_IT_number 10
_symmetry_cell_setting 'monoclinic'
loop_
_space_group_symop_operation_xyz
x,y,z
-x,y,-z
-x,-y,-z
x,-y,z
loop_
_atom_site_type_symbol
_atom_site_label
_atom_site_fract_x
_atom_site_fract_y
_atom_site_fract_z
Si Si1 0.957422 0.829856 0.852008
Si Si2 0.623684 0.674222 0.451144
Si Si3 0.269610 0.170955 0.041732
Si Si4 0.629252 0.831724 0.281218
Si Si5 0.130829 0.326352 0.466142
Si Si6 0.377315 0.834040 0.200367
Si Si7 0.840365 0.672865 0.717301
Si Si8 0.229199 0.829517 0.871201
O O1 0.087212 0.800172 0.887740
O O2 0.855460 0.768417 0.915894
O O3 0.946977 0.744411 0.767479
O O4 0.936828 0.000000 0.833693
O O5 0.500000 0.728750 0.500000
O O6 0.623259 0.500000 0.447860
O O7 0.621757 0.734250 0.360620
O O8 0.748805 0.732517 0.489540
O O9 0.377550 0.202977 0.103311
O O10 0.251462 0.000000 0.025770
O O11 0.292019 0.239142 0.951086
O O12 0.509057 0.816975 0.231724
O O13 0.728365 0.762936 0.216169
O O14 0.654617 0.000000 0.306227
O O15 0.129955 0.500000 0.474105
O O16 0.143130 0.272861 0.374364
O O17 0.000000 0.263544 0.500000
O O18 0.291537 0.723359 0.250025
O O19 0.327330 0.000000 0.212315
O O20 0.849640 0.500000 0.723739
O O21 0.262899 0.000000 0.862270
#
# Coordination Sequence:
#
# PCOD8060887 Si02
#       8
#     4   4   4   4   4   4   4   4
#     4   9  17  30  50  75 105 137 169 207 252 304
#     4  10  21  38  59  78  99 136 182 219 256 315
#     4   8  14  27  49  74  98 135 178 209 243 293
#     4  10  21  34  51  79 109 135 165 212 265 305
#     4   9  19  34  52  75 102 131 168 215 260 307
#     4   9  18  33  52  74 102 134 171 210 252 301
#     4  10  19  32  54  77  97 127 169 214 259 305
#     4   9  17  29  48  75 107 137 170 210 250 299
#
# _framework density 19.274926000000001
#
# number of rings (size 3 to 8) (size 9 to 14) (size 15 to 20)
#    0.000    2.750    0.000    2.250    1.750    3.750 
#    0.000    3.750    0.000   10.875    0.000    4.375 
#    0.000    0.000    0.000    0.000    0.000    0.000 
#
# Total GULP energy -396484.381743 kJ/mol
# GULP energy per Si atom -12390.136929 kJ/mol
# Density = 1.923106 g / cm^3
# Si number density = 19.274926 Si / 1000 Ang^3
#
#
#
# Elastic Constant Matrix: (Units=GPa)
#
#
# Indices 1 2 3 4 5 6 
#
# 1 85.2867 11.1960 48.0599 0.0000 4.7970 0.0000
# 2 11.1960 24.4929 23.1903 0.0000 1.7922 0.0000
# 3 48.0599 23.1903 157.1606 0.0000 -0.2343 0.0000
# 4 0.0000 0.0000 0.0000 17.9646 0.0000 0.7977
# 5 4.7970 1.7922 -0.2343 0.0000 25.6695 0.0000
# 6 0.0000 0.0000 0.0000 0.7977 0.0000 14.1916
#
#
#
# Elastic Compliance Matrix: (Units=1/GPa)
#
#
# Indices 1 2 3 4 5 6 
#
# 1 0.014494 -0.002601 -0.004052 0.000000 -0.002564 0.000000
# 2 -0.002601 0.048220 -0.006324 0.000000 -0.002938 0.000000
# 3 -0.004052 -0.006324 0.008537 0.000000 0.001277 0.000000
# 4 0.000000 0.000000 0.000000 0.055804 0.000000 -0.003137
# 5 -0.002564 -0.002938 0.001277 0.000000 0.039653 0.000000
# 6 0.000000 0.000000 0.000000 -0.003137 0.000000 0.070641
#
#
# Mechanical properties :
#
#
# Convention : Reuss Voigt Hill
#
# Bulk Modulus (GPa) = 22.07685 47.98141 35.02913
# Shear Modulus (GPa) = 17.95956 23.86475 20.91215
#
# Velocity S-wave (km/s) = 3.05578 3.52252 3.29742
# Velocity P-wave (km/s) = 4.89172 6.44138 5.71928
#
# Compressibility (1/GPa) = 0.04529632
#
# Stress axis : x y z
#
# Youngs Moduli (GPa) = 68.99211 20.73826 117.13369
#
# Poissons Ratio (x) = 0.05394 0.47468
# Poissons Ratio (y) = 0.17945 0.74078
# Poissons Ratio (z) = 0.27959 0.13115
#
# Static dielectric constant tensor:
#      x y z
#    x 3.665080 0.000000 0.033120 
#    y 0.000000 3.075040 0.000000 
#    z 0.033120 0.000000 3.789690 
# 
# 
# High freq. dielectric constant tensor:
#      x y z
#    x 1.753500 0.000000 0.006900 
#    y 0.000000 1.694250 0.000000 
#    z 0.006900 0.000000 1.768860 
# 
# From -- ./inp_files/63804.got.cif
#   From: 2010.06.25/outbox.cif.g09.slc.cpg/sg10_32_cif.got.tgz:63804.got - 2010.06.27 22:07:45.
