data_PCOD8060083
_publ_section_title
;
Structure prediction by ZEFSAII (Michael W. Deem and Ramdas Pophale) SiO2 
 PCOD8060083
Probable space group: P 2/M
;
_chemical_formula_sum "Si O2"
_cell_formula_units_Z 28
_cell_length_a 21.627769
_cell_length_b 8.820633
_cell_length_c 7.558815
_cell_angle_alpha 90.000000
_cell_angle_beta 90.692988
_cell_angle_gamma 90.000000
_cell_volume 1441.894299
_symmetry_space_group_name_H-M "P 2/M"
_symmetry_group_IT_number 10
_symmetry_cell_setting 'monoclinic'
loop_
_space_group_symop_operation_xyz
x,y,z
-x,y,-z
-x,-y,-z
x,-y,z
loop_
_atom_site_type_symbol
_atom_site_label
_atom_site_fract_x
_atom_site_fract_y
_atom_site_fract_z
Si Si1 0.070622 0.820018 0.312432
Si Si2 0.635589 0.178003 0.647653
Si Si3 0.933515 0.180054 0.294628
Si Si4 0.378814 0.678953 0.732044
Si Si5 0.709801 0.320814 0.954111
Si Si6 0.513680 0.333694 0.705964
Si Si7 0.158182 0.819234 0.008419
O O1 0.085987 0.762988 0.510763
O O2 0.124052 0.761444 0.184634
O O3 0.002658 0.760087 0.251074
O O4 0.068729 0.000000 0.306218
O O5 0.641664 0.239797 0.449162
O O6 0.690036 0.247283 0.767928
O O7 0.570002 0.218737 0.738030
O O8 0.643517 0.000000 0.642125
O O9 0.934319 0.000000 0.287844
O O10 0.883618 0.241193 0.154598
O O11 0.374940 0.500000 0.696490
O O12 0.449403 0.723538 0.791850
O O13 0.335133 0.732854 0.889202
O O14 0.708839 0.500000 0.932779
O O15 0.777190 0.263794 0.006890
O O16 0.500000 0.349313 0.500000
O O17 0.532799 0.500000 0.782048
O O18 0.167596 0.000000 0.005861
#
# Coordination Sequence:
#
# PCOD8060083 Si02
#       7
#     4   4   4   4   4   4   4
#     4   8  14  26  47  76 105 132 164 206 261 317
#     4  11  22  36  57  84 112 138 171 225 283 326
#     4   8  14  26  47  75 104 132 165 209 260 313
#     4   9  20  39  60  79 104 144 187 223 262 318
#     4  11  24  40  55  74 106 150 193 222 257 320
#     4   8  15  32  57  81 105 137 178 219 265 323
#     4  10  19  31  49  75 104 133 172 221 266 305
#
# _framework density 19.418897999999999
#
# number of rings (size 3 to 8) (size 9 to 14) (size 15 to 20)
#    0.000    2.714    0.000    3.857    0.000    7.143 
#    0.000    4.286    0.000    1.714    0.000    2.000 
#    0.000    0.000    0.000    0.000    0.000    0.000 
#
# Total GULP energy -347088.208595 kJ/mol
# GULP energy per Si atom -12396.007450 kJ/mol
# Density = 1.937470 g / cm^3
# Si number density = 19.418898 Si / 1000 Ang^3
#
#
#
# Elastic Constant Matrix: (Units=GPa)
#
#
# Indices 1 2 3 4 5 6 
#
# 1 97.7138 22.8795 36.4931 0.0000 -6.5093 0.0000
# 2 22.8795 57.2078 27.6380 0.0000 2.5653 0.0000
# 3 36.4931 27.6380 78.8249 0.0000 -3.6948 0.0000
# 4 0.0000 0.0000 0.0000 -3.3284 0.0000 -28.5971
# 5 -6.5093 2.5653 -3.6948 0.0000 26.8323 0.0000
# 6 0.0000 0.0000 0.0000 -28.5971 0.0000 -21.0820
#
#
#
# Elastic Compliance Matrix: (Units=1/GPa)
#
#
# Indices 1 2 3 4 5 6 
#
# 1 0.012906 -0.002963 -0.004807 0.000000 0.002752 0.000000
# 2 -0.002963 0.021976 -0.006508 0.000000 -0.003716 0.000000
# 3 -0.004807 -0.006508 0.017280 0.000000 0.001835 0.000000
# 4 0.000000 0.000000 0.000000 0.028199 0.000000 -0.038251
# 5 0.002752 -0.003716 0.001835 0.000000 0.038544 0.000000
# 6 0.000000 0.000000 0.000000 -0.038251 0.000000 0.004452
#
#
# Mechanical properties :
#
#
# Convention : Reuss Voigt Hill
#
# Bulk Modulus (GPa) = 42.36176 45.30753 43.83464
# Shear Modulus (GPa) = 31.29277 10.26676 20.77976
#
# Velocity S-wave (km/s) = 4.01865 2.30184 3.27476
# Velocity P-wave (km/s) = 6.58748 5.51788 6.07626
#
# Compressibility (1/GPa) = 0.02360619
#
# Stress axis : x y z
#
# Youngs Moduli (GPa) = 77.48073 45.50497 57.87080
#
# Poissons Ratio (x) = 0.13481 0.27821
# Poissons Ratio (y) = 0.22954 0.37661
# Poissons Ratio (z) = 0.37249 0.29614
#
# Static dielectric constant tensor:
#      x y z
#    x 3.788700 0.000000 -0.086930 
#    y 0.000000 3.125720 0.000000 
#    z -0.086930 0.000000 3.740930 
# 
# 
# High freq. dielectric constant tensor:
#      x y z
#    x 1.759880 0.000000 -0.000600 
#    y 0.000000 1.713630 0.000000 
#    z -0.000600 0.000000 1.760790 
# 
# From -- ./inp_files/33485.got.cif
#   From: 2010.06.25/outbox.cif.g09.slc.cpg/sg10_17_cif.got.tgz:33485.got - 2010.06.27 22:07:45.
