data_PCOD8060707
_publ_section_title
;
Structure prediction by ZEFSAII (Michael W. Deem and Ramdas Pophale) SiO2 
 PCOD8060707
Probable space group: P 2/M
;
_chemical_formula_sum "Si O2"
_cell_formula_units_Z 28
_cell_length_a 19.645091
_cell_length_b 9.017522
_cell_length_c 14.450890
_cell_angle_alpha 90.000000
_cell_angle_beta 32.318850
_cell_angle_gamma 90.000000
_cell_volume 1368.640875
_symmetry_space_group_name_H-M "P 2/M"
_symmetry_group_IT_number 10
_symmetry_cell_setting 'monoclinic'
loop_
_space_group_symop_operation_xyz
x,y,z
-x,y,-z
-x,-y,-z
x,-y,z
loop_
_atom_site_type_symbol
_atom_site_label
_atom_site_fract_x
_atom_site_fract_y
_atom_site_fract_z
Si Si1 0.958678 0.675037 0.775197
Si Si2 0.092885 0.170603 0.975638
Si Si3 0.290738 0.165544 0.599623
Si Si4 0.527218 0.326589 0.862389
Si Si5 0.211710 0.169208 0.493194
Si Si6 0.523533 0.326501 0.373304
Si Si7 0.692139 0.675753 0.020512
O O1 0.979156 0.500000 0.749603
O O2 0.840979 0.723256 0.842033
O O3 0.088542 0.750798 0.589733
O O4 0.921699 0.721273 0.921398
O O5 0.230630 0.193330 0.769776
O O6 0.070495 0.000000 0.032496
O O7 0.000000 0.217100 0.000000
O O8 0.191607 0.180847 0.627861
O O9 0.400039 0.285824 0.454179
O O10 0.349315 0.000000 0.528776
O O11 0.547484 0.500000 0.818401
O O12 0.656070 0.242825 0.687781
O O13 0.500000 0.295340 0.000000
O O14 0.402822 0.262810 0.949889
O O15 0.213003 0.000000 0.457608
O O16 0.500000 0.247987 0.500000
O O17 0.534683 0.500000 0.374154
O O18 0.644853 0.267480 0.176370
O O19 0.682580 0.500000 0.027942
#
# Coordination Sequence:
#
# PCOD8060707 Si02
#       7
#     4   4   4   4   4   4   4
#     4  11  22  36  57  85 118 157 199 240 290 343
#     4  10  19  34  50  72 115 161 201 243 284 331
#     4  10  20  33  51  75 108 152 196 238 281 333
#     4  10  21  41  69  94 114 145 191 243 299 354
#     4  11  22  39  60  85 118 152 190 237 291 347
#     4  10  19  32  52  77 112 151 188 236 288 335
#     4   9  19  36  56  85 121 149 186 244 295 343
#
# _framework density 20.458252999999999
#
# number of rings (size 3 to 8) (size 9 to 14) (size 15 to 20)
#    0.000    1.857    2.857    1.714    0.000    3.143 
#    0.000    3.571    0.000    4.286    0.000    0.000 
#    0.000    0.000    0.000    0.000    0.000    0.000 
#
# Total GULP energy -346956.145902 kJ/mol
# GULP energy per Si atom -12391.290925 kJ/mol
# Density = 2.041169 g / cm^3
# Si number density = 20.458253 Si / 1000 Ang^3
#
#
#
# Elastic Constant Matrix: (Units=GPa)
#
#
# Indices 1 2 3 4 5 6 
#
# 1 103.6576 37.8440 66.7280 0.0000 -24.3166 0.0000
# 2 37.8440 54.4472 42.1049 0.0000 -4.9216 0.0000
# 3 66.7280 42.1049 98.4806 0.0000 -25.7587 0.0000
# 4 0.0000 0.0000 0.0000 26.6297 0.0000 -3.1420
# 5 -24.3166 -4.9216 -25.7587 0.0000 34.7971 0.0000
# 6 0.0000 0.0000 0.0000 -3.1420 0.0000 13.2323
#
#
#
# Elastic Compliance Matrix: (Units=1/GPa)
#
#
# Indices 1 2 3 4 5 6 
#
# 1 0.018712 -0.005756 -0.008694 0.000000 0.005826 0.000000
# 2 -0.005756 0.030242 -0.011115 0.000000 -0.007973 0.000000
# 3 -0.008694 -0.011115 0.023310 0.000000 0.009608 0.000000
# 4 0.000000 0.000000 0.000000 0.038634 0.000000 0.009174
# 5 0.005826 -0.007973 0.009608 0.000000 0.038794 0.000000
# 6 0.000000 0.000000 0.000000 0.009174 0.000000 0.077751
#
#
# Mechanical properties :
#
#
# Convention : Reuss Voigt Hill
#
# Bulk Modulus (GPa) = 47.31656 61.10435 54.21046
# Shear Modulus (GPa) = 17.50590 22.25907 19.88249
#
# Velocity S-wave (km/s) = 2.92839 3.30210 3.12084
# Velocity P-wave (km/s) = 5.88324 6.66867 6.28823
#
# Compressibility (1/GPa) = 0.02113425
#
# Stress axis : x y z
#
# Youngs Moduli (GPa) = 53.44199 33.06663 42.89966
#
# Poissons Ratio (x) = 0.19034 0.37296
# Poissons Ratio (y) = 0.30762 0.47683
# Poissons Ratio (z) = 0.46461 0.36754
#
# Static dielectric constant tensor:
#      x y z
#    x 3.836380 0.000000 -0.153110 
#    y 0.000000 3.428050 0.000000 
#    z -0.153110 0.000000 3.747640 
# 
# 
# High freq. dielectric constant tensor:
#      x y z
#    x 1.791970 0.000000 -0.020470 
#    y 0.000000 1.775160 0.000000 
#    z -0.020470 0.000000 1.798780 
# 
# From -- ./inp_files/70187.got.cif
#   From: 2010.06.25/outbox.cif.g09.slc.cpg/sg10_36_cif.got.tgz:70187.got - 2010.06.27 22:07:45.
