data_PCOD8060469
_publ_section_title
;
Structure prediction by ZEFSAII (Michael W. Deem and Ramdas Pophale) SiO2 
 PCOD8060469
Probable space group: P 2/M
;
_chemical_formula_sum "Si O2"
_cell_formula_units_Z 30
_cell_length_a 12.760168
_cell_length_b 15.166489
_cell_length_c 9.866907
_cell_angle_alpha 90.000000
_cell_angle_beta 63.193255
_cell_angle_gamma 90.000000
_cell_volume 1704.302317
_symmetry_space_group_name_H-M "P 2/M"
_symmetry_group_IT_number 10
_symmetry_cell_setting 'monoclinic'
loop_
_space_group_symop_operation_xyz
x,y,z
-x,y,-z
-x,-y,-z
x,-y,z
loop_
_atom_site_type_symbol
_atom_site_label
_atom_site_fract_x
_atom_site_fract_y
_atom_site_fract_z
Si Si1 0.231866 0.399447 0.651012
Si Si2 0.036579 0.401441 0.233959
Si Si3 0.000000 0.279486 0.500000
Si Si4 0.406084 0.094276 0.939603
Si Si5 0.252157 0.247479 0.427703
Si Si6 0.743191 0.601997 0.060442
Si Si7 0.638123 0.735771 0.924625
Si Si8 0.567492 0.102554 0.596546
O O1 0.269890 0.500000 0.589912
O O2 0.275248 0.330851 0.512912
O O3 0.281842 0.371793 0.769010
O O4 0.092715 0.394337 0.749863
O O5 0.063944 0.500000 0.269820
O O6 0.057436 0.338828 0.349639
O O7 0.123543 0.375114 0.061166
O O8 0.888019 0.224758 0.506739
O O9 0.474776 0.124955 0.766316
O O10 0.339717 0.000000 0.953030
O O11 0.500000 0.076530 0.000000
O O12 0.314502 0.171557 0.036636
O O13 0.305342 0.278418 0.254169
O O14 0.315317 0.161268 0.451508
O O15 0.714794 0.500000 0.056276
O O16 0.657602 0.654117 0.011484
O O17 0.500000 0.749568 0.000000
O O18 0.500000 0.128814 0.500000
O O19 0.606543 0.000000 0.574696
#
# Coordination Sequence:
#
# PCOD8060469 Si02
#       8
#     4   4   2   4   4   4   4   4
#     4   9  20  34  52  77 105 144 185 223 269 316
#     4   9  16  30  53  75 102 137 186 234 263 303
#     4  10  19  32  49  84 114 142 176 216 280 328
#     4   9  17  33  56  79 102 128 172 224 267 309
#     4  11  21  35  56  81 115 143 178 226 272 329
#     4  10  20  34  51  74 106 143 184 226 266 316
#     4  11  21  34  53  78 105 141 180 224 270 319
#     4  10  21  37  59  85 108 138 181 229 272 314
#
# _framework density 17.602509999999999
#
# number of rings (size 3 to 8) (size 9 to 14) (size 15 to 20)
#    0.000    2.133    4.000    0.600    1.867    2.933 
#    0.000    0.333    0.000    2.000    0.000    0.000 
#    0.000    6.667    0.000    0.000    0.000    0.000 
#
# Total GULP energy -371769.399358 kJ/mol
# GULP energy per Si atom -12392.313312 kJ/mol
# Density = 1.756245 g / cm^3
# Si number density = 17.602510 Si / 1000 Ang^3
#
#
#
# Elastic Constant Matrix: (Units=GPa)
#
#
# Indices 1 2 3 4 5 6 
#
# 1 70.1865 45.3752 35.7228 0.0000 13.4053 0.0000
# 2 45.3752 104.9975 61.3981 0.0000 9.6494 0.0000
# 3 35.7228 61.3981 117.3266 0.0000 15.8124 0.0000
# 4 0.0000 0.0000 0.0000 28.1021 0.0000 -0.2341
# 5 13.4053 9.6494 15.8124 0.0000 23.7510 0.0000
# 6 0.0000 0.0000 0.0000 -0.2341 0.0000 23.7527
#
#
#
# Elastic Compliance Matrix: (Units=1/GPa)
#
#
# Indices 1 2 3 4 5 6 
#
# 1 0.021500 -0.007721 -0.001421 0.000000 -0.008052 0.000000
# 2 -0.007721 0.016512 -0.006562 0.000000 0.002018 0.000000
# 3 -0.001421 -0.006562 0.013098 0.000000 -0.005252 0.000000
# 4 0.000000 0.000000 0.000000 0.035588 0.000000 0.000351
# 5 -0.008052 0.002018 -0.005252 0.000000 0.049325 0.000000
# 6 0.000000 0.000000 0.000000 0.000351 0.000000 0.042104
#
#
# Mechanical properties :
#
#
# Convention : Reuss Voigt Hill
#
# Bulk Modulus (GPa) = 50.75371 64.16699 57.46035
# Shear Modulus (GPa) = 23.13721 25.12210 24.12966
#
# Velocity S-wave (km/s) = 3.62944 3.78191 3.70646
# Velocity P-wave (km/s) = 6.81612 7.45674 7.14362
#
# Compressibility (1/GPa) = 0.01970299
#
# Stress axis : x y z
#
# Youngs Moduli (GPa) = 46.51124 60.56022 76.34892
#
# Poissons Ratio (x) = 0.46756 0.10847
# Poissons Ratio (y) = 0.35909 0.50103
# Poissons Ratio (z) = 0.06608 0.39742
#
# Static dielectric constant tensor:
#      x y z
#    x 3.085670 0.000000 0.118740 
#    y 0.000000 3.544920 0.000000 
#    z 0.118740 0.000000 3.328880 
# 
# 
# High freq. dielectric constant tensor:
#      x y z
#    x 1.654260 0.000000 0.018400 
#    y 0.000000 1.677120 0.000000 
#    z 0.018400 0.000000 1.689050 
# 
# From -- ./inp_files/25853.got.cif
#   From: 2010.06.25/outbox.cif.g09.slc.cpg/sg10_13_cif.got.tgz:25853.got - 2010.06.27 22:07:45.
