data_PCOD8060599
_publ_section_title
;
Structure prediction by ZEFSAII (Michael W. Deem and Ramdas Pophale) SiO2 
 PCOD8060599
Probable space group: P 2/M
;
_chemical_formula_sum "Si O2"
_cell_formula_units_Z 32
_cell_length_a 15.581328
_cell_length_b 13.079611
_cell_length_c 8.972326
_cell_angle_alpha 90.000000
_cell_angle_beta 95.761049
_cell_angle_gamma 90.000000
_cell_volume 1819.303859
_symmetry_space_group_name_H-M "P 2/M"
_symmetry_group_IT_number 10
_symmetry_cell_setting 'monoclinic'
loop_
_space_group_symop_operation_xyz
x,y,z
-x,y,-z
-x,-y,-z
x,-y,z
loop_
_atom_site_type_symbol
_atom_site_label
_atom_site_fract_x
_atom_site_fract_y
_atom_site_fract_z
Si Si1 0.051055 0.613402 0.356920
Si Si2 0.415944 0.265528 0.397323
Si Si3 0.886285 0.118095 0.901832
Si Si4 0.264671 0.882004 0.343233
Si Si5 0.831497 0.245019 0.445869
Si Si6 0.954964 0.785121 0.201643
Si Si7 0.511901 0.617938 0.166807
Si Si8 0.680484 0.617602 0.369142
O O1 0.078955 0.500000 0.304049
O O2 0.131243 0.686526 0.411267
O O3 0.000000 0.599660 0.500000
O O4 0.992434 0.668779 0.219513
O O5 0.500000 0.224759 0.500000
O O6 0.356600 0.171440 0.338797
O O7 0.445021 0.321107 0.254149
O O8 0.361329 0.346777 0.482952
O O9 0.795063 0.141912 0.810089
O O10 0.963484 0.137719 0.796030
O O11 0.891407 0.000000 0.955266
O O12 0.896451 0.195184 0.044808
O O13 0.218661 0.848615 0.488283
O O14 0.284420 0.000000 0.361344
O O15 0.901476 0.196557 0.344766
O O16 0.764997 0.316539 0.342674
O O17 0.486263 0.500000 0.176285
O O18 0.611380 0.635050 0.227081
O O19 0.500000 0.660652 0.000000
O O20 0.708161 0.500000 0.388762
#
# Coordination Sequence:
#
# PCOD8060599 Si02
#       8
#     4   4   4   4   4   4   4   4
#     4   9  17  30  49  72  99 131 164 203 250 300
#     4   9  18  33  53  76 103 132 162 199 254 308
#     4  10  21  37  53  71  99 135 175 219 266 303
#     4  10  21  35  53  75 100 130 169 216 260 304
#     4  10  19  32  51  76 100 129 173 215 254 298
#     4  10  19  33  53  72  99 135 172 211 257 305
#     4   9  17  30  51  78 104 130 165 204 242 292
#     4   9  17  30  50  75 102 134 167 201 246 300
#
# _framework density 17.589144999999998
#
# number of rings (size 3 to 8) (size 9 to 14) (size 15 to 20)
#    0.000    2.500    1.250    1.500    0.000    4.250 
#    0.000    2.500    0.000    0.375    0.000    0.000 
#    0.000    0.000    0.000    0.000    0.000    0.000 
#
# Total GULP energy -396643.983197 kJ/mol
# GULP energy per Si atom -12395.124475 kJ/mol
# Density = 1.754911 g / cm^3
# Si number density = 17.589145 Si / 1000 Ang^3
#
#
#
# Elastic Constant Matrix: (Units=GPa)
#
#
# Indices 1 2 3 4 5 6 
#
# 1 87.2035 39.5282 46.4673 0.0000 9.2686 0.0000
# 2 39.5282 89.1647 57.0979 0.0000 13.4413 0.0000
# 3 46.4673 57.0979 99.3540 0.0000 10.7963 0.0000
# 4 0.0000 0.0000 0.0000 20.4989 0.0000 5.4523
# 5 9.2686 13.4413 10.7963 0.0000 22.0747 0.0000
# 6 0.0000 0.0000 0.0000 5.4523 0.0000 30.6930
#
#
#
# Elastic Compliance Matrix: (Units=1/GPa)
#
#
# Indices 1 2 3 4 5 6 
#
# 1 0.016072 -0.003392 -0.005343 0.000000 -0.002070 0.000000
# 2 -0.003392 0.019287 -0.008847 0.000000 -0.005993 0.000000
# 3 -0.005343 -0.008847 0.017763 0.000000 -0.001057 0.000000
# 4 0.000000 0.000000 0.000000 0.051202 0.000000 -0.009096
# 5 -0.002070 -0.005993 -0.001057 0.000000 0.050336 0.000000
# 6 0.000000 0.000000 0.000000 -0.009096 0.000000 0.034196
#
#
# Mechanical properties :
#
#
# Convention : Reuss Voigt Hill
#
# Bulk Modulus (GPa) = 55.67963 62.43433 59.05698
# Shear Modulus (GPa) = 21.73862 23.49525 22.61693
#
# Velocity S-wave (km/s) = 3.51937 3.65880 3.58976
# Velocity P-wave (km/s) = 6.94543 7.30904 7.12955
#
# Compressibility (1/GPa) = 0.01795989
#
# Stress axis : x y z
#
# Youngs Moduli (GPa) = 62.22142 51.84730 56.29754
#
# Poissons Ratio (x) = 0.17585 0.30077
# Poissons Ratio (y) = 0.21103 0.49805
# Poissons Ratio (z) = 0.33242 0.45868
#
# Static dielectric constant tensor:
#      x y z
#    x 3.350950 0.000000 0.170110 
#    y 0.000000 3.291930 0.000000 
#    z 0.170110 0.000000 3.143150 
# 
# 
# High freq. dielectric constant tensor:
#      x y z
#    x 1.681570 0.000000 0.012910 
#    y 0.000000 1.672930 0.000000 
#    z 0.012910 0.000000 1.663490 
# 
# From -- ./inp_files/28614.got.cif
#   From: 2010.06.25/outbox.cif.g09.slc.cpg/sg10_15_cif.got.tgz:28614.got - 2010.06.27 22:07:45.
