data_PCOD8060867
_publ_section_title
;
Structure prediction by ZEFSAII (Michael W. Deem and Ramdas Pophale) SiO2 
 PCOD8060867
Probable space group: P 2/M
;
_chemical_formula_sum "Si O2"
_cell_formula_units_Z 28
_cell_length_a 30.956103
_cell_length_b 8.961828
_cell_length_c 10.272459
_cell_angle_alpha 90.000000
_cell_angle_beta 147.730869
_cell_angle_gamma 90.000000
_cell_volume 1521.509547
_symmetry_space_group_name_H-M "P 2/M"
_symmetry_group_IT_number 10
_symmetry_cell_setting 'monoclinic'
loop_
_space_group_symop_operation_xyz
x,y,z
-x,y,-z
-x,-y,-z
x,-y,z
loop_
_atom_site_type_symbol
_atom_site_label
_atom_site_fract_x
_atom_site_fract_y
_atom_site_fract_z
Si Si1 0.737172 0.327282 0.124689
Si Si2 0.321614 0.675576 0.305722
Si Si3 0.237512 0.826344 0.325201
Si Si4 0.497531 0.675562 0.843861
Si Si5 0.073182 0.175093 0.038281
Si Si6 0.085933 0.326442 0.345425
Si Si7 0.343437 0.823301 0.837024
O O1 0.716019 0.500000 0.096838
O O2 0.833682 0.302463 0.364997
O O3 0.698034 0.229535 0.137008
O O4 0.701102 0.270947 0.896425
O O5 0.313380 0.500000 0.299281
O O6 0.258999 0.745604 0.246886
O O7 0.412558 0.728194 0.567520
O O8 0.292009 0.763504 0.582770
O O9 0.254659 0.000000 0.351745
O O10 0.143284 0.793752 0.112543
O O11 0.511480 0.500000 0.864543
O O12 0.500000 0.725479 0.000000
O O13 0.566410 0.759249 0.939049
O O14 0.989506 0.247591 0.773320
O O15 0.061381 0.000000 0.032569
O O16 0.098828 0.250779 0.238617
O O17 0.066398 0.500000 0.275663
O O18 0.346449 0.000000 0.845732
#
# Coordination Sequence:
#
# PCOD8060867 Si02
#       7
#     4   4   4   4   4   4   4
#     4  10  22  39  57  81 114 149 184 226 276 330
#     4  10  22  39  59  81 110 148 186 227 278 330
#     4  10  21  36  55  83 112 143 184 227 272 328
#     4  10  20  36  58  84 110 142 186 231 277 325
#     4  10  19  33  54  81 112 143 181 225 273 323
#     4  10  19  32  53  82 111 141 182 227 273 320
#     4  11  22  36  58  84 112 146 185 227 274 328
#
# _framework density 18.402775999999999
#
# number of rings (size 3 to 8) (size 9 to 14) (size 15 to 20)
#    0.000    1.857    2.857    2.143    0.000    4.286 
#    0.000    3.571    0.000    4.286    0.000    0.000 
#    0.000    0.000    0.000    0.000    0.000    0.000 
#
# Total GULP energy -347278.817179 kJ/mol
# GULP energy per Si atom -12402.814899 kJ/mol
# Density = 1.836089 g / cm^3
# Si number density = 18.402776 Si / 1000 Ang^3
#
#
#
# Elastic Constant Matrix: (Units=GPa)
#
#
# Indices 1 2 3 4 5 6 
#
# 1 102.1637 37.9069 45.4744 0.0000 12.7466 0.0000
# 2 37.9069 65.3626 31.3261 0.0000 8.8157 0.0000
# 3 45.4744 31.3261 113.5510 0.0000 7.0699 0.0000
# 4 0.0000 0.0000 0.0000 18.0447 0.0000 5.2436
# 5 12.7466 8.8157 7.0699 0.0000 30.9827 0.0000
# 6 0.0000 0.0000 0.0000 5.2436 0.0000 34.3816
#
#
#
# Elastic Compliance Matrix: (Units=1/GPa)
#
#
# Indices 1 2 3 4 5 6 
#
# 1 0.014078 -0.005902 -0.003808 0.000000 -0.003243 0.000000
# 2 -0.005902 0.020598 -0.003150 0.000000 -0.002714 0.000000
# 3 -0.003808 -0.003150 0.011206 0.000000 -0.000094 0.000000
# 4 0.000000 0.000000 0.000000 0.057988 0.000000 -0.008844
# 5 -0.003243 -0.002714 -0.000094 0.000000 0.034404 0.000000
# 6 0.000000 0.000000 0.000000 -0.008844 0.000000 0.030434
#
#
# Mechanical properties :
#
#
# Convention : Reuss Voigt Hill
#
# Bulk Modulus (GPa) = 49.59616 56.72133 53.15874
# Shear Modulus (GPa) = 24.85737 27.77313 26.31525
#
# Velocity S-wave (km/s) = 3.67923 3.88903 3.78558
# Velocity P-wave (km/s) = 6.71251 7.14529 6.93228
#
# Compressibility (1/GPa) = 0.02016285
#
# Stress axis : x y z
#
# Youngs Moduli (GPa) = 71.03516 48.54893 89.23549
#
# Poissons Ratio (x) = 0.28653 0.33977
# Poissons Ratio (y) = 0.41925 0.28108
# Poissons Ratio (z) = 0.27047 0.15292
#
# Static dielectric constant tensor:
#      x y z
#    x 3.301800 0.000000 0.178550 
#    y 0.000000 3.350730 0.000000 
#    z 0.178550 0.000000 3.586680 
# 
# 
# High freq. dielectric constant tensor:
#      x y z
#    x 1.710500 0.000000 0.018430 
#    y 0.000000 1.714830 0.000000 
#    z 0.018430 0.000000 1.713250 
# 
# From -- ./inp_files/37351.got.cif
#   From: 2010.06.25/outbox.cif.g09.slc.cpg/sg10_19_cif.got.tgz:37351.got - 2010.06.27 22:07:45.
