data_PCOD8060514
_publ_section_title
;
Structure prediction by ZEFSAII (Michael W. Deem and Ramdas Pophale) SiO2 
 PCOD8060514
Probable space group: P 2/M
;
_chemical_formula_sum "Si O2"
_cell_formula_units_Z 32
_cell_length_a 12.004789
_cell_length_b 9.433283
_cell_length_c 14.955662
_cell_angle_alpha 90.000000
_cell_angle_beta 93.677563
_cell_angle_gamma 90.000000
_cell_volume 1690.160004
_symmetry_space_group_name_H-M "P 2/M"
_symmetry_group_IT_number 10
_symmetry_cell_setting 'monoclinic'
loop_
_space_group_symop_operation_xyz
x,y,z
-x,y,-z
-x,-y,-z
x,-y,z
loop_
_atom_site_type_symbol
_atom_site_label
_atom_site_fract_x
_atom_site_fract_y
_atom_site_fract_z
Si Si1 0.272340 0.667999 0.180547
Si Si2 0.247966 0.668562 0.834476
Si Si3 0.518239 0.332870 0.222254
Si Si4 0.211358 0.839965 0.524577
Si Si5 0.846578 0.164216 0.677156
Si Si6 0.098442 0.159351 0.697560
Si Si7 0.127333 0.331373 0.006458
Si Si8 0.574522 0.331867 0.421441
O O1 0.261069 0.500000 0.191043
O O2 0.401610 0.712603 0.169869
O O3 0.236442 0.739256 0.270764
O O4 0.194606 0.724868 0.096232
O O5 0.240101 0.500000 0.829250
O O6 0.376494 0.722001 0.831311
O O7 0.178743 0.729372 0.748712
O O8 0.194425 0.725712 0.923771
O O9 0.526182 0.500000 0.226561
O O10 0.522769 0.276926 0.324871
O O11 0.165347 0.791849 0.426534
O O12 0.111252 0.831051 0.591042
O O13 0.304590 0.733387 0.562599
O O14 0.259373 0.000000 0.522389
O O15 0.971777 0.197550 0.715471
O O16 0.816813 0.000000 0.690798
O O17 0.127536 0.000000 0.731760
O O18 0.125392 0.500000 0.006420
O O19 0.000000 0.272430 0.000000
O O20 0.500000 0.277057 0.500000
O O21 0.586482 0.500000 0.423676
#
# Coordination Sequence:
#
# PCOD8060514 Si02
#       8
#     4   4   4   4   4   4   4   4
#     4  10  20  36  56  78 106 139 177 216 262 317
#     4  10  19  34  56  79 107 140 176 220 265 314
#     4   9  18  32  51  77 106 138 176 216 259 308
#     4  10  20  34  52  75 103 138 179 218 262 315
#     4  10  21  36  53  76 107 140 176 220 269 316
#     4  10  20  35  54  77 106 140 177 219 266 316
#     4   9  18  32  53  82 109 134 171 220 268 312
#     4  10  19  32  50  73 106 142 176 219 264 304
#
# _framework density 18.933119000000001
#
# number of rings (size 3 to 8) (size 9 to 14) (size 15 to 20)
#    0.000    2.250    1.250    1.875    0.000    5.250 
#    0.000    4.375    0.000    4.500    0.000    1.750 
#    0.000    0.000    0.000    0.000    0.000    0.000 
#
# Total GULP energy -396744.529330 kJ/mol
# GULP energy per Si atom -12398.266542 kJ/mol
# Density = 1.889003 g / cm^3
# Si number density = 18.933119 Si / 1000 Ang^3
#
#
#
# Elastic Constant Matrix: (Units=GPa)
#
#
# Indices 1 2 3 4 5 6 
#
# 1 140.9255 24.8811 61.4254 0.0000 -2.0789 0.0000
# 2 24.8811 24.0553 21.4921 0.0000 1.2451 0.0000
# 3 61.4254 21.4921 118.2963 0.0000 -5.8303 0.0000
# 4 0.0000 0.0000 0.0000 16.5979 0.0000 -2.0499
# 5 -2.0789 1.2451 -5.8303 0.0000 37.0326 0.0000
# 6 0.0000 0.0000 0.0000 -2.0499 0.0000 21.2915
#
#
#
# Elastic Compliance Matrix: (Units=1/GPa)
#
#
# Indices 1 2 3 4 5 6 
#
# 1 0.010032 -0.006851 -0.003956 0.000000 0.000171 0.000000
# 2 -0.006851 0.054663 -0.006534 0.000000 -0.003251 0.000000
# 3 -0.003956 -0.006534 0.011786 0.000000 0.001853 0.000000
# 4 0.000000 0.000000 0.000000 0.060974 0.000000 0.005870
# 5 0.000171 -0.003251 0.001853 0.000000 0.027414 0.000000
# 6 0.000000 0.000000 0.000000 0.005870 0.000000 0.047532
#
#
# Mechanical properties :
#
#
# Convention : Reuss Voigt Hill
#
# Bulk Modulus (GPa) = 23.92399 55.43047 39.67723
# Shear Modulus (GPa) = 19.15583 26.68297 22.91940
#
# Velocity S-wave (km/s) = 3.18427 3.75817 3.48306
# Velocity P-wave (km/s) = 5.11693 6.94063 6.09735
#
# Compressibility (1/GPa) = 0.04179905
#
# Stress axis : x y z
#
# Youngs Moduli (GPa) = 99.67650 18.29385 84.84577
#
# Poissons Ratio (x) = 0.12533 0.33567
# Poissons Ratio (y) = 0.68288 0.55439
# Poissons Ratio (z) = 0.39435 0.11953
#
# Static dielectric constant tensor:
#      x y z
#    x 3.718520 0.000000 -0.107330 
#    y 0.000000 3.100590 0.000000 
#    z -0.107330 0.000000 3.642830 
# 
# 
# High freq. dielectric constant tensor:
#      x y z
#    x 1.747030 0.000000 -0.005130 
#    y 0.000000 1.698000 0.000000 
#    z -0.005130 0.000000 1.739450 
# 
# From -- ./inp_files/53493.got.cif
#   From: 2010.06.25/outbox.cif.g09.slc.cpg/sg10_27_cif.got.tgz:53493.got - 2010.06.27 22:07:45.
