data_PCOD8060056
_publ_section_title
;
Structure prediction by ZEFSAII (Michael W. Deem and Ramdas Pophale) SiO2 
 PCOD8060056
Probable space group: P 2/M
;
_chemical_formula_sum "Si O2"
_cell_formula_units_Z 24
_cell_length_a 19.299393
_cell_length_b 9.184547
_cell_length_c 9.149630
_cell_angle_alpha 90.000000
_cell_angle_beta 58.147115
_cell_angle_gamma 90.000000
_cell_volume 1377.590748
_symmetry_space_group_name_H-M "P 2/M"
_symmetry_group_IT_number 10
_symmetry_cell_setting 'monoclinic'
loop_
_space_group_symop_operation_xyz
x,y,z
-x,y,-z
-x,-y,-z
x,-y,z
loop_
_atom_site_type_symbol
_atom_site_label
_atom_site_fract_x
_atom_site_fract_y
_atom_site_fract_z
Si Si1 0.161126 0.171245 0.141823
Si Si2 0.482693 0.671520 0.856272
Si Si3 0.658710 0.171117 0.154670
Si Si4 0.078171 0.839071 0.515912
Si Si5 0.586410 0.339621 0.482966
Si Si6 0.014418 0.329356 0.152545
O O1 0.150712 0.213081 0.325960
O O2 0.098423 0.256145 0.108535
O O3 0.144299 0.000000 0.139294
O O4 0.251331 0.216366 0.994634
O O5 0.463872 0.500000 0.866699
O O6 0.403908 0.755457 0.886475
O O7 0.564774 0.710121 0.672341
O O8 0.500000 0.724227 0.000000
O O9 0.645874 0.226999 0.335386
O O10 0.644585 0.000000 0.167573
O O11 0.000000 0.844881 0.500000
O O12 0.062896 0.730375 0.667970
O O13 0.096674 0.000000 0.559408
O O14 0.500000 0.346564 0.500000
O O15 0.627454 0.500000 0.435274
O O16 0.020775 0.500000 0.173505
O O17 0.000000 0.291387 0.000000
#
# Coordination Sequence:
#
# PCOD8060056 Si02
#       6
#     4   4   4   4   4   4
#     4   9  19  34  50  70  95 125 159 192 231 281
#     4   9  18  33  51  70  94 126 161 193 231 282
#     4  10  19  31  49  73  98 122 155 197 235 275
#     4   8  15  30  50  68  90 123 159 190 226 278
#     4   8  15  29  48  68  92 124 159 191 228 279
#     4  10  20  32  48  73  99 121 153 196 235 274
#
# _framework density 17.421720000000001
#
# number of rings (size 3 to 8) (size 9 to 14) (size 15 to 20)
#    0.000    3.000    0.000    3.000    0.000    9.000 
#    0.000    1.667    0.000    8.000    0.000    0.000 
#    0.000    0.000    0.000    0.000    0.000    0.000 
#
# Total GULP energy -297457.149724 kJ/mol
# GULP energy per Si atom -12394.047905 kJ/mol
# Density = 1.738207 g / cm^3
# Si number density = 17.421720 Si / 1000 Ang^3
#
#
#
# Elastic Constant Matrix: (Units=GPa)
#
#
# Indices 1 2 3 4 5 6 
#
# 1 60.3648 47.7846 68.3834 0.0000 1.9729 0.0000
# 2 47.7846 84.5448 72.5058 0.0000 0.3974 0.0000
# 3 68.3834 72.5058 185.2925 0.0000 1.7692 0.0000
# 4 0.0000 0.0000 0.0000 29.7504 0.0000 2.1959
# 5 1.9729 0.3974 1.7692 0.0000 30.1724 0.0000
# 6 0.0000 0.0000 0.0000 2.1959 0.0000 11.3683
#
#
#
# Elastic Compliance Matrix: (Units=1/GPa)
#
#
# Indices 1 2 3 4 5 6 
#
# 1 0.036779 -0.013776 -0.008166 0.000000 -0.001745 0.000000
# 2 -0.013776 0.022963 -0.003909 0.000000 0.000828 0.000000
# 3 -0.008166 -0.003909 0.009940 0.000000 0.000003 0.000000
# 4 0.000000 0.000000 0.000000 0.034099 0.000000 -0.006587
# 5 -0.001745 0.000828 0.000003 0.000000 0.033246 0.000000
# 6 0.000000 0.000000 0.000000 -0.006587 0.000000 0.089237
#
#
# Mechanical properties :
#
#
# Convention : Reuss Voigt Hill
#
# Bulk Modulus (GPa) = 55.61932 78.61665 67.11798
# Shear Modulus (GPa) = 17.60814 23.69343 20.65078
#
# Velocity S-wave (km/s) = 3.18260 3.69181 3.44662
# Velocity P-wave (km/s) = 6.74536 7.96217 7.37889
#
# Compressibility (1/GPa) = 0.01797936
#
# Stress axis : x y z
#
# Youngs Moduli (GPa) = 27.18951 43.54863 100.59931
#
# Poissons Ratio (x) = 0.59991 0.82153
# Poissons Ratio (y) = 0.37456 0.39328
# Poissons Ratio (z) = 0.22204 0.17025
#
# Static dielectric constant tensor:
#      x y z
#    x 2.839690 0.000000 0.064020 
#    y 0.000000 3.236690 0.000000 
#    z 0.064020 0.000000 4.108660 
# 
# 
# High freq. dielectric constant tensor:
#      x y z
#    x 1.626290 0.000000 0.002630 
#    y 0.000000 1.672860 0.000000 
#    z 0.002630 0.000000 1.695820 
# 
# From -- ./inp_files/33751.got.cif
#   From: 2010.06.25/outbox.cif.g09.slc.cpg/sg10_17_cif.got.tgz:33751.got - 2010.06.27 22:07:45.
