data_PCOD8060719
_publ_section_title
;
Structure prediction by ZEFSAII (Michael W. Deem and Ramdas Pophale) SiO2 
 PCOD8060719
Probable space group: P 2/M
;
_chemical_formula_sum "Si O2"
_cell_formula_units_Z 32
_cell_length_a 21.632673
_cell_length_b 8.992584
_cell_length_c 14.339055
_cell_angle_alpha 90.000000
_cell_angle_beta 35.878467
_cell_angle_gamma 90.000000
_cell_volume 1634.794404
_symmetry_space_group_name_H-M "P 2/M"
_symmetry_group_IT_number 10
_symmetry_cell_setting 'monoclinic'
loop_
_space_group_symop_operation_xyz
x,y,z
-x,y,-z
-x,-y,-z
x,-y,z
loop_
_atom_site_type_symbol
_atom_site_label
_atom_site_fract_x
_atom_site_fract_y
_atom_site_fract_z
Si Si1 0.175370 0.173332 0.624820
Si Si2 0.648690 0.171794 0.448870
Si Si3 0.961642 0.834085 0.445851
Si Si4 0.581531 0.675918 0.975551
Si Si5 0.946163 0.166883 0.858113
Si Si6 0.232748 0.328490 0.377426
Si Si7 0.446194 0.677053 0.780462
Si Si8 0.714448 0.175669 0.162829
O O1 0.235554 0.204728 0.648041
O O2 0.250259 0.242632 0.453234
O O3 0.054473 0.240073 0.769527
O O4 0.164963 0.000000 0.614627
O O5 0.558797 0.273171 0.603052
O O6 0.655791 0.209261 0.331336
O O7 0.617883 0.000000 0.502876
O O8 0.883561 0.702946 0.515295
O O9 0.000000 0.790801 0.500000
O O10 0.052576 0.829933 0.256429
O O11 0.910056 0.000000 0.509288
O O12 0.569037 0.500000 0.996678
O O13 0.693659 0.725948 0.797122
O O14 0.500000 0.742472 0.000000
O O15 0.564518 0.739037 0.100500
O O16 0.942242 0.000000 0.902363
O O17 0.834469 0.242151 0.022758
O O18 0.252262 0.500000 0.375651
O O19 0.439271 0.500000 0.784441
O O20 0.349715 0.743437 0.839775
O O21 0.717470 0.000000 0.137576
#
# Coordination Sequence:
#
# PCOD8060719 Si02
#       8
#     4   4   4   4   4   4   4   4
#     4   9  18  35  57  81 111 142 179 224 270 323
#     4  10  21  37  58  82 107 140 182 230 276 319
#     4   9  18  32  51  75 106 142 176 214 262 315
#     4   9  19  35  53  75 105 140 177 218 265 317
#     4   8  16  32  53  79 109 142 177 216 266 320
#     4  10  19  32  52  78 106 139 177 217 263 315
#     4  11  23  38  57  80 108 144 183 224 273 327
#     4  10  21  37  57  81 111 144 181 224 270 321
#
# _framework density 19.574327
#
# number of rings (size 3 to 8) (size 9 to 14) (size 15 to 20)
#    0.000    2.500    0.000    2.625    1.750    4.250 
#    0.000    6.875    0.000    4.500    0.000    5.250 
#    0.000    0.000    0.000    0.000    0.000    0.000 
#
# Total GULP energy -396521.001075 kJ/mol
# GULP energy per Si atom -12391.281284 kJ/mol
# Density = 1.952978 g / cm^3
# Si number density = 19.574327 Si / 1000 Ang^3
#
#
#
# Elastic Constant Matrix: (Units=GPa)
#
#
# Indices 1 2 3 4 5 6 
#
# 1 127.2312 29.5040 51.9721 0.0000 6.6828 0.0000
# 2 29.5040 40.3704 33.1573 0.0000 1.5140 0.0000
# 3 51.9721 33.1573 122.1363 0.0000 -2.1449 0.0000
# 4 0.0000 0.0000 0.0000 23.0421 0.0000 1.2528
# 5 6.6828 1.5140 -2.1449 0.0000 30.7258 0.0000
# 6 0.0000 0.0000 0.0000 1.2528 0.0000 24.5269
#
#
#
# Elastic Compliance Matrix: (Units=1/GPa)
#
#
# Indices 1 2 3 4 5 6 
#
# 1 0.010401 -0.004955 -0.003120 0.000000 -0.002236 0.000000
# 2 -0.004955 0.034385 -0.007246 0.000000 -0.001123 0.000000
# 3 -0.003120 -0.007246 0.011515 0.000000 0.001839 0.000000
# 4 0.000000 0.000000 0.000000 0.043520 0.000000 -0.002223
# 5 -0.002236 -0.001123 0.001839 0.000000 0.033216 0.000000
# 6 0.000000 0.000000 0.000000 -0.002223 0.000000 0.040885
#
#
# Mechanical properties :
#
#
# Convention : Reuss Voigt Hill
#
# Bulk Modulus (GPa) = 38.97286 57.66720 48.32003
# Shear Modulus (GPa) = 23.46142 27.33259 25.39701
#
# Velocity S-wave (km/s) = 3.46581 3.74083 3.60594
# Velocity P-wave (km/s) = 5.99743 6.94140 6.48661
#
# Compressibility (1/GPa) = 0.02565888
#
# Stress axis : x y z
#
# Youngs Moduli (GPa) = 96.14898 29.08214 86.84613
#
# Poissons Ratio (x) = 0.14410 0.27095
# Poissons Ratio (y) = 0.47640 0.62930
# Poissons Ratio (z) = 0.29997 0.21073
#
# Static dielectric constant tensor:
#      x y z
#    x 3.827530 0.000000 0.054940 
#    y 0.000000 3.235520 0.000000 
#    z 0.054940 0.000000 3.734790 
# 
# 
# High freq. dielectric constant tensor:
#      x y z
#    x 1.771290 0.000000 0.002020 
#    y 0.000000 1.724650 0.000000 
#    z 0.002020 0.000000 1.768030 
# 
# From -- ./inp_files/71469.got.cif
#   From: 2010.06.25/outbox.cif.g09.slc.cpg/sg10_36_cif.got.tgz:71469.got - 2010.06.27 22:07:45.
