data_PCOD8060528
_publ_section_title
;
Structure prediction by ZEFSAII (Michael W. Deem and Ramdas Pophale) SiO2 
 PCOD8060528
Probable space group: P 2/M
;
_chemical_formula_sum "Si O2"
_cell_formula_units_Z 20
_cell_length_a 16.885577
_cell_length_b 8.572467
_cell_length_c 24.204020
_cell_angle_alpha 90.000000
_cell_angle_beta 159.757908
_cell_angle_gamma 90.000000
_cell_volume 1212.187272
_symmetry_space_group_name_H-M "P 2/M"
_symmetry_group_IT_number 10
_symmetry_cell_setting 'monoclinic'
loop_
_space_group_symop_operation_xyz
x,y,z
-x,y,-z
-x,-y,-z
x,-y,z
loop_
_atom_site_type_symbol
_atom_site_label
_atom_site_fract_x
_atom_site_fract_y
_atom_site_fract_z
Si Si1 0.659562 0.182387 0.263893
Si Si2 0.262274 0.822881 0.365866
Si Si3 0.053929 0.318316 0.454106
Si Si4 0.804709 0.317449 0.075450
Si Si5 0.028332 0.823430 0.320199
O O1 0.755579 0.223668 0.387192
O O2 0.801123 0.272645 0.309313
O O3 0.685614 0.000000 0.270428
O O4 0.396788 0.232472 0.089172
O O5 0.500000 0.747953 0.500000
O O6 0.044438 0.723441 0.200883
O O7 0.252483 0.821078 0.426785
O O8 0.240353 0.000000 0.329259
O O9 0.095081 0.500000 0.490885
O O10 0.081348 0.279881 0.407894
O O11 0.759488 0.500000 0.046622
O O12 0.817804 0.251264 0.147099
O O13 0.964387 0.000000 0.295691
#
# Coordination Sequence:
#
# PCOD8060528 Si02
#       5
#     4   4   4   4   4
#     4  11  21  35  52  71  99 138 172 201 243 299
#     4   8  16  32  53  75 100 130 164 202 248 300
#     4  11  21  34  51  74 102 133 167 207 249 291
#     4  10  19  32  50  77 103 129 165 210 251 287
#     4   9  18  33  51  75 101 132 168 203 244 297
#
# _framework density 16.499102000000001
#
# number of rings (size 3 to 8) (size 9 to 14) (size 15 to 20)
#    1.200    1.000    0.000    6.600    0.000    1.200 
#    0.000    4.000    0.000    1.200    0.000    8.400 
#    0.000    0.000    0.000    0.000    0.000    0.000 
#
# Total GULP energy -247863.849413 kJ/mol
# GULP energy per Si atom -12393.192471 kJ/mol
# Density = 1.646155 g / cm^3
# Si number density = 16.499102 Si / 1000 Ang^3
#
#
#
# Elastic Constant Matrix: (Units=GPa)
#
#
# Indices 1 2 3 4 5 6 
#
# 1 36.5888 16.3169 45.1537 0.0000 -1.5119 0.0000
# 2 16.3169 90.7151 22.0832 0.0000 -1.3893 0.0000
# 3 45.1537 22.0832 108.8861 0.0000 1.3193 0.0000
# 4 0.0000 0.0000 0.0000 25.5704 0.0000 -3.7686
# 5 -1.5119 -1.3893 1.3193 0.0000 15.7669 0.0000
# 6 0.0000 0.0000 0.0000 -3.7686 0.0000 24.5595
#
#
#
# Elastic Compliance Matrix: (Units=1/GPa)
#
#
# Indices 1 2 3 4 5 6 
#
# 1 0.058703 -0.004736 -0.023470 0.000000 0.007176 0.000000
# 2 -0.004736 0.012002 -0.000478 0.000000 0.000643 0.000000
# 3 -0.023470 -0.000478 0.019061 0.000000 -0.003887 0.000000
# 4 0.000000 0.000000 0.000000 0.040013 0.000000 0.006140
# 5 0.007176 0.000643 -0.003887 0.000000 0.064494 0.000000
# 6 0.000000 0.000000 0.000000 0.006140 0.000000 0.041660
#
#
# Mechanical properties :
#
#
# Convention : Reuss Voigt Hill
#
# Bulk Modulus (GPa) = 30.86599 44.81085 37.83842
# Shear Modulus (GPa) = 16.44203 23.35510 19.89857
#
# Velocity S-wave (km/s) = 3.16023 3.76644 3.47658
# Velocity P-wave (km/s) = 5.66254 6.79215 6.25291
#
# Compressibility (1/GPa) = 0.03239812
#
# Stress axis : x y z
#
# Youngs Moduli (GPa) = 17.03482 83.32256 52.46398
#
# Poissons Ratio (x) = 0.39459 1.23133
# Poissons Ratio (y) = 0.08067 0.02508
# Poissons Ratio (z) = 0.39981 0.03983
#
# Static dielectric constant tensor:
#      x y z
#    x 2.892530 0.000000 0.011100 
#    y 0.000000 3.189800 0.000000 
#    z 0.011100 0.000000 3.002430 
# 
# 
# High freq. dielectric constant tensor:
#      x y z
#    x 1.608460 0.000000 -0.002890 
#    y 0.000000 1.651590 0.000000 
#    z -0.002890 0.000000 1.621290 
# 
# From -- ./inp_files/26862.got.cif
#   From: 2010.06.25/outbox.cif.g09.slc.cpg/sg10_14_cif.got.tgz:26862.got - 2010.06.27 22:07:45.
