data_PCOD8060145
_publ_section_title
;
Structure prediction by ZEFSAII (Michael W. Deem and Ramdas Pophale) SiO2 
 PCOD8060145
Probable space group: P 2/M
;
_chemical_formula_sum "Si O2"
_cell_formula_units_Z 32
_cell_length_a 12.457803
_cell_length_b 14.059208
_cell_length_c 14.494143
_cell_angle_alpha 90.000000
_cell_angle_beta 40.397123
_cell_angle_gamma 90.000000
_cell_volume 1645.222306
_symmetry_space_group_name_H-M "P 2/M"
_symmetry_group_IT_number 10
_symmetry_cell_setting 'monoclinic'
loop_
_space_group_symop_operation_xyz
x,y,z
-x,y,-z
-x,-y,-z
x,-y,z
loop_
_atom_site_type_symbol
_atom_site_label
_atom_site_fract_x
_atom_site_fract_y
_atom_site_fract_z
Si Si1 0.824465 0.111800 0.648640
Si Si2 0.940770 0.393698 0.635321
Si Si3 0.654132 0.301053 0.139152
Si Si4 0.530857 0.107314 0.188017
Si Si5 0.809284 0.893235 0.863631
Si Si6 0.035522 0.289891 0.188846
Si Si7 0.843250 0.607519 0.168836
Si Si8 0.556065 0.394398 0.867731
O O1 0.662829 0.136943 0.693397
O O2 0.788049 0.148747 0.775056
O O3 0.000000 0.156712 0.500000
O O4 0.843458 0.000000 0.638982
O O5 0.017000 0.500000 0.598961
O O6 0.986070 0.330570 0.694275
O O7 0.748846 0.401885 0.746864
O O8 0.000000 0.346624 0.500000
O O9 0.626079 0.189099 0.184137
O O10 0.684459 0.354619 0.215902
O O11 0.490144 0.336153 0.194052
O O12 0.799652 0.326698 0.970982
O O13 0.547719 0.000000 0.219870
O O14 0.625633 0.108859 0.027597
O O15 0.945621 0.825109 0.823342
O O16 0.883098 0.000000 0.818055
O O17 0.875322 0.323811 0.235479
O O18 0.809636 0.500000 0.224874
O O19 0.000000 0.612051 0.000000
O O20 0.475089 0.500000 0.913919
O O21 0.500000 0.343868 0.000000
#
# Coordination Sequence:
#
# PCOD8060145 Si02
#       8
#     4   4   4   4   4   4   4   4
#     4   9  17  29  46  71 102 136 174 215 255 302
#     4  10  21  35  51  76 108 137 165 207 269 327
#     4  10  19  31  52  77 103 134 178 216 258 308
#     4   9  18  31  47  70 105 141 171 208 259 312
#     4   9  18  31  47  70 103 140 174 209 257 310
#     4  10  19  32  52  75 104 137 176 214 260 311
#     4   9  18  32  52  78 104 132 171 223 269 307
#     4  10  19  31  50  75 104 133 164 210 264 312
#
# _framework density 19.45026
#
# number of rings (size 3 to 8) (size 9 to 14) (size 15 to 20)
#    0.000    2.500    1.250    1.125    1.750    3.000 
#    0.000    0.625    0.000    4.500    0.000    3.500 
#    0.000    4.000    0.000    0.000    0.000    0.000 
#
# Total GULP energy -396418.035872 kJ/mol
# GULP energy per Si atom -12388.063621 kJ/mol
# Density = 1.940599 g / cm^3
# Si number density = 19.450260 Si / 1000 Ang^3
#
#
#
# Elastic Constant Matrix: (Units=GPa)
#
#
# Indices 1 2 3 4 5 6 
#
# 1 109.6062 51.6891 19.0508 0.0000 6.2452 0.0000
# 2 51.6891 95.2452 15.0782 0.0000 3.1741 0.0000
# 3 19.0508 15.0782 66.0144 0.0000 1.4316 0.0000
# 4 0.0000 0.0000 0.0000 13.7117 0.0000 -2.5109
# 5 6.2452 3.1741 1.4316 0.0000 14.5169 0.0000
# 6 0.0000 0.0000 0.0000 -2.5109 0.0000 30.6488
#
#
#
# Elastic Compliance Matrix: (Units=1/GPa)
#
#
# Indices 1 2 3 4 5 6 
#
# 1 0.012759 -0.006459 -0.002123 0.000000 -0.003867 0.000000
# 2 -0.006459 0.014230 -0.001382 0.000000 -0.000196 0.000000
# 3 -0.002123 -0.001382 0.016085 0.000000 -0.000371 0.000000
# 4 0.000000 0.000000 0.000000 0.074041 0.000000 0.006066
# 5 -0.003867 -0.000196 -0.000371 0.000000 0.070628 0.000000
# 6 0.000000 0.000000 0.000000 0.006066 0.000000 0.033125
#
#
# Mechanical properties :
#
#
# Convention : Reuss Voigt Hill
#
# Bulk Modulus (GPa) = 43.20523 49.16690 46.18607
# Shear Modulus (GPa) = 20.11984 24.11200 22.11592
#
# Velocity S-wave (km/s) = 3.21974 3.52472 3.37568
# Velocity P-wave (km/s) = 6.00697 6.47287 6.24427
#
# Compressibility (1/GPa) = 0.02314535
#
# Stress axis : x y z
#
# Youngs Moduli (GPa) = 78.37568 70.27422 62.17161
#
# Poissons Ratio (x) = 0.45392 0.13198
# Poissons Ratio (y) = 0.50625 0.08592
# Poissons Ratio (z) = 0.16638 0.09711
#
# Static dielectric constant tensor:
#      x y z
#    x 3.382460 0.000000 -0.010470 
#    y 0.000000 3.869260 0.000000 
#    z -0.010470 0.000000 3.374520 
# 
# 
# High freq. dielectric constant tensor:
#      x y z
#    x 1.723220 0.000000 -0.002460 
#    y 0.000000 1.769860 0.000000 
#    z -0.002460 0.000000 1.725650 
# 
# From -- ./inp_files/42962.got.cif
#   From: 2010.06.25/outbox.cif.g09.slc.cpg/sg10_22_cif.got.tgz:42962.got - 2010.06.27 22:07:45.
