data_PCOD8060875
_publ_section_title
;
Structure prediction by ZEFSAII (Michael W. Deem and Ramdas Pophale) SiO2 
 PCOD8060875
Probable space group: P 2/M
;
_chemical_formula_sum "Si O2"
_cell_formula_units_Z 28
_cell_length_a 29.539127
_cell_length_b 8.879544
_cell_length_c 9.863294
_cell_angle_alpha 90.000000
_cell_angle_beta 146.948084
_cell_angle_gamma 90.000000
_cell_volume 1410.991588
_symmetry_space_group_name_H-M "P 2/M"
_symmetry_group_IT_number 10
_symmetry_cell_setting 'monoclinic'
loop_
_space_group_symop_operation_xyz
x,y,z
-x,y,-z
-x,-y,-z
x,-y,z
loop_
_atom_site_type_symbol
_atom_site_label
_atom_site_fract_x
_atom_site_fract_y
_atom_site_fract_z
Si Si1 0.361938 0.324446 0.789876
Si Si2 0.186871 0.179465 0.003374
Si Si3 0.629619 0.821605 0.466349
Si Si4 0.878534 0.179413 0.444679
Si Si5 0.503797 0.323846 0.352981
Si Si6 0.936909 0.175608 0.084330
Si Si7 0.803818 0.175173 0.532262
O O1 0.361018 0.500000 0.756769
O O2 0.400580 0.244629 0.753766
O O3 0.269197 0.269068 0.583822
O O4 0.417211 0.286404 0.060584
O O5 0.165115 0.240477 0.799887
O O6 0.117947 0.246481 0.932269
O O7 0.186001 0.000000 0.004703
O O8 0.277061 0.237200 0.273770
O O9 0.575693 0.765224 0.456771
O O10 0.623702 0.000000 0.444104
O O11 0.820170 0.232907 0.421293
O O12 0.971403 0.248797 0.689534
O O13 0.884472 0.000000 0.463130
O O14 0.500000 0.269130 0.500000
O O15 0.524553 0.500000 0.398219
O O16 0.947087 0.000000 0.139489
O O17 0.890234 0.204334 0.826259
O O18 0.778445 0.000000 0.476707
#
# Coordination Sequence:
#
# PCOD8060875 Si02
#       7
#     4   4   4   4   4   4   4
#     4  11  23  40  61  82 110 152 194 227 276 341
#     4   9  17  29  47  79 115 145 179 224 275 331
#     4  11  22  38  61  90 119 146 185 234 283 330
#     4   9  17  27  47  78 114 150 181 225 282 330
#     4  10  24  44  63  85 114 148 187 228 276 342
#     4   9  15  28  48  75 112 149 184 224 275 330
#     4  10  19  32  53  83 114 142 185 237 280 325
#
# _framework density 19.844201000000002
#
# number of rings (size 3 to 8) (size 9 to 14) (size 15 to 20)
#    0.000    2.143    1.429    2.143    2.000    6.571 
#    0.000    0.000    0.000    1.714    0.000    1.000 
#    0.000    0.000    0.000    0.000    0.000    0.000 
#
# Total GULP energy -347195.666135 kJ/mol
# GULP energy per Si atom -12399.845219 kJ/mol
# Density = 1.979903 g / cm^3
# Si number density = 19.844201 Si / 1000 Ang^3
#
#
#
# Elastic Constant Matrix: (Units=GPa)
#
#
# Indices 1 2 3 4 5 6 
#
# 1 144.6662 37.3710 50.7877 0.0000 -17.7942 0.0000
# 2 37.3710 41.8772 33.4748 0.0000 -1.3231 0.0000
# 3 50.7877 33.4748 100.4447 0.0000 -11.8851 0.0000
# 4 0.0000 0.0000 0.0000 11.3192 0.0000 -5.0062
# 5 -17.7942 -1.3231 -11.8851 0.0000 40.8428 0.0000
# 6 0.0000 0.0000 0.0000 -5.0062 0.0000 19.8033
#
#
#
# Elastic Compliance Matrix: (Units=1/GPa)
#
#
# Indices 1 2 3 4 5 6 
#
# 1 0.009930 -0.006903 -0.002315 0.000000 0.003429 0.000000
# 2 -0.006903 0.037537 -0.009561 0.000000 -0.004574 0.000000
# 3 -0.002315 -0.009561 0.014661 0.000000 0.002948 0.000000
# 4 0.000000 0.000000 0.000000 0.099467 0.000000 0.025145
# 5 0.003429 -0.004574 0.002948 0.000000 0.026688 0.000000
# 6 0.000000 0.000000 0.000000 0.025145 0.000000 0.056853
#
#
# Mechanical properties :
#
#
# Convention : Reuss Voigt Hill
#
# Bulk Modulus (GPa) = 40.69681 58.91721 49.80701
# Shear Modulus (GPa) = 17.18900 25.41670 21.30285
#
# Velocity S-wave (km/s) = 2.94632 3.58273 3.27999
# Velocity P-wave (km/s) = 5.66807 6.84609 6.28474
#
# Compressibility (1/GPa) = 0.02457195
#
# Stress axis : x y z
#
# Youngs Moduli (GPa) = 100.70433 26.64005 68.20725
#
# Poissons Ratio (x) = 0.18390 0.15788
# Poissons Ratio (y) = 0.69516 0.65211
# Poissons Ratio (z) = 0.23310 0.25470
#
# Static dielectric constant tensor:
#      x y z
#    x 3.811600 0.000000 -0.093160 
#    y 0.000000 3.104940 0.000000 
#    z -0.093160 0.000000 3.815050 
# 
# 
# High freq. dielectric constant tensor:
#      x y z
#    x 1.790150 0.000000 -0.003830 
#    y 0.000000 1.718080 0.000000 
#    z -0.003830 0.000000 1.786240 
# 
# From -- ./inp_files/37283.got.cif
#   From: 2010.06.25/outbox.cif.g09.slc.cpg/sg10_19_cif.got.tgz:37283.got - 2010.06.27 22:07:45.
