data_PCOD8060315
_publ_section_title
;
Structure prediction by ZEFSAII (Michael W. Deem and Ramdas Pophale) SiO2 
 PCOD8060315
Probable space group: P 2/M
;
_chemical_formula_sum "Si O2"
_cell_formula_units_Z 32
_cell_length_a 17.954339
_cell_length_b 13.084095
_cell_length_c 15.245866
_cell_angle_alpha 90.000000
_cell_angle_beta 29.304521
_cell_angle_gamma 90.000000
_cell_volume 1752.970714
_symmetry_space_group_name_H-M "P 2/M"
_symmetry_group_IT_number 10
_symmetry_cell_setting 'monoclinic'
loop_
_space_group_symop_operation_xyz
x,y,z
-x,y,-z
-x,-y,-z
x,-y,z
loop_
_atom_site_type_symbol
_atom_site_label
_atom_site_fract_x
_atom_site_fract_y
_atom_site_fract_z
Si Si1 0.801998 0.617182 0.000683
Si Si2 0.161351 0.813173 0.801866
Si Si3 0.684759 0.295363 0.621227
Si Si4 0.837429 0.379963 0.628953
Si Si5 0.634444 0.382886 0.999854
Si Si6 0.135075 0.381316 0.719627
Si Si7 0.357361 0.115960 0.452569
Si Si8 0.598258 0.236519 0.318649
O O1 0.785872 0.500000 0.042204
O O2 0.767356 0.637518 0.934115
O O3 0.674192 0.671913 0.188718
O O4 0.973517 0.653587 0.844014
O O5 0.162579 0.691500 0.775409
O O6 0.212407 0.880100 0.666250
O O7 0.272675 0.833693 0.769445
O O8 0.000000 0.852523 0.000000
O O9 0.805195 0.315004 0.574825
O O10 0.515147 0.318588 0.827332
O O11 0.731698 0.363523 0.488575
O O12 0.685552 0.176373 0.592274
O O13 0.838513 0.500000 0.603930
O O14 0.000000 0.346301 0.500000
O O15 0.704434 0.353534 0.834224
O O16 0.582594 0.500000 0.053890
O O17 0.136336 0.500000 0.747895
O O18 0.501387 0.167611 0.352028
O O19 0.396094 0.000000 0.387530
O O20 0.500000 0.282877 0.500000
#
# Coordination Sequence:
#
# PCOD8060315 Si02
#       8
#     4   4   4   4   4   4   4   4
#     4  10  19  32  50  77 114 151 180 211 258 321
#     4  10  20  34  56  80 108 138 185 231 268 329
#     4  11  20  35  57  80 108 143 181 227 266 320
#     4  10  20  34  55  86 120 151 178 204 251 318
#     4  10  19  31  52  83 114 146 184 217 251 311
#     4  10  20  32  50  77 116 155 177 208 266 330
#     4  10  23  41  59  77 101 138 182 238 294 325
#     4  10  20  36  53  75 105 141 181 228 275 325
#
# _framework density 18.254725000000001
#
# number of rings (size 3 to 8) (size 9 to 14) (size 15 to 20)
#    0.000    1.875    2.500    2.250    0.000    6.500 
#    0.000    0.000    0.000    1.875    0.000    0.000 
#    0.000    0.000    0.000    0.000    0.000    0.000 
#
# Total GULP energy -396779.530078 kJ/mol
# GULP energy per Si atom -12399.360315 kJ/mol
# Density = 1.821318 g / cm^3
# Si number density = 18.254725 Si / 1000 Ang^3
#
#
#
# Elastic Constant Matrix: (Units=GPa)
#
#
# Indices 1 2 3 4 5 6 
#
# 1 98.8328 41.5480 29.5436 0.0000 -4.1570 0.0000
# 2 41.5480 77.8963 23.2541 0.0000 0.7168 0.0000
# 3 29.5436 23.2541 96.5167 0.0000 -8.3077 0.0000
# 4 0.0000 0.0000 0.0000 11.7014 0.0000 1.7034
# 5 -4.1570 0.7168 -8.3077 0.0000 29.2007 0.0000
# 6 0.0000 0.0000 0.0000 1.7034 0.0000 12.6952
#
#
#
# Elastic Compliance Matrix: (Units=1/GPa)
#
#
# Indices 1 2 3 4 5 6 
#
# 1 0.013681 -0.006568 -0.002485 0.000000 0.001402 0.000000
# 2 -0.006568 0.017036 -0.002266 0.000000 -0.001998 0.000000
# 3 -0.002485 -0.002266 0.011934 0.000000 0.003097 0.000000
# 4 0.000000 0.000000 0.000000 0.087162 0.000000 -0.011695
# 5 0.001402 -0.001998 0.003097 0.000000 0.035376 0.000000
# 6 0.000000 0.000000 0.000000 -0.011695 0.000000 0.080339
#
#
# Mechanical properties :
#
#
# Convention : Reuss Voigt Hill
#
# Bulk Modulus (GPa) = 49.96699 51.32634 50.64667
# Shear Modulus (GPa) = 18.19266 22.64614 20.41940
#
# Velocity S-wave (km/s) = 3.16032 3.52598 3.34815
# Velocity P-wave (km/s) = 6.38344 6.68988 6.53846
#
# Compressibility (1/GPa) = 0.02001321
#
# Stress axis : x y z
#
# Youngs Moduli (GPa) = 73.09414 58.69999 83.79466
#
# Poissons Ratio (x) = 0.38556 0.20819
# Poissons Ratio (y) = 0.48010 0.18987
# Poissons Ratio (z) = 0.18160 0.13301
#
# Static dielectric constant tensor:
#      x y z
#    x 3.562410 0.000000 -0.093490 
#    y 0.000000 2.980510 0.000000 
#    z -0.093490 0.000000 3.537300 
# 
# 
# High freq. dielectric constant tensor:
#      x y z
#    x 1.713790 0.000000 -0.007720 
#    y 0.000000 1.660490 0.000000 
#    z -0.007720 0.000000 1.721630 
# 
# From -- ./inp_files/28613.got.cif
#   From: 2010.06.25/outbox.cif.g09.slc.cpg/sg10_15_cif.got.tgz:28613.got - 2010.06.27 22:07:45.
