data_PCOD8060212
_publ_section_title
;
Structure prediction by ZEFSAII (Michael W. Deem and Ramdas Pophale) SiO2 
 PCOD8060212
Probable space group: P 2/M
;
_chemical_formula_sum "Si O2"
_cell_formula_units_Z 32
_cell_length_a 23.570284
_cell_length_b 9.484796
_cell_length_c 18.271683
_cell_angle_alpha 90.000000
_cell_angle_beta 155.184242
_cell_angle_gamma 90.000000
_cell_volume 1714.399861
_symmetry_space_group_name_H-M "P 2/M"
_symmetry_group_IT_number 10
_symmetry_cell_setting 'monoclinic'
loop_
_space_group_symop_operation_xyz
x,y,z
-x,y,-z
-x,-y,-z
x,-y,z
loop_
_atom_site_type_symbol
_atom_site_label
_atom_site_fract_x
_atom_site_fract_y
_atom_site_fract_z
Si Si1 0.426626 0.835970 0.837938
Si Si2 0.638982 0.667312 0.634078
Si Si3 0.124847 0.155448 0.311029
Si Si4 0.872142 0.663978 0.180797
Si Si5 0.877676 0.844766 0.522336
Si Si6 0.878873 0.335750 0.017772
Si Si7 0.353914 0.338902 0.522945
Si Si8 0.416012 0.661308 0.099700
O O1 0.272255 0.779297 0.665793
O O2 0.510348 0.754680 0.874548
O O3 0.421610 0.000000 0.809226
O O4 0.500000 0.811104 0.000000
O O5 0.500000 0.734385 0.500000
O O6 0.629899 0.500000 0.625170
O O7 0.659342 0.718339 0.574982
O O8 0.755940 0.720716 0.824711
O O9 0.094007 0.138533 0.359501
O O10 0.265325 0.236836 0.469017
O O11 0.006839 0.249134 0.137165
O O12 0.131200 0.000000 0.281762
O O13 0.899898 0.500000 0.226007
O O14 0.848754 0.694451 0.067529
O O15 0.002271 0.744762 0.367373
O O16 0.737556 0.713347 0.066488
O O17 0.887487 0.000000 0.496391
O O18 0.907764 0.500000 0.037855
O O19 0.301838 0.500000 0.468200
O O20 0.506692 0.327918 0.731890
O O21 0.416998 0.500000 0.073199
#
# Coordination Sequence:
#
# PCOD8060212 Si02
#       8
#     4   4   4   4   4   4   4   4
#     4  10  21  38  59  81 106 137 174 215 258 309
#     4   9  17  30  49  72  98 131 172 218 263 304
#     4  10  19  32  50  72 100 134 172 215 259 307
#     4   9  18  32  53  80 107 139 175 215 261 307
#     4   9  18  34  54  77 103 135 175 213 254 308
#     4   9  17  31  51  73 101 135 175 218 259 304
#     4  10  19  31  51  76 101 132 172 215 259 307
#     4  10  20  34  54  82 111 135 171 218 263 315
#
# _framework density 18.665423000000001
#
# number of rings (size 3 to 8) (size 9 to 14) (size 15 to 20)
#    0.000    2.500    1.250    1.125    0.000    5.250 
#    0.000    3.750    0.000    6.750    0.000    0.000 
#    0.000    0.000    0.000    0.000    0.000    0.000 
#
# Total GULP energy -396682.046095 kJ/mol
# GULP energy per Si atom -12396.313940 kJ/mol
# Density = 1.862294 g / cm^3
# Si number density = 18.665423 Si / 1000 Ang^3
#
#
#
# Elastic Constant Matrix: (Units=GPa)
#
#
# Indices 1 2 3 4 5 6 
#
# 1 56.8776 37.2976 49.0754 0.0000 13.8326 0.0000
# 2 37.2976 74.8558 55.8470 0.0000 16.4613 0.0000
# 3 49.0754 55.8470 146.0003 0.0000 25.0223 0.0000
# 4 0.0000 0.0000 0.0000 22.1562 0.0000 2.7438
# 5 13.8326 16.4613 25.0223 0.0000 32.8693 0.0000
# 6 0.0000 0.0000 0.0000 2.7438 0.0000 15.6559
#
#
#
# Elastic Compliance Matrix: (Units=1/GPa)
#
#
# Indices 1 2 3 4 5 6 
#
# 1 0.029732 -0.009877 -0.005657 0.000000 -0.003259 0.000000
# 2 -0.009877 0.022574 -0.004703 0.000000 -0.003568 0.000000
# 3 -0.005657 -0.004703 0.011199 0.000000 -0.003789 0.000000
# 4 0.000000 0.000000 0.000000 0.046135 0.000000 -0.008085
# 5 -0.003259 -0.003568 -0.003789 0.000000 0.036467 0.000000
# 6 0.000000 0.000000 0.000000 -0.008085 0.000000 0.065291
#
#
# Mechanical properties :
#
#
# Convention : Reuss Voigt Hill
#
# Bulk Modulus (GPa) = 43.42067 62.46375 52.94221
# Shear Modulus (GPa) = 19.26403 23.17051 21.21727
#
# Velocity S-wave (km/s) = 3.21607 3.52712 3.37518
# Velocity P-wave (km/s) = 6.09130 7.07990 6.60413
#
# Compressibility (1/GPa) = 0.02303050
#
# Stress axis : x y z
#
# Youngs Moduli (GPa) = 33.63337 44.29887 89.29000
#
# Poissons Ratio (x) = 0.43754 0.50514
# Poissons Ratio (y) = 0.33220 0.41996
# Poissons Ratio (z) = 0.19028 0.20835
#
# Static dielectric constant tensor:
#      x y z
#    x 3.195430 0.000000 0.096290 
#    y 0.000000 3.438440 0.000000 
#    z 0.096290 0.000000 3.598850 
# 
# 
# High freq. dielectric constant tensor:
#      x y z
#    x 1.701220 0.000000 0.010130 
#    y 0.000000 1.705540 0.000000 
#    z 0.010130 0.000000 1.736020 
# 
# From -- ./inp_files/87029.got.cif
#   From: 2010.06.25/outbox.cif.g09.slc.cpg/sg10_44_cif.got.tgz:87029.got - 2010.06.27 22:07:45.
