data_PCOD8060851
_publ_section_title
;
Structure prediction by ZEFSAII (Michael W. Deem and Ramdas Pophale) SiO2 
 PCOD8060851
Probable space group: P 2/M
;
_chemical_formula_sum "Si O2"
_cell_formula_units_Z 28
_cell_length_a 14.667960
_cell_length_b 8.963627
_cell_length_c 12.601706
_cell_angle_alpha 90.000000
_cell_angle_beta 122.156227
_cell_angle_gamma 90.000000
_cell_volume 1402.688106
_symmetry_space_group_name_H-M "P 2/M"
_symmetry_group_IT_number 10
_symmetry_cell_setting 'monoclinic'
loop_
_space_group_symop_operation_xyz
x,y,z
-x,y,-z
-x,-y,-z
x,-y,z
loop_
_atom_site_type_symbol
_atom_site_label
_atom_site_fract_x
_atom_site_fract_y
_atom_site_fract_z
Si Si1 0.403023 0.827220 0.003729
Si Si2 0.800828 0.672580 0.649305
Si Si3 0.808100 0.666921 0.885443
Si Si4 0.832986 0.822824 0.119384
Si Si5 0.565747 0.666731 0.772593
Si Si6 0.998148 0.327019 0.621912
Si Si7 0.413923 0.835730 0.537718
O O1 0.282932 0.762958 0.908745
O O2 0.401752 0.000000 0.975179
O O3 0.500000 0.746437 0.000000
O O4 0.431428 0.799048 0.141938
O O5 0.763316 0.500000 0.626835
O O6 0.857042 0.709604 0.799450
O O7 0.881952 0.701687 0.602151
O O8 0.701560 0.782881 0.573657
O O9 0.842476 0.500000 0.939462
O O10 0.679619 0.675747 0.782598
O O11 0.850608 0.768771 0.008439
O O12 0.918211 0.764584 0.256090
O O13 0.837335 0.000000 0.118283
O O14 0.550391 0.500000 0.810629
O O15 0.460920 0.704856 0.639853
O O16 0.030617 0.500000 0.647348
O O17 0.000000 0.272228 0.500000
O O18 0.500000 0.856407 0.500000
O O19 0.399828 0.000000 0.583247
#
# Coordination Sequence:
#
# PCOD8060851 Si02
#       7
#     4   4   4   4   4   4   4
#     4   9  19  36  56  81 114 150 190 234 283 340
#     4  10  21  38  60  85 114 153 198 240 287 343
#     4   9  18  34  57  84 113 145 184 231 284 343
#     4  10  21  37  60  85 113 150 187 235 292 342
#     4  10  19  32  53  80 113 151 188 232 279 334
#     4  10  23  43  63  83 112 151 196 244 288 336
#     4  11  22  34  53  83 119 154 185 227 286 346
#
# _framework density 19.961670999999999
#
# number of rings (size 3 to 8) (size 9 to 14) (size 15 to 20)
#    0.000    2.143    1.429    1.286    0.000    5.143 
#    0.000    5.714    0.000    0.000    0.000    0.000 
#    0.000    0.000    0.000    0.000    0.000    0.000 
#
# Total GULP energy -346893.992768 kJ/mol
# GULP energy per Si atom -12389.071170 kJ/mol
# Density = 1.991624 g / cm^3
# Si number density = 19.961671 Si / 1000 Ang^3
#
#
#
# Elastic Constant Matrix: (Units=GPa)
#
#
# Indices 1 2 3 4 5 6 
#
# 1 94.9639 34.2225 46.7343 0.0000 -14.1613 0.0000
# 2 34.2225 66.8912 44.4483 0.0000 5.6174 0.0000
# 3 46.7343 44.4483 121.0064 0.0000 0.4746 0.0000
# 4 0.0000 0.0000 0.0000 21.1313 0.0000 -42.6602
# 5 -14.1613 5.6174 0.4746 0.0000 26.3593 0.0000
# 6 0.0000 0.0000 0.0000 -42.6602 0.0000 -181.9928
#
#
#
# Elastic Compliance Matrix: (Units=1/GPa)
#
#
# Indices 1 2 3 4 5 6 
#
# 1 0.016393 -0.006637 -0.003933 0.000000 0.010292 0.000000
# 2 -0.006637 0.022914 -0.005821 0.000000 -0.008344 0.000000
# 3 -0.003933 -0.005821 0.011925 0.000000 -0.001087 0.000000
# 4 0.000000 0.000000 0.000000 0.032122 0.000000 -0.007530
# 5 0.010292 -0.008344 -0.001087 0.000000 0.045264 0.000000
# 6 0.000000 0.000000 0.000000 -0.007530 0.000000 -0.003730
#
#
# Mechanical properties :
#
#
# Convention : Reuss Voigt Hill
#
# Bulk Modulus (GPa) = 54.20257 59.29685 56.74971
# Shear Modulus (GPa) = 30.52099 -16.40333 7.05883
#
# Velocity S-wave (km/s) = 3.91446 -2.86971 1.88252
# Velocity P-wave (km/s) = 6.90239 4.33469 5.76335
#
# Compressibility (1/GPa) = 0.01844931
#
# Stress axis : x y z
#
# Youngs Moduli (GPa) = 61.00240 43.64168 83.85426
#
# Poissons Ratio (x) = 0.28967 0.32983
# Poissons Ratio (y) = 0.40490 0.48808
# Poissons Ratio (z) = 0.23995 0.25402
#
# Static dielectric constant tensor:
#      x y z
#    x 3.805430 0.000000 -0.173200 
#    y 0.000000 3.568170 0.000000 
#    z -0.173200 0.000000 3.303350 
# 
# 
# High freq. dielectric constant tensor:
#      x y z
#    x 1.774620 0.000000 0.000990 
#    y 0.000000 1.773750 0.000000 
#    z 0.000990 0.000000 1.771430 
# 
# From -- ./inp_files/49652.got.cif
#   From: 2010.06.25/outbox.cif.g09.slc.cpg/sg10_25_cif.got.tgz:49652.got - 2010.06.27 22:07:45.
