data_PCOD8060226
_publ_section_title
;
Structure prediction by ZEFSAII (Michael W. Deem and Ramdas Pophale) SiO2 
 PCOD8060226
Probable space group: P 2/M
;
_chemical_formula_sum "Si O2"
_cell_formula_units_Z 32
_cell_length_a 31.418047
_cell_length_b 9.103130
_cell_length_c 24.320015
_cell_angle_alpha 90.000000
_cell_angle_beta 164.943089
_cell_angle_gamma 90.000000
_cell_volume 1806.910880
_symmetry_space_group_name_H-M "P 2/M"
_symmetry_group_IT_number 10
_symmetry_cell_setting 'monoclinic'
loop_
_space_group_symop_operation_xyz
x,y,z
-x,y,-z
-x,-y,-z
x,-y,z
loop_
_atom_site_type_symbol
_atom_site_label
_atom_site_fract_x
_atom_site_fract_y
_atom_site_fract_z
Si Si1 0.909678 0.674235 0.258038
Si Si2 0.191297 0.674863 0.986220
Si Si3 0.854956 0.173506 0.856258
Si Si4 0.623873 0.326346 0.983483
Si Si5 0.140190 0.325982 0.634165
Si Si6 0.471581 0.174090 0.609084
Si Si7 0.016925 0.171440 0.866919
Si Si8 0.638711 0.170613 0.407839
O O1 0.910036 0.500000 0.257437
O O2 0.756151 0.726875 0.103217
O O3 0.083624 0.730005 0.502626
O O4 0.890327 0.734638 0.172247
O O5 0.205245 0.500000 0.004563
O O6 0.370422 0.743178 0.216667
O O7 0.075582 0.728990 0.890286
O O8 0.679074 0.230227 0.616307
O O9 0.862386 0.000000 0.857709
O O10 0.000000 0.243375 0.000000
O O11 0.878522 0.216657 0.949144
O O12 0.600124 0.500000 0.952026
O O13 0.685893 0.274209 0.122333
O O14 0.450472 0.252892 0.753652
O O15 0.142893 0.500000 0.637091
O O16 0.000000 0.269817 0.500000
O O17 0.436277 0.221708 0.627631
O O18 0.497703 0.000000 0.636479
O O19 0.829154 0.210071 0.644740
O O20 0.040273 0.000000 0.881802
O O21 0.610098 0.000000 0.363228
#
# Coordination Sequence:
#
# PCOD8060226 Si02
#       8
#     4   4   4   4   4   4   4   4
#     4   8  14  26  45  70  99 131 165 203 245 287
#     4  11  22  35  51  75 108 139 166 201 249 306
#     4   9  16  32  58  80  96 123 171 219 249 284
#     4   9  15  26  48  75 100 127 163 207 251 295
#     4   7  11  21  41  69  96 124 163 206 244 281
#     4  10  19  33  56  80  99 127 168 212 254 294
#     4  10  21  37  55  75 100 132 171 212 251 294
#     4  10  19  31  51  77 103 129 162 209 257 299
#
# _framework density 17.709783000000002
#
# number of rings (size 3 to 8) (size 9 to 14) (size 15 to 20)
#    0.000    2.750    2.500    1.875    0.000    1.000 
#    0.000    3.125    0.000    6.375    0.000    5.250 
#    0.000    0.000    0.000    0.000    0.000    0.000 
#
# Total GULP energy -396498.617728 kJ/mol
# GULP energy per Si atom -12390.581804 kJ/mol
# Density = 1.766947 g / cm^3
# Si number density = 17.709783 Si / 1000 Ang^3
#
#
#
# Elastic Constant Matrix: (Units=GPa)
#
#
# Indices 1 2 3 4 5 6 
#
# 1 59.0622 20.6858 29.3829 0.0000 -12.2616 0.0000
# 2 20.6858 30.0149 30.6436 0.0000 -2.9791 0.0000
# 3 29.3829 30.6436 110.1563 0.0000 -33.3517 0.0000
# 4 0.0000 0.0000 0.0000 19.8245 0.0000 -5.8888
# 5 -12.2616 -2.9791 -33.3517 0.0000 33.2429 0.0000
# 6 0.0000 0.0000 0.0000 -5.8888 0.0000 3.7958
#
#
#
# Elastic Compliance Matrix: (Units=1/GPa)
#
#
# Indices 1 2 3 4 5 6 
#
# 1 0.024028 -0.016315 0.000531 0.000000 0.007934 0.000000
# 2 -0.016315 0.061643 -0.018594 0.000000 -0.019148 0.000000
# 3 0.000531 -0.018594 0.019625 0.000000 0.018219 0.000000
# 4 0.000000 0.000000 0.000000 0.093558 0.000000 0.145146
# 5 0.007934 -0.019148 0.018219 0.000000 0.049570 0.000000
# 6 0.000000 0.000000 0.000000 0.145146 0.000000 0.488628
#
#
# Mechanical properties :
#
#
# Convention : Reuss Voigt Hill
#
# Bulk Modulus (GPa) = 27.36592 40.07312 33.71952
# Shear Modulus (GPa) = 6.11257 19.27405 12.69331
#
# Velocity S-wave (km/s) = 1.85984 3.30256 2.68010
# Velocity P-wave (km/s) = 4.48308 6.10077 5.35338
#
# Compressibility (1/GPa) = 0.03654180
#
# Stress axis : x y z
#
# Youngs Moduli (GPa) = 41.61788 16.22240 50.95630
#
# Poissons Ratio (x) = 0.26467 -0.02708
# Poissons Ratio (y) = 0.67899 0.94746
# Poissons Ratio (z) = -0.02211 0.30163
#
# Static dielectric constant tensor:
#      x y z
#    x 3.289950 0.000000 -0.430880 
#    y 0.000000 2.857560 0.000000 
#    z -0.430880 0.000000 3.630940 
# 
# 
# High freq. dielectric constant tensor:
#      x y z
#    x 1.665740 0.000000 -0.027330 
#    y 0.000000 1.641370 0.000000 
#    z -0.027330 0.000000 1.698500 
# 
# From -- ./inp_files/86108.got.cif
#   From: 2010.06.25/outbox.cif.g09.slc.cpg/sg10_44_cif.got.tgz:86108.got - 2010.06.27 22:07:45.
