data_PCOD8060962
_publ_section_title
;
Structure prediction by ZEFSAII (Michael W. Deem and Ramdas Pophale) SiO2 
 PCOD8060962
Probable space group: P 2/M
;
_chemical_formula_sum "Si O2"
_cell_formula_units_Z 28
_cell_length_a 9.168142
_cell_length_b 13.233500
_cell_length_c 13.755938
_cell_angle_alpha 90.000000
_cell_angle_beta 60.205118
_cell_angle_gamma 90.000000
_cell_volume 1448.341031
_symmetry_space_group_name_H-M "P 2/M"
_symmetry_group_IT_number 10
_symmetry_cell_setting 'monoclinic'
loop_
_space_group_symop_operation_xyz
x,y,z
-x,y,-z
-x,-y,-z
x,-y,z
loop_
_atom_site_type_symbol
_atom_site_label
_atom_site_fract_x
_atom_site_fract_y
_atom_site_fract_z
Si Si1 0.188106 0.194952 0.464359
Si Si2 0.506083 0.885115 0.271378
Si Si3 0.667668 0.238117 0.389529
Si Si4 0.233513 0.382904 0.323511
Si Si5 0.482621 0.724150 0.890867
Si Si6 0.955578 0.383911 0.266843
Si Si7 0.847612 0.612883 0.977514
O O1 0.311962 0.118097 0.368614
O O2 0.214477 0.180544 0.571135
O O3 0.238450 0.310332 0.415961
O O4 0.000000 0.164260 0.500000
O O5 0.624689 0.833088 0.313065
O O6 0.518886 0.831562 0.162739
O O7 0.565424 0.000000 0.239569
O O8 0.500000 0.275509 0.500000
O O9 0.773033 0.333904 0.318587
O O10 0.264585 0.500000 0.343132
O O11 0.372690 0.349358 0.198639
O O12 0.045521 0.369948 0.341490
O O13 0.500000 0.740614 0.000000
O O14 0.303319 0.675664 0.926987
O O15 0.923627 0.500000 0.251535
O O16 0.084556 0.337623 0.145040
O O17 0.780214 0.500000 0.979190
O O18 0.000000 0.612292 0.000000
#
# Coordination Sequence:
#
# PCOD8060962 Si02
#       7
#     4   4   4   4   4   4   4
#     4  10  20  36  60  88 114 147 194 239 281 341
#     4  10  24  43  60  82 110 147 193 247 310 356
#     4  10  21  38  60  81 116 156 191 237 288 347
#     4  10  20  33  55  89 126 158 189 226 270 334
#     4  11  21  37  62  87 115 154 194 244 286 342
#     4  10  19  32  54  85 121 157 191 227 271 331
#     4  10  20  33  54  86 122 159 194 228 273 336
#
# _framework density 19.332463000000001
#
# number of rings (size 3 to 8) (size 9 to 14) (size 15 to 20)
#    0.000    1.857    2.857    1.286    0.000    4.857 
#    0.000    7.143    0.000    3.857    0.000    0.000 
#    0.000    0.000    0.000    0.000    0.000    0.000 
#
# Total GULP energy -347150.631352 kJ/mol
# GULP energy per Si atom -12398.236834 kJ/mol
# Density = 1.928846 g / cm^3
# Si number density = 19.332463 Si / 1000 Ang^3
#
#
#
# Elastic Constant Matrix: (Units=GPa)
#
#
# Indices 1 2 3 4 5 6 
#
# 1 106.1575 31.3588 31.7221 0.0000 -8.0490 0.0000
# 2 31.3588 92.2071 25.2763 0.0000 -6.4806 0.0000
# 3 31.7221 25.2763 64.1380 0.0000 -0.5010 0.0000
# 4 0.0000 0.0000 0.0000 15.0187 0.0000 0.6822
# 5 -8.0490 -6.4806 -0.5010 0.0000 37.5588 0.0000
# 6 0.0000 0.0000 0.0000 0.6822 0.0000 18.1053
#
#
#
# Elastic Compliance Matrix: (Units=1/GPa)
#
#
# Indices 1 2 3 4 5 6 
#
# 1 0.011757 -0.002542 -0.004798 0.000000 0.002017 0.000000
# 2 -0.002542 0.012866 -0.003800 0.000000 0.001624 0.000000
# 3 -0.004798 -0.003800 0.019451 0.000000 -0.001424 0.000000
# 4 0.000000 0.000000 0.000000 0.066698 0.000000 -0.002513
# 5 0.002017 0.001624 -0.001424 0.000000 0.027318 0.000000
# 6 0.000000 0.000000 0.000000 -0.002513 0.000000 0.055327
#
#
# Mechanical properties :
#
#
# Convention : Reuss Voigt Hill
#
# Bulk Modulus (GPa) = 45.88377 48.80191 47.34284
# Shear Modulus (GPa) = 22.42541 25.74627 24.08584
#
# Velocity S-wave (km/s) = 3.40955 3.65329 3.53353
# Velocity P-wave (km/s) = 6.26783 6.56458 6.41792
#
# Compressibility (1/GPa) = 0.02179420
#
# Stress axis : x y z
#
# Youngs Moduli (GPa) = 85.05318 77.72721 51.41159
#
# Poissons Ratio (x) = 0.19755 0.24666
# Poissons Ratio (y) = 0.21617 0.19539
# Poissons Ratio (z) = 0.40806 0.29540
#
# Static dielectric constant tensor:
#      x y z
#    x 3.637740 0.000000 0.020700 
#    y 0.000000 3.195650 0.000000 
#    z 0.020700 0.000000 3.659550 
# 
# 
# High freq. dielectric constant tensor:
#      x y z
#    x 1.763970 0.000000 0.000790 
#    y 0.000000 1.716360 0.000000 
#    z 0.000790 0.000000 1.759750 
# 
# From -- ./inp_files/28495.got.cif
#   From: 2010.06.25/outbox.cif.g09.slc.cpg/sg10_15_cif.got.tgz:28495.got - 2010.06.27 22:07:45.
