data_PCOD8060367
_publ_section_title
;
Structure prediction by ZEFSAII (Michael W. Deem and Ramdas Pophale) SiO2 
 PCOD8060367
Probable space group: P 2/M
;
_chemical_formula_sum "Si O2"
_cell_formula_units_Z 30
_cell_length_a 26.652522
_cell_length_b 16.362477
_cell_length_c 26.260623
_cell_angle_alpha 90.000000
_cell_angle_beta 168.943827
_cell_angle_gamma 90.000000
_cell_volume 2196.220720
_symmetry_space_group_name_H-M "P 2/M"
_symmetry_group_IT_number 10
_symmetry_cell_setting 'monoclinic'
loop_
_space_group_symop_operation_xyz
x,y,z
-x,y,-z
-x,-y,-z
x,-y,z
loop_
_atom_site_type_symbol
_atom_site_label
_atom_site_fract_x
_atom_site_fract_y
_atom_site_fract_z
Si Si1 0.092023 0.256873 0.150075
Si Si2 0.954320 0.596619 0.685946
Si Si3 0.998402 0.597554 0.616077
Si Si4 0.743358 0.500000 0.778590
Si Si5 0.396960 0.658614 0.301571
Si Si6 0.248072 0.911662 0.282419
Si Si7 0.554656 0.596836 0.761012
Si Si8 0.504751 0.597447 0.062102
O O1 0.338191 0.316979 0.404699
O O2 0.191873 0.165015 0.263707
O O3 0.000000 0.265481 0.000000
O O4 0.835876 0.274383 0.929116
O O5 0.972806 0.500000 0.700068
O O6 0.681171 0.624386 0.437641
O O7 0.981954 0.633757 0.656778
O O8 0.184089 0.628293 0.951286
O O9 0.995190 0.500000 0.614403
O O10 0.758534 0.630854 0.343807
O O11 0.257817 0.630774 0.847380
O O12 0.500000 0.500000 0.500000
O O13 0.737115 0.578952 0.807929
O O14 0.000000 0.500000 0.000000
O O15 0.478859 0.643189 0.325376
O O16 0.500000 0.888732 0.500000
O O17 0.292334 0.000000 0.354813
O O18 0.000000 0.921737 0.000000
O O19 0.554450 0.500000 0.750902
O O20 0.502938 0.500000 0.058736
O O21 0.500000 0.632287 0.000000
#
# Coordination Sequence:
#
# PCOD8060367 Si02
#       8
#     4   4   4   2   4   4   4   4
#     4  11  21  33  48  63  82  99 121 146 180 221
#     4   9  17  27  42  52  63  83 114 157 188 216
#     4   9  15  23  33  48  62  79 108 137 172 211
#     4  12  24  34  44  56  74 100 128 152 179 220
#     4  12  22  34  45  59  78 101 126 156 186 224
#     4   9  17  30  48  67  84 100 117 139 170 212
#     4  10  19  32  42  53  68  90 122 155 193 219
#     4   9  15  21  30  44  66  87 102 124 163 218
#
# _framework density 13.659829
#
# number of rings (size 3 to 8) (size 9 to 14) (size 15 to 20)
#    0.000    2.000    0.667    6.000    0.000    4.800 
#    0.000    0.000    0.000    0.000    0.000    0.000 
#    0.000    0.000    0.000    0.000    0.000    0.000 
#
# Total GULP energy -371876.384974 kJ/mol
# GULP energy per Si atom -12395.879499 kJ/mol
# Density = 1.362874 g / cm^3
# Si number density = 13.659829 Si / 1000 Ang^3
#
#
#
# Elastic Constant Matrix: (Units=GPa)
#
#
# Indices 1 2 3 4 5 6 
#
# 1 83.0813 21.5766 24.0045 0.0000 2.8101 0.0000
# 2 21.5766 41.4873 15.0772 0.0000 0.9208 0.0000
# 3 24.0045 15.0772 91.9895 0.0000 4.1334 0.0000
# 4 0.0000 0.0000 0.0000 11.1540 0.0000 2.9380
# 5 2.8101 0.9208 4.1334 0.0000 24.0462 0.0000
# 6 0.0000 0.0000 0.0000 2.9380 0.0000 3.6484
#
#
#
# Elastic Compliance Matrix: (Units=1/GPa)
#
#
# Indices 1 2 3 4 5 6 
#
# 1 0.014550 -0.006573 -0.002675 0.000000 -0.000989 0.000000
# 2 -0.006573 0.028601 -0.002981 0.000000 0.000185 0.000000
# 3 -0.002675 -0.002981 0.012132 0.000000 -0.001659 0.000000
# 4 0.000000 0.000000 0.000000 0.113789 0.000000 -0.091630
# 5 -0.000989 0.000185 -0.001659 0.000000 0.041980 0.000000
# 6 0.000000 0.000000 0.000000 -0.091630 0.000000 0.347876
#
#
# Mechanical properties :
#
#
# Convention : Reuss Voigt Hill
#
# Bulk Modulus (GPa) = 32.44080 37.54166 34.99123
# Shear Modulus (GPa) = 8.42230 18.16305 13.29267
#
# Velocity S-wave (km/s) = 2.48579 3.65042 3.12287
# Velocity P-wave (km/s) = 5.66034 6.73129 6.21891
#
# Compressibility (1/GPa) = 0.03082538
#
# Stress axis : x y z
#
# Youngs Moduli (GPa) = 68.72977 34.96334 82.42692
#
# Poissons Ratio (x) = 0.22981 0.22049
# Poissons Ratio (y) = 0.45175 0.24571
# Poissons Ratio (z) = 0.18385 0.10422
#
# Static dielectric constant tensor:
#      x y z
#    x 2.723190 0.000000 0.047600 
#    y 0.000000 2.591680 0.000000 
#    z 0.047600 0.000000 2.926200 
# 
# 
# High freq. dielectric constant tensor:
#      x y z
#    x 1.509080 0.000000 0.008140 
#    y 0.000000 1.453870 0.000000 
#    z 0.008140 0.000000 1.548810 
# 
# From -- ./inp_files/91620.got.cif
#   From: 2010.06.25/outbox.cif.g09.slc.cpg/sg10_46_cif.got.tgz:91620.got - 2010.06.27 22:07:45.
