data_PCOD8060908
_publ_section_title
;
Structure prediction by ZEFSAII (Michael W. Deem and Ramdas Pophale) SiO2 
 PCOD8060908
Probable space group: P 2/M
;
_chemical_formula_sum "Si O2"
_cell_formula_units_Z 28
_cell_length_a 28.025334
_cell_length_b 9.047664
_cell_length_c 9.813768
_cell_angle_alpha 90.000000
_cell_angle_beta 37.094440
_cell_angle_gamma 90.000000
_cell_volume 1500.840021
_symmetry_space_group_name_H-M "P 2/M"
_symmetry_group_IT_number 10
_symmetry_cell_setting 'monoclinic'
loop_
_space_group_symop_operation_xyz
x,y,z
-x,y,-z
-x,-y,-z
x,-y,z
loop_
_atom_site_type_symbol
_atom_site_label
_atom_site_fract_x
_atom_site_fract_y
_atom_site_fract_z
Si Si1 0.050582 0.667098 0.751047
Si Si2 0.200545 0.170673 0.336045
Si Si3 0.378343 0.824906 0.637065
Si Si4 0.199095 0.168099 0.025881
Si Si5 0.636591 0.328332 0.049279
Si Si6 0.053372 0.325655 0.255159
Si Si7 0.504513 0.670511 0.831674
O O1 0.076209 0.500000 0.653564
O O2 0.129713 0.763713 0.588155
O O3 0.991590 0.735476 0.774070
O O4 0.000000 0.670312 0.000000
O O5 0.214333 0.000000 0.341482
O O6 0.175552 0.192098 0.236495
O O7 0.281071 0.256763 0.184191
O O8 0.289205 0.780662 0.799156
O O9 0.400055 0.749040 0.732309
O O10 0.432251 0.770135 0.391104
O O11 0.387213 0.000000 0.637645
O O12 0.188665 0.000000 0.005058
O O13 0.141934 0.262757 0.060477
O O14 0.648941 0.500000 0.055712
O O15 0.579375 0.306008 0.050712
O O16 0.062194 0.500000 0.232215
O O17 0.000000 0.268507 0.500000
O O18 0.531387 0.500000 0.762049
O O19 0.500000 0.721539 0.000000
#
# Coordination Sequence:
#
# PCOD8060908 Si02
#       7
#     4   4   4   4   4   4   4
#     4  10  21  37  54  76 109 145 183 226 274 326
#     4  10  20  35  56  82 111 142 183 228 274 327
#     4  10  21  37  58  86 116 146 185 228 275 331
#     4   9  19  34  53  80 110 140 176 223 273 318
#     4  10  20  36  61  86 110 144 186 231 277 325
#     4  10  19  32  54  81 104 136 184 226 265 317
#     4  10  22  40  59  83 114 148 186 226 275 333
#
# _framework density 18.656217999999999
#
# number of rings (size 3 to 8) (size 9 to 14) (size 15 to 20)
#    0.000    2.143    1.429    2.571    0.000    7.143 
#    2.571    0.000    0.000    0.000    0.000    0.000 
#    0.000    0.000    0.000    0.000    0.000    0.000 
#
# Total GULP energy -347222.437286 kJ/mol
# GULP energy per Si atom -12400.801332 kJ/mol
# Density = 1.861376 g / cm^3
# Si number density = 18.656218 Si / 1000 Ang^3
#
#
#
# Elastic Constant Matrix: (Units=GPa)
#
#
# Indices 1 2 3 4 5 6 
#
# 1 114.1214 49.6042 54.8871 0.0000 -1.2133 0.0000
# 2 49.6042 92.6964 52.0747 0.0000 -7.9926 0.0000
# 3 54.8871 52.0747 93.4039 0.0000 -7.3182 0.0000
# 4 0.0000 0.0000 0.0000 38.6691 0.0000 -7.8201
# 5 -1.2133 -7.9926 -7.3182 0.0000 25.8388 0.0000
# 6 0.0000 0.0000 0.0000 -7.8201 0.0000 18.5850
#
#
#
# Elastic Compliance Matrix: (Units=1/GPa)
#
#
# Indices 1 2 3 4 5 6 
#
# 1 0.013250 -0.004094 -0.005680 0.000000 -0.002253 0.000000
# 2 -0.004094 0.017123 -0.006894 0.000000 0.003152 0.000000
# 3 -0.005680 -0.006894 0.018101 0.000000 0.002728 0.000000
# 4 0.000000 0.000000 0.000000 0.028266 0.000000 0.011893
# 5 -0.002253 0.003152 0.002728 0.000000 0.040343 0.000000
# 6 0.000000 0.000000 0.000000 0.011893 0.000000 0.058811
#
#
# Mechanical properties :
#
#
# Convention : Reuss Voigt Hill
#
# Bulk Modulus (GPa) = 66.05642 68.15041 67.10342
# Shear Modulus (GPa) = 23.33431 26.19563 24.76497
#
# Velocity S-wave (km/s) = 3.54043 3.75123 3.64735
# Velocity P-wave (km/s) = 7.22475 7.44118 7.33376
#
# Compressibility (1/GPa) = 0.01513857
#
# Stress axis : x y z
#
# Youngs Moduli (GPa) = 75.47201 58.40042 55.24414
#
# Poissons Ratio (x) = 0.23906 0.31381
# Poissons Ratio (y) = 0.30895 0.38086
# Poissons Ratio (z) = 0.42871 0.40262
#
# Static dielectric constant tensor:
#      x y z
#    x 3.393470 0.000000 -0.090910 
#    y 0.000000 3.453100 0.000000 
#    z -0.090910 0.000000 3.307960 
# 
# 
# High freq. dielectric constant tensor:
#      x y z
#    x 1.722040 0.000000 -0.014320 
#    y 0.000000 1.725370 0.000000 
#    z -0.014320 0.000000 1.718180 
# 
# From -- ./inp_files/36981.got.cif
#   From: 2010.06.25/outbox.cif.g09.slc.cpg/sg10_19_cif.got.tgz:36981.got - 2010.06.27 22:07:45.
