data_PCOD8060008
_publ_section_title
;
Structure prediction by ZEFSAII (Michael W. Deem and Ramdas Pophale) SiO2 
 PCOD8060008
Probable space group: P 2/M
;
_chemical_formula_sum "Si O2"
_cell_formula_units_Z 32
_cell_length_a 19.660089
_cell_length_b 9.264590
_cell_length_c 14.378911
_cell_angle_alpha 90.000000
_cell_angle_beta 133.427275
_cell_angle_gamma 90.000000
_cell_volume 1902.051778
_symmetry_space_group_name_H-M "P 2/M"
_symmetry_group_IT_number 10
_symmetry_cell_setting 'monoclinic'
loop_
_space_group_symop_operation_xyz
x,y,z
-x,y,-z
-x,-y,-z
x,-y,z
loop_
_atom_site_type_symbol
_atom_site_label
_atom_site_fract_x
_atom_site_fract_y
_atom_site_fract_z
Si Si1 0.331339 0.333671 0.527992
Si Si2 0.139219 0.827601 0.863924
Si Si3 0.945298 0.831735 0.748397
Si Si4 0.472814 0.665636 0.372757
Si Si5 0.290452 0.832421 0.147035
Si Si6 0.211517 0.166660 0.269435
Si Si7 0.791845 0.170073 0.456695
Si Si8 0.102249 0.828751 0.623412
O O1 0.301169 0.500000 0.505274
O O2 0.442521 0.317407 0.620309
O O3 0.284622 0.264363 0.393233
O O4 0.300673 0.253603 0.594514
O O5 0.136119 0.769404 0.755200
O O6 0.048310 0.762613 0.833141
O O7 0.138753 0.000000 0.866080
O O8 0.233394 0.773429 0.003836
O O9 0.895428 0.794387 0.800116
O O10 0.877236 0.779005 0.602177
O O11 0.960341 0.000000 0.750304
O O12 0.500000 0.729448 0.500000
O O13 0.442677 0.500000 0.357452
O O14 0.386931 0.749271 0.247003
O O15 0.222290 0.805129 0.170712
O O16 0.315482 0.000000 0.160863
O O17 0.232409 0.000000 0.315512
O O18 0.819017 0.216953 0.377691
O O19 0.772585 0.000000 0.446059
O O20 0.000000 0.765090 0.500000
O O21 0.093151 0.000000 0.618225
#
# Coordination Sequence:
#
# PCOD8060008 Si02
#       8
#     4   4   4   4   4   4   4   4
#     4  10  19  31  49  70  91 119 155 199 243 283
#     4   9  16  26  42  70 103 131 160 192 230 277
#     4   8  13  23  40  64  97 128 155 185 218 269
#     4  10  20  35  52  68  88 122 165 199 236 290
#     4  10  20  30  45  72 102 127 155 199 243 275
#     4   9  17  28  43  68  98 128 158 188 229 278
#     4   9  16  27  47  75  99 122 155 196 236 274
#     4   9  14  24  46  74 101 129 160 193 230 275
#
# _framework density 16.823936
#
# number of rings (size 3 to 8) (size 9 to 14) (size 15 to 20)
#    0.000    2.750    2.500    1.125    0.000    1.750 
#    0.000    2.500    0.000    4.875    0.000    9.625 
#    0.000    0.000    0.000    0.000    0.000    0.000 
#
# Total GULP energy -396590.450431 kJ/mol
# GULP energy per Si atom -12393.451576 kJ/mol
# Density = 1.678564 g / cm^3
# Si number density = 16.823936 Si / 1000 Ang^3
#
#
#
# Elastic Constant Matrix: (Units=GPa)
#
#
# Indices 1 2 3 4 5 6 
#
# 1 116.8000 38.0134 65.8181 0.0000 -1.9460 0.0000
# 2 38.0134 43.0295 32.6594 0.0000 2.1853 0.0000
# 3 65.8181 32.6594 117.2255 0.0000 -0.0665 0.0000
# 4 0.0000 0.0000 0.0000 0.1982 0.0000 -5.1039
# 5 -1.9460 2.1853 -0.0665 0.0000 22.5158 0.0000
# 6 0.0000 0.0000 0.0000 -5.1039 0.0000 11.6851
#
#
#
# Elastic Compliance Matrix: (Units=1/GPa)
#
#
# Indices 1 2 3 4 5 6 
#
# 1 0.014710 -0.008666 -0.005843 0.000000 0.002095 0.000000
# 2 -0.008666 0.034766 -0.004822 0.000000 -0.004138 0.000000
# 3 -0.005843 -0.004822 0.013155 0.000000 0.000002 0.000000
# 4 0.000000 0.000000 0.000000 -0.492340 0.000000 -0.215047
# 5 0.002095 -0.004138 0.000002 0.000000 0.044996 0.000000
# 6 0.000000 0.000000 0.000000 -0.215047 0.000000 -0.008350
#
#
# Mechanical properties :
#
#
# Convention : Reuss Voigt Hill
#
# Bulk Modulus (GPa) = 41.72459 61.11522 51.41990
# Shear Modulus (GPa) = -14.43376 16.25076 0.90850
#
# Velocity S-wave (km/s) = -2.93222 3.11131 0.73565
# Velocity P-wave (km/s) = 3.65933 7.02227 5.59924
#
# Compressibility (1/GPa) = 0.02396668
#
# Stress axis : x y z
#
# Youngs Moduli (GPa) = 67.98123 28.76342 76.01655
#
# Poissons Ratio (x) = 0.24927 0.44420
# Poissons Ratio (y) = 0.58915 0.36659
# Poissons Ratio (z) = 0.39725 0.13871
#
# Static dielectric constant tensor:
#      x y z
#    x 3.465700 0.000000 -0.062430 
#    y 0.000000 2.796840 0.000000 
#    z -0.062430 0.000000 3.048720 
# 
# 
# High freq. dielectric constant tensor:
#      x y z
#    x 1.660690 0.000000 0.000680 
#    y 0.000000 1.605180 0.000000 
#    z 0.000680 0.000000 1.621870 
# 
# From -- ./inp_files/70014.got.cif
#   From: 2010.06.25/outbox.cif.g09.slc.cpg/sg10_36_cif.got.tgz:70014.got - 2010.06.27 22:07:45.
