data_PCOD8060188
_publ_section_title
;
Structure prediction by ZEFSAII (Michael W. Deem and Ramdas Pophale) SiO2 
 PCOD8060188
Probable space group: P 2/M
;
_chemical_formula_sum "Si O2"
_cell_formula_units_Z 28
_cell_length_a 20.635378
_cell_length_b 9.091027
_cell_length_c 15.960704
_cell_angle_alpha 90.000000
_cell_angle_beta 28.266580
_cell_angle_gamma 90.000000
_cell_volume 1417.965878
_symmetry_space_group_name_H-M "P 2/M"
_symmetry_group_IT_number 10
_symmetry_cell_setting 'monoclinic'
loop_
_space_group_symop_operation_xyz
x,y,z
-x,y,-z
-x,-y,-z
x,-y,z
loop_
_atom_site_type_symbol
_atom_site_label
_atom_site_fract_x
_atom_site_fract_y
_atom_site_fract_z
Si Si1 0.683332 0.331239 0.407735
Si Si2 0.792836 0.165722 0.525872
Si Si3 0.934266 0.832753 0.193653
Si Si4 0.532073 0.174446 0.720092
Si Si5 0.206929 0.332370 0.888851
Si Si6 0.737539 0.671353 0.985226
Si Si7 0.987780 0.673361 0.418872
O O1 0.664640 0.500000 0.456997
O O2 0.834084 0.276313 0.259598
O O3 0.569131 0.236205 0.585526
O O4 0.673517 0.315960 0.317486
O O5 0.906028 0.174903 0.324546
O O6 0.647345 0.224426 0.656041
O O7 0.847587 0.262405 0.540314
O O8 0.774812 0.000000 0.579029
O O9 0.915380 0.000000 0.182555
O O10 0.087019 0.779946 0.002063
O O11 0.526550 0.000000 0.719697
O O12 0.387059 0.239084 0.915051
O O13 0.149952 0.500000 0.954511
O O14 0.267509 0.293656 0.910368
O O15 0.716272 0.500000 0.990150
O O16 0.879045 0.728068 0.783801
O O17 0.974314 0.500000 0.428972
O O18 0.000000 0.728904 0.500000
#
# Coordination Sequence:
#
# PCOD8060188 Si02
#       7
#     4   4   4   4   4   4   4
#     4  10  20  33  51  76 109 150 194 235 278 325
#     4   9  19  36  57  82 111 147 186 225 273 336
#     4  10  19  31  50  78 112 147 190 235 280 328
#     4  10  22  39  57  81 114 151 194 231 273 332
#     4  10  20  33  51  77 109 149 194 235 278 332
#     4  10  21  38  58  82 113 148 186 230 283 335
#     4  10  21  38  63  92 115 138 178 230 280 335
#
# _framework density 19.746597000000001
#
# number of rings (size 3 to 8) (size 9 to 14) (size 15 to 20)
#    0.000    2.143    1.429    2.571    0.000    7.714 
#    0.000    3.571    0.000    4.286    0.000    0.000 
#    0.000    0.000    0.000    0.000    0.000    0.000 
#
# Total GULP energy -347182.905422 kJ/mol
# GULP energy per Si atom -12399.389479 kJ/mol
# Density = 1.970165 g / cm^3
# Si number density = 19.746597 Si / 1000 Ang^3
#
#
#
# Elastic Constant Matrix: (Units=GPa)
#
#
# Indices 1 2 3 4 5 6 
#
# 1 94.5537 33.6435 53.7965 0.0000 9.9747 0.0000
# 2 33.6435 64.3930 34.2637 0.0000 -1.1870 0.0000
# 3 53.7965 34.2637 62.7263 0.0000 -10.9502 0.0000
# 4 0.0000 0.0000 0.0000 25.9073 0.0000 -6.0663
# 5 9.9747 -1.1870 -10.9502 0.0000 27.8960 0.0000
# 6 0.0000 0.0000 0.0000 -6.0663 0.0000 27.0740
#
#
#
# Elastic Compliance Matrix: (Units=1/GPa)
#
#
# Indices 1 2 3 4 5 6 
#
# 1 0.029436 -0.000450 -0.028815 0.000000 -0.021856 0.000000
# 2 -0.000450 0.022332 -0.012474 0.000000 -0.003785 0.000000
# 3 -0.028815 -0.012474 0.052793 0.000000 0.030496 0.000000
# 4 0.000000 0.000000 0.000000 0.040736 0.000000 0.009127
# 5 -0.021856 -0.003785 0.030496 0.000000 0.055472 0.000000
# 6 0.000000 0.000000 0.000000 0.009127 0.000000 0.038981
#
#
# Mechanical properties :
#
#
# Convention : Reuss Voigt Hill
#
# Bulk Modulus (GPa) = 47.43074 51.67561 49.55317
# Shear Modulus (GPa) = 15.13979 22.84007 18.98993
#
# Velocity S-wave (km/s) = 2.77195 3.40466 3.10446
# Velocity P-wave (km/s) = 5.85805 6.45614 6.16435
#
# Compressibility (1/GPa) = 0.02108337
#
# Stress axis : x y z
#
# Youngs Moduli (GPa) = 33.97190 44.77830 18.94203
#
# Poissons Ratio (x) = 0.02014 0.54582
# Poissons Ratio (y) = 0.01528 0.23628
# Poissons Ratio (z) = 0.97891 0.55856
#
# Static dielectric constant tensor:
#      x y z
#    x 3.518540 0.000000 0.048870 
#    y 0.000000 3.517900 0.000000 
#    z 0.048870 0.000000 3.506750 
# 
# 
# High freq. dielectric constant tensor:
#      x y z
#    x 1.760430 0.000000 -0.004000 
#    y 0.000000 1.766930 0.000000 
#    z -0.004000 0.000000 1.755320 
# 
# From -- ./inp_files/70200.got.cif
#   From: 2010.06.25/outbox.cif.g09.slc.cpg/sg10_36_cif.got.tgz:70200.got - 2010.06.27 22:07:45.
