data_PCOD8060511
_publ_section_title
;
Structure prediction by ZEFSAII (Michael W. Deem and Ramdas Pophale) SiO2 
 PCOD8060511
Probable space group: P 2/M
;
_chemical_formula_sum "Si O2"
_cell_formula_units_Z 32
_cell_length_a 31.216711
_cell_length_b 9.040132
_cell_length_c 13.285224
_cell_angle_alpha 90.000000
_cell_angle_beta 153.594132
_cell_angle_gamma 90.000000
_cell_volume 1667.340149
_symmetry_space_group_name_H-M "P 2/M"
_symmetry_group_IT_number 10
_symmetry_cell_setting 'monoclinic'
loop_
_space_group_symop_operation_xyz
x,y,z
-x,y,-z
-x,-y,-z
x,-y,z
loop_
_atom_site_type_symbol
_atom_site_label
_atom_site_fract_x
_atom_site_fract_y
_atom_site_fract_z
Si Si1 0.763218 0.670435 0.875248
Si Si2 0.838467 0.838469 0.856837
Si Si3 0.962981 0.165439 0.822144
Si Si4 0.620673 0.174781 0.045628
Si Si5 0.892945 0.824293 0.307707
Si Si6 0.426064 0.673849 0.636740
Si Si7 0.337590 0.169549 0.640565
Si Si8 0.815812 0.175886 0.358868
O O1 0.775188 0.500000 0.929575
O O2 0.822318 0.704731 0.898889
O O3 0.652303 0.711137 0.615226
O O4 0.807234 0.768440 0.056184
O O5 0.776051 0.812179 0.623930
O O6 0.808100 0.000000 0.838805
O O7 0.950645 0.842411 0.074242
O O8 0.875491 0.243954 0.579166
O O9 0.929946 0.000000 0.786182
O O10 0.000000 0.252480 0.000000
O O11 0.646388 0.229159 0.212850
O O12 0.704802 0.220360 0.143714
O O13 0.604071 0.000000 0.008694
O O14 0.525634 0.257354 0.807209
O O15 0.861580 0.763241 0.351531
O O16 0.000000 0.765958 0.500000
O O17 0.893061 0.000000 0.304497
O O18 0.436146 0.500000 0.672687
O O19 0.400154 0.741047 0.691059
O O20 0.371437 0.000000 0.704422
O O21 0.828562 0.000000 0.387261
#
# Coordination Sequence:
#
# PCOD8060511 Si02
#       8
#     4   4   4   4   4   4   4   4
#     4  10  21  36  53  74 100 130 168 214 260 303
#     4   9  16  28  49  76 104 134 168 207 252 302
#     4   9  15  25  46  76 107 136 164 197 241 295
#     4  10  19  32  50  73 104 139 172 210 255 302
#     4  10  20  36  59  83 105 131 165 207 254 304
#     4  10  21  35  51  73 101 135 175 216 256 299
#     4   9  17  29  48  76 106 136 172 210 250 301
#     4   9  18  31  48  75 107 134 166 208 251 299
#
# _framework density 19.192245
#
# number of rings (size 3 to 8) (size 9 to 14) (size 15 to 20)
#    0.000    2.500    0.000    2.625    0.000    8.750 
#    0.000    1.250    0.000    4.875    0.000    0.000 
#    0.000    0.000    0.000    0.000    0.000    0.000 
#
# Total GULP energy -396565.652396 kJ/mol
# GULP energy per Si atom -12392.676637 kJ/mol
# Density = 1.914856 g / cm^3
# Si number density = 19.192245 Si / 1000 Ang^3
#
#
#
# Elastic Constant Matrix: (Units=GPa)
#
#
# Indices 1 2 3 4 5 6 
#
# 1 105.4805 25.0605 63.2450 0.0000 4.5909 0.0000
# 2 25.0605 32.0077 33.4480 0.0000 4.2300 0.0000
# 3 63.2450 33.4480 122.0871 0.0000 -0.5223 0.0000
# 4 0.0000 0.0000 0.0000 21.9954 0.0000 -1.4384
# 5 4.5909 4.2300 -0.5223 0.0000 32.3226 0.0000
# 6 0.0000 0.0000 0.0000 -1.4384 0.0000 4.1587
#
#
#
# Elastic Compliance Matrix: (Units=1/GPa)
#
#
# Indices 1 2 3 4 5 6 
#
# 1 0.014340 -0.004560 -0.006186 0.000000 -0.001540 0.000000
# 2 -0.004560 0.046389 -0.010371 0.000000 -0.005591 0.000000
# 3 -0.006186 -0.010371 0.014247 0.000000 0.002466 0.000000
# 4 0.000000 0.000000 0.000000 0.046516 0.000000 0.016089
# 5 -0.001540 -0.005591 0.002466 0.000000 0.031928 0.000000
# 6 0.000000 0.000000 0.000000 0.016089 0.000000 0.246022
#
#
# Mechanical properties :
#
#
# Convention : Reuss Voigt Hill
#
# Bulk Modulus (GPa) = 30.54088 55.89803 43.21945
# Shear Modulus (GPa) = 11.04754 20.88349 15.96551
#
# Velocity S-wave (km/s) = 2.40182 3.30225 2.88735
# Velocity P-wave (km/s) = 4.86203 6.61274 5.80378
#
# Compressibility (1/GPa) = 0.03274300
#
# Stress axis : x y z
#
# Youngs Moduli (GPa) = 69.73652 21.55687 70.18922
#
# Poissons Ratio (x) = 0.09829 0.43418
# Poissons Ratio (y) = 0.31797 0.72793
# Poissons Ratio (z) = 0.43138 0.22357
#
# Static dielectric constant tensor:
#      x y z
#    x 3.446910 0.000000 0.012850 
#    y 0.000000 3.168930 0.000000 
#    z 0.012850 0.000000 3.754300 
# 
# 
# High freq. dielectric constant tensor:
#      x y z
#    x 1.731720 0.000000 0.005730 
#    y 0.000000 1.702210 0.000000 
#    z 0.005730 0.000000 1.762090 
# 
# From -- ./inp_files/58248.got.cif
#   From: 2010.06.25/outbox.cif.g09.slc.cpg/sg10_30_cif.got.tgz:58248.got - 2010.06.27 22:07:45.
