data_PCOD8060176
_publ_section_title
;
Structure prediction by ZEFSAII (Michael W. Deem and Ramdas Pophale) SiO2 
 PCOD8060176
Probable space group: P 2/M
;
_chemical_formula_sum "Si O2"
_cell_formula_units_Z 28
_cell_length_a 23.204497
_cell_length_b 11.657041
_cell_length_c 30.528954
_cell_angle_alpha 90.000000
_cell_angle_beta 10.912712
_cell_angle_gamma 90.000000
_cell_volume 1563.340350
_symmetry_space_group_name_H-M "P 2/M"
_symmetry_group_IT_number 10
_symmetry_cell_setting 'monoclinic'
loop_
_space_group_symop_operation_xyz
x,y,z
-x,y,-z
-x,-y,-z
x,-y,z
loop_
_atom_site_type_symbol
_atom_site_label
_atom_site_fract_x
_atom_site_fract_y
_atom_site_fract_z
Si Si1 0.882649 0.000000 0.655022
Si Si2 0.691659 0.758337 0.988767
Si Si3 0.681230 0.634489 0.487468
Si Si4 0.343464 0.758726 0.160376
Si Si5 0.611125 0.636322 0.204105
Si Si6 0.291560 0.634517 0.694211
Si Si7 0.485877 0.000000 0.159381
Si Si8 0.273533 0.635460 0.369059
O O1 0.784132 0.113820 0.754580
O O2 0.721891 0.000000 0.728325
O O3 0.249595 0.000000 0.376335
O O4 0.021608 0.704317 0.747721
O O5 0.595338 0.757714 0.010118
O O6 0.450259 0.685453 0.196021
O O7 0.699489 0.888128 0.001380
O O8 0.764454 0.500000 0.427202
O O9 0.551636 0.680571 0.630268
O O10 0.429641 0.660202 0.638624
O O11 0.073117 0.674686 0.375779
O O12 0.500000 0.709934 0.000000
O O13 0.627763 0.500000 0.193711
O O14 0.420270 0.679945 0.304921
O O15 0.952313 0.687972 0.945904
O O16 0.500000 0.689013 0.500000
O O17 0.265814 0.500000 0.704700
O O18 0.289618 0.500000 0.354095
#
# Coordination Sequence:
#
# PCOD8060176 Si02
#       8
#     2   4   4   4   4   4   2   4
#     4   9  17  36  56  74  93 122 171 220 254 289
#     4  11  21  35  53  74 100 132 171 210 251 300
#     4  10  19  31  50  77 107 136 164 203 255 303
#     4  11  22  35  53  75 101 133 169 211 255 298
#     4   9  18  32  48  72 107 138 169 207 246 294
#     4   9  16  28  48  74 102 135 172 206 243 291
#     4   9  18  34  56  74  93 125 169 217 255 285
#     4  11  22  34  50  73 103 139 172 204 248 304
#
# _framework density 17.910367000000001
#
# number of rings (size 3 to 8) (size 9 to 14) (size 15 to 20)
#    0.000    2.000    1.429    3.214    0.000    6.000 
#    0.000    0.000    0.000    0.000    0.000    7.500 
#    0.000    0.000    0.000    0.000    0.000    0.000 
#
# Total GULP energy -347246.189625 kJ/mol
# GULP energy per Si atom -12401.649629 kJ/mol
# Density = 1.786960 g / cm^3
# Si number density = 17.910367 Si / 1000 Ang^3
#
#
#
# Elastic Constant Matrix: (Units=GPa)
#
#
# Indices 1 2 3 4 5 6 
#
# 1 44.7507 10.7724 -1.5538 0.0000 7.1900 0.0000
# 2 10.7724 62.9381 19.7021 0.0000 -3.7617 0.0000
# 3 -1.5538 19.7021 88.1004 0.0000 6.3189 0.0000
# 4 0.0000 0.0000 0.0000 18.2327 0.0000 5.9953
# 5 7.1900 -3.7617 6.3189 0.0000 33.0760 0.0000
# 6 0.0000 0.0000 0.0000 5.9953 0.0000 6.1285
#
#
#
# Elastic Compliance Matrix: (Units=1/GPa)
#
#
# Indices 1 2 3 4 5 6 
#
# 1 0.024705 -0.005256 0.002068 0.000000 -0.006363 0.000000
# 2 -0.005256 0.018446 -0.004512 0.000000 0.004102 0.000000
# 3 0.002068 -0.004512 0.012638 0.000000 -0.003377 0.000000
# 4 0.000000 0.000000 0.000000 0.080856 0.000000 -0.079099
# 5 -0.006363 0.004102 -0.003377 0.000000 0.032728 0.000000
# 6 0.000000 0.000000 0.000000 -0.079099 0.000000 0.240552
#
#
# Mechanical properties :
#
#
# Convention : Reuss Voigt Hill
#
# Bulk Modulus (GPa) = 24.75948 28.18116 26.47032
# Shear Modulus (GPa) = 11.39497 22.61201 17.00349
#
# Velocity S-wave (km/s) = 2.52508 3.55704 3.08452
# Velocity P-wave (km/s) = 4.72816 5.71303 5.24377
#
# Compressibility (1/GPa) = 0.04038858
#
# Stress axis : x y z
#
# Youngs Moduli (GPa) = 40.47697 54.21260 79.12384
#
# Poissons Ratio (x) = 0.28495 -0.16359
# Poissons Ratio (y) = 0.21275 0.35701
# Poissons Ratio (z) = -0.08369 0.24461
#
# Static dielectric constant tensor:
#      x y z
#    x 3.311450 0.000000 0.089350 
#    y 0.000000 3.105120 0.000000 
#    z 0.089350 0.000000 3.466010 
# 
# 
# High freq. dielectric constant tensor:
#      x y z
#    x 1.693250 0.000000 0.010550 
#    y 0.000000 1.653100 0.000000 
#    z 0.010550 0.000000 1.705490 
# 
# From -- ./inp_files/28707.got.cif
#   From: 2010.06.25/outbox.cif.g09.slc.cpg/sg10_15_cif.got.tgz:28707.got - 2010.06.27 22:07:45.
