data_PCOD8060759
_publ_section_title
;
Structure prediction by ZEFSAII (Michael W. Deem and Ramdas Pophale) SiO2 
 PCOD8060759
Probable space group: P 2/M
;
_chemical_formula_sum "Si O2"
_cell_formula_units_Z 28
_cell_length_a 10.057562
_cell_length_b 8.894675
_cell_length_c 26.173981
_cell_angle_alpha 90.000000
_cell_angle_beta 140.581233
_cell_angle_gamma 90.000000
_cell_volume 1486.808666
_symmetry_space_group_name_H-M "P 2/M"
_symmetry_group_IT_number 10
_symmetry_cell_setting 'monoclinic'
loop_
_space_group_symop_operation_xyz
x,y,z
-x,y,-z
-x,-y,-z
x,-y,z
loop_
_atom_site_type_symbol
_atom_site_label
_atom_site_fract_x
_atom_site_fract_y
_atom_site_fract_z
Si Si1 0.868516 0.323300 0.820898
Si Si2 0.807375 0.827474 0.907817
Si Si3 0.808029 0.323104 0.332237
Si Si4 0.647570 0.172265 0.187607
Si Si5 0.827109 0.334361 0.492348
Si Si6 0.524385 0.823082 0.333439
Si Si7 0.713118 0.823514 0.090833
O O1 0.858408 0.500000 0.810443
O O2 0.796536 0.280991 0.856339
O O3 0.707538 0.247047 0.733248
O O4 0.101347 0.265862 0.880720
O O5 0.599649 0.804314 0.879286
O O6 0.831759 0.000000 0.896510
O O7 0.000000 0.778167 0.000000
O O8 0.767634 0.500000 0.327594
O O9 0.779639 0.275621 0.265296
O O10 0.642676 0.235671 0.318267
O O11 0.047961 0.282041 0.419634
O O12 0.704958 0.222104 0.147654
O O13 0.710004 0.000000 0.216367
O O14 0.727444 0.500000 0.470423
O O15 0.644186 0.220299 0.421519
O O16 0.000000 0.341614 0.500000
O O17 0.506515 0.000000 0.324237
O O18 0.751682 0.000000 0.094842
O O19 0.500000 0.773702 0.000000
#
# Coordination Sequence:
#
# PCOD8060759 Si02
#       7
#     4   4   4   4   4   4   4
#     4  12  24  37  56  83 115 150 187 233 284 335
#     4  10  20  36  58  83 110 143 183 231 284 336
#     4  10  19  32  52  80 116 151 181 224 282 338
#     4  10  20  34  57  84 110 145 189 234 278 335
#     4   8  16  30  48  75 112 149 181 219 276 338
#     4  11  20  32  53  81 112 147 189 233 277 327
#     4  10  22  42  63  82 108 149 194 235 283 339
#
# _framework density 18.832283
#
# number of rings (size 3 to 8) (size 9 to 14) (size 15 to 20)
#    0.000    1.857    1.429    4.714    0.000    6.571 
#    0.000    1.429    0.000    0.857    0.000    6.000 
#    0.000    0.000    0.000    0.000    0.000    0.000 
#
# Total GULP energy -347243.440155 kJ/mol
# GULP energy per Si atom -12401.551434 kJ/mol
# Density = 1.878942 g / cm^3
# Si number density = 18.832283 Si / 1000 Ang^3
#
#
#
# Elastic Constant Matrix: (Units=GPa)
#
#
# Indices 1 2 3 4 5 6 
#
# 1 39.4980 19.9645 11.0652 0.0000 1.2367 0.0000
# 2 19.9645 105.7688 54.0881 0.0000 5.7560 0.0000
# 3 11.0652 54.0881 131.7160 0.0000 -4.4967 0.0000
# 4 0.0000 0.0000 0.0000 29.9875 0.0000 -0.8724
# 5 1.2367 5.7560 -4.4967 0.0000 25.5350 0.0000
# 6 0.0000 0.0000 0.0000 -0.8724 0.0000 16.1113
#
#
#
# Elastic Compliance Matrix: (Units=1/GPa)
#
#
# Indices 1 2 3 4 5 6 
#
# 1 0.027995 -0.005145 -0.000247 0.000000 -0.000240 0.000000
# 2 -0.005145 0.013248 -0.005132 0.000000 -0.003641 0.000000
# 3 -0.000247 -0.005132 0.009819 0.000000 0.002898 0.000000
# 4 0.000000 0.000000 0.000000 0.033400 0.000000 0.001809
# 5 -0.000240 -0.003641 0.002898 0.000000 0.040505 0.000000
# 6 0.000000 0.000000 0.000000 0.001809 0.000000 0.062166
#
#
# Mechanical properties :
#
#
# Convention : Reuss Voigt Hill
#
# Bulk Modulus (GPa) = 33.31800 49.69092 41.50446
# Shear Modulus (GPa) = 22.91610 27.11777 25.01694
#
# Velocity S-wave (km/s) = 3.49213 3.79880 3.64869
# Velocity P-wave (km/s) = 5.83012 6.75903 6.31169
#
# Compressibility (1/GPa) = 0.03001381
#
# Stress axis : x y z
#
# Youngs Moduli (GPa) = 35.72072 75.48031 101.83890
#
# Poissons Ratio (x) = 0.38832 0.02519
# Poissons Ratio (y) = 0.18377 0.52269
# Poissons Ratio (z) = 0.00884 0.38740
#
# Static dielectric constant tensor:
#      x y z
#    x 3.112850 0.000000 -0.081300 
#    y 0.000000 3.393850 0.000000 
#    z -0.081300 0.000000 3.934110 
# 
# 
# High freq. dielectric constant tensor:
#      x y z
#    x 1.691610 0.000000 -0.004290 
#    y 0.000000 1.728050 0.000000 
#    z -0.004290 0.000000 1.753570 
# 
# From -- ./inp_files/91936.got.cif
#   From: 2010.06.25/outbox.cif.g09.slc.cpg/sg10_46_cif.got.tgz:91936.got - 2010.06.27 22:07:45.
