data_PCOD8060044
_publ_section_title
;
Structure prediction by ZEFSAII (Michael W. Deem and Ramdas Pophale) SiO2 
 PCOD8060044
Probable space group: P 2/M
;
_chemical_formula_sum "Si O2"
_cell_formula_units_Z 24
_cell_length_a 13.488996
_cell_length_b 13.124617
_cell_length_c 8.940474
_cell_angle_alpha 90.000000
_cell_angle_beta 107.937187
_cell_angle_gamma 90.000000
_cell_volume 1505.870221
_symmetry_space_group_name_H-M "P 2/M"
_symmetry_group_IT_number 10
_symmetry_cell_setting 'monoclinic'
loop_
_space_group_symop_operation_xyz
x,y,z
-x,y,-z
-x,-y,-z
x,-y,z
loop_
_atom_site_type_symbol
_atom_site_label
_atom_site_fract_x
_atom_site_fract_y
_atom_site_fract_z
Si Si1 0.110368 0.618355 0.128431
Si Si2 0.101877 0.621073 0.464965
Si Si3 0.553481 0.114487 0.864215
Si Si4 0.700200 0.617414 0.262375
Si Si5 0.304458 0.288824 0.063002
Si Si6 0.502716 0.698400 0.324993
O O1 0.144648 0.500000 0.134647
O O2 0.103833 0.658377 0.294865
O O3 0.192608 0.688788 0.080830
O O4 0.000000 0.634832 0.000000
O O5 0.098620 0.500000 0.465702
O O6 0.203364 0.662669 0.597959
O O7 0.000000 0.665919 0.500000
O O8 0.668509 0.167359 0.925842
O O9 0.482366 0.182979 0.718863
O O10 0.564655 0.000000 0.806746
O O11 0.500000 0.114641 0.000000
O O12 0.720625 0.500000 0.235470
O O13 0.596322 0.629282 0.310353
O O14 0.690121 0.675564 0.103660
O O15 0.394943 0.344913 0.202989
O O16 0.500000 0.689401 0.500000
#
# Coordination Sequence:
#
# PCOD8060044 Si02
#       6
#     4   4   4   4   4   4
#     4  10  19  31  49  73 101 134 169 204 241 290
#     4   9  18  31  46  67  95 133 171 202 237 279
#     4   9  18  36  55  73  98 126 164 210 257 302
#     4  11  20  31  47  69 102 137 168 200 240 293
#     4  10  19  33  48  73  96 131 165 208 245 298
#     4  10  20  33  48  74 101 128 165 201 249 305
#
# _framework density 15.937628999999999
#
# number of rings (size 3 to 8) (size 9 to 14) (size 15 to 20)
#    1.000    1.167    1.667    3.000    0.000    5.333 
#    0.000    0.000    0.000    0.500    0.000    0.000 
#    0.000    3.333    0.000    0.000    0.000    0.000 
#
# Total GULP energy -297453.673383 kJ/mol
# GULP energy per Si atom -12393.903058 kJ/mol
# Density = 1.590135 g / cm^3
# Si number density = 15.937629 Si / 1000 Ang^3
#
#
#
# Elastic Constant Matrix: (Units=GPa)
#
#
# Indices 1 2 3 4 5 6 
#
# 1 99.4688 14.6647 32.1570 0.0000 -0.6488 0.0000
# 2 14.6647 40.6742 4.5344 0.0000 2.7409 0.0000
# 3 32.1570 4.5344 122.5847 0.0000 -0.9165 0.0000
# 4 0.0000 0.0000 0.0000 13.3996 0.0000 -7.9221
# 5 -0.6488 2.7409 -0.9165 0.0000 33.1518 0.0000
# 6 0.0000 0.0000 0.0000 -7.9221 0.0000 5.4677
#
#
#
# Elastic Compliance Matrix: (Units=1/GPa)
#
#
# Indices 1 2 3 4 5 6 
#
# 1 0.011561 -0.003878 -0.002886 0.000000 0.000467 0.000000
# 2 -0.003878 0.026131 0.000034 0.000000 -0.002235 0.000000
# 3 -0.002886 0.000034 0.008915 0.000000 0.000187 0.000000
# 4 0.000000 0.000000 0.000000 0.520417 0.000000 0.754019
# 5 0.000467 -0.002235 0.000187 0.000000 0.030363 0.000000
# 6 0.000000 0.000000 0.000000 0.754019 0.000000 1.275371
#
#
# Mechanical properties :
#
#
# Convention : Reuss Voigt Hill
#
# Bulk Modulus (GPa) = 30.16873 40.60443 35.38658
# Shear Modulus (GPa) = 2.63537 24.49528 13.56532
#
# Velocity S-wave (km/s) = 1.28730 3.92464 2.92061
# Velocity P-wave (km/s) = 4.60216 6.78745 5.79868
#
# Compressibility (1/GPa) = 0.03314690
#
# Stress axis : x y z
#
# Youngs Moduli (GPa) = 86.49665 38.26923 112.17312
#
# Poissons Ratio (x) = 0.14841 0.32371
# Poissons Ratio (y) = 0.33544 -0.00381
# Poissons Ratio (z) = 0.24961 -0.00130
#
# Static dielectric constant tensor:
#      x y z
#    x 3.231170 0.000000 -0.053420 
#    y 0.000000 2.785190 0.000000 
#    z -0.053420 0.000000 3.162240 
# 
# 
# High freq. dielectric constant tensor:
#      x y z
#    x 1.615210 0.000000 -0.005300 
#    y 0.000000 1.566160 0.000000 
#    z -0.005300 0.000000 1.627620 
# 
# From -- ./inp_files/24696.got.cif
#   From: 2010.06.25/outbox.cif.g09.slc.cpg/sg10_13_cif.got.tgz:24696.got - 2010.06.27 22:07:45.
