data_PCOD8060942
_publ_section_title
;
Structure prediction by ZEFSAII (Michael W. Deem and Ramdas Pophale) SiO2 
 PCOD8060942
Probable space group: P 2/M
;
_chemical_formula_sum "Si O2"
_cell_formula_units_Z 32
_cell_length_a 11.599163
_cell_length_b 9.123377
_cell_length_c 32.778572
_cell_angle_alpha 90.000000
_cell_angle_beta 149.702337
_cell_angle_gamma 90.000000
_cell_volume 1749.955224
_symmetry_space_group_name_H-M "P 2/M"
_symmetry_group_IT_number 10
_symmetry_cell_setting 'monoclinic'
loop_
_space_group_symop_operation_xyz
x,y,z
-x,y,-z
-x,-y,-z
x,-y,z
loop_
_atom_site_type_symbol
_atom_site_label
_atom_site_fract_x
_atom_site_fract_y
_atom_site_fract_z
Si Si1 0.136331 0.830092 0.725286
Si Si2 0.995969 0.670789 0.827169
Si Si3 0.390246 0.831403 0.423341
Si Si4 0.659604 0.327395 0.138340
Si Si5 0.831427 0.172631 0.358406
Si Si6 0.728995 0.330888 0.472215
Si Si7 0.476016 0.332312 0.676176
Si Si8 0.679865 0.834871 0.018677
O O1 0.294687 0.732893 0.802611
O O2 0.185871 0.782987 0.694100
O O3 0.875516 0.795968 0.656167
O O4 0.193889 0.000000 0.750023
O O5 0.033723 0.500000 0.847457
O O6 0.731192 0.712489 0.740589
O O7 0.129321 0.716590 0.826715
O O8 0.089499 0.758100 0.895002
O O9 0.500000 0.792438 0.500000
O O10 0.499034 0.727132 0.422856
O O11 0.439364 0.000000 0.426898
O O12 0.623537 0.500000 0.129176
O O13 0.424490 0.254979 0.050956
O O14 0.604442 0.230487 0.311278
O O15 0.053855 0.241838 0.446643
O O16 0.853077 0.000000 0.370195
O O17 0.763911 0.500000 0.494352
O O18 0.697909 0.310377 0.414392
O O19 0.471396 0.500000 0.689725
O O20 0.736261 0.000000 0.021774
O O21 0.500000 0.833626 0.000000
#
# Coordination Sequence:
#
# PCOD8060942 Si02
#       8
#     4   4   4   4   4   4   4   4
#     4  10  21  36  53  74 106 141 175 219 265 310
#     4   9  18  34  54  78 111 141 169 211 262 313
#     4  10  19  35  54  74 105 140 173 213 265 316
#     4  10  19  32  54  83 111 140 174 208 256 318
#     4  11  23  39  55  73 101 141 185 224 267 315
#     4  11  22  36  55  79 106 136 177 225 270 316
#     4  10  22  38  54  76 106 138 176 225 270 309
#     4   9  17  30  51  80 112 141 171 207 254 310
#
# _framework density 18.286182
#
# number of rings (size 3 to 8) (size 9 to 14) (size 15 to 20)
#    0.000    2.000    1.250    2.625    0.000    7.750 
#    0.000    0.000    0.000    0.750    0.000    5.250 
#    0.000    0.000    0.000    0.000    0.000    0.000 
#
# Total GULP energy -396909.205144 kJ/mol
# GULP energy per Si atom -12403.412661 kJ/mol
# Density = 1.824456 g / cm^3
# Si number density = 18.286182 Si / 1000 Ang^3
#
#
#
# Elastic Constant Matrix: (Units=GPa)
#
#
# Indices 1 2 3 4 5 6 
#
# 1 78.8610 42.0341 31.3708 0.0000 -7.4416 0.0000
# 2 42.0341 87.5193 57.6945 0.0000 -8.1390 0.0000
# 3 31.3708 57.6945 114.7524 0.0000 -19.1857 0.0000
# 4 0.0000 0.0000 0.0000 34.8090 0.0000 -2.2506
# 5 -7.4416 -8.1390 -19.1857 0.0000 14.3272 0.0000
# 6 0.0000 0.0000 0.0000 -2.2506 0.0000 29.3610
#
#
#
# Elastic Compliance Matrix: (Units=1/GPa)
#
#
# Indices 1 2 3 4 5 6 
#
# 1 0.017315 -0.007887 -0.000018 0.000000 0.004489 0.000000
# 2 -0.007887 0.020743 -0.009003 0.000000 -0.004369 0.000000
# 3 -0.000018 -0.009003 0.015963 0.000000 0.016253 0.000000
# 4 0.000000 0.000000 0.000000 0.028871 0.000000 0.002213
# 5 0.004489 -0.004369 0.016253 0.000000 0.091411 0.000000
# 6 0.000000 0.000000 0.000000 0.002213 0.000000 0.034228
#
#
# Mechanical properties :
#
#
# Convention : Reuss Voigt Hill
#
# Bulk Modulus (GPa) = 49.49213 60.37017 54.93115
# Shear Modulus (GPa) = 20.07363 25.70167 22.88765
#
# Velocity S-wave (km/s) = 3.31682 3.75310 3.54169
# Velocity P-wave (km/s) = 6.46471 7.20186 6.84322
#
# Compressibility (1/GPa) = 0.02020523
#
# Stress axis : x y z
#
# Youngs Moduli (GPa) = 57.75309 48.20911 62.64408
#
# Poissons Ratio (x) = 0.38023 0.00110
# Poissons Ratio (y) = 0.45550 0.56401
# Poissons Ratio (z) = 0.00101 0.43405
#
# Static dielectric constant tensor:
#      x y z
#    x 2.905490 0.000000 -0.282440 
#    y 0.000000 3.427510 0.000000 
#    z -0.282440 0.000000 3.228130 
# 
# 
# High freq. dielectric constant tensor:
#      x y z
#    x 1.685620 0.000000 -0.005550 
#    y 0.000000 1.714840 0.000000 
#    z -0.005550 0.000000 1.710910 
# 
# From -- ./inp_files/95069.got.cif
#   From: 2010.06.25/outbox.cif.g09.slc.cpg/sg10_48_cif.got.tgz:95069.got - 2010.06.27 22:07:45.
