data_PCOD8060428
_publ_section_title
;
Structure prediction by ZEFSAII (Michael W. Deem and Ramdas Pophale) SiO2 
 PCOD8060428
Probable space group: P 2/M
;
_chemical_formula_sum "Si O2"
_cell_formula_units_Z 26
_cell_length_a 19.769920
_cell_length_b 9.426045
_cell_length_c 10.950087
_cell_angle_alpha 90.000000
_cell_angle_beta 44.223516
_cell_angle_gamma 90.000000
_cell_volume 1423.216112
_symmetry_space_group_name_H-M "P 2/M"
_symmetry_group_IT_number 10
_symmetry_cell_setting 'monoclinic'
loop_
_space_group_symop_operation_xyz
x,y,z
-x,y,-z
-x,-y,-z
x,-y,z
loop_
_atom_site_type_symbol
_atom_site_label
_atom_site_fract_x
_atom_site_fract_y
_atom_site_fract_z
Si Si1 0.500000 0.243047 0.000000
Si Si2 0.710765 0.333847 0.114727
Si Si3 0.442302 0.160523 0.811721
Si Si4 0.305639 0.660699 0.359571
Si Si5 0.089419 0.333480 0.238393
Si Si6 0.385233 0.667930 0.506603
Si Si7 0.879825 0.330921 0.531396
O O1 0.474956 0.152759 0.911381
O O2 0.595670 0.334740 0.847650
O O3 0.694585 0.500000 0.106339
O O4 0.659802 0.241684 0.074207
O O5 0.671038 0.291505 0.298387
O O6 0.825503 0.294682 0.967049
O O7 0.514038 0.248150 0.630340
O O8 0.434525 0.000000 0.773843
O O9 0.275148 0.500000 0.416026
O O10 0.321551 0.723318 0.474481
O O11 0.213603 0.739058 0.415653
O O12 0.080937 0.500000 0.266464
O O13 0.118398 0.270825 0.333165
O O14 0.981849 0.281472 0.335394
O O15 0.408316 0.500000 0.468798
O O16 0.868564 0.500000 0.545830
#
# Coordination Sequence:
#
# PCOD8060428 Si02
#       7
#     2   4   4   4   4   4   4
#     4  10  20  32  46  68  95 122 153 190 233 280
#     4  10  19  32  49  69  94 125 159 193 230 272
#     4  11  22  34  49  69  94 123 154 191 235 281
#     4   9  16  27  45  69  97 127 157 190 229 275
#     4   8  14  24  41  66  93 120 152 192 234 273
#     4   9  19  33  47  67  96 126 157 193 230 271
#     4   8  13  23  40  65  95 122 151 190 234 274
#
# _framework density 18.268484000000001
#
# number of rings (size 3 to 8) (size 9 to 14) (size 15 to 20)
#    0.000    2.769    0.000    3.231    0.000    5.538 
#    0.000    0.769    0.000    4.615    0.000   12.923 
#    0.000    6.154    0.000    0.000    0.000    0.000 
#
# Total GULP energy -322098.252274 kJ/mol
# GULP energy per Si atom -12388.394318 kJ/mol
# Density = 1.822690 g / cm^3
# Si number density = 18.268484 Si / 1000 Ang^3
#
#
#
# Elastic Constant Matrix: (Units=GPa)
#
#
# Indices 1 2 3 4 5 6 
#
# 1 104.6474 16.3040 57.1408 0.0000 -23.7856 0.0000
# 2 16.3040 40.2762 20.8941 0.0000 -1.2540 0.0000
# 3 57.1408 20.8941 123.9204 0.0000 -12.9785 0.0000
# 4 0.0000 0.0000 0.0000 1.6712 0.0000 4.1660
# 5 -23.7856 -1.2540 -12.9785 0.0000 31.7173 0.0000
# 6 0.0000 0.0000 0.0000 4.1660 0.0000 10.3444
#
#
#
# Elastic Compliance Matrix: (Units=1/GPa)
#
#
# Indices 1 2 3 4 5 6 
#
# 1 0.015051 -0.002958 -0.005507 0.000000 0.008916 0.000000
# 2 -0.002958 0.027811 -0.003597 0.000000 -0.002590 0.000000
# 3 -0.005507 -0.003597 0.011250 0.000000 0.000331 0.000000
# 4 0.000000 0.000000 0.000000********** 0.000000 61.461384
# 5 0.008916 -0.002590 0.000331 0.000000 0.038248 0.000000
# 6 0.000000 0.000000 0.000000 61.461384 0.000000-24.655670
#
#
# Mechanical properties :
#
#
# Convention : Reuss Voigt Hill
#
# Bulk Modulus (GPa) = 33.34643 50.83574 42.09109
# Shear Modulus (GPa) = -0.02823 20.38026 10.17602
#
# Velocity S-wave (km/s) = -0.12444 3.34368 2.36270
# Velocity P-wave (km/s) = 4.27464 6.54174 5.52571
#
# Compressibility (1/GPa) = 0.02998822
#
# Stress axis : x y z
#
# Youngs Moduli (GPa) = 66.44282 35.95696 88.88637
#
# Poissons Ratio (x) = 0.10635 0.48953
# Poissons Ratio (y) = 0.19653 0.31969
# Poissons Ratio (z) = 0.36593 0.12932
#
# Static dielectric constant tensor:
#      x y z
#    x 3.743950 0.000000 -0.261610 
#    y 0.000000 2.784620 0.000000 
#    z -0.261610 0.000000 3.517330 
# 
# 
# High freq. dielectric constant tensor:
#      x y z
#    x 1.710790 0.000000 -0.010550 
#    y 0.000000 1.645380 0.000000 
#    z -0.010550 0.000000 1.710340 
# 
# From -- ./inp_files/55131.got.cif
#   From: 2010.06.25/outbox.cif.g09.slc.cpg/sg10_28_cif.got.tgz:55131.got - 2010.06.27 22:07:45.
