data_PCOD8060098
_publ_section_title
;
Structure prediction by ZEFSAII (Michael W. Deem and Ramdas Pophale) SiO2 
 PCOD8060098
Probable space group: P 2/M
;
_chemical_formula_sum "Si O2"
_cell_formula_units_Z 32
_cell_length_a 14.324065
_cell_length_b 9.115060
_cell_length_c 21.236368
_cell_angle_alpha 90.000000
_cell_angle_beta 35.038624
_cell_angle_gamma 90.000000
_cell_volume 1591.897756
_symmetry_space_group_name_H-M "P 2/M"
_symmetry_group_IT_number 10
_symmetry_cell_setting 'monoclinic'
loop_
_space_group_symop_operation_xyz
x,y,z
-x,y,-z
-x,-y,-z
x,-y,z
loop_
_atom_site_type_symbol
_atom_site_label
_atom_site_fract_x
_atom_site_fract_y
_atom_site_fract_z
Si Si1 0.812520 0.830285 0.596803
Si Si2 0.443992 0.829466 0.154565
Si Si3 0.045486 0.837863 0.671853
Si Si4 0.243025 0.668214 0.016909
Si Si5 0.262781 0.667852 0.155485
Si Si6 0.693425 0.667286 0.541949
Si Si7 0.597907 0.667199 0.384405
Si Si8 0.071348 0.162888 0.804281
O O1 0.713826 0.802714 0.715210
O O2 0.718741 0.738564 0.595726
O O3 0.000000 0.777463 0.500000
O O4 0.808135 0.000000 0.579412
O O5 0.414285 0.752514 0.103225
O O6 0.480372 0.000000 0.123705
O O7 0.603871 0.755113 0.097517
O O8 0.209575 0.755283 0.564596
O O9 0.032934 0.853229 0.752669
O O10 0.897466 0.742706 0.726668
O O11 0.039190 0.000000 0.643844
O O12 0.244954 0.500000 0.993265
O O13 0.260979 0.680907 0.081869
O O14 0.074973 0.740957 0.085082
O O15 0.271639 0.500000 0.172583
O O16 0.753882 0.500000 0.510787
O O17 0.507830 0.676317 0.621002
O O18 0.500000 0.726885 0.500000
O O19 0.651768 0.500000 0.369032
O O20 0.755688 0.761636 0.281441
O O21 0.074618 0.000000 0.833178
#
# Coordination Sequence:
#
# PCOD8060098 Si02
#       8
#     4   4   4   4   4   4   4   4
#     4  10  23  42  60  80 111 151 191 235 285 330
#     4  11  22  36  56  80 108 144 188 236 284 333
#     4  10  19  31  49  76 112 148 182 225 275 329
#     4  10  21  36  55  79 112 150 185 228 284 339
#     4  10  20  33  52  79 110 145 186 229 279 335
#     4  11  22  35  56  83 111 150 193 232 277 333
#     4  10  20  35  55  82 120 154 183 226 283 342
#     4  10  20  33  53  82 113 147 186 225 273 334
#
# _framework density 20.101794000000002
#
# number of rings (size 3 to 8) (size 9 to 14) (size 15 to 20)
#    0.000    1.750    1.250    3.375    0.000    7.500 
#    0.000    0.000    0.000    0.750    0.000    5.250 
#    0.000    0.000    0.000    0.000    0.000    0.000 
#
# Total GULP energy -396770.817761 kJ/mol
# GULP energy per Si atom -12399.088055 kJ/mol
# Density = 2.005604 g / cm^3
# Si number density = 20.101794 Si / 1000 Ang^3
#
#
#
# Elastic Constant Matrix: (Units=GPa)
#
#
# Indices 1 2 3 4 5 6 
#
# 1 61.6359 34.9729 16.3649 0.0000 -15.0909 0.0000
# 2 34.9729 153.0972 56.3220 0.0000 -21.4621 0.0000
# 3 16.3649 56.3220 98.2875 0.0000 -30.3959 0.0000
# 4 0.0000 0.0000 0.0000 34.7124 0.0000 -10.0609
# 5 -15.0909 -21.4621 -30.3959 0.0000 29.9391 0.0000
# 6 0.0000 0.0000 0.0000 -10.0609 0.0000 25.8883
#
#
#
# Elastic Compliance Matrix: (Units=1/GPa)
#
#
# Indices 1 2 3 4 5 6 
#
# 1 0.020257 -0.003986 0.001728 0.000000 0.009107 0.000000
# 2 -0.003986 0.009116 -0.004607 0.000000 -0.000152 0.000000
# 3 0.001728 -0.004607 0.017163 0.000000 0.014994 0.000000
# 4 0.000000 0.000000 0.000000 0.032465 0.000000 0.012617
# 5 0.009107 -0.000152 0.014994 0.000000 0.053105 0.000000
# 6 0.000000 0.000000 0.000000 0.012617 0.000000 0.043531
#
#
# Mechanical properties :
#
#
# Convention : Reuss Voigt Hill
#
# Bulk Modulus (GPa) = 30.48227 58.70445 44.59336
# Shear Modulus (GPa) = 24.96211 31.79871 28.38041
#
# Velocity S-wave (km/s) = 3.52772 3.98161 3.76152
# Velocity P-wave (km/s) = 5.63826 7.09962 6.41071
#
# Compressibility (1/GPa) = 0.03280595
#
# Stress axis : x y z
#
# Youngs Moduli (GPa) = 49.36483 109.69728 58.26375
#
# Poissons Ratio (x) = 0.43731 -0.10068
# Poissons Ratio (y) = 0.19679 0.26842
# Poissons Ratio (z) = -0.08531 0.50537
#
# Static dielectric constant tensor:
#      x y z
#    x 3.328140 0.000000 -0.260740 
#    y 0.000000 3.875170 0.000000 
#    z -0.260740 0.000000 3.634150 
# 
# 
# High freq. dielectric constant tensor:
#      x y z
#    x 1.754330 0.000000 -0.026070 
#    y 0.000000 1.797130 0.000000 
#    z -0.026070 0.000000 1.779580 
# 
# From -- ./inp_files/71431.got.cif
#   From: 2010.06.25/outbox.cif.g09.slc.cpg/sg10_36_cif.got.tgz:71431.got - 2010.06.27 22:07:45.
