data_PCOD8060336
_publ_section_title
;
Structure prediction by ZEFSAII (Michael W. Deem and Ramdas Pophale) SiO2 
 PCOD8060336
Probable space group: P 2/M
;
_chemical_formula_sum "Si O2"
_cell_formula_units_Z 28
_cell_length_a 19.068421
_cell_length_b 8.814136
_cell_length_c 15.359846
_cell_angle_alpha 90.000000
_cell_angle_beta 142.129909
_cell_angle_gamma 90.000000
_cell_volume 1584.747293
_symmetry_space_group_name_H-M "P 2/M"
_symmetry_group_IT_number 10
_symmetry_cell_setting 'monoclinic'
loop_
_space_group_symop_operation_xyz
x,y,z
-x,y,-z
-x,-y,-z
x,-y,z
loop_
_atom_site_type_symbol
_atom_site_label
_atom_site_fract_x
_atom_site_fract_y
_atom_site_fract_z
Si Si1 0.138047 0.179837 0.816887
Si Si2 0.498807 0.820941 0.398243
Si Si3 0.893032 0.676332 0.576761
Si Si4 0.726140 0.319965 0.896722
Si Si5 0.134301 0.166325 0.621744
Si Si6 0.873392 0.680081 0.879713
Si Si7 0.729923 0.321505 0.575140
O O1 0.178810 0.226165 0.758980
O O2 0.010184 0.236679 0.712209
O O3 0.138055 0.000000 0.828297
O O4 0.231087 0.255075 0.970124
O O5 0.500000 0.765204 0.500000
O O6 0.398131 0.741675 0.246910
O O7 0.613010 0.771201 0.460617
O O8 0.483084 0.000000 0.377692
O O9 0.922972 0.500000 0.607915
O O10 0.837265 0.719260 0.428831
O O11 0.799160 0.719021 0.556266
O O12 0.721408 0.500000 0.896927
O O13 0.813305 0.262016 0.908291
O O14 0.000000 0.149592 0.500000
O O15 0.186324 0.000000 0.651108
O O16 0.880217 0.500000 0.884735
O O17 0.803209 0.738467 0.728305
O O18 0.000000 0.750774 0.000000
O O19 0.703599 0.500000 0.556502
#
# Coordination Sequence:
#
# PCOD8060336 Si02
#       7
#     4   4   4   4   4   4   4
#     4  10  20  34  52  77 112 146 175 212 263 320
#     4  11  23  38  55  75 103 137 180 224 263 310
#     4  10  19  31  53  83 110 138 176 221 262 308
#     4  11  21  34  56  78 102 138 179 222 263 305
#     4   8  16  31  50  73 106 146 176 206 258 320
#     4   9  17  30  49  74 104 135 166 204 254 310
#     4  10  20  35  54  76 105 139 178 218 261 311
#
# _framework density 17.668431999999999
#
# number of rings (size 3 to 8) (size 9 to 14) (size 15 to 20)
#    0.000    2.143    1.429    3.429    0.000    7.143 
#    0.000    0.000    0.000    3.000    0.000    6.000 
#    0.000    0.000    0.000    0.000    0.000    0.000 
#
# Total GULP energy -347189.494427 kJ/mol
# GULP energy per Si atom -12399.624801 kJ/mol
# Density = 1.762822 g / cm^3
# Si number density = 17.668432 Si / 1000 Ang^3
#
#
#
# Elastic Constant Matrix: (Units=GPa)
#
#
# Indices 1 2 3 4 5 6 
#
# 1 74.0102 39.1985 78.6660 0.0000 -12.9635 0.0000
# 2 39.1985 64.2791 43.5190 0.0000 -6.0124 0.0000
# 3 78.6660 43.5190 142.1419 0.0000 -10.9882 0.0000
# 4 0.0000 0.0000 0.0000 24.6536 0.0000 -3.2943
# 5 -12.9635 -6.0124 -10.9882 0.0000 32.3055 0.0000
# 6 0.0000 0.0000 0.0000 -3.2943 0.0000 20.6381
#
#
#
# Elastic Compliance Matrix: (Units=1/GPa)
#
#
# Indices 1 2 3 4 5 6 
#
# 1 0.040316 -0.011550 -0.018169 0.000000 0.007848 0.000000
# 2 -0.011550 0.023020 -0.000701 0.000000 -0.000589 0.000000
# 3 -0.018169 -0.000701 0.017184 0.000000 -0.001577 0.000000
# 4 0.000000 0.000000 0.000000 0.041446 0.000000 0.006616
# 5 0.007848 -0.000589 -0.001577 0.000000 0.033458 0.000000
# 6 0.000000 0.000000 0.000000 0.006616 0.000000 0.049510
#
#
# Mechanical properties :
#
#
# Convention : Reuss Voigt Hill
#
# Bulk Modulus (GPa) = 50.81703 67.02202 58.91952
# Shear Modulus (GPa) = 18.35974 23.45593 20.90784
#
# Velocity S-wave (km/s) = 3.22705 3.64752 3.44371
# Velocity P-wave (km/s) = 6.53521 7.46691 7.01655
#
# Compressibility (1/GPa) = 0.01967844
#
# Stress axis : x y z
#
# Youngs Moduli (GPa) = 24.80409 43.43980 58.19523
#
# Poissons Ratio (x) = 0.50173 1.05736
# Poissons Ratio (y) = 0.28649 0.04082
# Poissons Ratio (z) = 0.45067 0.03047
#
# Static dielectric constant tensor:
#      x y z
#    x 3.392950 0.000000 -0.275790 
#    y 0.000000 3.185880 0.000000 
#    z -0.275790 0.000000 3.397040 
# 
# 
# High freq. dielectric constant tensor:
#      x y z
#    x 1.675670 0.000000 -0.015530 
#    y 0.000000 1.677830 0.000000 
#    z -0.015530 0.000000 1.678530 
# 
# From -- ./inp_files/68705.got.cif
#   From: 2010.06.25/outbox.cif.g09.slc.cpg/sg10_35_cif.got.tgz:68705.got - 2010.06.27 22:07:45.
