data_PCOD8060840
_publ_section_title
;
Structure prediction by ZEFSAII (Michael W. Deem and Ramdas Pophale) SiO2 
 PCOD8060840
Probable space group: P 2/M
;
_chemical_formula_sum "Si O2"
_cell_formula_units_Z 30
_cell_length_a 25.203014
_cell_length_b 14.023738
_cell_length_c 10.159529
_cell_angle_alpha 90.000000
_cell_angle_beta 152.575079
_cell_angle_gamma 90.000000
_cell_volume 1653.866623
_symmetry_space_group_name_H-M "P 2/M"
_symmetry_group_IT_number 10
_symmetry_cell_setting 'monoclinic'
loop_
_space_group_symop_operation_xyz
x,y,z
-x,y,-z
-x,-y,-z
x,-y,z
loop_
_atom_site_type_symbol
_atom_site_label
_atom_site_fract_x
_atom_site_fract_y
_atom_site_fract_z
Si Si1 0.297122 0.110793 0.481270
Si Si2 0.553418 0.390838 0.919393
Si Si3 0.252039 0.605163 0.857156
Si Si4 0.500000 0.241034 0.000000
Si Si5 0.842075 0.788779 0.036740
Si Si6 0.120976 0.887903 0.321968
Si Si7 0.892837 0.217424 0.443515
Si Si8 0.702008 0.605324 0.742460
O O1 0.413002 0.173005 0.729134
O O2 0.225262 0.129251 0.189862
O O3 0.222786 0.139975 0.445879
O O4 0.330769 0.000000 0.559634
O O5 0.569802 0.500000 0.006227
O O6 0.577934 0.312088 0.084064
O O7 0.424225 0.373038 0.587826
O O8 0.642824 0.365396 0.003316
O O9 0.204800 0.500000 0.718854
O O10 0.143707 0.674824 0.602845
O O11 0.306855 0.608716 0.121042
O O12 0.790245 0.685209 0.885850
O O13 0.834312 0.813154 0.175569
O O14 0.971331 0.787503 0.270528
O O15 0.149729 0.848572 0.530690
O O16 0.109969 0.000000 0.312829
O O17 0.000000 0.846134 0.000000
O O18 0.744487 0.500000 0.789386
#
# Coordination Sequence:
#
# PCOD8060840 Si02
#       8
#     4   4   4   2   4   4   4   4
#     4  11  23  39  57  78 107 143 181 223 272 326
#     4  10  19  32  53  80 108 140 178 222 263 308
#     4   9  18  32  52  79 111 143 177 214 257 317
#     4  12  22  36  56  78 108 144 178 218 270 330
#     4  10  20  35  54  83 111 140 177 226 269 312
#     4  10  20  36  57  78 102 137 179 222 267 318
#     4  10  20  34  57  82 109 142 180 219 271 316
#     4   9  17  32  53  78 106 142 181 216 261 315
#
# _framework density 18.139309000000001
#
# number of rings (size 3 to 8) (size 9 to 14) (size 15 to 20)
#    0.000    2.000    2.667    1.600    0.000    2.667 
#    0.000    4.000    0.000    0.400    0.000    4.667 
#    0.000    0.000    0.000    0.000    0.000    0.000 
#
# Total GULP energy -371930.417765 kJ/mol
# GULP energy per Si atom -12397.680592 kJ/mol
# Density = 1.809802 g / cm^3
# Si number density = 18.139309 Si / 1000 Ang^3
#
#
#
# Elastic Constant Matrix: (Units=GPa)
#
#
# Indices 1 2 3 4 5 6 
#
# 1 75.0351 37.2409 18.8392 0.0000 -11.3779 0.0000
# 2 37.2409 76.2226 32.5577 0.0000 -5.2653 0.0000
# 3 18.8392 32.5577 75.7106 0.0000 -6.1118 0.0000
# 4 0.0000 0.0000 0.0000 26.3918 0.0000 -4.2531
# 5 -11.3779 -5.2653 -6.1118 0.0000 19.5281 0.0000
# 6 0.0000 0.0000 0.0000 -4.2531 0.0000 28.2286
#
#
#
# Elastic Compliance Matrix: (Units=1/GPa)
#
#
# Indices 1 2 3 4 5 6 
#
# 1 0.018949 -0.008508 -0.000359 0.000000 0.008634 0.000000
# 2 -0.008508 0.019987 -0.006610 0.000000 -0.001637 0.000000
# 3 -0.000359 -0.006610 0.016393 0.000000 0.003139 0.000000
# 4 0.000000 0.000000 0.000000 0.038833 0.000000 0.005851
# 5 0.008634 -0.001637 0.003139 0.000000 0.056780 0.000000
# 6 0.000000 0.000000 0.000000 0.005851 0.000000 0.036307
#
#
# Mechanical properties :
#
#
# Convention : Reuss Voigt Hill
#
# Bulk Modulus (GPa) = 41.02673 44.91598 42.97136
# Shear Modulus (GPa) = 22.09170 24.05174 23.07172
#
# Velocity S-wave (km/s) = 3.49362 3.64530 3.57027
# Velocity P-wave (km/s) = 6.24023 6.52174 6.38254
#
# Compressibility (1/GPa) = 0.02437435
#
# Stress axis : x y z
#
# Youngs Moduli (GPa) = 52.77226 50.03321 61.00000
#
# Poissons Ratio (x) = 0.42570 0.02192
# Poissons Ratio (y) = 0.44900 0.40320
# Poissons Ratio (z) = 0.01897 0.33071
#
# Static dielectric constant tensor:
#      x y z
#    x 3.387800 0.000000 -0.060100 
#    y 0.000000 3.444150 0.000000 
#    z -0.060100 0.000000 3.291990 
# 
# 
# High freq. dielectric constant tensor:
#      x y z
#    x 1.701790 0.000000 -0.003340 
#    y 0.000000 1.704100 0.000000 
#    z -0.003340 0.000000 1.696660 
# 
# From -- ./inp_files/36322.got.cif
#   From: 2010.06.25/outbox.cif.g09.slc.cpg/sg10_19_cif.got.tgz:36322.got - 2010.06.27 22:07:45.
