data_PCOD8060546
_publ_section_title
;
Structure prediction by ZEFSAII (Michael W. Deem and Ramdas Pophale) SiO2 
 PCOD8060546
Probable space group: P 2/M
;
_chemical_formula_sum "Si O2"
_cell_formula_units_Z 32
_cell_length_a 20.525021
_cell_length_b 9.255714
_cell_length_c 11.541273
_cell_angle_alpha 90.000000
_cell_angle_beta 53.137419
_cell_angle_gamma 90.000000
_cell_volume 1754.198869
_symmetry_space_group_name_H-M "P 2/M"
_symmetry_group_IT_number 10
_symmetry_cell_setting 'monoclinic'
loop_
_space_group_symop_operation_xyz
x,y,z
-x,y,-z
-x,-y,-z
x,-y,z
loop_
_atom_site_type_symbol
_atom_site_label
_atom_site_fract_x
_atom_site_fract_y
_atom_site_fract_z
Si Si1 0.239919 0.833506 0.320875
Si Si2 0.774012 0.327797 0.422933
Si Si3 0.922969 0.835084 0.648735
Si Si4 0.315973 0.669307 0.038802
Si Si5 0.154304 0.667757 0.074759
Si Si6 0.091727 0.671039 0.897397
Si Si7 0.443168 0.328664 0.722158
Si Si8 0.385010 0.671374 0.539739
O O1 0.233460 0.750195 0.447436
O O2 0.153784 0.817445 0.351807
O O3 0.307432 0.759054 0.166435
O O4 0.263988 0.000000 0.315735
O O5 0.771017 0.500000 0.444494
O O6 0.857798 0.278723 0.269982
O O7 0.698482 0.271245 0.425958
O O8 0.913225 0.747710 0.777104
O O9 0.000000 0.768898 0.500000
O O10 0.939097 0.000000 0.666118
O O11 0.317309 0.500000 0.069117
O O12 0.244302 0.704602 0.023846
O O13 0.398678 0.722825 0.887297
O O14 0.135084 0.500000 0.106374
O O15 0.143397 0.720861 0.954499
O O16 0.085344 0.500000 0.902063
O O17 0.000000 0.737341 0.000000
O O18 0.436929 0.500000 0.722383
O O19 0.537582 0.278965 0.621604
O O20 0.397209 0.266853 0.656830
O O21 0.382060 0.500000 0.548186
#
# Coordination Sequence:
#
# PCOD8060546 Si02
#       8
#     4   4   4   4   4   4   4   4
#     4  10  21  35  49  67  94 129 164 199 242 286
#     4  10  19  32  51  71  98 130 161 194 234 287
#     4   9  19  34  50  66  88 120 158 201 242 276
#     4   9  16  29  50  74  95 121 159 201 239 278
#     4   9  17  29  47  71  95 118 152 192 233 281
#     4   9  18  30  45  70 100 126 150 187 239 287
#     4   8  13  24  47  76 104 124 152 198 242 283
#     4   8  14  25  45  77 104 126 154 193 243 284
#
# _framework density 18.241945000000001
#
# number of rings (size 3 to 8) (size 9 to 14) (size 15 to 20)
#    0.000    3.000    0.000    1.875    1.750    3.750 
#    0.000    1.250    0.000    7.500    0.000    1.750 
#    0.000    0.000    0.000    0.000    0.000    0.000 
#
# Total GULP energy -396627.173936 kJ/mol
# GULP energy per Si atom -12394.599186 kJ/mol
# Density = 1.820043 g / cm^3
# Si number density = 18.241945 Si / 1000 Ang^3
#
#
#
# Elastic Constant Matrix: (Units=GPa)
#
#
# Indices 1 2 3 4 5 6 
#
# 1 58.6464 21.8164 53.7881 0.0000 3.2932 0.0000
# 2 21.8164 37.5752 41.0214 0.0000 4.5554 0.0000
# 3 53.7881 41.0214 178.1712 0.0000 -1.5842 0.0000
# 4 0.0000 0.0000 0.0000 1.9121 0.0000 -4.0368
# 5 3.2932 4.5554 -1.5842 0.0000 30.2469 0.0000
# 6 0.0000 0.0000 0.0000 -4.0368 0.0000 10.1724
#
#
#
# Elastic Compliance Matrix: (Units=1/GPa)
#
#
# Indices 1 2 3 4 5 6 
#
# 1 0.025581 -0.008254 -0.005839 0.000000 -0.001848 0.000000
# 2 -0.008254 0.039253 -0.006593 0.000000 -0.005359 0.000000
# 3 -0.005839 -0.006593 0.008912 0.000000 0.002095 0.000000
# 4 0.000000 0.000000 0.000000 3.224433 0.000000 1.279593
# 5 -0.001848 -0.005359 0.002095 0.000000 0.034179 0.000000
# 6 0.000000 0.000000 0.000000 1.279593 0.000000 0.606102
#
#
# Mechanical properties :
#
#
# Convention : Reuss Voigt Hill
#
# Bulk Modulus (GPa) = 30.88935 56.40498 43.64716
# Shear Modulus (GPa) = 1.25294 18.98407 10.11850
#
# Velocity S-wave (km/s) = 0.82966 3.22946 2.35773
# Velocity P-wave (km/s) = 4.22938 6.70026 5.60273
#
# Compressibility (1/GPa) = 0.03237362
#
# Stress axis : x y z
#
# Youngs Moduli (GPa) = 39.09223 25.47550 112.21053
#
# Poissons Ratio (x) = 0.21028 0.65514
# Poissons Ratio (y) = 0.32268 0.73984
# Poissons Ratio (z) = 0.22824 0.16797
#
# Static dielectric constant tensor:
#      x y z
#    x 3.422200 0.000000 -0.131720 
#    y 0.000000 2.973580 0.000000 
#    z -0.131720 0.000000 3.713560 
# 
# 
# High freq. dielectric constant tensor:
#      x y z
#    x 1.694730 0.000000 -0.003080 
#    y 0.000000 1.656370 0.000000 
#    z -0.003080 0.000000 1.724190 
# 
# From -- ./inp_files/55266.got.cif
#   From: 2010.06.25/outbox.cif.g09.slc.cpg/sg10_28_cif.got.tgz:55266.got - 2010.06.27 22:07:45.
