data_PCOD8060339
_publ_section_title
;
Structure prediction by ZEFSAII (Michael W. Deem and Ramdas Pophale) SiO2 
 PCOD8060339
Probable space group: P 2/M
;
_chemical_formula_sum "Si O2"
_cell_formula_units_Z 28
_cell_length_a 14.397784
_cell_length_b 9.057331
_cell_length_c 20.024960
_cell_angle_alpha 90.000000
_cell_angle_beta 33.000600
_cell_angle_gamma 90.000000
_cell_volume 1422.274154
_symmetry_space_group_name_H-M "P 2/M"
_symmetry_group_IT_number 10
_symmetry_cell_setting 'monoclinic'
loop_
_space_group_symop_operation_xyz
x,y,z
-x,y,-z
-x,-y,-z
x,-y,z
loop_
_atom_site_type_symbol
_atom_site_label
_atom_site_fract_x
_atom_site_fract_y
_atom_site_fract_z
Si Si1 0.111194 0.173494 0.262235
Si Si2 0.218285 0.326622 0.561486
Si Si3 0.428120 0.666108 0.117547
Si Si4 0.743725 0.169371 0.967908
Si Si5 0.402314 0.673107 0.707249
Si Si6 0.694335 0.164495 0.362173
Si Si7 0.163871 0.829141 0.942308
O O1 0.255280 0.238445 0.224384
O O2 0.150557 0.215236 0.161341
O O3 0.932437 0.250249 0.389903
O O4 0.097317 0.000000 0.282393
O O5 0.187046 0.500000 0.585038
O O6 0.397315 0.288855 0.418090
O O7 0.207611 0.260151 0.642221
O O8 0.388804 0.500000 0.165321
O O9 0.500000 0.668603 0.000000
O O10 0.570292 0.736588 0.079963
O O11 0.686390 0.000000 0.996180
O O12 0.860205 0.195694 0.963523
O O13 0.372139 0.500000 0.717993
O O14 0.292281 0.754222 0.716499
O O15 0.329183 0.734395 0.820820
O O16 0.500000 0.150411 0.500000
O O17 0.776857 0.000000 0.307414
O O18 0.199069 0.000000 0.904641
O O19 0.000000 0.771880 0.000000
#
# Coordination Sequence:
#
# PCOD8060339 Si02
#       7
#     4   4   4   4   4   4   4
#     4  10  19  31  53  83 111 139 174 216 266 322
#     4  10  20  33  50  76 109 139 172 218 271 318
#     4   9  17  31  52  78 107 139 173 214 267 320
#     4   9  19  35  53  77 108 141 177 219 265 312
#     4  10  21  36  52  73 104 141 179 221 266 315
#     4   9  17  30  49  71  96 132 175 215 259 311
#     4  10  22  38  56  77 105 143 184 225 261 306
#
# _framework density 19.686779999999999
#
# number of rings (size 3 to 8) (size 9 to 14) (size 15 to 20)
#    0.000    2.429    0.000    2.143    2.000    6.571 
#    0.000    0.000    0.000    0.857    0.000    6.000 
#    0.000    0.000    0.000    0.000    0.000    0.000 
#
# Total GULP energy -347207.141485 kJ/mol
# GULP energy per Si atom -12400.255053 kJ/mol
# Density = 1.964197 g / cm^3
# Si number density = 19.686780 Si / 1000 Ang^3
#
#
#
# Elastic Constant Matrix: (Units=GPa)
#
#
# Indices 1 2 3 4 5 6 
#
# 1 74.7829 28.5879 22.2354 0.0000 -21.4466 0.0000
# 2 28.5879 107.9236 38.1185 0.0000 -19.1031 0.0000
# 3 22.2354 38.1185 61.3271 0.0000 -15.4728 0.0000
# 4 0.0000 0.0000 0.0000 29.6537 0.0000 -7.3958
# 5 -21.4466 -19.1031 -15.4728 0.0000 32.9401 0.0000
# 6 0.0000 0.0000 0.0000 -7.3958 0.0000 30.1860
#
#
#
# Elastic Compliance Matrix: (Units=1/GPa)
#
#
# Indices 1 2 3 4 5 6 
#
# 1 0.017560 -0.002076 -0.002831 0.000000 0.008899 0.000000
# 2 -0.002076 0.012571 -0.006310 0.000000 0.002974 0.000000
# 3 -0.002831 -0.006310 0.022537 0.000000 0.005084 0.000000
# 4 0.000000 0.000000 0.000000 0.035917 0.000000 0.008800
# 5 0.008899 0.002974 0.005084 0.000000 0.040265 0.000000
# 6 0.000000 0.000000 0.000000 0.008800 0.000000 0.035284
#
#
# Mechanical properties :
#
#
# Convention : Reuss Voigt Hill
#
# Bulk Modulus (GPa) = 33.07679 46.87967 39.97823
# Shear Modulus (GPa) = 25.42625 28.89539 27.16082
#
# Velocity S-wave (km/s) = 3.59770 3.83529 3.71839
# Velocity P-wave (km/s) = 5.83917 6.59371 6.22788
#
# Compressibility (1/GPa) = 0.03023268
#
# Stress axis : x y z
#
# Youngs Moduli (GPa) = 56.94912 79.54710 44.37084
#
# Poissons Ratio (x) = 0.16517 0.12561
# Poissons Ratio (y) = 0.11825 0.28000
# Poissons Ratio (z) = 0.16121 0.50198
#
# Static dielectric constant tensor:
#      x y z
#    x 3.470030 0.000000 -0.197260 
#    y 0.000000 3.653530 0.000000 
#    z -0.197260 0.000000 3.390600 
# 
# 
# High freq. dielectric constant tensor:
#      x y z
#    x 1.746920 0.000000 -0.023240 
#    y 0.000000 1.774750 0.000000 
#    z -0.023240 0.000000 1.747740 
# 
# From -- ./inp_files/70316.got.cif
#   From: 2010.06.25/outbox.cif.g09.slc.cpg/sg10_36_cif.got.tgz:70316.got - 2010.06.27 22:07:45.
