data_PCOD8060885
_publ_section_title
;
Structure prediction by ZEFSAII (Michael W. Deem and Ramdas Pophale) SiO2 
 PCOD8060885
Probable space group: P 2/M
;
_chemical_formula_sum "Si O2"
_cell_formula_units_Z 32
_cell_length_a 20.748431
_cell_length_b 17.094871
_cell_length_c 20.865518
_cell_angle_alpha 90.000000
_cell_angle_beta 13.779119
_cell_angle_gamma 90.000000
_cell_volume 1762.725448
_symmetry_space_group_name_H-M "P 2/M"
_symmetry_group_IT_number 10
_symmetry_cell_setting 'monoclinic'
loop_
_space_group_symop_operation_xyz
x,y,z
-x,y,-z
-x,-y,-z
x,-y,z
loop_
_atom_site_type_symbol
_atom_site_label
_atom_site_fract_x
_atom_site_fract_y
_atom_site_fract_z
Si Si1 0.560940 0.909793 0.635061
Si Si2 0.701113 0.587546 0.440902
Si Si3 0.773170 0.284400 0.268340
Si Si4 0.087709 0.265650 0.195787
Si Si5 0.972063 0.176071 0.874761
Si Si6 0.714567 0.088826 0.742138
Si Si7 0.260665 0.587105 0.966959
Si Si8 0.616530 0.180505 0.709539
O O1 0.614737 0.885206 0.656322
O O2 0.834465 0.895686 0.331462
O O3 0.479578 0.000000 0.711830
O O4 0.327629 0.858273 0.826859
O O5 0.601704 0.500000 0.518077
O O6 0.662358 0.644788 0.418748
O O7 0.523883 0.616999 0.673211
O O8 0.014584 0.586117 0.155237
O O9 0.500000 0.250228 0.500000
O O10 0.920264 0.214988 0.164682
O O11 0.000000 0.316204 0.000000
O O12 0.030949 0.242239 0.177035
O O13 0.815103 0.252791 0.499782
O O14 0.190868 0.355442 0.093950
O O15 0.314947 0.212496 0.009631
O O16 0.718247 0.142079 0.676158
O O17 0.000000 0.093107 0.500000
O O18 0.639613 0.000000 0.794710
O O19 0.500000 0.122258 0.000000
O O20 0.311450 0.500000 0.946200
#
# Coordination Sequence:
#
# PCOD8060885 Si02
#       8
#     4   4   4   4   4   4   4   4
#     4  10  20  35  57  78 100 128 162 219 267 308
#     4  10  21  35  53  75 103 137 171 208 252 316
#     4  12  24  36  55  74 100 135 174 217 252 318
#     4  10  19  32  54  76 106 136 169 221 263 302
#     4  10  21  35  53  75 100 128 167 209 269 320
#     4  10  20  34  52  75 114 158 183 206 246 302
#     4  10  19  33  54  77 107 140 168 205 266 327
#     4  10  20  32  52  83 108 137 178 217 248 300
#
# _framework density 18.153704999999999
#
# number of rings (size 3 to 8) (size 9 to 14) (size 15 to 20)
#    0.000    1.750    1.250    3.750    3.500    0.500 
#    0.000    3.750    0.000    7.500    0.000    0.000 
#    0.000   10.000    0.000    0.000    0.000    0.000 
#
# Total GULP energy -396848.589905 kJ/mol
# GULP energy per Si atom -12401.518435 kJ/mol
# Density = 1.811239 g / cm^3
# Si number density = 18.153705 Si / 1000 Ang^3
#
#
#
# Elastic Constant Matrix: (Units=GPa)
#
#
# Indices 1 2 3 4 5 6 
#
# 1 72.2684 37.4491 15.1428 0.0000 -1.5866 0.0000
# 2 37.4491 84.1090 11.7587 0.0000 11.1686 0.0000
# 3 15.1428 11.7587 83.9889 0.0000 3.5906 0.0000
# 4 0.0000 0.0000 0.0000 20.2105 0.0000 2.5229
# 5 -1.5866 11.1686 3.5906 0.0000 20.9416 0.0000
# 6 0.0000 0.0000 0.0000 2.5229 0.0000 20.2691
#
#
#
# Elastic Compliance Matrix: (Units=1/GPa)
#
#
# Indices 1 2 3 4 5 6 
#
# 1 0.019224 -0.009108 -0.002479 0.000000 0.006739 0.000000
# 2 -0.009108 0.017304 -0.000359 0.000000 -0.009857 0.000000
# 3 -0.002479 -0.000359 0.012495 0.000000 -0.002139 0.000000
# 4 0.000000 0.000000 0.000000 0.050260 0.000000 -0.006256
# 5 0.006739 -0.009857 -0.002139 0.000000 0.053886 0.000000
# 6 0.000000 0.000000 0.000000 -0.006256 0.000000 0.050115
#
#
# Mechanical properties :
#
#
# Convention : Reuss Voigt Hill
#
# Bulk Modulus (GPa) = 39.79132 41.00750 40.39941
# Shear Modulus (GPa) = 21.22666 24.01862 22.62264
#
# Velocity S-wave (km/s) = 3.42318 3.64135 3.53395
# Velocity P-wave (km/s) = 6.13114 6.34959 6.24132
#
# Compressibility (1/GPa) = 0.02513111
#
# Stress axis : x y z
#
# Youngs Moduli (GPa) = 52.01746 57.79143 80.03206
#
# Poissons Ratio (x) = 0.52635 0.19840
# Poissons Ratio (y) = 0.47376 0.02874
# Poissons Ratio (z) = 0.12895 0.02075
#
# Static dielectric constant tensor:
#      x y z
#    x 3.002850 0.000000 -0.043300 
#    y 0.000000 3.320020 0.000000 
#    z -0.043300 0.000000 3.536580 
# 
# 
# High freq. dielectric constant tensor:
#      x y z
#    x 1.663550 0.000000 -0.008220 
#    y 0.000000 1.694380 0.000000 
#    z -0.008220 0.000000 1.729170 
# 
# From -- ./inp_files/91141.got.cif
#   From: 2010.06.25/outbox.cif.g09.slc.cpg/sg10_46_cif.got.tgz:91141.got - 2010.06.27 22:07:45.
