data_PCOD8060899
_publ_section_title
;
Structure prediction by ZEFSAII (Michael W. Deem and Ramdas Pophale) SiO2 
 PCOD8060899
Probable space group: P 2/M
;
_chemical_formula_sum "Si O2"
_cell_formula_units_Z 32
_cell_length_a 28.382555
_cell_length_b 8.969830
_cell_length_c 12.003971
_cell_angle_alpha 90.000000
_cell_angle_beta 33.108465
_cell_angle_gamma 90.000000
_cell_volume 1669.293817
_symmetry_space_group_name_H-M "P 2/M"
_symmetry_group_IT_number 10
_symmetry_cell_setting 'monoclinic'
loop_
_space_group_symop_operation_xyz
x,y,z
-x,y,-z
-x,-y,-z
x,-y,z
loop_
_atom_site_type_symbol
_atom_site_label
_atom_site_fract_x
_atom_site_fract_y
_atom_site_fract_z
Si Si1 0.345074 0.176578 0.535129
Si Si2 0.847088 0.676189 0.535129
Si Si3 0.994808 0.677516 0.635071
Si Si4 0.830064 0.676866 0.100257
Si Si5 0.096770 0.322697 0.811943
Si Si6 0.655563 0.325460 0.931136
Si Si7 0.493261 0.176449 0.639632
Si Si8 0.399336 0.327257 0.204913
O O1 0.258748 0.245127 0.760105
O O2 0.425057 0.234281 0.451268
O O3 0.355766 0.231251 0.387649
O O4 0.338709 0.000000 0.549489
O O5 0.858718 0.500000 0.507467
O O6 0.923340 0.744431 0.459802
O O7 0.854005 0.736780 0.395015
O O8 0.753593 0.717445 0.769959
O O9 0.999744 0.500000 0.625846
O O10 0.000000 0.741203 0.500000
O O11 0.905449 0.729841 0.867511
O O12 0.817757 0.500000 0.120157
O O13 0.854028 0.735015 0.176246
O O14 0.093518 0.500000 0.823340
O O15 0.000000 0.258636 0.000000
O O16 0.636590 0.500000 0.982251
O O17 0.594351 0.237689 0.135090
O O18 0.641094 0.277502 0.832066
O O19 0.500000 0.235707 0.500000
O O20 0.488476 0.000000 0.652117
O O21 0.380053 0.500000 0.268863
O O22 0.500000 0.293134 0.000000
#
# Coordination Sequence:
#
# PCOD8060899 Si02
#       8
#     4   4   4   4   4   4   4   4
#     4  11  23  37  56  80 108 144 183 223 270 325
#     4   9  16  27  45  73 105 133 166 207 253 309
#     4   9  17  29  46  73 107 137 168 212 265 315
#     4  10  19  32  54  80 106 138 176 220 267 315
#     4   9  14  25  48  76 103 135 172 207 250 310
#     4  10  20  34  56  85 112 138 171 220 273 320
#     4  10  23  42  58  73 101 144 189 227 265 318
#     4  10  19  34  57  84 113 139 169 216 273 329
#
# _framework density 19.169782999999999
#
# number of rings (size 3 to 8) (size 9 to 14) (size 15 to 20)
#    0.000    2.250    2.500    1.125    0.000    4.500 
#    0.000    1.250    0.000    1.500    0.000    0.000 
#    0.000    0.000    0.000    0.000    0.000    0.000 
#
# Total GULP energy -396795.681368 kJ/mol
# GULP energy per Si atom -12399.865043 kJ/mol
# Density = 1.912615 g / cm^3
# Si number density = 19.169783 Si / 1000 Ang^3
#
#
#
# Elastic Constant Matrix: (Units=GPa)
#
#
# Indices 1 2 3 4 5 6 
#
# 1 95.0965 16.9883 85.2485 0.0000 10.7224 0.0000
# 2 16.9883 21.3198 26.7905 0.0000 -1.9970 0.0000
# 3 85.2485 26.7905 159.9044 0.0000 -2.0933 0.0000
# 4 0.0000 0.0000 0.0000 10.2103 0.0000 6.5119
# 5 10.7224 -1.9970 -2.0933 0.0000 29.6081 0.0000
# 6 0.0000 0.0000 0.0000 6.5119 0.0000 5.2542
#
#
#
# Elastic Compliance Matrix: (Units=1/GPa)
#
#
# Indices 1 2 3 4 5 6 
#
# 1 0.022607 -0.004544 -0.011413 0.000000 -0.009300 0.000000
# 2 -0.004544 0.060652 -0.007671 0.000000 0.005194 0.000000
# 3 -0.011413 -0.007671 0.013683 0.000000 0.004583 0.000000
# 4 0.000000 0.000000 0.000000 0.467363 0.000000 -0.579237
# 5 -0.009300 0.005194 0.004583 0.000000 0.037817 0.000000
# 6 0.000000 0.000000 0.000000 -0.579237 0.000000 0.908215
#
#
# Mechanical properties :
#
#
# Convention : Reuss Voigt Hill
#
# Bulk Modulus (GPa) = 20.12625 59.37504 39.75064
# Shear Modulus (GPa) = 3.17631 18.83407 11.00519
#
# Velocity S-wave (km/s) = 1.28862 3.13787 2.39862
# Velocity P-wave (km/s) = 3.56872 6.64596 5.33407
#
# Compressibility (1/GPa) = 0.04968635
#
# Stress axis : x y z
#
# Youngs Moduli (GPa) = 44.23463 16.48761 73.08184
#
# Poissons Ratio (x) = 0.07492 0.83405
# Poissons Ratio (y) = 0.20099 0.56063
# Poissons Ratio (z) = 0.50483 0.12648
#
# Static dielectric constant tensor:
#      x y z
#    x 3.704280 0.000000 -0.102860 
#    y 0.000000 2.957100 0.000000 
#    z -0.102860 0.000000 3.591100 
# 
# 
# High freq. dielectric constant tensor:
#      x y z
#    x 1.752420 0.000000 -0.008030 
#    y 0.000000 1.688500 0.000000 
#    z -0.008030 0.000000 1.760110 
# 
# From -- ./inp_files/58115.got.cif
#   From: 2010.06.25/outbox.cif.g09.slc.cpg/sg10_30_cif.got.tgz:58115.got - 2010.06.27 22:07:45.
