data_PCOD8060819
_publ_section_title
;
Structure prediction by ZEFSAII (Michael W. Deem and Ramdas Pophale) SiO2 
 PCOD8060819
Probable space group: P 2/M
;
_chemical_formula_sum "Si O2"
_cell_formula_units_Z 32
_cell_length_a 17.333960
_cell_length_b 8.948061
_cell_length_c 23.042761
_cell_angle_alpha 90.000000
_cell_angle_beta 29.448359
_cell_angle_gamma 90.000000
_cell_volume 1757.144523
_symmetry_space_group_name_H-M "P 2/M"
_symmetry_group_IT_number 10
_symmetry_cell_setting 'monoclinic'
loop_
_space_group_symop_operation_xyz
x,y,z
-x,y,-z
-x,-y,-z
x,-y,z
loop_
_atom_site_type_symbol
_atom_site_label
_atom_site_fract_x
_atom_site_fract_y
_atom_site_fract_z
Si Si1 0.072292 0.176398 0.692577
Si Si2 0.563790 0.178432 0.870163
Si Si3 0.369133 0.176445 0.422640
Si Si4 0.080009 0.327610 0.808755
Si Si5 0.197416 0.827909 0.941714
Si Si6 0.679919 0.327785 0.249255
Si Si7 0.542580 0.828788 0.758145
Si Si8 0.740880 0.822563 0.864303
O O1 0.204071 0.217042 0.559101
O O2 0.116793 0.257837 0.722459
O O3 0.908453 0.240790 0.774920
O O4 0.063942 0.000000 0.709689
O O5 0.594249 0.246414 0.785662
O O6 0.700881 0.230577 0.824573
O O7 0.556150 0.000000 0.872386
O O8 0.395141 0.236596 0.003763
O O9 0.509894 0.251941 0.366108
O O10 0.370589 0.240220 0.355283
O O11 0.403407 0.000000 0.399922
O O12 0.033771 0.500000 0.832353
O O13 0.237143 0.307802 0.743280
O O14 0.937033 0.243538 0.931955
O O15 0.210657 0.747799 0.871044
O O16 0.356545 0.809832 0.873688
O O17 0.157135 0.000000 0.956488
O O18 0.659214 0.500000 0.245839
O O19 0.592339 0.000000 0.728753
O O20 0.746418 0.000000 0.861774
#
# Coordination Sequence:
#
# PCOD8060819 Si02
#       8
#     4   4   4   4   4   4   4   4
#     4  10  20  34  50  69  96 129 168 212 252 289
#     4   8  12  21  41  69 100 128 154 190 242 299
#     4   9  19  34  50  69  95 128 168 212 251 290
#     4  11  23  35  49  72  99 128 164 204 248 299
#     4  10  19  32  53  79 105 130 158 196 243 293
#     4  10  21  36  52  71  98 129 162 203 247 293
#     4   8  14  26  45  70  98 127 159 195 238 288
#     4   8  14  24  41  69 100 127 157 197 246 295
#
# _framework density 18.211365000000001
#
# number of rings (size 3 to 8) (size 9 to 14) (size 15 to 20)
#    0.000    2.750    0.000    3.750    0.000    6.500 
#    0.000    3.125    0.000    3.750    0.000   10.500 
#    0.000    5.000    0.000    0.000    0.000    0.000 
#
# Total GULP energy -396666.252531 kJ/mol
# GULP energy per Si atom -12395.820392 kJ/mol
# Density = 1.816992 g / cm^3
# Si number density = 18.211365 Si / 1000 Ang^3
#
#
#
# Elastic Constant Matrix: (Units=GPa)
#
#
# Indices 1 2 3 4 5 6 
#
# 1 144.4052 37.8564 67.6394 0.0000 18.6099 0.0000
# 2 37.8564 53.8266 36.7114 0.0000 4.9702 0.0000
# 3 67.6394 36.7114 106.7905 0.0000 8.7473 0.0000
# 4 0.0000 0.0000 0.0000 12.9872 0.0000 2.2143
# 5 18.6099 4.9702 8.7473 0.0000 14.7262 0.0000
# 6 0.0000 0.0000 0.0000 2.2143 0.0000 -0.2825
#
#
#
# Elastic Compliance Matrix: (Units=1/GPa)
#
#
# Indices 1 2 3 4 5 6 
#
# 1 0.011712 -0.003655 -0.005309 0.000000 -0.010414 0.000000
# 2 -0.003655 0.025572 -0.006462 0.000000 -0.000174 0.000000
# 3 -0.005309 -0.006462 0.014947 0.000000 0.000011 0.000000
# 4 0.000000 0.000000 0.000000 0.032956 0.000000 0.258316
# 5 -0.010414 -0.000174 0.000011 0.000000 0.081118 0.000000
# 6 0.000000 0.000000 0.000000 0.258316 0.000000 -1.515060
#
#
# Mechanical properties :
#
#
# Convention : Reuss Voigt Hill
#
# Bulk Modulus (GPa) = 46.77212 65.49299 56.13255
# Shear Modulus (GPa) = -3.81453 16.34051 6.26299
#
# Velocity S-wave (km/s) = -1.44884 2.99870 1.85648
# Velocity P-wave (km/s) = 4.78956 6.93039 5.95694
#
# Compressibility (1/GPa) = 0.02138026
#
# Stress axis : x y z
#
# Youngs Moduli (GPa) = 85.38524 39.10579 66.90318
#
# Poissons Ratio (x) = 0.14292 0.35516
# Poissons Ratio (y) = 0.31205 0.43231
# Poissons Ratio (z) = 0.45328 0.25269
#
# Static dielectric constant tensor:
#      x y z
#    x 3.698900 0.000000 0.109270 
#    y 0.000000 3.059330 0.000000 
#    z 0.109270 0.000000 3.354440 
# 
# 
# High freq. dielectric constant tensor:
#      x y z
#    x 1.716370 0.000000 0.007630 
#    y 0.000000 1.667120 0.000000 
#    z 0.007630 0.000000 1.697040 
# 
# From -- ./inp_files/89949.got.cif
#   From: 2010.06.25/outbox.cif.g09.slc.cpg/sg10_45_cif.got.tgz:89949.got - 2010.06.27 22:07:45.
