data_PCOD8060325
_publ_section_title
;
Structure prediction by ZEFSAII (Michael W. Deem and Ramdas Pophale) SiO2 
 PCOD8060325
Probable space group: P 2/M
;
_chemical_formula_sum "Si O2"
_cell_formula_units_Z 32
_cell_length_a 22.638267
_cell_length_b 8.991635
_cell_length_c 12.865656
_cell_angle_alpha 90.000000
_cell_angle_beta 39.332046
_cell_angle_gamma 90.000000
_cell_volume 1659.874787
_symmetry_space_group_name_H-M "P 2/M"
_symmetry_group_IT_number 10
_symmetry_cell_setting 'monoclinic'
loop_
_space_group_symop_operation_xyz
x,y,z
-x,y,-z
-x,-y,-z
x,-y,z
loop_
_atom_site_type_symbol
_atom_site_label
_atom_site_fract_x
_atom_site_fract_y
_atom_site_fract_z
Si Si1 0.890213 0.834587 0.142984
Si Si2 0.116978 0.675249 0.638436
Si Si3 0.402490 0.176487 0.589746
Si Si4 0.379902 0.823669 0.987209
Si Si5 0.096483 0.675104 0.083451
Si Si6 0.584616 0.176782 0.660551
Si Si7 0.741067 0.176132 0.041274
Si Si8 0.712559 0.176403 0.674451
O O1 0.852673 0.745878 0.293017
O O2 0.844450 0.000000 0.202916
O O3 0.862680 0.746680 0.077303
O O4 0.000000 0.848809 0.000000
O O5 0.128921 0.500000 0.629855
O O6 0.186470 0.744563 0.458757
O O7 0.011376 0.718504 0.751159
O O8 0.500000 0.242187 0.500000
O O9 0.384363 0.232566 0.496328
O O10 0.319519 0.229985 0.777322
O O11 0.409074 0.000000 0.582717
O O12 0.344167 0.769300 0.147689
O O13 0.385497 0.000000 0.975847
O O14 0.482526 0.757412 0.826521
O O15 0.309410 0.767959 0.994299
O O16 0.108510 0.500000 0.059653
O O17 0.158414 0.742837 0.092082
O O18 0.657365 0.233278 0.647753
O O19 0.579568 0.000000 0.670683
O O20 0.756610 0.000000 0.020051
O O21 0.727219 0.000000 0.654781
#
# Coordination Sequence:
#
# PCOD8060325 Si02
#       8
#     4   4   4   4   4   4   4   4
#     4   9  17  31  53  78 103 133 171 216 262 311
#     4  10  21  37  53  73 107 146 181 220 270 322
#     4   9  15  26  46  77 111 138 168 214 268 324
#     4   9  17  32  51  77 110 141 176 224 277 323
#     4  10  21  36  53  75 107 146 181 217 268 325
#     4   9  16  28  49  78 110 139 172 217 272 329
#     4  10  19  31  53  80 107 141 181 222 267 318
#     4  10  20  32  53  81 106 137 183 232 271 314
#
# _framework density 19.278562999999998
#
# number of rings (size 3 to 8) (size 9 to 14) (size 15 to 20)
#    0.000    2.500    1.250    1.500    1.750    4.500 
#    0.000    1.250    0.000    6.375    0.000    0.000 
#    0.000    0.000    0.000    0.000    0.000    0.000 
#
# Total GULP energy -396753.698593 kJ/mol
# GULP energy per Si atom -12398.553081 kJ/mol
# Density = 1.923468 g / cm^3
# Si number density = 19.278563 Si / 1000 Ang^3
#
#
#
# Elastic Constant Matrix: (Units=GPa)
#
#
# Indices 1 2 3 4 5 6 
#
# 1 130.3988 29.2428 58.4187 0.0000 1.5968 0.0000
# 2 29.2428 47.1022 24.3938 0.0000 -5.3194 0.0000
# 3 58.4187 24.3938 101.7827 0.0000 8.8932 0.0000
# 4 0.0000 0.0000 0.0000 14.5857 0.0000 -1.0377
# 5 1.5968 -5.3194 8.8932 0.0000 31.3039 0.0000
# 6 0.0000 0.0000 0.0000 -1.0377 0.0000 14.2284
#
#
#
# Elastic Compliance Matrix: (Units=1/GPa)
#
#
# Indices 1 2 3 4 5 6 
#
# 1 0.010963 -0.003999 -0.005358 0.000000 0.000284 0.000000
# 2 -0.003999 0.026815 -0.004663 0.000000 0.006085 0.000000
# 3 -0.005358 -0.004663 0.014421 0.000000 -0.004616 0.000000
# 4 0.000000 0.000000 0.000000 0.068918 0.000000 0.005026
# 5 0.000284 0.006085 -0.004616 0.000000 0.034276 0.000000
# 6 0.000000 0.000000 0.000000 0.005026 0.000000 0.070649
#
#
# Mechanical properties :
#
#
# Convention : Reuss Voigt Hill
#
# Bulk Modulus (GPa) = 41.39385 55.93269 48.66327
# Shear Modulus (GPa) = 19.07407 23.17215 21.12311
#
# Velocity S-wave (km/s) = 3.14887 3.47070 3.31369
# Velocity P-wave (km/s) = 5.89395 6.71840 6.31963
#
# Compressibility (1/GPa) = 0.02415818
#
# Stress axis : x y z
#
# Youngs Moduli (GPa) = 91.21847 37.29193 69.34182
#
# Poissons Ratio (x) = 0.14913 0.37157
# Poissons Ratio (y) = 0.36478 0.32336
# Poissons Ratio (z) = 0.48879 0.17390
#
# Static dielectric constant tensor:
#      x y z
#    x 3.643750 0.000000 0.005740 
#    y 0.000000 3.047050 0.000000 
#    z 0.005740 0.000000 3.598190 
# 
# 
# High freq. dielectric constant tensor:
#      x y z
#    x 1.754910 0.000000 -0.008540 
#    y 0.000000 1.701950 0.000000 
#    z -0.008540 0.000000 1.748070 
# 
# From -- ./inp_files/55260.got.cif
#   From: 2010.06.25/outbox.cif.g09.slc.cpg/sg10_28_cif.got.tgz:55260.got - 2010.06.27 22:07:45.
