data_PCOD8060886
_publ_section_title
;
Structure prediction by ZEFSAII (Michael W. Deem and Ramdas Pophale) SiO2 
 PCOD8060886
Probable space group: P 2/M
;
_chemical_formula_sum "Si O2"
_cell_formula_units_Z 24
_cell_length_a 11.240442
_cell_length_b 9.387445
_cell_length_c 23.138561
_cell_angle_alpha 90.000000
_cell_angle_beta 148.503400
_cell_angle_gamma 90.000000
_cell_volume 1275.587294
_symmetry_space_group_name_H-M "P 2/M"
_symmetry_group_IT_number 10
_symmetry_cell_setting 'monoclinic'
loop_
_space_group_symop_operation_xyz
x,y,z
-x,y,-z
-x,-y,-z
x,-y,z
loop_
_atom_site_type_symbol
_atom_site_label
_atom_site_fract_x
_atom_site_fract_y
_atom_site_fract_z
Si Si1 0.633747 0.159687 0.198950
Si Si2 0.441704 0.164784 0.540141
Si Si3 0.721761 0.332631 0.127223
Si Si4 0.079516 0.165240 0.207993
Si Si5 0.107081 0.163751 0.988617
Si Si6 0.969138 0.163571 0.551359
O O1 0.696910 0.285969 0.182486
O O2 0.373469 0.182339 0.106741
O O3 0.783160 0.178874 0.317888
O O4 0.671688 0.000000 0.188354
O O5 0.500000 0.231793 0.500000
O O6 0.653249 0.186909 0.670953
O O7 0.223843 0.232143 0.484981
O O8 0.385541 0.000000 0.505327
O O9 0.756469 0.500000 0.136680
O O10 0.947778 0.254026 0.201062
O O11 0.500000 0.281135 0.000000
O O12 0.009388 0.000000 0.184799
O O13 0.999045 0.231476 0.113372
O O14 0.030343 0.000000 0.955631
O O15 0.000000 0.241398 0.000000
O O16 0.000000 0.234663 0.500000
O O17 0.895422 0.000000 0.511708
#
# Coordination Sequence:
#
# PCOD8060886 Si02
#       6
#     4   4   4   4   4   4
#     4  10  19  33  55  78 106 139 174 213 257 315
#     4   9  17  29  46  72 105 136 169 211 258 304
#     4  11  22  35  52  76 107 136 170 218 269 314
#     4  10  19  32  54  77 103 136 172 213 257 313
#     4   9  18  29  46  77 107 133 168 213 260 303
#     4   9  18  30  49  80 111 138 172 217 264 309
#
# _framework density 18.814862000000002
#
# number of rings (size 3 to 8) (size 9 to 14) (size 15 to 20)
#    0.000    2.333    1.667    1.500    2.333    3.333 
#    0.000    0.000    0.000    7.000    0.000    0.000 
#    0.000    0.000    0.000    0.000    0.000    0.000 
#
# Total GULP energy -297416.014718 kJ/mol
# GULP energy per Si atom -12392.333947 kJ/mol
# Density = 1.877204 g / cm^3
# Si number density = 18.814862 Si / 1000 Ang^3
#
#
#
# Elastic Constant Matrix: (Units=GPa)
#
#
# Indices 1 2 3 4 5 6 
#
# 1 136.0267 18.8764 55.0195 0.0000 -4.6339 0.0000
# 2 18.8764 27.9565 18.4924 0.0000 0.3195 0.0000
# 3 55.0195 18.4924 126.0257 0.0000 -2.9088 0.0000
# 4 0.0000 0.0000 0.0000 8.6040 0.0000 -2.2499
# 5 -4.6339 0.3195 -2.9088 0.0000 25.7031 0.0000
# 6 0.0000 0.0000 0.0000 -2.2499 0.0000 -2.5962
#
#
#
# Elastic Compliance Matrix: (Units=1/GPa)
#
#
# Indices 1 2 3 4 5 6 
#
# 1 0.009359 -0.004045 -0.003461 0.000000 0.001346 0.000000
# 2 -0.004045 0.041397 -0.004349 0.000000 -0.001736 0.000000
# 3 -0.003461 -0.004349 0.010097 0.000000 0.000573 0.000000
# 4 0.000000 0.000000 0.000000 0.094753 0.000000 -0.082114
# 5 0.001346 -0.001736 0.000573 0.000000 0.039235 0.000000
# 6 0.000000 0.000000 0.000000 -0.082114 0.000000 -0.314022
#
#
# Mechanical properties :
#
#
# Convention : Reuss Voigt Hill
#
# Bulk Modulus (GPa) = 26.92238 52.75396 39.83817
# Shear Modulus (GPa) = -60.17544 19.51689 -20.32928
#
# Velocity S-wave (km/s) = -5.66148 3.22423 -3.29065
# Velocity P-wave (km/s) = 5.32882 6.47767 2.60421
#
# Compressibility (1/GPa) = 0.03714382
#
# Stress axis : x y z
#
# Youngs Moduli (GPa) = 106.85362 24.15616 99.03702
#
# Poissons Ratio (x) = 0.09771 0.34278
# Poissons Ratio (y) = 0.43222 0.43067
# Poissons Ratio (z) = 0.36983 0.10505
#
# Static dielectric constant tensor:
#      x y z
#    x 3.503220 0.000000 -0.186450 
#    y 0.000000 2.861430 0.000000 
#    z -0.186450 0.000000 3.472890 
# 
# 
# High freq. dielectric constant tensor:
#      x y z
#    x 1.741460 0.000000 -0.000640 
#    y 0.000000 1.654680 0.000000 
#    z -0.000640 0.000000 1.746890 
# 
# From -- ./inp_files/45314.got.cif
#   From: 2010.06.25/outbox.cif.g09.slc.cpg/sg10_23_cif.got.tgz:45314.got - 2010.06.27 22:07:45.
