data_PCOD8060376
_publ_section_title
;
Structure prediction by ZEFSAII (Michael W. Deem and Ramdas Pophale) SiO2 
 PCOD8060376
Probable space group: P 2/M
;
_chemical_formula_sum "Si O2"
_cell_formula_units_Z 32
_cell_length_a 23.875866
_cell_length_b 8.802311
_cell_length_c 13.707740
_cell_angle_alpha 90.000000
_cell_angle_beta 44.703995
_cell_angle_gamma 90.000000
_cell_volume 2026.522321
_symmetry_space_group_name_H-M "P 2/M"
_symmetry_group_IT_number 10
_symmetry_cell_setting 'monoclinic'
loop_
_space_group_symop_operation_xyz
x,y,z
-x,y,-z
-x,-y,-z
x,-y,z
loop_
_atom_site_type_symbol
_atom_site_label
_atom_site_fract_x
_atom_site_fract_y
_atom_site_fract_z
Si Si1 0.825907 0.178472 0.786319
Si Si2 0.500146 0.334050 0.115142
Si Si3 0.097813 0.326587 0.490390
Si Si4 0.328606 0.319480 0.324685
Si Si5 0.825058 0.178325 0.421883
Si Si6 0.935085 0.672147 0.790710
Si Si7 0.327741 0.318929 0.101076
Si Si8 0.032595 0.320477 0.855428
O O1 0.882149 0.264539 0.640381
O O2 0.861341 0.222339 0.848749
O O3 0.735449 0.236147 0.890073
O O4 0.829665 0.000000 0.765006
O O5 0.500271 0.500000 0.164448
O O6 0.416402 0.252432 0.247062
O O7 0.500000 0.355666 0.000000
O O8 0.584262 0.254271 0.039347
O O9 0.129104 0.500000 0.462380
O O10 0.141602 0.222127 0.514213
O O11 0.003513 0.320029 0.623648
O O12 0.328667 0.500000 0.336928
O O13 0.264111 0.245192 0.476634
O O14 0.308864 0.276314 0.236815
O O15 0.881215 0.245559 0.267643
O O16 0.821490 0.000000 0.413968
O O17 0.904114 0.500000 0.840805
O O18 0.969946 0.733198 0.850359
O O19 0.323777 0.500000 0.091744
O O20 0.044635 0.500000 0.833099
O O21 0.000000 0.267607 0.000000
#
# Coordination Sequence:
#
# PCOD8060376 Si02
#       8
#     4   4   4   4   4   4   4   4
#     4  12  22  28  39  62  92 120 149 183 218 260
#     4   7  12  23  40  61  79 108 155 194 220 250
#     4  10  19  32  46  59  81 117 156 190 220 252
#     4   9  15  26  44  62  85 117 154 190 220 256
#     4  11  20  28  43  69  96 119 146 180 223 270
#     4   9  19  33  48  64  82 109 146 182 220 263
#     4   9  16  27  43  59  83 120 157 189 221 255
#     4   9  19  37  57  71  85 110 146 186 226 267
#
# _framework density 15.790599
#
# number of rings (size 3 to 8) (size 9 to 14) (size 15 to 20)
#    0.000    2.500    1.250    5.250    0.000    4.250 
#    0.000    0.625    0.000    2.250    0.000    0.000 
#    0.000    1.000    0.000   11.500    0.000    4.500 
#
# Total GULP energy -396550.184031 kJ/mol
# GULP energy per Si atom -12392.193251 kJ/mol
# Density = 1.575466 g / cm^3
# Si number density = 15.790599 Si / 1000 Ang^3
#
#
#
# Elastic Constant Matrix: (Units=GPa)
#
#
# Indices 1 2 3 4 5 6 
#
# 1 85.6963 28.9589 59.6678 0.0000 -21.6772 0.0000
# 2 28.9589 49.7423 35.5731 0.0000 -10.9160 0.0000
# 3 59.6678 35.5731 99.0729 0.0000 -19.0440 0.0000
# 4 0.0000 0.0000 0.0000 8.7695 0.0000 4.7390
# 5 -21.6772 -10.9160 -19.0440 0.0000 23.7400 0.0000
# 6 0.0000 0.0000 0.0000 4.7390 0.0000 5.9181
#
#
#
# Elastic Compliance Matrix: (Units=1/GPa)
#
#
# Indices 1 2 3 4 5 6 
#
# 1 0.022859 -0.003454 -0.010428 0.000000 0.010919 0.000000
# 2 -0.003454 0.028191 -0.007279 0.000000 0.003970 0.000000
# 3 -0.010428 -0.007279 0.019524 0.000000 0.002794 0.000000
# 4 0.000000 0.000000 0.000000 0.201016 0.000000 -0.160965
# 5 0.010919 0.003970 0.002794 0.000000 0.056160 0.000000
# 6 0.000000 0.000000 0.000000 -0.160965 0.000000 0.297868
#
#
# Mechanical properties :
#
#
# Convention : Reuss Voigt Hill
#
# Bulk Modulus (GPa) = 35.39504 53.65677 44.52590
# Shear Modulus (GPa) = 7.38162 15.03964 11.21063
#
# Velocity S-wave (km/s) = 2.16445 3.08951 2.66739
# Velocity P-wave (km/s) = 5.35821 6.83965 6.14374
#
# Compressibility (1/GPa) = 0.02825255
#
# Stress axis : x y z
#
# Youngs Moduli (GPa) = 43.74606 35.47198 51.21780
#
# Poissons Ratio (x) = 0.12253 0.53410
# Poissons Ratio (y) = 0.15111 0.37281
# Poissons Ratio (z) = 0.45618 0.25820
#
# Static dielectric constant tensor:
#      x y z
#    x 2.997800 0.000000 -0.372900 
#    y 0.000000 2.795350 0.000000 
#    z -0.372900 0.000000 3.014540 
# 
# 
# High freq. dielectric constant tensor:
#      x y z
#    x 1.585980 0.000000 -0.036700 
#    y 0.000000 1.591660 0.000000 
#    z -0.036700 0.000000 1.578150 
# 
# From -- ./inp_files/72021.got.cif
#   From: 2010.06.25/outbox.cif.g09.slc.cpg/sg10_37_cif.got.tgz:72021.got - 2010.06.27 22:07:45.
