data_PCOD8060122
_publ_section_title
;
Structure prediction by ZEFSAII (Michael W. Deem and Ramdas Pophale) SiO2 
 PCOD8060122
Probable space group: P 2/M
;
_chemical_formula_sum "Si O2"
_cell_formula_units_Z 28
_cell_length_a 16.220179
_cell_length_b 9.071744
_cell_length_c 10.997282
_cell_angle_alpha 90.000000
_cell_angle_beta 59.355057
_cell_angle_gamma 90.000000
_cell_volume 1392.204880
_symmetry_space_group_name_H-M "P 2/M"
_symmetry_group_IT_number 10
_symmetry_cell_setting 'monoclinic'
loop_
_space_group_symop_operation_xyz
x,y,z
-x,y,-z
-x,-y,-z
x,-y,z
loop_
_atom_site_type_symbol
_atom_site_label
_atom_site_fract_x
_atom_site_fract_y
_atom_site_fract_z
Si Si1 0.223726 0.673565 0.837142
Si Si2 0.719176 0.170743 0.814137
Si Si3 0.109530 0.331191 0.417228
Si Si4 0.942639 0.164340 0.918845
Si Si5 0.620307 0.171347 0.144963
Si Si6 0.890787 0.667864 0.311221
Si Si7 0.449795 0.333808 0.167474
O O1 0.235001 0.500000 0.846585
O O2 0.325653 0.751753 0.782838
O O3 0.188730 0.716888 0.727730
O O4 0.150259 0.734726 0.993445
O O5 0.827368 0.232098 0.721259
O O6 0.652888 0.255535 0.766548
O O7 0.716813 0.000000 0.781960
O O8 0.682508 0.199110 0.977351
O O9 0.114461 0.500000 0.368418
O O10 0.152247 0.315287 0.521705
O O11 0.000000 0.275835 0.500000
O O12 0.012445 0.235651 0.766652
O O13 0.910745 0.000000 0.900849
O O14 0.000000 0.155501 0.000000
O O15 0.515753 0.244460 0.212244
O O16 0.606497 0.000000 0.182931
O O17 0.921440 0.500000 0.260276
O O18 0.434775 0.500000 0.226702
O O19 0.500000 0.333401 0.000000
#
# Coordination Sequence:
#
# PCOD8060122 Si02
#       7
#     4   4   4   4   4   4   4
#     4  10  19  31  50  74 103 137 174 215 264 315
#     4  10  21  36  54  78 109 142 174 215 265 313
#     4  10  22  38  55  76 103 140 184 224 259 306
#     4   9  17  29  46  69  97 131 169 210 259 310
#     4  10  20  33  52  82 114 138 169 215 266 316
#     4   9  19  35  51  71 100 137 178 220 262 308
#     4   9  17  32  55  81 107 138 174 211 259 316
#
# _framework density 20.111982000000001
#
# number of rings (size 3 to 8) (size 9 to 14) (size 15 to 20)
#    0.000    2.429    0.000    2.143    2.000    6.571 
#    0.000    0.000    0.000    0.857    0.000    6.000 
#    0.000    0.000    0.000    0.000    0.000    0.000 
#
# Total GULP energy -347224.091404 kJ/mol
# GULP energy per Si atom -12400.860407 kJ/mol
# Density = 2.006621 g / cm^3
# Si number density = 20.111982 Si / 1000 Ang^3
#
#
#
# Elastic Constant Matrix: (Units=GPa)
#
#
# Indices 1 2 3 4 5 6 
#
# 1 110.7295 46.8869 4.1592 0.0000 -7.7781 0.0000
# 2 46.8869 116.0624 15.1568 0.0000 -5.8748 0.0000
# 3 4.1592 15.1568 30.7912 0.0000 -5.3123 0.0000
# 4 0.0000 0.0000 0.0000 21.1620 0.0000 -7.6806
# 5 -7.7781 -5.8748 -5.3123 0.0000 23.8320 0.0000
# 6 0.0000 0.0000 0.0000 -7.6806 0.0000 33.5495
#
#
#
# Elastic Compliance Matrix: (Units=1/GPa)
#
#
# Indices 1 2 3 4 5 6 
#
# 1 0.011084 -0.004493 0.001193 0.000000 0.002776 0.000000
# 2 -0.004493 0.011069 -0.004809 0.000000 0.000190 0.000000
# 3 0.001193 -0.004809 0.035927 0.000000 0.007212 0.000000
# 4 0.000000 0.000000 0.000000 0.051537 0.000000 0.011798
# 5 0.002776 0.000190 0.007212 0.000000 0.044521 0.000000
# 6 0.000000 0.000000 0.000000 0.011798 0.000000 0.032508
#
#
# Mechanical properties :
#
#
# Convention : Reuss Voigt Hill
#
# Bulk Modulus (GPa) = 23.88760 43.33209 33.60985
# Shear Modulus (GPa) = 23.06109 28.46741 25.76425
#
# Velocity S-wave (km/s) = 3.38987 3.76632 3.58304
# Velocity P-wave (km/s) = 5.21773 6.36441 5.81939
#
# Compressibility (1/GPa) = 0.04186272
#
# Stress axis : x y z
#
# Youngs Moduli (GPa) = 90.22312 90.34476 27.83421
#
# Poissons Ratio (x) = 0.40591 -0.03322
# Poissons Ratio (y) = 0.40536 0.13385
# Poissons Ratio (z) = -0.10767 0.43445
#
# Static dielectric constant tensor:
#      x y z
#    x 3.787310 0.000000 0.016850 
#    y 0.000000 3.753240 0.000000 
#    z 0.016850 0.000000 3.210650 
# 
# 
# High freq. dielectric constant tensor:
#      x y z
#    x 1.794490 0.000000 0.001410 
#    y 0.000000 1.791500 0.000000 
#    z 0.001410 0.000000 1.736890 
# 
# From -- ./inp_files/49653.got.cif
#   From: 2010.06.25/outbox.cif.g09.slc.cpg/sg10_25_cif.got.tgz:49653.got - 2010.06.27 22:07:45.
