data_PCOD8060656
_publ_section_title
;
Structure prediction by ZEFSAII (Michael W. Deem and Ramdas Pophale) SiO2 
 PCOD8060656
Probable space group: P 2/M
;
_chemical_formula_sum "Si O2"
_cell_formula_units_Z 24
_cell_length_a 21.590040
_cell_length_b 9.226290
_cell_length_c 16.310380
_cell_angle_alpha 90.000000
_cell_angle_beta 155.567768
_cell_angle_gamma 90.000000
_cell_volume 1343.824842
_symmetry_space_group_name_H-M "P 2/M"
_symmetry_group_IT_number 10
_symmetry_cell_setting 'monoclinic'
loop_
_space_group_symop_operation_xyz
x,y,z
-x,y,-z
-x,-y,-z
x,-y,z
loop_
_atom_site_type_symbol
_atom_site_label
_atom_site_fract_x
_atom_site_fract_y
_atom_site_fract_z
Si Si1 0.344816 0.171569 0.575066
Si Si2 0.650835 0.668426 0.936860
Si Si3 0.824404 0.833802 0.284547
Si Si4 0.815022 0.165869 0.455333
Si Si5 0.923088 0.335259 0.158368
Si Si6 0.928349 0.330589 0.828393
O O1 0.306462 0.214857 0.623164
O O2 0.220536 0.237223 0.364930
O O3 0.353715 0.000000 0.572985
O O4 0.501938 0.241567 0.741565
O O5 0.612560 0.500000 0.904750
O O6 0.739846 0.725296 0.122985
O O7 0.751027 0.691860 0.975985
O O8 0.753094 0.808353 0.289126
O O9 0.000000 0.797981 0.500000
O O10 0.798540 0.000000 0.224896
O O11 0.972070 0.245956 0.654664
O O12 0.855925 0.000000 0.519088
O O13 0.969024 0.500000 0.229184
O O14 0.950000 0.294383 0.095752
O O15 0.885096 0.500000 0.777469
O O16 0.000000 0.280849 0.000000
#
# Coordination Sequence:
#
# PCOD8060656 Si02
#       6
#     4   4   4   4   4   4
#     4  10  21  36  54  76 106 138 171 211 257 304
#     4  11  22  34  50  75 108 141 173 211 256 301
#     4  10  19  32  52  75 102 136 178 218 254 298
#     4   9  18  33  52  74  99 135 177 216 254 297
#     4   9  18  32  52  77 103 133 169 209 254 305
#     4   9  18  36  61  83 102 128 165 209 258 313
#
# _framework density 17.859470000000002
#
# number of rings (size 3 to 8) (size 9 to 14) (size 15 to 20)
#    0.000    2.333    1.667    1.000    0.000    3.333 
#    0.000    4.167    0.000    5.000    0.000    0.000 
#    0.000    0.000    0.000    0.000    0.000    0.000 
#
# Total GULP energy -297586.412626 kJ/mol
# GULP energy per Si atom -12399.433859 kJ/mol
# Density = 1.781882 g / cm^3
# Si number density = 17.859470 Si / 1000 Ang^3
#
#
#
# Elastic Constant Matrix: (Units=GPa)
#
#
# Indices 1 2 3 4 5 6 
#
# 1 90.4235 42.5876 62.9611 0.0000 -1.7084 0.0000
# 2 42.5876 79.9385 60.1132 0.0000 3.9460 0.0000
# 3 62.9611 60.1132 111.8405 0.0000 5.4190 0.0000
# 4 0.0000 0.0000 0.0000 37.9928 0.0000 2.1883
# 5 -1.7084 3.9460 5.4190 0.0000 27.2499 0.0000
# 6 0.0000 0.0000 0.0000 2.1883 0.0000 24.2083
#
#
#
# Elastic Compliance Matrix: (Units=1/GPa)
#
#
# Indices 1 2 3 4 5 6 
#
# 1 0.019060 -0.003576 -0.008977 0.000000 0.003498 0.000000
# 2 -0.003576 0.021684 -0.009571 0.000000 -0.001461 0.000000
# 3 -0.008977 -0.009571 0.019286 0.000000 -0.003012 0.000000
# 4 0.000000 0.000000 0.000000 0.026459 0.000000 -0.002392
# 5 0.003498 -0.001461 -0.003012 0.000000 0.037727 0.000000
# 6 0.000000 0.000000 0.000000 -0.002392 0.000000 0.041524
#
#
# Mechanical properties :
#
#
# Convention : Reuss Voigt Hill
#
# Bulk Modulus (GPa) = 63.36835 68.16959 65.76897
# Shear Modulus (GPa) = 23.22879 25.65959 24.44419
#
# Velocity S-wave (km/s) = 3.61035 3.79456 3.70360
# Velocity P-wave (km/s) = 7.27587 7.57965 7.42931
#
# Compressibility (1/GPa) = 0.01578075
#
# Stress axis : x y z
#
# Youngs Moduli (GPa) = 52.46479 46.11615 51.85237
#
# Poissons Ratio (x) = 0.16492 0.46550
# Poissons Ratio (y) = 0.18763 0.49629
# Poissons Ratio (z) = 0.47100 0.44138
#
# Static dielectric constant tensor:
#      x y z
#    x 3.592750 0.000000 0.100240 
#    y 0.000000 3.341150 0.000000 
#    z 0.100240 0.000000 3.088670 
# 
# 
# High freq. dielectric constant tensor:
#      x y z
#    x 1.697480 0.000000 0.008490 
#    y 0.000000 1.695380 0.000000 
#    z 0.008490 0.000000 1.668560 
# 
# From -- ./inp_files/26996.got.cif
#   From: 2010.06.25/outbox.cif.g09.slc.cpg/sg10_14_cif.got.tgz:26996.got - 2010.06.27 22:07:45.
