data_PCOD8060021
_publ_section_title
;
Structure prediction by ZEFSAII (Michael W. Deem and Ramdas Pophale) SiO2 
 PCOD8060021
Probable space group: P 2/M
;
_chemical_formula_sum "Si O2"
_cell_formula_units_Z 32
_cell_length_a 21.301944
_cell_length_b 8.943119
_cell_length_c 23.426972
_cell_angle_alpha 90.000000
_cell_angle_beta 156.082163
_cell_angle_gamma 90.000000
_cell_volume 1809.406742
_symmetry_space_group_name_H-M "P 2/M"
_symmetry_group_IT_number 10
_symmetry_cell_setting 'monoclinic'
loop_
_space_group_symop_operation_xyz
x,y,z
-x,y,-z
-x,-y,-z
x,-y,z
loop_
_atom_site_type_symbol
_atom_site_label
_atom_site_fract_x
_atom_site_fract_y
_atom_site_fract_z
Si Si1 0.911627 0.325064 0.040179
Si Si2 0.539685 0.666125 0.099270
Si Si3 0.349896 0.328917 0.260390
Si Si4 0.152308 0.176734 0.662649
Si Si5 0.307254 0.671571 0.444627
Si Si6 0.798889 0.321330 0.175324
Si Si7 0.008970 0.674949 0.770228
Si Si8 0.789044 0.175811 0.747848
O O1 0.949734 0.500000 0.071490
O O2 0.746352 0.286790 0.875849
O O3 0.914567 0.263484 0.107512
O O4 0.040234 0.246144 0.108006
O O5 0.580519 0.500000 0.155823
O O6 0.688661 0.769746 0.236633
O O7 0.500000 0.660583 0.000000
O O8 0.376569 0.724662 0.990247
O O9 0.319293 0.500000 0.253699
O O10 0.527030 0.303811 0.388595
O O11 0.308127 0.223761 0.278070
O O12 0.144045 0.248971 0.718309
O O13 0.000000 0.225423 0.500000
O O14 0.159682 0.000000 0.675159
O O15 0.281925 0.500000 0.404207
O O16 0.300851 0.772203 0.383153
O O17 0.174133 0.715137 0.379761
O O18 0.807900 0.500000 0.190772
O O19 0.911439 0.254983 0.219585
O O20 0.038943 0.500000 0.790902
O O21 0.804875 0.000000 0.760643
#
# Coordination Sequence:
#
# PCOD8060021 Si02
#       8
#     4   4   4   4   4   4   4   4
#     4   9  18  33  51  69  92 122 155 194 238 282
#     4   8  15  28  47  72  98 123 153 189 229 271
#     4  10  19  31  49  71  93 120 155 195 240 287
#     4  10  20  32  47  71 102 131 159 192 229 270
#     4   9  18  33  51  70  94 124 158 194 232 281
#     4   9  17  31  52  75  97 123 157 194 232 277
#     4   8  15  31  52  71  93 122 156 193 231 276
#     4  11  21  31  46  69  95 124 158 195 239 288
#
# _framework density 17.685355000000001
#
# number of rings (size 3 to 8) (size 9 to 14) (size 15 to 20)
#    0.000    2.750    0.000    3.750    0.000    7.250 
#    0.000    3.750    0.000    4.500    0.000    0.000 
#    0.000    0.000    0.000    0.000    0.000    0.000 
#
# Total GULP energy -396598.663102 kJ/mol
# GULP energy per Si atom -12393.708222 kJ/mol
# Density = 1.764510 g / cm^3
# Si number density = 17.685355 Si / 1000 Ang^3
#
#
#
# Elastic Constant Matrix: (Units=GPa)
#
#
# Indices 1 2 3 4 5 6 
#
# 1 107.9772 27.4198 62.6282 0.0000 22.7243 0.0000
# 2 27.4198 55.9384 38.8277 0.0000 5.9953 0.0000
# 3 62.6282 38.8277 161.3344 0.0000 16.0264 0.0000
# 4 0.0000 0.0000 0.0000 14.6012 0.0000 0.0423
# 5 22.7243 5.9953 16.0264 0.0000 16.3336 0.0000
# 6 0.0000 0.0000 0.0000 0.0423 0.0000 4.4222
#
#
#
# Elastic Compliance Matrix: (Units=1/GPa)
#
#
# Indices 1 2 3 4 5 6 
#
# 1 0.015860 -0.003411 -0.003621 0.000000 -0.017261 0.000000
# 2 -0.003411 0.022339 -0.004110 0.000000 0.000578 0.000000
# 3 -0.003621 -0.004110 0.008801 0.000000 -0.002088 0.000000
# 4 0.000000 0.000000 0.000000 0.068489 0.000000 -0.000655
# 5 -0.017261 0.000578 -0.002088 0.000000 0.087075 0.000000
# 6 0.000000 0.000000 0.000000 -0.000655 0.000000 0.226137
#
#
# Mechanical properties :
#
#
# Convention : Reuss Voigt Hill
#
# Bulk Modulus (GPa) = 40.45864 64.77794 52.61829
# Shear Modulus (GPa) = 10.88795 20.16303 15.52549
#
# Velocity S-wave (km/s) = 2.48392 3.38020 2.96611
# Velocity P-wave (km/s) = 5.58149 7.20707 6.44573
#
# Compressibility (1/GPa) = 0.02471660
#
# Stress axis : x y z
#
# Youngs Moduli (GPa) = 63.05026 44.76399 113.62883
#
# Poissons Ratio (x) = 0.15268 0.41149
# Poissons Ratio (y) = 0.21505 0.46698
# Poissons Ratio (z) = 0.22833 0.18397
#
# Static dielectric constant tensor:
#      x y z
#    x 3.355690 0.000000 0.266440 
#    y 0.000000 3.076740 0.000000 
#    z 0.266440 0.000000 3.561820 
# 
# 
# High freq. dielectric constant tensor:
#      x y z
#    x 1.661710 0.000000 0.015070 
#    y 0.000000 1.661600 0.000000 
#    z 0.015070 0.000000 1.691840 
# 
# From -- ./inp_files/93871.got.cif
#   From: 2010.06.25/outbox.cif.g09.slc.cpg/sg10_47_cif.got.tgz:93871.got - 2010.06.27 22:07:45.
