data_PCOD8060925
_publ_section_title
;
Structure prediction by ZEFSAII (Michael W. Deem and Ramdas Pophale) SiO2 
 PCOD8060925
Probable space group: P 2/M
;
_chemical_formula_sum "Si O2"
_cell_formula_units_Z 32
_cell_length_a 14.419252
_cell_length_b 9.324522
_cell_length_c 14.031258
_cell_angle_alpha 90.000000
_cell_angle_beta 118.672708
_cell_angle_gamma 90.000000
_cell_volume 1655.202304
_symmetry_space_group_name_H-M "P 2/M"
_symmetry_group_IT_number 10
_symmetry_cell_setting 'monoclinic'
loop_
_space_group_symop_operation_xyz
x,y,z
-x,y,-z
-x,-y,-z
x,-y,z
loop_
_atom_site_type_symbol
_atom_site_label
_atom_site_fract_x
_atom_site_fract_y
_atom_site_fract_z
Si Si1 0.906749 0.337619 0.881509
Si Si2 0.606650 0.336101 0.099435
Si Si3 0.250187 0.163887 0.960463
Si Si4 0.323942 0.663880 0.659797
Si Si5 0.304606 0.833823 0.195703
Si Si6 0.097537 0.328625 0.610048
Si Si7 0.503714 0.330473 0.612822
Si Si8 0.930810 0.662434 0.189341
O O1 0.868666 0.500000 0.886751
O O2 0.809564 0.229055 0.834986
O O3 0.950770 0.331594 0.794390
O O4 0.000000 0.292484 0.000000
O O5 0.628446 0.500000 0.079890
O O6 0.699085 0.237676 0.106232
O O7 0.602561 0.319869 0.210842
O O8 0.500000 0.278308 0.000000
O O9 0.138537 0.243347 0.918396
O O10 0.229379 0.000000 0.925430
O O11 0.321042 0.181568 0.089985
O O12 0.301121 0.500000 0.623823
O O13 0.208127 0.734899 0.621118
O O14 0.394379 0.727897 0.607678
O O15 0.396264 0.748478 0.293428
O O16 0.307796 0.000000 0.228339
O O17 0.101780 0.500000 0.611602
O O18 0.076654 0.274412 0.707349
O O19 0.000000 0.270132 0.500000
O O20 0.500000 0.293204 0.500000
O O21 0.516878 0.500000 0.637811
O O22 0.887475 0.500000 0.166983
#
# Coordination Sequence:
#
# PCOD8060925 Si02
#       8
#     4   4   4   4   4   4   4   4
#     4  10  20  34  57  87 115 148 194 245 290 338
#     4  10  19  32  54  81 109 146 188 231 281 340
#     4  11  22  34  52  80 115 151 186 231 286 342
#     4   9  17  32  55  84 114 146 184 229 289 342
#     4  11  24  39  57  83 118 159 195 234 293 360
#     4   9  17  30  53  84 114 143 180 228 281 340
#     4  10  22  40  63  88 114 149 197 252 292 330
#     4  10  19  34  56  81 110 147 189 234 285 336
#
# _framework density 19.332984
#
# number of rings (size 3 to 8) (size 9 to 14) (size 15 to 20)
#    0.000    2.000    2.500    1.500    0.000    4.750 
#    0.000    4.375    0.000    0.375    0.000    0.000 
#    0.000    0.000    0.000    0.000    0.000    0.000 
#
# Total GULP energy -396661.117804 kJ/mol
# GULP energy per Si atom -12395.659931 kJ/mol
# Density = 1.928898 g / cm^3
# Si number density = 19.332984 Si / 1000 Ang^3
#
#
#
# Elastic Constant Matrix: (Units=GPa)
#
#
# Indices 1 2 3 4 5 6 
#
# 1 129.6740 29.1046 54.6846 0.0000 -6.3736 0.0000
# 2 29.1046 63.1094 31.4148 0.0000 -1.2738 0.0000
# 3 54.6846 31.4148 103.1304 0.0000 4.2715 0.0000
# 4 0.0000 0.0000 0.0000 16.4199 0.0000 5.3389
# 5 -6.3736 -1.2738 4.2715 0.0000 33.3097 0.0000
# 6 0.0000 0.0000 0.0000 5.3389 0.0000 -8.2967
#
#
#
# Elastic Compliance Matrix: (Units=1/GPa)
#
#
# Indices 1 2 3 4 5 6 
#
# 1 0.010436 -0.002304 -0.004937 0.000000 0.002542 0.000000
# 2 -0.002304 0.019256 -0.004681 0.000000 0.000896 0.000000
# 3 -0.004937 -0.004681 0.013860 0.000000 -0.002901 0.000000
# 4 0.000000 0.000000 0.000000 0.050364 0.000000 0.032409
# 5 0.002542 0.000896 -0.002901 0.000000 0.030914 0.000000
# 6 0.000000 0.000000 0.000000 0.032409 0.000000 -0.099674
#
#
# Mechanical properties :
#
#
# Convention : Reuss Voigt Hill
#
# Bulk Modulus (GPa) = 50.74007 58.48019 54.61013
# Shear Modulus (GPa) = 89.97767 20.33390 55.15578
#
# Velocity S-wave (km/s) = 6.82950 3.24662 5.34708
# Velocity P-wave (km/s) = 9.40700 6.66098 8.15047
#
# Compressibility (1/GPa) = 0.01970829
#
# Stress axis : x y z
#
# Youngs Moduli (GPa) = 95.82578 51.93114 72.14819
#
# Poissons Ratio (x) = 0.11964 0.35619
# Poissons Ratio (y) = 0.22077 0.33774
# Poissons Ratio (z) = 0.47309 0.24310
#
# Static dielectric constant tensor:
#      x y z
#    x 3.808300 0.000000 -0.032760 
#    y 0.000000 3.202580 0.000000 
#    z -0.032760 0.000000 3.528290 
# 
# 
# High freq. dielectric constant tensor:
#      x y z
#    x 1.764670 0.000000 -0.005820 
#    y 0.000000 1.712420 0.000000 
#    z -0.005820 0.000000 1.746300 
# 
# From -- ./inp_files/66597.got.cif
#   From: 2010.06.25/outbox.cif.g09.slc.cpg/sg10_34_cif.got.tgz:66597.got - 2010.06.27 22:07:45.
