data_PCOD8060985
_publ_section_title
;
Structure prediction by ZEFSAII (Michael W. Deem and Ramdas Pophale) SiO2 
 PCOD8060985
Probable space group: P 2/M
;
_chemical_formula_sum "Si O2"
_cell_formula_units_Z 32
_cell_length_a 25.859631
_cell_length_b 8.883858
_cell_length_c 20.910971
_cell_angle_alpha 90.000000
_cell_angle_beta 159.663193
_cell_angle_gamma 90.000000
_cell_volume 1669.554239
_symmetry_space_group_name_H-M "P 2/M"
_symmetry_group_IT_number 10
_symmetry_cell_setting 'monoclinic'
loop_
_space_group_symop_operation_xyz
x,y,z
-x,y,-z
-x,-y,-z
x,-y,z
loop_
_atom_site_type_symbol
_atom_site_label
_atom_site_fract_x
_atom_site_fract_y
_atom_site_fract_z
Si Si1 0.655990 0.176310 0.488999
Si Si2 0.245627 0.325339 0.923847
Si Si3 0.171795 0.333100 0.211249
Si Si4 0.462801 0.177020 0.785509
Si Si5 0.634474 0.325123 0.801226
Si Si6 0.360902 0.678549 0.795713
Si Si7 0.953153 0.321709 0.514747
Si Si8 0.333393 0.174176 0.287601
O O1 0.796477 0.265799 0.681042
O O2 0.632436 0.220291 0.387787
O O3 0.513423 0.225510 0.364907
O O4 0.680916 0.000000 0.526745
O O5 0.269430 0.500000 0.934787
O O6 0.080992 0.271576 0.712833
O O7 0.369296 0.237418 0.026420
O O8 0.259008 0.293192 0.014804
O O9 0.244013 0.500000 0.289227
O O10 0.232494 0.217877 0.229791
O O11 0.000000 0.346491 0.000000
O O12 0.377090 0.251557 0.744638
O O13 0.471617 0.000000 0.805850
O O14 0.591816 0.500000 0.747981
O O15 0.716956 0.271315 0.832623
O O16 0.357081 0.500000 0.784241
O O17 0.207615 0.741022 0.649279
O O18 0.500000 0.731226 0.000000
O O19 0.940733 0.500000 0.496060
O O20 0.000000 0.255491 0.500000
O O21 0.500000 0.214918 0.500000
O O22 0.311272 0.000000 0.245648
#
# Coordination Sequence:
#
# PCOD8060985 Si02
#       8
#     4   4   4   4   4   4   4   4
#     4  10  20  36  57  80 110 147 188 226 274 337
#     4   9  18  34  56  82 111 143 183 228 277 327
#     4  11  24  40  58  83 111 143 185 235 286 331
#     4  10  21  36  56  82 113 147 184 226 271 328
#     4  10  19  32  55  83 111 142 183 235 281 325
#     4  10  20  35  58  85 111 145 189 231 273 326
#     4   9  17  32  56  84 112 141 178 227 274 319
#     4  11  22  36  58  84 110 145 187 229 277 337
#
# _framework density 19.166793999999999
#
# number of rings (size 3 to 8) (size 9 to 14) (size 15 to 20)
#    0.000    2.000    1.250    2.625    0.000    5.750 
#    2.250    0.625    0.000    1.500    0.000    0.000 
#    0.000    0.000    0.000    0.000    0.000    0.000 
#
# Total GULP energy -396836.581648 kJ/mol
# GULP energy per Si atom -12401.143177 kJ/mol
# Density = 1.912317 g / cm^3
# Si number density = 19.166794 Si / 1000 Ang^3
#
#
#
# Elastic Constant Matrix: (Units=GPa)
#
#
# Indices 1 2 3 4 5 6 
#
# 1 131.2293 34.5339 61.6403 0.0000 -5.2376 0.0000
# 2 34.5339 49.9669 39.3916 0.0000 -6.2370 0.0000
# 3 61.6403 39.3916 130.7612 0.0000 -6.1062 0.0000
# 4 0.0000 0.0000 0.0000 17.2888 0.0000 -5.2160
# 5 -5.2376 -6.2370 -6.1062 0.0000 28.5576 0.0000
# 6 0.0000 0.0000 0.0000 -5.2160 0.0000 28.6262
#
#
#
# Elastic Compliance Matrix: (Units=1/GPa)
#
#
# Indices 1 2 3 4 5 6 
#
# 1 0.010474 -0.004366 -0.003613 0.000000 0.000195 0.000000
# 2 -0.004366 0.028547 -0.006351 0.000000 0.004076 0.000000
# 3 -0.003613 -0.006351 0.011281 0.000000 0.000362 0.000000
# 4 0.000000 0.000000 0.000000 0.061205 0.000000 0.011152
# 5 0.000195 0.004076 0.000362 0.000000 0.036020 0.000000
# 6 0.000000 0.000000 0.000000 0.011152 0.000000 0.036965
#
#
# Mechanical properties :
#
#
# Convention : Reuss Voigt Hill
#
# Bulk Modulus (GPa) = 46.20899 64.78766 55.49832
# Shear Modulus (GPa) = 22.68945 26.65397 24.67171
#
# Velocity S-wave (km/s) = 3.44436 3.73316 3.59166
# Velocity P-wave (km/s) = 6.32292 7.24275 6.79841
#
# Compressibility (1/GPa) = 0.02164081
#
# Stress axis : x y z
#
# Youngs Moduli (GPa) = 95.47300 35.03041 88.64605
#
# Poissons Ratio (x) = 0.15296 0.32028
# Poissons Ratio (y) = 0.41688 0.56299
# Poissons Ratio (z) = 0.34494 0.22248
#
# Static dielectric constant tensor:
#      x y z
#    x 3.473130 0.000000 -0.285280 
#    y 0.000000 3.427800 0.000000 
#    z -0.285280 0.000000 3.478530 
# 
# 
# High freq. dielectric constant tensor:
#      x y z
#    x 1.744620 0.000000 -0.018170 
#    y 0.000000 1.737310 0.000000 
#    z -0.018170 0.000000 1.742510 
# 
# From -- ./inp_files/86823.got.cif
#   From: 2010.06.25/outbox.cif.g09.slc.cpg/sg10_44_cif.got.tgz:86823.got - 2010.06.27 22:07:45.
