data_PCOD8060543
_publ_section_title
;
Structure prediction by ZEFSAII (Michael W. Deem and Ramdas Pophale) SiO2 
 PCOD8060543
Probable space group: P 2/M
;
_chemical_formula_sum "Si O2"
_cell_formula_units_Z 28
_cell_length_a 19.856711
_cell_length_b 9.281404
_cell_length_c 18.049270
_cell_angle_alpha 90.000000
_cell_angle_beta 27.497780
_cell_angle_gamma 90.000000
_cell_volume 1535.868053
_symmetry_space_group_name_H-M "P 2/M"
_symmetry_group_IT_number 10
_symmetry_cell_setting 'monoclinic'
loop_
_space_group_symop_operation_xyz
x,y,z
-x,y,-z
-x,-y,-z
x,-y,z
loop_
_atom_site_type_symbol
_atom_site_label
_atom_site_fract_x
_atom_site_fract_y
_atom_site_fract_z
Si Si1 0.666394 0.841914 0.554828
Si Si2 0.680328 0.838544 0.106537
Si Si3 0.168288 0.663471 0.331481
Si Si4 0.659377 0.666515 0.983344
Si Si5 0.669759 0.660445 0.416882
Si Si6 0.677011 0.662667 0.247213
Si Si7 0.636229 0.171877 0.746725
O O1 0.492735 0.845545 0.718251
O O2 0.737139 0.747891 0.420132
O O3 0.704686 0.784540 0.599807
O O4 0.732505 0.000000 0.479275
O O5 0.745712 0.765565 0.117262
O O6 0.744760 0.000000 0.035539
O O7 0.724528 0.742351 0.992856
O O8 0.196361 0.500000 0.332428
O O9 0.216848 0.678486 0.199318
O O10 0.254029 0.777125 0.297645
O O11 0.000000 0.705011 0.500000
O O12 0.620380 0.500000 0.039126
O O13 0.516867 0.747915 0.092037
O O14 0.730924 0.500000 0.365047
O O15 0.719391 0.722109 0.287979
O O16 0.496344 0.660848 0.591133
O O17 0.736169 0.500000 0.178849
O O18 0.609920 0.000000 0.776879
#
# Coordination Sequence:
#
# PCOD8060543 Si02
#       7
#     4   4   4   4   4   4   4
#     4   8  15  25  36  55  84 115 147 184 224 266
#     4   9  16  25  38  59  86 116 152 191 228 270
#     4  10  22  38  53  71  95 122 155 194 236 284
#     4  10  19  32  51  71  93 124 158 194 237 279
#     4   8  13  20  32  51  77 112 151 186 220 263
#     4   8  13  21  32  50  79 114 150 185 223 267
#     4  10  20  33  50  73  98 124 157 195 234 279
#
# _framework density 18.230732
#
# number of rings (size 3 to 8) (size 9 to 14) (size 15 to 20)
#    0.000    3.000    0.000    3.429    0.000    7.714 
#    0.000    2.857    0.000    0.000    0.000    0.000 
#    0.000    1.143    0.000   12.857    0.000   17.000 
#
# Total GULP energy -347018.814593 kJ/mol
# GULP energy per Si atom -12393.529093 kJ/mol
# Density = 1.818924 g / cm^3
# Si number density = 18.230732 Si / 1000 Ang^3
#
#
#
# Elastic Constant Matrix: (Units=GPa)
#
#
# Indices 1 2 3 4 5 6 
#
# 1 71.7641 51.7973 51.4324 0.0000 37.5216 0.0000
# 2 51.7973 113.6999 46.9013 0.0000 23.3741 0.0000
# 3 51.4324 46.9013 62.4296 0.0000 18.1744 0.0000
# 4 0.0000 0.0000 0.0000 9.7722 0.0000 11.4123
# 5 37.5216 23.3741 18.1744 0.0000 24.6928 0.0000
# 6 0.0000 0.0000 0.0000 11.4123 0.0000 32.9316
#
#
#
# Elastic Compliance Matrix: (Units=1/GPa)
#
#
# Indices 1 2 3 4 5 6 
#
# 1 0.318619 -0.008057 -0.149816 0.000000 -0.366261 0.000000
# 2 -0.008057 0.013792 -0.004438 0.000000 0.002454 0.000000
# 3 -0.149816 -0.004438 0.095810 0.000000 0.161334 0.000000
# 4 0.000000 0.000000 0.000000 0.171899 0.000000 -0.059571
# 5 -0.366261 0.002454 0.161334 0.000000 0.475978 0.000000
# 6 0.000000 0.000000 0.000000 -0.059571 0.000000 0.051010
#
#
# Mechanical properties :
#
#
# Convention : Reuss Voigt Hill
#
# Bulk Modulus (GPa) = 9.65249 60.90620 35.27934
# Shear Modulus (GPa) = 3.36414 19.99680 11.68047
#
# Velocity S-wave (km/s) = 1.35990 3.31550 2.53396
# Velocity P-wave (km/s) = 2.78781 6.93814 5.28723
#
# Compressibility (1/GPa) = 0.10360020
#
# Stress axis : x y z
#
# Youngs Moduli (GPa) = 3.13854 72.50745 10.43729
#
# Poissons Ratio (x) = 0.58419 1.56367
# Poissons Ratio (y) = 0.02529 0.04632
# Poissons Ratio (z) = 0.47020 0.32179
#
# Static dielectric constant tensor:
#      x y z
#    x 3.397180 0.000000 0.511190 
#    y 0.000000 3.603280 0.000000 
#    z 0.511190 0.000000 2.979870 
# 
# 
# High freq. dielectric constant tensor:
#      x y z
#    x 1.695590 0.000000 0.047010 
#    y 0.000000 1.712190 0.000000 
#    z 0.047010 0.000000 1.657750 
# 
# From -- ./inp_files/38021.got.cif
#   From: 2010.06.25/outbox.cif.g09.slc.cpg/sg10_20_cif.got.tgz:38021.got - 2010.06.27 22:07:45.
