data_PCOD8060982
_publ_section_title
;
Structure prediction by ZEFSAII (Michael W. Deem and Ramdas Pophale) SiO2 
 PCOD8060982
Probable space group: P 2/M
;
_chemical_formula_sum "Si O2"
_cell_formula_units_Z 28
_cell_length_a 13.710842
_cell_length_b 9.059784
_cell_length_c 13.689293
_cell_angle_alpha 90.000000
_cell_angle_beta 120.138794
_cell_angle_gamma 90.000000
_cell_volume 1470.566012
_symmetry_space_group_name_H-M "P 2/M"
_symmetry_group_IT_number 10
_symmetry_cell_setting 'monoclinic'
loop_
_space_group_symop_operation_xyz
x,y,z
-x,y,-z
-x,-y,-z
x,-y,z
loop_
_atom_site_type_symbol
_atom_site_label
_atom_site_fract_x
_atom_site_fract_y
_atom_site_fract_z
Si Si1 0.268008 0.827487 0.805013
Si Si2 0.680118 0.172458 0.945221
Si Si3 0.173264 0.175617 0.337314
Si Si4 0.398009 0.328204 0.518947
Si Si5 0.021979 0.824595 0.619296
Si Si6 0.120500 0.824544 0.094419
Si Si7 0.547003 0.673383 0.232339
O O1 0.142965 0.769955 0.717779
O O2 0.353575 0.738770 0.781816
O O3 0.281504 0.000000 0.788242
O O4 0.291880 0.792985 0.929195
O O5 0.784200 0.229926 0.932645
O O6 0.570620 0.260712 0.860116
O O7 0.657496 0.000000 0.916642
O O8 0.290895 0.234398 0.434889
O O9 0.150029 0.235575 0.216772
O O10 0.074051 0.236903 0.356865
O O11 0.177293 0.000000 0.340872
O O12 0.500000 0.283147 0.500000
O O13 0.368233 0.500000 0.494391
O O14 0.432604 0.284261 0.645393
O O15 0.000000 0.761069 0.500000
O O16 0.017888 0.000000 0.616640
O O17 0.114197 0.000000 0.091861
O O18 0.000000 0.759336 0.000000
O O19 0.543162 0.500000 0.214059
#
# Coordination Sequence:
#
# PCOD8060982 Si02
#       7
#     4   4   4   4   4   4   4
#     4  10  20  35  55  78 106 139 173 210 256 311
#     4  10  20  34  54  79 106 138 173 211 259 310
#     4  10  19  32  55  83 106 135 176 217 256 302
#     4  10  22  39  55  73 103 141 175 212 263 314
#     4   9  17  30  50  77 106 134 167 210 257 303
#     4   9  17  31  53  82 112 137 168 214 261 305
#     4  11  23  37  54  76 103 137 176 218 262 306
#
# _framework density 19.040288
#
# number of rings (size 3 to 8) (size 9 to 14) (size 15 to 20)
#    0.000    2.143    0.000    3.429    0.000    8.286 
#    0.000    0.714    0.000    6.000    0.000    0.000 
#    0.000    0.000    0.000    0.000    0.000    0.000 
#
# Total GULP energy -347285.155373 kJ/mol
# GULP energy per Si atom -12403.041263 kJ/mol
# Density = 1.899695 g / cm^3
# Si number density = 19.040288 Si / 1000 Ang^3
#
#
#
# Elastic Constant Matrix: (Units=GPa)
#
#
# Indices 1 2 3 4 5 6 
#
# 1 197.3189 47.7888 105.8755 0.0000 -2.5344 0.0000
# 2 47.7888 36.0116 53.6239 0.0000 0.3222 0.0000
# 3 105.8755 53.6239 183.2230 0.0000 3.5063 0.0000
# 4 0.0000 0.0000 0.0000 10.3092 0.0000 -15.1999
# 5 -2.5344 0.3222 3.5063 0.0000 44.2094 0.0000
# 6 0.0000 0.0000 0.0000 -15.1999 0.0000 0.7259
#
#
#
# Elastic Compliance Matrix: (Units=1/GPa)
#
#
# Indices 1 2 3 4 5 6 
#
# 1 0.008204 -0.006759 -0.002777 0.000000 0.000740 0.000000
# 2 -0.006759 0.054815 -0.012140 0.000000 0.000176 0.000000
# 3 -0.002777 -0.012140 0.010633 0.000000 -0.000914 0.000000
# 4 0.000000 0.000000 0.000000 -0.003247 0.000000 -0.067992
# 5 0.000740 0.000176 -0.000914 0.000000 0.022733 0.000000
# 6 0.000000 0.000000 0.000000 -0.067992 0.000000 -0.046115
#
#
# Mechanical properties :
#
#
# Convention : Reuss Voigt Hill
#
# Bulk Modulus (GPa) = 33.00387 92.34776 62.67581
# Shear Modulus (GPa) = 49.76358 24.99994 37.38176
#
# Velocity S-wave (km/s) = 5.11788 3.62747 4.43572
# Velocity P-wave (km/s) = 7.23152 8.13334 7.69565
#
# Compressibility (1/GPa) = 0.03029948
#
# Stress axis : x y z
#
# Youngs Moduli (GPa) = 121.88493 18.24334 94.04706
#
# Poissons Ratio (x) = 0.12331 0.26116
# Poissons Ratio (y) = 0.82385 1.14174
# Poissons Ratio (z) = 0.33846 0.22148
#
# Static dielectric constant tensor:
#      x y z
#    x 3.968890 0.000000 -0.021840 
#    y 0.000000 3.106470 0.000000 
#    z -0.021840 0.000000 3.726720 
# 
# 
# High freq. dielectric constant tensor:
#      x y z
#    x 1.762150 0.000000 -0.001840 
#    y 0.000000 1.699360 0.000000 
#    z -0.001840 0.000000 1.761150 
# 
# From -- ./inp_files/63386.got.cif
#   From: 2010.06.25/outbox.cif.g09.slc.cpg/sg10_32_cif.got.tgz:63386.got - 2010.06.27 22:07:45.
