data_PCOD8060470
_publ_section_title
;
Structure prediction by ZEFSAII (Michael W. Deem and Ramdas Pophale) SiO2 
 PCOD8060470
Probable space group: P 2/M
;
_chemical_formula_sum "Si O2"
_cell_formula_units_Z 32
_cell_length_a 27.732271
_cell_length_b 8.996392
_cell_length_c 11.426311
_cell_angle_alpha 90.000000
_cell_angle_beta 136.815777
_cell_angle_gamma 90.000000
_cell_volume 1950.903565
_symmetry_space_group_name_H-M "P 2/M"
_symmetry_group_IT_number 10
_symmetry_cell_setting 'monoclinic'
loop_
_space_group_symop_operation_xyz
x,y,z
-x,y,-z
-x,-y,-z
x,-y,z
loop_
_atom_site_type_symbol
_atom_site_label
_atom_site_fract_x
_atom_site_fract_y
_atom_site_fract_z
Si Si1 0.934847 0.324133 0.458643
Si Si2 0.795801 0.322847 0.089832
Si Si3 0.900004 0.821943 0.877652
Si Si4 0.489252 0.834737 0.342341
Si Si5 0.355342 0.335195 0.134709
Si Si6 0.032861 0.677679 0.220461
Si Si7 0.778644 0.676253 0.794858
Si Si8 0.622648 0.663769 0.550520
O O1 0.933735 0.500000 0.440926
O O2 0.861905 0.257753 0.278782
O O3 0.941943 0.279173 0.605814
O O4 0.000000 0.257269 0.500000
O O5 0.791936 0.500000 0.086947
O O6 0.722788 0.262952 0.018948
O O7 0.802676 0.273637 0.967103
O O8 0.912430 0.754539 0.770904
O O9 0.822556 0.772569 0.780174
O O10 0.907970 0.000000 0.890075
O O11 0.955849 0.747764 0.065179
O O12 0.500000 0.827306 0.500000
O O13 0.415892 0.757305 0.176325
O O14 0.556654 0.764467 0.396021
O O15 0.483548 0.000000 0.285072
O O16 0.357687 0.500000 0.084653
O O17 0.370792 0.342256 0.299002
O O18 0.029724 0.500000 0.195455
O O19 0.790576 0.500000 0.797765
O O20 0.696858 0.720427 0.628987
O O21 0.606531 0.500000 0.473403
#
# Coordination Sequence:
#
# PCOD8060470 Si02
#       8
#     4   4   4   4   4   4   4   4
#     4   9  16  26  45  71  91 107 135 178 219 252
#     4   8  14  25  42  65  88 110 141 180 217 253
#     4  11  21  32  46  63  87 114 142 179 217 253
#     4   9  15  21  31  49  76 109 142 174 205 240
#     4   8  13  22  36  52  75 108 141 171 204 245
#     4  10  19  32  50  67  84 110 144 178 212 254
#     4   9  16  28  46  65  86 113 145 177 211 255
#     4   8  14  23  36  55  78 106 139 172 205 245
#
# _framework density 16.402656
#
# number of rings (size 3 to 8) (size 9 to 14) (size 15 to 20)
#    0.000    3.000    0.000    4.875    0.000    4.000 
#    0.000    1.875    0.000    8.250    0.000    0.000 
#    0.000    1.000    0.000   11.500    0.000    6.375 
#
# Total GULP energy -396572.290635 kJ/mol
# GULP energy per Si atom -12392.884082 kJ/mol
# Density = 1.636532 g / cm^3
# Si number density = 16.402656 Si / 1000 Ang^3
#
#
#
# Elastic Constant Matrix: (Units=GPa)
#
#
# Indices 1 2 3 4 5 6 
#
# 1 121.7166 53.1238 62.6383 0.0000 32.1799 0.0000
# 2 53.1238 81.7256 30.8070 0.0000 14.3323 0.0000
# 3 62.6383 30.8070 78.5555 0.0000 21.2040 0.0000
# 4 0.0000 0.0000 0.0000 6.3963 0.0000 2.1869
# 5 32.1799 14.3323 21.2040 0.0000 29.2333 0.0000
# 6 0.0000 0.0000 0.0000 2.1869 0.0000 13.4623
#
#
#
# Elastic Compliance Matrix: (Units=1/GPa)
#
#
# Indices 1 2 3 4 5 6 
#
# 1 0.018894 -0.006839 -0.009543 0.000000 -0.010524 0.000000
# 2 -0.006839 0.017159 -0.001290 0.000000 0.000051 0.000000
# 3 -0.009543 -0.001290 0.022182 0.000000 -0.004952 0.000000
# 4 0.000000 0.000000 0.000000 0.165535 0.000000 -0.026891
# 5 -0.010524 0.000051 -0.004952 0.000000 0.049358 0.000000
# 6 0.000000 0.000000 0.000000 -0.026891 0.000000 0.078650
#
#
# Mechanical properties :
#
#
# Convention : Reuss Voigt Hill
#
# Bulk Modulus (GPa) = 43.68527 63.90397 53.79462
# Shear Modulus (GPa) = 12.66618 18.84696 15.75657
#
# Velocity S-wave (km/s) = 2.78187 3.39340 3.10273
# Velocity P-wave (km/s) = 6.08352 7.37547 6.76043
#
# Compressibility (1/GPa) = 0.02289101
#
# Stress axis : x y z
#
# Youngs Moduli (GPa) = 52.92691 58.27965 45.08210
#
# Poissons Ratio (x) = 0.39856 0.43022
# Poissons Ratio (y) = 0.36195 0.05815
# Poissons Ratio (z) = 0.50509 0.07517
#
# Static dielectric constant tensor:
#      x y z
#    x 3.126700 0.000000 0.385650 
#    y 0.000000 2.958630 0.000000 
#    z 0.385650 0.000000 2.993910 
# 
# 
# High freq. dielectric constant tensor:
#      x y z
#    x 1.624520 0.000000 0.037500 
#    y 0.000000 1.610270 0.000000 
#    z 0.037500 0.000000 1.595640 
# 
# From -- ./inp_files/57194.got.cif
#   From: 2010.06.25/outbox.cif.g09.slc.cpg/sg10_29_cif.got.tgz:57194.got - 2010.06.27 22:07:45.
