data_PCOD8060955
_publ_section_title
;
Structure prediction by ZEFSAII (Michael W. Deem and Ramdas Pophale) SiO2 
 PCOD8060955
Probable space group: P 2/M
;
_chemical_formula_sum "Si O2"
_cell_formula_units_Z 32
_cell_length_a 11.861774
_cell_length_b 9.291317
_cell_length_c 28.642250
_cell_angle_alpha 90.000000
_cell_angle_beta 31.066952
_cell_angle_gamma 90.000000
_cell_volume 1628.984209
_symmetry_space_group_name_H-M "P 2/M"
_symmetry_group_IT_number 10
_symmetry_cell_setting 'monoclinic'
loop_
_space_group_symop_operation_xyz
x,y,z
-x,y,-z
-x,-y,-z
x,-y,z
loop_
_atom_site_type_symbol
_atom_site_label
_atom_site_fract_x
_atom_site_fract_y
_atom_site_fract_z
Si Si1 0.600905 0.168833 0.415959
Si Si2 0.184866 0.328677 0.324860
Si Si3 0.275728 0.663880 0.471284
Si Si4 0.532533 0.335133 0.692079
Si Si5 0.836453 0.332849 0.016245
Si Si6 0.938800 0.668151 0.161907
Si Si7 0.384994 0.168050 0.172140
Si Si8 0.053676 0.834286 0.211814
O O1 0.500000 0.231835 0.500000
O O2 0.470732 0.238691 0.420045
O O3 0.855259 0.209264 0.317409
O O4 0.562255 0.000000 0.428216
O O5 0.197509 0.500000 0.312753
O O6 0.372119 0.271233 0.293818
O O7 0.212297 0.243749 0.267455
O O8 0.954062 0.281548 0.428096
O O9 0.319975 0.500000 0.470910
O O10 0.280546 0.678859 0.413529
O O11 0.474896 0.500000 0.722794
O O12 0.303942 0.263341 0.757588
O O13 0.773543 0.500000 0.044484
O O14 0.619024 0.239459 0.095982
O O15 0.939592 0.300900 0.929535
O O16 0.000000 0.286676 0.000000
O O17 0.932990 0.500000 0.176103
O O18 0.059838 0.744091 0.162003
O O19 0.284341 0.191976 0.156212
O O20 0.402465 0.000000 0.177808
O O21 0.026881 0.000000 0.207021
#
# Coordination Sequence:
#
# PCOD8060955 Si02
#       8
#     4   4   4   4   4   4   4   4
#     4  10  20  35  54  75 109 158 202 240 285 338
#     4  10  20  35  57  84 116 154 192 238 295 348
#     4  10  19  32  54  84 113 146 192 241 289 343
#     4   9  17  33  56  84 116 148 186 234 290 348
#     4  10  22  42  67  93 119 149 186 232 292 354
#     4  10  20  36  62  89 114 148 191 241 288 343
#     4  11  24  41  60  84 116 154 195 239 285 339
#     4  10  22  39  57  80 115 157 196 238 291 342
#
# _framework density 19.644143
#
# number of rings (size 3 to 8) (size 9 to 14) (size 15 to 20)
#    0.000    2.000    1.250    2.250    0.000    7.500 
#    0.000    5.000    0.000    1.500    0.000    0.000 
#    0.000    0.000    0.000    0.000    0.000    0.000 
#
# Total GULP energy -396756.679777 kJ/mol
# GULP energy per Si atom -12398.646243 kJ/mol
# Density = 1.959943 g / cm^3
# Si number density = 19.644143 Si / 1000 Ang^3
#
#
#
# Elastic Constant Matrix: (Units=GPa)
#
#
# Indices 1 2 3 4 5 6 
#
# 1 116.1359 46.0217 39.9796 0.0000 -4.7116 0.0000
# 2 46.0217 52.7059 41.7809 0.0000 -2.5565 0.0000
# 3 39.9796 41.7809 96.2314 0.0000 -2.7543 0.0000
# 4 0.0000 0.0000 0.0000 4.3167 0.0000 -21.8848
# 5 -4.7116 -2.5565 -2.7543 0.0000 34.8112 0.0000
# 6 0.0000 0.0000 0.0000 -21.8848 0.0000 5.3328
#
#
#
# Elastic Compliance Matrix: (Units=1/GPa)
#
#
# Indices 1 2 3 4 5 6 
#
# 1 0.013230 -0.010934 -0.000722 0.000000 0.000930 0.000000
# 2 -0.010934 0.038012 -0.011951 0.000000 0.000366 0.000000
# 3 -0.000722 -0.011951 0.015888 0.000000 0.000282 0.000000
# 4 0.000000 0.000000 0.000000 -0.011697 0.000000 -0.048001
# 5 0.000930 0.000366 0.000282 0.000000 0.028902 0.000000
# 6 0.000000 0.000000 0.000000 -0.048001 0.000000 -0.009468
#
#
# Mechanical properties :
#
#
# Convention : Reuss Voigt Hill
#
# Bulk Modulus (GPa) = 50.21145 57.84863 54.03004
# Shear Modulus (GPa) = 38.84362 18.04485 28.44423
#
# Velocity S-wave (km/s) = 4.45158 3.03411 3.80936
# Velocity P-wave (km/s) = 7.21374 6.46426 6.84926
#
# Compressibility (1/GPa) = 0.01991578
#
# Stress axis : x y z
#
# Youngs Moduli (GPa) = 75.58524 26.30736 62.93890
#
# Poissons Ratio (x) = 0.28766 0.04547
# Poissons Ratio (y) = 0.82648 0.75216
# Poissons Ratio (z) = 0.05460 0.31439
#
# Static dielectric constant tensor:
#      x y z
#    x 3.647360 0.000000 -0.014650 
#    y 0.000000 3.319960 0.000000 
#    z -0.014650 0.000000 3.679410 
# 
# 
# High freq. dielectric constant tensor:
#      x y z
#    x 1.774960 0.000000 0.000890 
#    y 0.000000 1.738950 0.000000 
#    z 0.000890 0.000000 1.772980 
# 
# From -- ./inp_files/94917.got.cif
#   From: 2010.06.25/outbox.cif.g09.slc.cpg/sg10_48_cif.got.tgz:94917.got - 2010.06.27 22:07:45.
