data_PCOD8060352
_publ_section_title
;
Structure prediction by ZEFSAII (Michael W. Deem and Ramdas Pophale) SiO2 
 PCOD8060352
Probable space group: P 2/M
;
_chemical_formula_sum "Si O2"
_cell_formula_units_Z 32
_cell_length_a 15.007671
_cell_length_b 8.890836
_cell_length_c 14.319307
_cell_angle_alpha 90.000000
_cell_angle_beta 55.145420
_cell_angle_gamma 90.000000
_cell_volume 1567.877585
_symmetry_space_group_name_H-M "P 2/M"
_symmetry_group_IT_number 10
_symmetry_cell_setting 'monoclinic'
loop_
_space_group_symop_operation_xyz
x,y,z
-x,y,-z
-x,-y,-z
x,-y,z
loop_
_atom_site_type_symbol
_atom_site_label
_atom_site_fract_x
_atom_site_fract_y
_atom_site_fract_z
Si Si1 0.106322 0.823328 0.682186
Si Si2 0.335408 0.823274 0.607571
Si Si3 0.508696 0.821114 0.641852
Si Si4 0.281941 0.321957 0.219705
Si Si5 0.887848 0.322145 0.522876
Si Si6 0.497367 0.821449 0.148997
Si Si7 0.259692 0.176914 0.046242
Si Si8 0.051440 0.177169 0.065253
O O1 0.210106 0.780951 0.683677
O O2 0.119239 0.742950 0.576130
O O3 0.008291 0.763252 0.805008
O O4 0.098563 0.000000 0.666408
O O5 0.394996 0.763040 0.664911
O O6 0.392756 0.758519 0.479945
O O7 0.354627 0.000000 0.592147
O O8 0.522331 0.754556 0.736217
O O9 0.507653 0.000000 0.651647
O O10 0.289009 0.500000 0.212393
O O11 0.212518 0.267467 0.351654
O O12 0.403456 0.252919 0.143091
O O13 0.221227 0.262586 0.163041
O O14 0.887434 0.500000 0.515376
O O15 0.000000 0.263732 0.500000
O O16 0.485511 0.000000 0.146865
O O17 0.618316 0.770204 0.049386
O O18 0.178652 0.216770 0.007458
O O19 0.253507 0.000000 0.069515
O O20 0.032404 0.000000 0.070388
O O21 0.000000 0.247882 0.000000
#
# Coordination Sequence:
#
# PCOD8060352 Si02
#       8
#     4   4   4   4   4   4   4   4
#     4  10  19  31  54  83 108 138 178 221 267 317
#     4   8  14  24  42  71 103 131 166 212 259 306
#     4   8  14  25  42  69 103 134 167 212 259 306
#     4  11  23  38  57  80 108 144 183 229 281 328
#     4  10  22  39  57  77 105 142 180 222 277 333
#     4  10  20  33  54  80 109 145 185 225 269 322
#     4  10  21  36  55  80 111 148 186 225 273 325
#     4   9  19  34  54  84 119 147 177 225 278 323
#
# _framework density 20.409758
#
# number of rings (size 3 to 8) (size 9 to 14) (size 15 to 20)
#    0.000    2.500    0.000    3.000    1.750    4.250 
#    0.000    0.000    0.000    2.250    0.000    3.500 
#    0.000    0.000    0.000    0.000    0.000    0.000 
#
# Total GULP energy -396553.997429 kJ/mol
# GULP energy per Si atom -12392.312420 kJ/mol
# Density = 2.036330 g / cm^3
# Si number density = 20.409758 Si / 1000 Ang^3
#
#
#
# Elastic Constant Matrix: (Units=GPa)
#
#
# Indices 1 2 3 4 5 6 
#
# 1 116.8572 20.2815 48.7515 0.0000 -2.4556 0.0000
# 2 20.2815 21.7438 19.5181 0.0000 -2.3844 0.0000
# 3 48.7515 19.5181 92.9503 0.0000 2.5046 0.0000
# 4 0.0000 0.0000 0.0000 18.0278 0.0000 -3.8238
# 5 -2.4556 -2.3844 2.5046 0.0000 40.8158 0.0000
# 6 0.0000 0.0000 0.0000 -3.8238 0.0000 3.6464
#
#
#
# Elastic Compliance Matrix: (Units=1/GPa)
#
#
# Indices 1 2 3 4 5 6 
#
# 1 0.011702 -0.006560 -0.004776 0.000000 0.000614 0.000000
# 2 -0.006560 0.061025 -0.009475 0.000000 0.003752 0.000000
# 3 -0.004776 -0.009475 0.015301 0.000000 -0.001780 0.000000
# 4 0.000000 0.000000 0.000000 0.071337 0.000000 0.074808
# 5 0.000614 0.003752 -0.001780 0.000000 0.024866 0.000000
# 6 0.000000 0.000000 0.000000 0.074808 0.000000 0.352693
#
#
# Mechanical properties :
#
#
# Convention : Reuss Voigt Hill
#
# Bulk Modulus (GPa) = 21.54904 45.40593 33.47748
# Shear Modulus (GPa) = 8.41731 22.03134 15.22432
#
# Velocity S-wave (km/s) = 2.03301 3.28906 2.73414
# Velocity P-wave (km/s) = 4.01148 6.05965 5.13864
#
# Compressibility (1/GPa) = 0.04640579
#
# Stress axis : x y z
#
# Youngs Moduli (GPa) = 85.45905 16.38663 65.35448
#
# Poissons Ratio (x) = 0.10749 0.31216
# Poissons Ratio (y) = 0.56059 0.61923
# Poissons Ratio (z) = 0.40819 0.15526
#
# Static dielectric constant tensor:
#      x y z
#    x 4.098320 0.000000 -0.001850 
#    y 0.000000 3.092880 0.000000 
#    z -0.001850 0.000000 3.903940 
# 
# 
# High freq. dielectric constant tensor:
#      x y z
#    x 1.817220 0.000000 0.002120 
#    y 0.000000 1.733640 0.000000 
#    z 0.002120 0.000000 1.805590 
# 
# From -- ./inp_files/66459.got.cif
#   From: 2010.06.25/outbox.cif.g09.slc.cpg/sg10_34_cif.got.tgz:66459.got - 2010.06.27 22:07:45.
