data_PCOD8060404
_publ_section_title
;
Structure prediction by ZEFSAII (Michael W. Deem and Ramdas Pophale) SiO2 
 PCOD8060404
Probable space group: P 2/M
;
_chemical_formula_sum "Si O2"
_cell_formula_units_Z 26
_cell_length_a 23.517850
_cell_length_b 12.366727
_cell_length_c 5.236963
_cell_angle_alpha 90.000000
_cell_angle_beta 85.799464
_cell_angle_gamma 90.000000
_cell_volume 1519.020799
_symmetry_space_group_name_H-M "P 2/M"
_symmetry_group_IT_number 10
_symmetry_cell_setting 'monoclinic'
loop_
_space_group_symop_operation_xyz
x,y,z
-x,y,-z
-x,-y,-z
x,-y,z
loop_
_atom_site_type_symbol
_atom_site_label
_atom_site_fract_x
_atom_site_fract_y
_atom_site_fract_z
Si Si1 0.554250 0.383795 0.314116
Si Si2 0.500000 0.793450 0.000000
Si Si3 0.654095 0.247008 0.378263
Si Si4 0.032444 0.370937 0.239143
Si Si5 0.228466 0.628343 0.663542
Si Si6 0.382394 0.124765 0.123203
Si Si7 0.160137 0.372671 0.189123
O O1 0.500000 0.405601 0.500000
O O2 0.567693 0.500000 0.171749
O O3 0.609543 0.344776 0.452613
O O4 0.541024 0.283929 0.141899
O O5 0.451535 0.865441 0.154965
O O6 0.714758 0.302500 0.333539
O O7 0.651595 0.166342 0.618424
O O8 0.639837 0.185280 0.121182
O O9 0.033366 0.500000 0.237292
O O10 0.096550 0.323170 0.218410
O O11 0.000000 0.327510 0.500000
O O12 0.000000 0.327004 0.000000
O O13 0.241906 0.500000 0.656367
O O14 0.196252 0.667611 0.419566
O O15 0.190087 0.661631 0.917096
O O16 0.367779 0.000000 0.090624
O O17 0.154569 0.500000 0.207916
#
# Coordination Sequence:
#
# PCOD8060404 Si02
#       7
#     4   2   4   4   4   4   4
#     4  10  19  33  50  73 101 127 153 194 244 294
#     4  10  20  36  52  76  96 126 152 194 242 312
#     4  11  22  37  53  75  95 125 163 199 246 302
#     4   9  15  23  37  59  88 125 169 210 235 258
#     4  10  19  32  48  69  96 130 166 204 239 284
#     4  11  23  38  56  73  94 119 156 202 251 299
#     4   9  17  28  43  64  94 130 170 206 237 270
#
# _framework density 17.116288999999998
#
# number of rings (size 3 to 8) (size 9 to 14) (size 15 to 20)
#    0.000    2.000    1.538    3.231    0.000    3.692 
#    0.000    3.846    0.000    0.000    0.000    0.000 
#    0.000    0.000    0.000    0.000    0.000  193.846 
#
# Total GULP energy -322155.568032 kJ/mol
# GULP energy per Si atom -12390.598770 kJ/mol
# Density = 1.707733 g / cm^3
# Si number density = 17.116289 Si / 1000 Ang^3
#
#
#
# Elastic Constant Matrix: (Units=GPa)
#
#
# Indices 1 2 3 4 5 6 
#
# 1 124.4776 48.3780 47.9471 0.0000 -3.7644 0.0000
# 2 48.3780 61.4884 28.0840 0.0000 -0.7808 0.0000
# 3 47.9471 28.0840 110.0962 0.0000 8.0328 0.0000
# 4 0.0000 0.0000 0.0000 25.0899 0.0000 4.3603
# 5 -3.7644 -0.7808 8.0328 0.0000 29.7100 0.0000
# 6 0.0000 0.0000 0.0000 4.3603 0.0000 16.6457
#
#
#
# Elastic Compliance Matrix: (Units=1/GPa)
#
#
# Indices 1 2 3 4 5 6 
#
# 1 0.012731 -0.008348 -0.003587 0.000000 0.002364 0.000000
# 2 -0.008348 0.023976 -0.002498 0.000000 0.000248 0.000000
# 3 -0.003587 -0.002498 0.011548 0.000000 -0.003643 0.000000
# 4 0.000000 0.000000 0.000000 0.041758 0.000000 -0.010938
# 5 0.002364 0.000248 -0.003643 0.000000 0.034950 0.000000
# 6 0.000000 0.000000 0.000000 -0.010938 0.000000 0.062941
#
#
# Mechanical properties :
#
#
# Convention : Reuss Voigt Hill
#
# Bulk Modulus (GPa) = 51.57985 60.54228 56.06106
# Shear Modulus (GPa) = 22.39802 25.73268 24.06535
#
# Velocity S-wave (km/s) = 3.62135 3.88158 3.75372
# Velocity P-wave (km/s) = 6.90550 7.45230 7.18411
#
# Compressibility (1/GPa) = 0.01938742
#
# Stress axis : x y z
#
# Youngs Moduli (GPa) = 78.54550 41.70885 86.59237
#
# Poissons Ratio (x) = 0.34820 0.31065
# Poissons Ratio (y) = 0.65572 0.21633
# Poissons Ratio (z) = 0.28178 0.10420
#
# Static dielectric constant tensor:
#      x y z
#    x 3.434310 0.000000 -0.020820 
#    y 0.000000 3.127370 0.000000 
#    z -0.020820 0.000000 3.296420 
# 
# 
# High freq. dielectric constant tensor:
#      x y z
#    x 1.666440 0.000000 0.000570 
#    y 0.000000 1.612660 0.000000 
#    z 0.000570 0.000000 1.666930 
# 
# From -- ./inp_files/12223.got.cif
#   From: 2010.06.25/outbox.cif.g09.slc.cpg/sg10_7_cif.got.tgz:12223.got - 2010.06.27 22:07:45.
