data_PCOD8060357
_publ_section_title
;
Structure prediction by ZEFSAII (Michael W. Deem and Ramdas Pophale) SiO2 
 PCOD8060357
Probable space group: P 2/M
;
_chemical_formula_sum "Si O2"
_cell_formula_units_Z 18
_cell_length_a 5.237383
_cell_length_b 19.844912
_cell_length_c 7.372808
_cell_angle_alpha 90.000000
_cell_angle_beta 85.331866
_cell_angle_gamma 90.000000
_cell_volume 763.753830
_symmetry_space_group_name_H-M "P 2/M"
_symmetry_group_IT_number 10
_symmetry_cell_setting 'monoclinic'
loop_
_space_group_symop_operation_xyz
x,y,z
-x,y,-z
-x,-y,-z
x,-y,z
loop_
_atom_site_type_symbol
_atom_site_label
_atom_site_fract_x
_atom_site_fract_y
_atom_site_fract_z
Si Si1 0.784348 0.147268 0.286270
Si Si2 0.083233 0.576613 0.702133
Si Si3 0.234297 0.000000 0.620895
Si Si4 0.285148 0.204814 0.305317
Si Si5 0.589632 0.348433 0.799978
O O1 0.789557 0.066903 0.256220
O O2 0.541224 0.176920 0.192851
O O3 0.750319 0.169041 0.498574
O O4 0.043305 0.182159 0.196027
O O5 0.134559 0.500000 0.758506
O O6 0.350511 0.616095 0.713575
O O7 0.000000 0.582774 0.500000
O O8 0.834766 0.603478 0.825866
O O9 0.500000 0.000000 0.500000
O O10 0.000000 0.000000 0.500000
O O11 0.307976 0.285462 0.324687
O O12 0.500000 0.321714 0.000000
#
# Coordination Sequence:
#
# PCOD8060357 Si02
#       5
#     4   4   2   4   4
#     4  10  19  31  54  85 114 162 194 265 306 353
#     4  11  26  46  69  96 124 162 211 264 317 372
#     4  12  16  30  48  84 124 142 206 258 318 354
#     4  10  20  33  51  84 118 152 199 241 313 356
#     4  12  26  42  66  95 129 171 209 257 314 381
#
# _framework density 23.567803999999999
#
# number of rings (size 3 to 8) (size 9 to 14) (size 15 to 20)
#    0.000    1.111    4.444    3.333    9.333    4.444 
#    0.000    0.000    0.000    0.000    0.000    8.556 
#    0.000    0.000    0.000    0.000    0.000    0.000 
#
# Total GULP energy -223099.874771 kJ/mol
# GULP energy per Si atom -12394.437487 kJ/mol
# Density = 2.351416 g / cm^3
# Si number density = 23.567804 Si / 1000 Ang^3
#
#
#
# Elastic Constant Matrix: (Units=GPa)
#
#
# Indices 1 2 3 4 5 6 
#
# 1 263.0736 91.5255 -1.5874 0.0000 -13.6951 0.0000
# 2 91.5255 209.4259 12.6816 0.0000 -2.4093 0.0000
# 3 -1.5874 12.6816 21.4778 0.0000 -3.2988 0.0000
# 4 0.0000 0.0000 0.0000 6.3244 0.0000 -6.2145
# 5 -13.6951 -2.4093 -3.2988 0.0000 21.7525 0.0000
# 6 0.0000 0.0000 0.0000 -6.2145 0.0000 39.5732
#
#
#
# Elastic Compliance Matrix: (Units=1/GPa)
#
#
# Indices 1 2 3 4 5 6 
#
# 1 0.004723 -0.002155 0.002090 0.000000 0.003052 0.000000
# 2 -0.002155 0.005936 -0.003862 0.000000 -0.001285 0.000000
# 3 0.002090 -0.003862 0.050302 0.000000 0.008517 0.000000
# 4 0.000000 0.000000 0.000000 0.186969 0.000000 0.029361
# 5 0.003052 -0.001285 0.008517 0.000000 0.049042 0.000000
# 6 0.000000 0.000000 0.000000 0.029361 0.000000 0.029880
#
#
# Mechanical properties :
#
#
# Convention : Reuss Voigt Hill
#
# Bulk Modulus (GPa) = 18.82969 77.69077 48.26023
# Shear Modulus (GPa) = 14.18808 39.62052 26.90430
#
# Velocity S-wave (km/s) = 2.45625 4.10461 3.38238
# Velocity P-wave (km/s) = 4.00639 7.44984 5.98127
#
# Compressibility (1/GPa) = 0.05310762
#
# Stress axis : x y z
#
# Youngs Moduli (GPa) = 211.74948 168.46433 19.87981
#
# Poissons Ratio (x) = 0.36310 -0.04156
# Poissons Ratio (y) = 0.45640 0.07677
# Poissons Ratio (z) = -0.44263 0.65054
#
# Static dielectric constant tensor:
#      x y z
#    x 8.617390 0.000000 -0.500750 
#    y 0.000000 5.108270 0.000000 
#    z -0.500750 0.000000 3.598080 
# 
# 
# High freq. dielectric constant tensor:
#      x y z
#    x 1.975620 0.000000 -0.006180 
#    y 0.000000 1.941520 0.000000 
#    z -0.006180 0.000000 1.879240 
# 
# From -- ./inp_files/14721.got.cif
#   From: 2010.06.25/outbox.cif.g09.slc.cpg/sg10_8_cif.got.tgz:14721.got - 2010.06.27 22:07:45.
