data_PCOD8060097
_publ_section_title
;
Structure prediction by ZEFSAII (Michael W. Deem and Ramdas Pophale) SiO2 
 PCOD8060097
Probable space group: P 2/M
;
_chemical_formula_sum "Si O2"
_cell_formula_units_Z 28
_cell_length_a 11.700522
_cell_length_b 9.548499
_cell_length_c 14.720260
_cell_angle_alpha 90.000000
_cell_angle_beta 117.687114
_cell_angle_gamma 90.000000
_cell_volume 1456.275297
_symmetry_space_group_name_H-M "P 2/M"
_symmetry_group_IT_number 10
_symmetry_cell_setting 'monoclinic'
loop_
_space_group_symop_operation_xyz
x,y,z
-x,y,-z
-x,-y,-z
x,-y,z
loop_
_atom_site_type_symbol
_atom_site_label
_atom_site_fract_x
_atom_site_fract_y
_atom_site_fract_z
Si Si1 0.072018 0.835162 0.121714
Si Si2 0.879935 0.164506 0.521995
Si Si3 0.642921 0.161258 0.818485
Si Si4 0.624976 0.345375 0.984670
Si Si5 0.748272 0.344602 0.206912
Si Si6 0.032669 0.661927 0.283901
Si Si7 0.636917 0.838595 0.315606
O O1 0.223582 0.790475 0.177740
O O2 0.016132 0.740410 0.181635
O O3 0.053829 0.000000 0.136688
O O4 0.000000 0.797972 0.000000
O O5 0.875697 0.252349 0.613876
O O6 0.742503 0.209855 0.427850
O O7 0.000000 0.202286 0.500000
O O8 0.884046 0.000000 0.547553
O O9 0.513122 0.189591 0.709346
O O10 0.655930 0.000000 0.846941
O O11 0.625016 0.232552 0.907586
O O12 0.637049 0.500000 0.945348
O O13 0.742778 0.314671 0.096872
O O14 0.500000 0.332132 0.000000
O O15 0.693868 0.500000 0.207612
O O16 0.659597 0.239497 0.229613
O O17 0.897552 0.333264 0.287851
O O18 0.078028 0.500000 0.286810
O O19 0.659662 0.000000 0.302357
#
# Coordination Sequence:
#
# PCOD8060097 Si02
#       7
#     4   4   4   4   4   4   4
#     4  10  22  41  62  83 112 151 193 235 279 332
#     4  10  20  36  58  84 114 150 188 230 283 340
#     4  10  21  36  55  81 110 144 188 236 280 325
#     4  10  19  31  49  76 111 148 180 215 273 342
#     4  10  20  33  50  78 114 146 179 222 276 334
#     4  11  23  37  58  86 114 148 191 237 282 332
#     4  10  20  34  54  81 111 142 181 227 278 331
#
# _framework density 19.227134
#
# number of rings (size 3 to 8) (size 9 to 14) (size 15 to 20)
#    0.000    1.857    2.857    1.286    0.000    3.143 
#    0.000    0.714    0.000    4.286    0.000    0.000 
#    0.000    0.000    0.000    0.000    0.000    0.000 
#
# Total GULP energy -346982.844393 kJ/mol
# GULP energy per Si atom -12392.244443 kJ/mol
# Density = 1.918337 g / cm^3
# Si number density = 19.227134 Si / 1000 Ang^3
#
#
#
# Elastic Constant Matrix: (Units=GPa)
#
#
# Indices 1 2 3 4 5 6 
#
# 1 70.3940 30.5363 38.5384 0.0000 17.8657 0.0000
# 2 30.5363 60.9241 45.7043 0.0000 -3.0541 0.0000
# 3 38.5384 45.7043 86.1571 0.0000 7.0025 0.0000
# 4 0.0000 0.0000 0.0000 113.4121 0.0000 -84.2826
# 5 17.8657 -3.0541 7.0025 0.0000 32.2000 0.0000
# 6 0.0000 0.0000 0.0000 -84.2826 0.0000 86.6470
#
#
#
# Elastic Compliance Matrix: (Units=1/GPa)
#
#
# Indices 1 2 3 4 5 6 
#
# 1 0.024205 -0.009100 -0.004925 0.000000 -0.013222 0.000000
# 2 -0.009100 0.031806 -0.013699 0.000000 0.011045 0.000000
# 3 -0.004925 -0.013699 0.021338 0.000000 -0.003207 0.000000
# 4 0.000000 0.000000 0.000000 0.031817 0.000000 0.030949
# 5 -0.013222 0.011045 -0.003207 0.000000 0.040137 0.000000
# 6 0.000000 0.000000 0.000000 0.030949 0.000000 0.041646
#
#
# Mechanical properties :
#
#
# Convention : Reuss Voigt Hill
#
# Bulk Modulus (GPa) = 45.66340 49.67037 47.66688
# Shear Modulus (GPa) = 19.70843 53.29823 36.50333
#
# Velocity S-wave (km/s) = 3.20509 5.27072 4.36194
# Velocity P-wave (km/s) = 6.12354 7.93286 7.08618
#
# Compressibility (1/GPa) = 0.02189938
#
# Stress axis : x y z
#
# Youngs Moduli (GPa) = 41.31295 31.44070 46.86582
#
# Poissons Ratio (x) = 0.28612 0.23081
# Poissons Ratio (y) = 0.37597 0.64203
# Poissons Ratio (z) = 0.20347 0.43072
#
# Static dielectric constant tensor:
#      x y z
#    x 3.602480 0.000000 0.505100 
#    y 0.000000 3.493440 0.000000 
#    z 0.505100 0.000000 3.821270 
# 
# 
# High freq. dielectric constant tensor:
#      x y z
#    x 1.733710 0.000000 0.027190 
#    y 0.000000 1.747350 0.000000 
#    z 0.027190 0.000000 1.747580 
# 
# From -- ./inp_files/49113.got.cif
#   From: 2010.06.25/outbox.cif.g09.slc.cpg/sg10_25_cif.got.tgz:49113.got - 2010.06.27 22:07:45.
