data_PCOD8060311
_publ_section_title
;
Structure prediction by ZEFSAII (Michael W. Deem and Ramdas Pophale) SiO2 
 PCOD8060311
Probable space group: P 2/M
;
_chemical_formula_sum "Si O2"
_cell_formula_units_Z 24
_cell_length_a 22.353375
_cell_length_b 11.252689
_cell_length_c 22.355322
_cell_angle_alpha 90.000000
_cell_angle_beta 166.687552
_cell_angle_gamma 90.000000
_cell_volume 1294.795090
_symmetry_space_group_name_H-M "P 2/M"
_symmetry_group_IT_number 10
_symmetry_cell_setting 'monoclinic'
loop_
_space_group_symop_operation_xyz
x,y,z
-x,y,-z
-x,-y,-z
x,-y,z
loop_
_atom_site_type_symbol
_atom_site_label
_atom_site_fract_x
_atom_site_fract_y
_atom_site_fract_z
Si Si1 0.833557 0.361369 0.167161
Si Si2 0.769445 0.251085 0.230781
Si Si3 0.573114 0.641067 0.433442
Si Si4 0.036185 0.640805 0.968881
Si Si5 0.364779 0.744435 0.636182
Si Si6 0.341974 0.000000 0.659464
Si Si7 0.199583 0.000000 0.799214
O O1 0.840687 0.500000 0.160471
O O2 0.797943 0.337616 0.202291
O O3 0.098470 0.304354 0.402938
O O4 0.597749 0.304439 0.902245
O O5 0.000000 0.281602 0.500000
O O6 0.778899 0.113763 0.221905
O O7 0.500000 0.281415 0.000000
O O8 0.579171 0.500000 0.428475
O O9 0.600117 0.707089 0.397517
O O10 0.805050 0.685005 0.701570
O O11 0.307754 0.683777 0.205942
O O12 0.030417 0.500000 0.967713
O O13 0.000000 0.695425 0.000000
O O14 0.363531 0.886618 0.637638
O O15 0.072422 0.000000 0.431997
O O16 0.569878 0.000000 0.929295
#
# Coordination Sequence:
#
# PCOD8060311 Si02
#       7
#     4   4   4   4   4   2   2
#     4  12  25  42  62  84 119 156 187 233 294 356
#     4  12  24  40  62  88 111 148 192 237 291 349
#     4  10  19  31  52  82 114 148 187 231 277 338
#     4   9  17  30  49  78 116 153 187 226 275 326
#     4  12  23  41  61  88 116 152 198 239 292 343
#     4  12  22  41  66  84 115 150 188 247 292 341
#     4  12  22  43  62  88 112 146 193 243 294 341
#
# _framework density 18.535751000000001
#
# number of rings (size 3 to 8) (size 9 to 14) (size 15 to 20)
#    0.000    0.833    3.333    5.500    0.000    4.000 
#    0.000    0.000    0.000    0.000    0.000    3.500 
#    0.000    0.000    0.000    0.000    0.000    0.000 
#
# Total GULP energy -297722.062432 kJ/mol
# GULP energy per Si atom -12405.085935 kJ/mol
# Density = 1.849356 g / cm^3
# Si number density = 18.535751 Si / 1000 Ang^3
#
#
#
# Elastic Constant Matrix: (Units=GPa)
#
#
# Indices 1 2 3 4 5 6 
#
# 1 130.4703 39.0923 63.5796 0.0000 -54.8697 0.0000
# 2 39.0923 102.8248 38.3891 0.0000 -3.5665 0.0000
# 3 63.5796 38.3891 177.0014 0.0000 -37.5524 0.0000
# 4 0.0000 0.0000 0.0000 273.8665 0.0000 -43.0176
# 5 -54.8697 -3.5665 -37.5524 0.0000 -21.5747 0.0000
# 6 0.0000 0.0000 0.0000 -43.0176 0.0000 -178.3538
#
#
#
# Elastic Compliance Matrix: (Units=1/GPa)
#
#
# Indices 1 2 3 4 5 6 
#
# 1 0.006179 -0.001226 -0.003830 0.000000 -0.008845 0.000000
# 2 -0.001226 0.010747 -0.001173 0.000000 0.003383 0.000000
# 3 -0.003830 -0.001173 0.006856 0.000000 -0.001999 0.000000
# 4 0.000000 0.000000 0.000000 0.003518 0.000000 -0.000849
# 5 -0.008845 0.003383 -0.001999 0.000000 -0.020937 0.000000
# 6 0.000000 0.000000 0.000000 -0.000849 0.000000 -0.005402
#
#
# Mechanical properties :
#
#
# Convention : Reuss Voigt Hill
#
# Bulk Modulus (GPa) = 88.31121 76.93538 82.62329
# Shear Modulus (GPa) = 290.83643 32.73663 161.78653
#
# Velocity S-wave (km/s) = 12.53979 4.20710 9.35270
# Velocity P-wave (km/s) = 16.04397 8.07441 12.70049
#
# Compressibility (1/GPa) = 0.01132359
#
# Stress axis : x y z
#
# Youngs Moduli (GPa) = 161.84867 93.05330 145.86243
#
# Poissons Ratio (x) = 0.11407 0.55865
# Poissons Ratio (y) = 0.19841 0.17107
# Poissons Ratio (z) = 0.61988 0.10913
#
# Static dielectric constant tensor:
#      x y z
#    x 3.572620 0.000000 0.012490 
#    y 0.000000 3.353710 0.000000 
#    z 0.012490 0.000000 3.725060 
# 
# 
# High freq. dielectric constant tensor:
#      x y z
#    x 1.729770 0.000000 0.001580 
#    y 0.000000 1.691920 0.000000 
#    z 0.001580 0.000000 1.748640 
# 
# From -- ./inp_files/12325.got.cif
#   From: 2010.06.25/outbox.cif.g09.slc.cpg/sg10_7_cif.got.tgz:12325.got - 2010.06.27 22:07:45.
