data_PCOD8060441
_publ_section_title
;
Structure prediction by ZEFSAII (Michael W. Deem and Ramdas Pophale) SiO2 
 PCOD8060441
Probable space group: P 2/M
;
_chemical_formula_sum "Si O2"
_cell_formula_units_Z 32
_cell_length_a 16.456973
_cell_length_b 9.444174
_cell_length_c 16.204528
_cell_angle_alpha 90.000000
_cell_angle_beta 133.950683
_cell_angle_gamma 90.000000
_cell_volume 1813.197417
_symmetry_space_group_name_H-M "P 2/M"
_symmetry_group_IT_number 10
_symmetry_cell_setting 'monoclinic'
loop_
_space_group_symop_operation_xyz
x,y,z
-x,y,-z
-x,-y,-z
x,-y,z
loop_
_atom_site_type_symbol
_atom_site_label
_atom_site_fract_x
_atom_site_fract_y
_atom_site_fract_z
Si Si1 0.597290 0.158235 0.511759
Si Si2 0.068159 0.668628 0.669421
Si Si3 0.354765 0.333685 0.159005
Si Si4 0.957194 0.348073 0.881738
Si Si5 0.608980 0.334404 0.357457
Si Si6 0.155381 0.667358 0.903902
Si Si7 0.835476 0.332082 0.433299
Si Si8 0.248801 0.158146 0.230231
O O1 0.500000 0.224993 0.500000
O O2 0.621152 0.258845 0.452841
O O3 0.705277 0.150986 0.645151
O O4 0.562199 0.000000 0.456001
O O5 0.071690 0.500000 0.675167
O O6 0.126794 0.732567 0.793388
O O7 0.139165 0.725359 0.640943
O O8 0.936615 0.717507 0.566577
O O9 0.334293 0.500000 0.162166
O O10 0.486404 0.303480 0.229753
O O11 0.324503 0.250263 0.221164
O O12 0.276052 0.281469 0.026954
O O13 0.911372 0.500000 0.811532
O O14 0.870495 0.224786 0.835911
O O15 0.056740 0.283894 0.895832
O O16 0.000000 0.392510 0.000000
O O17 0.624195 0.500000 0.384427
O O18 0.711949 0.275800 0.373659
O O19 0.158854 0.500000 0.899199
O O20 0.834620 0.500000 0.430061
O O21 0.237105 0.000000 0.184710
#
# Coordination Sequence:
#
# PCOD8060441 Si02
#       8
#     4   4   4   4   4   4   4   4
#     4  10  21  36  49  66  98 134 167 199 239 296
#     4   8  14  27  47  68  99 131 154 192 245 300
#     4  10  19  33  48  68 100 131 163 203 245 288
#     4  10  19  32  49  70  98 130 165 205 242 286
#     4  10  20  31  50  76  99 124 163 211 247 284
#     4   9  17  29  46  68  95 134 168 189 237 299
#     4   8  15  28  45  73 102 122 153 201 250 287
#     4  11  22  34  48  67  96 133 168 204 245 288
#
# _framework density 17.648382999999999
#
# number of rings (size 3 to 8) (size 9 to 14) (size 15 to 20)
#    0.000    2.500    2.500    1.125    1.750    1.500 
#    0.000    0.625    0.000    3.750    0.000    3.500 
#    0.000    2.000    0.000    0.000    0.000    0.000 
#
# Total GULP energy -396436.340972 kJ/mol
# GULP energy per Si atom -12388.635655 kJ/mol
# Density = 1.760821 g / cm^3
# Si number density = 17.648383 Si / 1000 Ang^3
#
#
#
# Elastic Constant Matrix: (Units=GPa)
#
#
# Indices 1 2 3 4 5 6 
#
# 1 148.9636 31.2195 70.6686 0.0000 9.7306 0.0000
# 2 31.2195 42.2810 26.8704 0.0000 6.8445 0.0000
# 3 70.6686 26.8704 114.0147 0.0000 -0.1609 0.0000
# 4 0.0000 0.0000 0.0000 -8.9554 0.0000 8.3739
# 5 9.7306 6.8445 -0.1609 0.0000 28.9993 0.0000
# 6 0.0000 0.0000 0.0000 8.3739 0.0000 6.2406
#
#
#
# Elastic Compliance Matrix: (Units=1/GPa)
#
#
# Indices 1 2 3 4 5 6 
#
# 1 0.010260 -0.003657 -0.005501 0.000000 -0.002610 0.000000
# 2 -0.003657 0.030445 -0.004917 0.000000 -0.005986 0.000000
# 3 -0.005501 -0.004917 0.013344 0.000000 0.003080 0.000000
# 4 0.000000 0.000000 0.000000 -0.049525 0.000000 0.066455
# 5 -0.002610 -0.005986 0.003080 0.000000 0.036789 0.000000
# 6 0.000000 0.000000 0.000000 0.066455 0.000000 0.071069
#
#
# Mechanical properties :
#
#
# Convention : Reuss Voigt Hill
#
# Bulk Modulus (GPa) = 38.61199 62.53071 50.57135
# Shear Modulus (GPa) = 33.52004 17.02363 25.27184
#
# Velocity S-wave (km/s) = 4.36285 3.10917 3.78823
# Velocity P-wave (km/s) = 6.87789 6.95684 6.91747
#
# Compressibility (1/GPa) = 0.02589869
#
# Stress axis : x y z
#
# Youngs Moduli (GPa) = 97.46937 32.84568 74.94269
#
# Poissons Ratio (x) = 0.12012 0.41225
# Poissons Ratio (y) = 0.35645 0.36849
# Poissons Ratio (z) = 0.53617 0.16150
#
# Static dielectric constant tensor:
#      x y z
#    x 3.481430 0.000000 0.074130 
#    y 0.000000 2.995520 0.000000 
#    z 0.074130 0.000000 3.484440 
# 
# 
# High freq. dielectric constant tensor:
#      x y z
#    x 1.678770 0.000000 0.010260 
#    y 0.000000 1.640010 0.000000 
#    z 0.010260 0.000000 1.682940 
# 
# From -- ./inp_files/66582.got.cif
#   From: 2010.06.25/outbox.cif.g09.slc.cpg/sg10_34_cif.got.tgz:66582.got - 2010.06.27 22:07:45.
