data_PCOD8060004
_publ_section_title
;
Structure prediction by ZEFSAII (Michael W. Deem and Ramdas Pophale) SiO2 
 PCOD8060004
Probable space group: P 2/M
;
_chemical_formula_sum "Si O2"
_cell_formula_units_Z 32
_cell_length_a 12.464918
_cell_length_b 8.962499
_cell_length_c 19.058681
_cell_angle_alpha 90.000000
_cell_angle_beta 79.007692
_cell_angle_gamma 90.000000
_cell_volume 2090.110720
_symmetry_space_group_name_H-M "P 2/M"
_symmetry_group_IT_number 10
_symmetry_cell_setting 'monoclinic'
loop_
_space_group_symop_operation_xyz
x,y,z
-x,y,-z
-x,-y,-z
x,-y,z
loop_
_atom_site_type_symbol
_atom_site_label
_atom_site_fract_x
_atom_site_fract_y
_atom_site_fract_z
Si Si1 0.468378 0.671287 0.285822
Si Si2 0.640942 0.673104 0.093622
Si Si3 0.585207 0.823836 0.836841
Si Si4 0.820226 0.828834 0.162955
Si Si5 0.670496 0.827923 0.300298
Si Si6 0.044203 0.828494 0.071665
Si Si7 0.732178 0.672146 0.930216
Si Si8 0.543767 0.328465 0.421967
O O1 0.467321 0.500000 0.262824
O O2 0.386240 0.762198 0.245649
O O3 0.588627 0.742815 0.256484
O O4 0.449181 0.687643 0.372989
O O5 0.621742 0.500000 0.112984
O O6 0.531318 0.761514 0.124677
O O7 0.747079 0.727743 0.122044
O O8 0.663561 0.699426 0.008899
O O9 0.680917 0.771191 0.875470
O O10 0.581409 0.000000 0.835761
O O11 0.789344 0.806745 0.249770
O O12 0.947449 0.789613 0.138613
O O13 0.798757 0.000000 0.142969
O O14 0.654233 0.755109 0.380228
O O15 0.636980 0.000000 0.310183
O O16 0.142870 0.719452 0.075931
O O17 0.082511 0.000000 0.073859
O O18 0.000000 0.795268 0.000000
O O19 0.728762 0.500000 0.908170
O O20 0.500000 0.257069 0.500000
O O21 0.575780 0.500000 0.430511
#
# Coordination Sequence:
#
# PCOD8060004 Si02
#       8
#     4   4   4   4   4   4   4   4
#     4   9  17  29  45  65  93 125 151 182 223 269
#     4  11  21  32  48  68  90 117 152 196 245 289
#     4  12  23  34  49  67  91 122 158 196 236 288
#     4  10  19  31  49  69  94 123 158 198 238 288
#     4   9  16  26  42  68  95 124 156 186 225 271
#     4  10  20  35  53  69  88 120 159 202 249 289
#     4  11  24  37  48  66  90 118 157 203 246 288
#     4   8  15  27  43  65  96 131 159 185 223 273
#
# _framework density 15.310193
#
# number of rings (size 3 to 8) (size 9 to 14) (size 15 to 20)
#    0.750    1.250    2.500    2.625    0.000    4.500 
#    0.000    0.000    0.000    0.000    0.000    0.000 
#    0.000    1.000    0.000   11.500    0.000    3.500 
#
# Total GULP energy -396470.183666 kJ/mol
# GULP energy per Si atom -12389.693240 kJ/mol
# Density = 1.527535 g / cm^3
# Si number density = 15.310193 Si / 1000 Ang^3
#
#
#
# Elastic Constant Matrix: (Units=GPa)
#
#
# Indices 1 2 3 4 5 6 
#
# 1 54.2825 33.1899 32.5900 0.0000 0.5235 0.0000
# 2 33.1899 100.1969 47.4167 0.0000 0.4282 0.0000
# 3 32.5900 47.4167 101.0085 0.0000 -4.5743 0.0000
# 4 0.0000 0.0000 0.0000 20.5623 0.0000 3.3081
# 5 0.5235 0.4282 -4.5743 0.0000 15.8870 0.0000
# 6 0.0000 0.0000 0.0000 3.3081 0.0000 18.8930
#
#
#
# Elastic Compliance Matrix: (Units=1/GPa)
#
#
# Indices 1 2 3 4 5 6 
#
# 1 0.025295 -0.005731 -0.005574 0.000000 -0.002284 0.000000
# 2 -0.005731 0.014199 -0.004889 0.000000 -0.001602 0.000000
# 3 -0.005574 -0.004889 0.014193 0.000000 0.004402 0.000000
# 4 0.000000 0.000000 0.000000 0.050042 0.000000 -0.008762
# 5 -0.002284 -0.001602 0.004402 0.000000 0.064331 0.000000
# 6 0.000000 0.000000 0.000000 -0.008762 0.000000 0.054464
#
#
# Mechanical properties :
#
#
# Convention : Reuss Voigt Hill
#
# Bulk Modulus (GPa) = 46.95193 53.54234 50.24713
# Shear Modulus (GPa) = 19.08305 20.55456 19.81880
#
# Velocity S-wave (km/s) = 3.53431 3.66805 3.60180
# Velocity P-wave (km/s) = 6.88395 7.27922 7.08434
#
# Compressibility (1/GPa) = 0.02129838
#
# Stress axis : x y z
#
# Youngs Moduli (GPa) = 39.53339 70.42627 70.45670
#
# Poissons Ratio (x) = 0.40362 0.39275
# Poissons Ratio (y) = 0.22657 0.34446
# Poissons Ratio (z) = 0.22038 0.34431
#
# Static dielectric constant tensor:
#      x y z
#    x 2.681620 0.000000 -0.045880 
#    y 0.000000 3.028000 0.000000 
#    z -0.045880 0.000000 3.063520 
# 
# 
# High freq. dielectric constant tensor:
#      x y z
#    x 1.545890 0.000000 -0.004260 
#    y 0.000000 1.601040 0.000000 
#    z -0.004260 0.000000 1.579430 
# 
# From -- ./inp_files/79977.got.cif
#   From: 2010.06.25/outbox.cif.g09.slc.cpg/sg10_40_cif.got.tgz:79977.got - 2010.06.27 22:07:45.
