data_PCOD8060636
_publ_section_title
;
Structure prediction by ZEFSAII (Michael W. Deem and Ramdas Pophale) SiO2 
 PCOD8060636
Probable space group: P 2/M
;
_chemical_formula_sum "Si O2"
_cell_formula_units_Z 32
_cell_length_a 22.451541
_cell_length_b 10.062125
_cell_length_c 14.312441
_cell_angle_alpha 90.000000
_cell_angle_beta 149.269815
_cell_angle_gamma 90.000000
_cell_volume 1652.216435
_symmetry_space_group_name_H-M "P 2/M"
_symmetry_group_IT_number 10
_symmetry_cell_setting 'monoclinic'
loop_
_space_group_symop_operation_xyz
x,y,z
-x,y,-z
-x,-y,-z
x,-y,z
loop_
_atom_site_type_symbol
_atom_site_label
_atom_site_fract_x
_atom_site_fract_y
_atom_site_fract_z
Si Si1 0.611433 0.651700 0.590770
Si Si2 0.810830 0.649914 0.008518
Si Si3 0.976109 0.847647 0.717052
Si Si4 0.567619 0.847312 0.367796
Si Si5 0.319632 0.257024 0.982846
Si Si6 0.372193 0.647653 0.858777
Si Si7 0.105481 0.849006 0.590090
Si Si8 0.732916 0.847231 0.419573
O O1 0.500000 0.693848 0.500000
O O2 0.598282 0.500000 0.536599
O O3 0.724333 0.668961 0.806077
O O4 0.620838 0.750640 0.516985
O O5 0.860472 0.500000 0.077678
O O6 0.914873 0.750955 0.125187
O O7 0.742669 0.672506 0.013702
O O8 0.901338 0.802748 0.525579
O O9 0.866582 0.829683 0.641668
O O10 0.023425 0.000000 0.780862
O O11 0.638318 0.811838 0.369963
O O12 0.588256 0.000000 0.425475
O O13 0.429926 0.826000 0.167912
O O14 0.361082 0.357119 0.957128
O O15 0.226894 0.162777 0.807434
O O16 0.342493 0.500000 0.781820
O O17 0.286398 0.753608 0.696517
O O18 0.500000 0.690860 0.000000
O O19 0.000000 0.770246 0.500000
O O20 0.070175 0.000000 0.540691
O O21 0.718319 0.000000 0.365477
#
# Coordination Sequence:
#
# PCOD8060636 Si02
#       8
#     4   4   4   4   4   4   4   4
#     4  10  22  43  66  88 120 160 196 245 314 372
#     4  11  24  41  62  89 121 158 200 249 307 365
#     4  10  21  39  62  85 118 164 205 247 296 353
#     4  11  24  39  63  96 122 153 203 258 307 358
#     4  12  21  36  58  91 126 162 192 251 299 360
#     4  11  23  36  54  85 123 165 209 245 288 355
#     4  10  19  32  51  81 121 161 197 230 284 355
#     4  10  22  41  61  85 122 165 204 248 304 356
#
# _framework density 19.367922
#
# number of rings (size 3 to 8) (size 9 to 14) (size 15 to 20)
#    0.000    1.375    5.000    0.750    0.000    3.500 
#    0.000    1.250    0.000    3.750    0.000    0.000 
#    0.000    0.000    0.000    0.000    0.000    0.000 
#
# Total GULP energy -396450.387417 kJ/mol
# GULP energy per Si atom -12389.074607 kJ/mol
# Density = 1.932384 g / cm^3
# Si number density = 19.367922 Si / 1000 Ang^3
#
#
#
# Elastic Constant Matrix: (Units=GPa)
#
#
# Indices 1 2 3 4 5 6 
#
# 1 56.9721 34.5997 36.8305 0.0000 11.7795 0.0000
# 2 34.5997 97.8828 43.8801 0.0000 0.9008 0.0000
# 3 36.8305 43.8801 92.8841 0.0000 11.3900 0.0000
# 4 0.0000 0.0000 0.0000 -28.1151 0.0000 -25.6284
# 5 11.7795 0.9008 11.3900 0.0000 37.7316 0.0000
# 6 0.0000 0.0000 0.0000 -25.6284 0.0000 15.1139
#
#
#
# Elastic Compliance Matrix: (Units=1/GPa)
#
#
# Indices 1 2 3 4 5 6 
#
# 1 0.027292 -0.006447 -0.007009 0.000000 -0.006250 0.000000
# 2 -0.006447 0.014578 -0.004709 0.000000 0.003086 0.000000
# 3 -0.007009 -0.004709 0.016083 0.000000 -0.002554 0.000000
# 4 0.000000 0.000000 0.000000 -0.013972 0.000000 -0.023692
# 5 -0.006250 0.003086 -0.002554 0.000000 0.029152 0.000000
# 6 0.000000 0.000000 0.000000 -0.023692 0.000000 0.025990
#
#
# Mechanical properties :
#
#
# Convention : Reuss Voigt Hill
#
# Bulk Modulus (GPa) = 46.24990 53.15108 49.70049
# Shear Modulus (GPa) = 35.04805 13.77467 24.41136
#
# Velocity S-wave (km/s) = 4.25855 2.66975 3.55407
# Velocity P-wave (km/s) = 6.93626 6.08324 6.52371
#
# Compressibility (1/GPa) = 0.02162167
#
# Stress axis : x y z
#
# Youngs Moduli (GPa) = 36.64123 68.59741 62.17651
#
# Poissons Ratio (x) = 0.44227 0.43582
# Poissons Ratio (y) = 0.23624 0.29278
# Poissons Ratio (z) = 0.25683 0.32301
#
# Static dielectric constant tensor:
#      x y z
#    x 3.739250 0.000000 0.128680 
#    y 0.000000 3.406730 0.000000 
#    z 0.128680 0.000000 3.656990 
# 
# 
# High freq. dielectric constant tensor:
#      x y z
#    x 1.762220 0.000000 0.021840 
#    y 0.000000 1.745460 0.000000 
#    z 0.021840 0.000000 1.748590 
# 
# From -- ./inp_files/71630.got.cif
#   From: 2010.06.25/outbox.cif.g09.slc.cpg/sg10_36_cif.got.tgz:71630.got - 2010.06.27 22:07:45.
