data_PCOD8060138
_publ_section_title
;
Structure prediction by ZEFSAII (Michael W. Deem and Ramdas Pophale) SiO2 
 PCOD8060138
Probable space group: P 2/M
;
_chemical_formula_sum "Si O2"
_cell_formula_units_Z 32
_cell_length_a 21.665715
_cell_length_b 9.803627
_cell_length_c 10.981107
_cell_angle_alpha 90.000000
_cell_angle_beta 130.011600
_cell_angle_gamma 90.000000
_cell_volume 1786.430401
_symmetry_space_group_name_H-M "P 2/M"
_symmetry_group_IT_number 10
_symmetry_cell_setting 'monoclinic'
loop_
_space_group_symop_operation_xyz
x,y,z
-x,y,-z
-x,-y,-z
x,-y,z
loop_
_atom_site_type_symbol
_atom_site_label
_atom_site_fract_x
_atom_site_fract_y
_atom_site_fract_z
Si Si1 0.385594 0.156938 0.616581
Si Si2 0.461398 0.159600 0.327160
Si Si3 0.009191 0.338477 0.875461
Si Si4 0.840997 0.656040 0.562798
Si Si5 0.703673 0.158747 0.992132
Si Si6 0.176933 0.344134 0.984601
Si Si7 0.716517 0.156266 0.285852
Si Si8 0.268346 0.349741 0.348961
O O1 0.479908 0.188280 0.714187
O O2 0.356423 0.198914 0.715066
O O3 0.337548 0.239149 0.453048
O O4 0.366645 0.000000 0.566291
O O5 0.500000 0.224213 0.500000
O O6 0.373151 0.217936 0.180878
O O7 0.450563 0.000000 0.334445
O O8 0.016392 0.500000 0.899369
O O9 0.934003 0.298542 0.693962
O O10 0.089324 0.284756 0.909486
O O11 0.000000 0.275085 0.000000
O O12 0.833970 0.500000 0.508423
O O13 0.795380 0.751608 0.408529
O O14 0.804328 0.675038 0.650039
O O15 0.783688 0.246190 0.066353
O O16 0.720304 0.000000 0.983312
O O17 0.683390 0.177980 0.108686
O O18 0.171170 0.500000 0.928500
O O19 0.234544 0.335548 0.172590
O O20 0.742136 0.000000 0.341069
O O21 0.305586 0.500000 0.417490
#
# Coordination Sequence:
#
# PCOD8060138 Si02
#       8
#     4   4   4   4   4   4   4   4
#     4   9  17  30  50  73  96 127 167 206 239 281
#     4   9  17  30  50  75  99 124 160 204 248 294
#     4   9  15  28  51  78 103 126 158 201 247 294
#     4   9  16  29  52  76  98 127 160 199 245 292
#     4  10  21  36  51  68  97 136 169 201 246 293
#     4  10  19  31  50  75 101 128 162 202 246 296
#     4   9  19  34  50  70  98 132 170 207 241 282
#     4   9  16  27  46  74 103 127 153 192 248 303
#
# _framework density 17.912814999999998
#
# number of rings (size 3 to 8) (size 9 to 14) (size 15 to 20)
#    0.000    2.750    1.250    0.750    0.000    2.500 
#    0.000    4.375    0.000    6.750    0.000    4.375 
#    0.000    0.000    0.000    0.000    0.000    0.000 
#
# Total GULP energy -396652.369019 kJ/mol
# GULP energy per Si atom -12395.386532 kJ/mol
# Density = 1.787204 g / cm^3
# Si number density = 17.912815 Si / 1000 Ang^3
#
#
#
# Elastic Constant Matrix: (Units=GPa)
#
#
# Indices 1 2 3 4 5 6 
#
# 1 103.5604 34.5060 45.0073 0.0000 14.5476 0.0000
# 2 34.5060 47.2199 26.4356 0.0000 5.5593 0.0000
# 3 45.0073 26.4356 75.4914 0.0000 6.0321 0.0000
# 4 0.0000 0.0000 0.0000 23.1607 0.0000 0.8830
# 5 14.5476 5.5593 6.0321 0.0000 26.6323 0.0000
# 6 0.0000 0.0000 0.0000 0.8830 0.0000 22.6792
#
#
#
# Elastic Compliance Matrix: (Units=1/GPa)
#
#
# Indices 1 2 3 4 5 6 
#
# 1 0.015586 -0.007190 -0.006329 0.000000 -0.005579 0.000000
# 2 -0.007190 0.029977 -0.006136 0.000000 -0.000941 0.000000
# 3 -0.006329 -0.006136 0.019136 0.000000 0.000404 0.000000
# 4 0.000000 0.000000 0.000000 0.043241 0.000000 -0.001684
# 5 -0.005579 -0.000941 0.000404 0.000000 0.040701 0.000000
# 6 0.000000 0.000000 0.000000 -0.001684 0.000000 0.044159
#
#
# Mechanical properties :
#
#
# Convention : Reuss Voigt Hill
#
# Bulk Modulus (GPa) = 39.38427 48.68549 44.03488
# Shear Modulus (GPa) = 20.78382 22.51597 21.64990
#
# Velocity S-wave (km/s) = 3.40998 3.54923 3.48030
# Velocity P-wave (km/s) = 6.12685 6.63583 6.38641
#
# Compressibility (1/GPa) = 0.02539085
#
# Stress axis : x y z
#
# Youngs Moduli (GPa) = 64.16032 33.35874 52.25717
#
# Poissons Ratio (x) = 0.23983 0.33072
# Poissons Ratio (y) = 0.46128 0.32065
# Poissons Ratio (z) = 0.40606 0.20469
#
# Static dielectric constant tensor:
#      x y z
#    x 3.430360 0.000000 0.117110 
#    y 0.000000 3.148010 0.000000 
#    z 0.117110 0.000000 3.257550 
# 
# 
# High freq. dielectric constant tensor:
#      x y z
#    x 1.695800 0.000000 0.004490 
#    y 0.000000 1.662000 0.000000 
#    z 0.004490 0.000000 1.681110 
# 
# From -- ./inp_files/55323.got.cif
#   From: 2010.06.25/outbox.cif.g09.slc.cpg/sg10_28_cif.got.tgz:55323.got - 2010.06.27 22:07:45.
