data_PCOD8060206
_publ_section_title
;
Structure prediction by ZEFSAII (Michael W. Deem and Ramdas Pophale) SiO2 
 PCOD8060206
Probable space group: P 2/M
;
_chemical_formula_sum "Si O2"
_cell_formula_units_Z 24
_cell_length_a 21.176599
_cell_length_b 7.920822
_cell_length_c 9.657754
_cell_angle_alpha 90.000000
_cell_angle_beta 126.947964
_cell_angle_gamma 90.000000
_cell_volume 1294.637441
_symmetry_space_group_name_H-M "P 2/M"
_symmetry_group_IT_number 10
_symmetry_cell_setting 'monoclinic'
loop_
_space_group_symop_operation_xyz
x,y,z
-x,y,-z
-x,-y,-z
x,-y,z
loop_
_atom_site_type_symbol
_atom_site_label
_atom_site_fract_x
_atom_site_fract_y
_atom_site_fract_z
Si Si1 0.158609 0.804971 0.502390
Si Si2 0.887914 0.500000 0.963954
Si Si3 0.304999 0.809456 0.512738
Si Si4 0.059050 0.500000 0.281218
Si Si5 0.726896 0.297593 0.121462
Si Si6 0.586168 0.692652 0.123238
Si Si7 0.740414 0.685854 0.831903
O O1 0.222458 0.748520 0.470406
O O2 0.087046 0.672113 0.393894
O O3 0.197350 0.784807 0.704618
O O4 0.130174 0.000000 0.444234
O O5 0.964163 0.500000 0.162974
O O6 0.911753 0.500000 0.836725
O O7 0.834939 0.666596 0.928204
O O8 0.377737 0.705351 0.674234
O O9 0.301682 0.794203 0.342702
O O10 0.320856 0.000000 0.577221
O O11 0.735071 0.500000 0.138947
O O12 0.647917 0.229184 0.093892
O O13 0.725486 0.230290 0.961815
O O14 0.574501 0.500000 0.065976
O O15 0.500000 0.782856 0.000000
O O16 0.700589 0.500000 0.775830
#
# Coordination Sequence:
#
# PCOD8060206 Si02
#       7
#     4   2   4   2   4   4   4
#     4  10  19  32  53  79 102 138 181 217 256 309
#     4   9  20  31  55  79 100 136 170 214 268 309
#     4  10  19  31  51  75 101 135 174 212 255 309
#     4  11  18  35  55  79 106 135 174 220 268 306
#     4   9  17  31  54  76 101 136 174 214 259 308
#     4   9  18  32  52  77 101 129 170 217 258 303
#     4   9  17  33  51  75  98 134 174 209 253 313
#
# _framework density 18.538008000000001
#
# number of rings (size 3 to 8) (size 9 to 14) (size 15 to 20)
#    0.500    2.000    2.500    0.500    1.167    1.000 
#    0.000    5.000    0.000    6.000    0.000    0.000 
#    0.000    0.000    0.000    0.000    0.000    0.000 
#
# Total GULP energy -297430.795947 kJ/mol
# GULP energy per Si atom -12392.949831 kJ/mol
# Density = 1.849581 g / cm^3
# Si number density = 18.538008 Si / 1000 Ang^3
#
#
#
# Elastic Constant Matrix: (Units=GPa)
#
#
# Indices 1 2 3 4 5 6 
#
# 1 74.4400 11.0757 63.9863 0.0000 2.9402 0.0000
# 2 11.0757 54.0054 22.1424 0.0000 9.5693 0.0000
# 3 63.9863 22.1424 136.2203 0.0000 -5.5450 0.0000
# 4 0.0000 0.0000 0.0000 9.7835 0.0000 -2.2547
# 5 2.9402 9.5693 -5.5450 0.0000 38.2789 0.0000
# 6 0.0000 0.0000 0.0000 -2.2547 0.0000 8.6975
#
#
#
# Elastic Compliance Matrix: (Units=1/GPa)
#
#
# Indices 1 2 3 4 5 6 
#
# 1 0.022956 0.000411 -0.010991 0.000000 -0.003458 0.000000
# 2 0.000411 0.021049 -0.003853 0.000000 -0.005852 0.000000
# 3 -0.010991 -0.003853 0.013282 0.000000 0.003731 0.000000
# 4 0.000000 0.000000 0.000000 0.108707 0.000000 0.028181
# 5 -0.003458 -0.005852 0.003731 0.000000 0.028393 0.000000
# 6 0.000000 0.000000 0.000000 0.028181 0.000000 0.122282
#
#
# Mechanical properties :
#
#
# Convention : Reuss Voigt Hill
#
# Bulk Modulus (GPa) = 35.18390 51.00827 43.09609
# Shear Modulus (GPa) = 14.08417 22.51606 18.30012
#
# Velocity S-wave (km/s) = 2.75934 3.48888 3.14533
# Velocity P-wave (km/s) = 5.40115 6.61853 6.04059
#
# Compressibility (1/GPa) = 0.02842209
#
# Stress axis : x y z
#
# Youngs Moduli (GPa) = 43.56074 47.50856 75.29057
#
# Poissons Ratio (x) = -0.01953 0.82751
# Poissons Ratio (y) = -0.01790 0.29007
# Poissons Ratio (z) = 0.47877 0.18304
#
# Static dielectric constant tensor:
#      x y z
#    x 3.370940 0.000000 0.021590 
#    y 0.000000 3.130400 0.000000 
#    z 0.021590 0.000000 3.382660 
# 
# 
# High freq. dielectric constant tensor:
#      x y z
#    x 1.689080 0.000000 -0.005940 
#    y 0.000000 1.699930 0.000000 
#    z -0.005940 0.000000 1.721430 
# 
# From -- ./inp_files/31253.got.cif
#   From: 2010.06.25/outbox.cif.g09.slc.cpg/sg10_16_cif.got.tgz:31253.got - 2010.06.27 22:07:45.
