data_PCOD8060737
_publ_section_title
;
Structure prediction by ZEFSAII (Michael W. Deem and Ramdas Pophale) SiO2 
 PCOD8060737
Probable space group: P 2/M
;
_chemical_formula_sum "Si O2"
_cell_formula_units_Z 28
_cell_length_a 13.996259
_cell_length_b 9.559815
_cell_length_c 15.103721
_cell_angle_alpha 90.000000
_cell_angle_beta 42.307387
_cell_angle_gamma 90.000000
_cell_volume 1360.285533
_symmetry_space_group_name_H-M "P 2/M"
_symmetry_group_IT_number 10
_symmetry_cell_setting 'monoclinic'
loop_
_space_group_symop_operation_xyz
x,y,z
-x,y,-z
-x,-y,-z
x,-y,z
loop_
_atom_site_type_symbol
_atom_site_label
_atom_site_fract_x
_atom_site_fract_y
_atom_site_fract_z
Si Si1 0.835609 0.846754 0.168354
Si Si2 0.369133 0.334671 0.152817
Si Si3 0.519478 0.345142 0.734140
Si Si4 0.493001 0.845101 0.600272
Si Si5 0.916924 0.837310 0.644844
Si Si6 0.988103 0.839653 0.787710
Si Si7 0.816787 0.342112 0.023999
O O1 0.670138 0.855374 0.264795
O O2 0.891511 0.739294 0.055060
O O3 0.876251 0.801914 0.241840
O O4 0.900851 0.000000 0.105065
O O5 0.339240 0.500000 0.161413
O O6 0.413925 0.293233 0.220777
O O7 0.225378 0.248863 0.234979
O O8 0.500000 0.288655 0.000000
O O9 0.573609 0.500000 0.673778
O O10 0.574726 0.244566 0.617992
O O11 0.351220 0.344111 0.856613
O O12 0.500000 0.770411 0.500000
O O13 0.563850 0.000000 0.547917
O O14 0.018533 0.816372 0.661926
O O15 0.000000 0.782167 0.500000
O O16 0.876367 0.000000 0.659263
O O17 0.940465 0.000000 0.834953
O O18 0.859925 0.737831 0.904566
O O19 0.876429 0.500000 0.982171
#
# Coordination Sequence:
#
# PCOD8060737 Si02
#       7
#     4   4   4   4   4   4   4
#     4   9  18  32  49  72 104 138 170 208 260 322
#     4  10  21  39  62  86 113 148 191 237 286 340
#     4   9  19  34  52  76 106 139 173 217 274 325
#     4   9  18  32  51  75 101 133 174 215 257 313
#     4  10  23  41  59  83 115 150 191 239 287 335
#     4  10  20  34  52  73 103 143 178 213 266 327
#     4  10  19  32  52  79 108 135 170 218 267 319
#
# _framework density 20.583914
#
# number of rings (size 3 to 8) (size 9 to 14) (size 15 to 20)
#    0.000    2.429    0.000    1.714    0.000    7.143 
#    0.000    2.857    0.000    0.000    0.000    0.000 
#    0.000    0.000    0.000    0.000    0.000    0.000 
#
# Total GULP energy -346948.817959 kJ/mol
# GULP energy per Si atom -12391.029213 kJ/mol
# Density = 2.053706 g / cm^3
# Si number density = 20.583914 Si / 1000 Ang^3
#
#
#
# Elastic Constant Matrix: (Units=GPa)
#
#
# Indices 1 2 3 4 5 6 
#
# 1 93.2470 36.1077 24.3500 0.0000 31.1504 0.0000
# 2 36.1077 87.6529 37.2883 0.0000 21.8638 0.0000
# 3 24.3500 37.2883 83.2294 0.0000 29.6404 0.0000
# 4 0.0000 0.0000 0.0000 29.4031 0.0000 10.0878
# 5 31.1504 21.8638 29.6404 0.0000 41.4711 0.0000
# 6 0.0000 0.0000 0.0000 10.0878 0.0000 27.1174
#
#
#
# Elastic Compliance Matrix: (Units=1/GPa)
#
#
# Indices 1 2 3 4 5 6 
#
# 1 0.015495 -0.004284 0.000975 0.000000 -0.010077 0.000000
# 2 -0.004284 0.015770 -0.005362 0.000000 -0.001264 0.000000
# 3 0.000975 -0.005362 0.017957 0.000000 -0.010739 0.000000
# 4 0.000000 0.000000 0.000000 0.038986 0.000000 -0.014503
# 5 -0.010077 -0.001264 -0.010739 0.000000 0.040024 0.000000
# 6 0.000000 0.000000 0.000000 -0.014503 0.000000 0.042272
#
#
# Mechanical properties :
#
#
# Convention : Reuss Voigt Hill
#
# Bulk Modulus (GPa) = 31.36854 51.06904 41.21879
# Shear Modulus (GPa) = 25.19259 30.69054 27.94156
#
# Velocity S-wave (km/s) = 3.50222 3.86553 3.68835
# Velocity P-wave (km/s) = 5.62374 6.69232 6.18117
#
# Compressibility (1/GPa) = 0.03187908
#
# Stress axis : x y z
#
# Youngs Moduli (GPa) = 64.53755 63.41340 55.69002
#
# Poissons Ratio (x) = 0.27167 -0.05428
# Poissons Ratio (y) = 0.27648 0.29859
# Poissons Ratio (z) = -0.06291 0.34000
#
# Static dielectric constant tensor:
#      x y z
#    x 3.920460 0.000000 0.271960 
#    y 0.000000 4.009830 0.000000 
#    z 0.271960 0.000000 3.653470 
# 
# 
# High freq. dielectric constant tensor:
#      x y z
#    x 1.809340 0.000000 0.017270 
#    y 0.000000 1.795800 0.000000 
#    z 0.017270 0.000000 1.794320 
# 
# From -- ./inp_files/66415.got.cif
#   From: 2010.06.25/outbox.cif.g09.slc.cpg/sg10_34_cif.got.tgz:66415.got - 2010.06.27 22:07:45.
