data_PCOD8060321
_publ_section_title
;
Structure prediction by ZEFSAII (Michael W. Deem and Ramdas Pophale) SiO2 
 PCOD8060321
Probable space group: P 2/M
;
_chemical_formula_sum "Si O2"
_cell_formula_units_Z 32
_cell_length_a 22.621023
_cell_length_b 9.107903
_cell_length_c 12.304729
_cell_angle_alpha 90.000000
_cell_angle_beta 134.405426
_cell_angle_gamma 90.000000
_cell_volume 1811.123385
_symmetry_space_group_name_H-M "P 2/M"
_symmetry_group_IT_number 10
_symmetry_cell_setting 'monoclinic'
loop_
_space_group_symop_operation_xyz
x,y,z
-x,y,-z
-x,-y,-z
x,-y,z
loop_
_atom_site_type_symbol
_atom_site_label
_atom_site_fract_x
_atom_site_fract_y
_atom_site_fract_z
Si Si1 0.646979 0.172714 0.030079
Si Si2 0.774005 0.333389 0.046212
Si Si3 0.041350 0.667070 0.665175
Si Si4 0.817902 0.170797 0.658213
Si Si5 0.001495 0.827922 0.824754
Si Si6 0.161407 0.327303 0.104980
Si Si7 0.675105 0.171372 0.312454
Si Si8 0.484774 0.664890 0.853047
O O1 0.709863 0.223725 0.018450
O O2 0.681047 0.218560 0.193382
O O3 0.634992 0.000000 0.006125
O O4 0.558990 0.247482 0.891229
O O5 0.741048 0.500000 0.013844
O O6 0.860392 0.315966 0.220338
O O7 0.786358 0.289334 0.935923
O O8 0.019623 0.500000 0.672218
O O9 0.000000 0.711616 0.500000
O O10 0.005014 0.780012 0.704596
O O11 0.911418 0.214974 0.751642
O O12 0.790122 0.262165 0.728899
O O13 0.760599 0.213149 0.481885
O O14 0.808947 0.000000 0.674022
O O15 0.018578 0.000000 0.856934
O O16 0.070431 0.744618 0.983584
O O17 0.149434 0.500000 0.101130
O O18 0.602205 0.255972 0.281882
O O19 0.654823 0.000000 0.294784
O O20 0.481646 0.500000 0.801979
O O21 0.500000 0.664414 0.000000
#
# Coordination Sequence:
#
# PCOD8060321 Si02
#       8
#     4   4   4   4   4   4   4   4
#     4  10  19  31  53  79 104 135 169 202 246 307
#     4   9  19  34  50  71 100 132 169 213 253 294
#     4   9  19  34  49  69 102 140 172 210 258 302
#     4  10  21  35  52  75 105 135 168 216 262 302
#     4  10  20  33  51  74 100 134 175 216 259 303
#     4  10  21  37  54  72  99 135 178 220 259 302
#     4   9  19  34  50  75 109 136 162 203 254 304
#     4   9  17  31  51  75 104 135 167 202 245 299
#
# _framework density 17.668593000000001
#
# number of rings (size 3 to 8) (size 9 to 14) (size 15 to 20)
#    0.000    2.500    0.000    2.625    1.750    7.750 
#    0.000    0.000    0.000    0.750    0.000    5.250 
#    0.000    0.000    0.000    0.000    0.000    0.000 
#
# Total GULP energy -396825.004827 kJ/mol
# GULP energy per Si atom -12400.781401 kJ/mol
# Density = 1.762838 g / cm^3
# Si number density = 17.668593 Si / 1000 Ang^3
#
#
#
# Elastic Constant Matrix: (Units=GPa)
#
#
# Indices 1 2 3 4 5 6 
#
# 1 102.3087 52.8146 44.8449 0.0000 7.5988 0.0000
# 2 52.8146 78.3275 38.2874 0.0000 6.8622 0.0000
# 3 44.8449 38.2874 64.4711 0.0000 -0.2784 0.0000
# 4 0.0000 0.0000 0.0000 27.0138 0.0000 0.3426
# 5 7.5988 6.8622 -0.2784 0.0000 11.9926 0.0000
# 6 0.0000 0.0000 0.0000 0.3426 0.0000 32.6721
#
#
#
# Elastic Compliance Matrix: (Units=1/GPa)
#
#
# Indices 1 2 3 4 5 6 
#
# 1 0.017552 -0.007371 -0.007862 0.000000 -0.007086 0.000000
# 2 -0.007371 0.022524 -0.008285 0.000000 -0.008410 0.000000
# 3 -0.007862 -0.008285 0.025944 0.000000 0.010325 0.000000
# 4 0.000000 0.000000 0.000000 0.037023 0.000000 -0.000388
# 5 -0.007086 -0.008410 0.010325 0.000000 0.092926 0.000000
# 6 0.000000 0.000000 0.000000 -0.000388 0.000000 0.030611
#
#
# Mechanical properties :
#
#
# Convention : Reuss Voigt Hill
#
# Bulk Modulus (GPa) = 52.67737 57.44457 55.06097
# Shear Modulus (GPa) = 17.86065 21.61308 19.73687
#
# Velocity S-wave (km/s) = 3.18287 3.50129 3.34587
# Velocity P-wave (km/s) = 6.58683 6.99487 6.79392
#
# Compressibility (1/GPa) = 0.01898348
#
# Stress axis : x y z
#
# Youngs Moduli (GPa) = 56.97385 44.39738 38.54400
#
# Poissons Ratio (x) = 0.32726 0.30303
# Poissons Ratio (y) = 0.41996 0.31935
# Poissons Ratio (z) = 0.44792 0.36785
#
# Static dielectric constant tensor:
#      x y z
#    x 3.186320 0.000000 0.004930 
#    y 0.000000 3.323510 0.000000 
#    z 0.004930 0.000000 3.262350 
# 
# 
# High freq. dielectric constant tensor:
#      x y z
#    x 1.673630 0.000000 0.001900 
#    y 0.000000 1.690040 0.000000 
#    z 0.001900 0.000000 1.668520 
# 
# From -- ./inp_files/55400.got.cif
#   From: 2010.06.25/outbox.cif.g09.slc.cpg/sg10_28_cif.got.tgz:55400.got - 2010.06.27 22:07:45.
