data_PCOD8060909
_publ_section_title
;
Structure prediction by ZEFSAII (Michael W. Deem and Ramdas Pophale) SiO2 
 PCOD8060909
Probable space group: P 2/M
;
_chemical_formula_sum "Si O2"
_cell_formula_units_Z 32
_cell_length_a 23.848769
_cell_length_b 9.337047
_cell_length_c 15.910724
_cell_angle_alpha 90.000000
_cell_angle_beta 151.873696
_cell_angle_gamma 90.000000
_cell_volume 1670.207838
_symmetry_space_group_name_H-M "P 2/M"
_symmetry_group_IT_number 10
_symmetry_cell_setting 'monoclinic'
loop_
_space_group_symop_operation_xyz
x,y,z
-x,y,-z
-x,-y,-z
x,-y,z
loop_
_atom_site_type_symbol
_atom_site_label
_atom_site_fract_x
_atom_site_fract_y
_atom_site_fract_z
Si Si1 0.559529 0.329385 0.493197
Si Si2 0.178318 0.331246 0.189129
Si Si3 0.410574 0.671695 0.134131
Si Si4 0.479612 0.165161 0.876795
Si Si5 0.937329 0.668801 0.793235
Si Si6 0.791037 0.163636 0.468693
Si Si7 0.106190 0.662398 0.530629
Si Si8 0.849722 0.339572 0.215979
O O1 0.500000 0.268903 0.500000
O O2 0.559513 0.500000 0.495869
O O3 0.693806 0.266265 0.667145
O O4 0.490887 0.277082 0.318727
O O5 0.190443 0.500000 0.212914
O O6 0.135856 0.273005 0.223239
O O7 0.077364 0.292898 0.987236
O O8 0.413237 0.500000 0.126442
O O9 0.451813 0.739218 0.100386
O O10 0.276692 0.729858 0.977754
O O11 0.340987 0.180991 0.670079
O O12 0.521530 0.000000 0.924715
O O13 0.500000 0.218262 0.000000
O O14 0.919223 0.500000 0.757951
O O15 0.888868 0.750603 0.649677
O O16 0.798269 0.233644 0.386211
O O17 0.829743 0.000000 0.515417
O O18 0.112641 0.500000 0.503285
O O19 0.143419 0.660462 0.675413
O O20 0.971667 0.728814 0.340494
O O21 0.848501 0.500000 0.179405
#
# Coordination Sequence:
#
# PCOD8060909 Si02
#       8
#     4   4   4   4   4   4   4   4
#     4   9  17  28  45  73 106 133 159 202 256 302
#     4   8  15  29  48  70  93 121 162 202 242 299
#     4  10  19  32  54  81 105 132 173 219 254 295
#     4  10  22  38  53  72 104 143 174 206 256 311
#     4   9  17  31  52  72  92 123 161 203 249 297
#     4  11  22  33  47  73 104 129 164 208 247 295
#     4   9  17  32  52  71  99 135 165 200 249 302
#     4   8  16  31  51  76 100 126 166 211 252 293
#
# _framework density 19.159292000000001
#
# number of rings (size 3 to 8) (size 9 to 14) (size 15 to 20)
#    0.000    2.750    0.000    3.375    0.000    3.250 
#    0.000    6.875    0.000    1.125    0.000    0.000 
#    0.000    0.000    0.000    0.000    0.000    0.000 
#
# Total GULP energy -396517.780109 kJ/mol
# GULP energy per Si atom -12391.180628 kJ/mol
# Density = 1.911568 g / cm^3
# Si number density = 19.159292 Si / 1000 Ang^3
#
#
#
# Elastic Constant Matrix: (Units=GPa)
#
#
# Indices 1 2 3 4 5 6 
#
# 1 72.6055 17.2341 27.5690 0.0000 7.9537 0.0000
# 2 17.2341 42.5027 19.1859 0.0000 0.6274 0.0000
# 3 27.5690 19.1859 107.7861 0.0000 11.4233 0.0000
# 4 0.0000 0.0000 0.0000 9.9985 0.0000 3.3687
# 5 7.9537 0.6274 11.4233 0.0000 34.4266 0.0000
# 6 0.0000 0.0000 0.0000 3.3687 0.0000 11.2201
#
#
#
# Elastic Compliance Matrix: (Units=1/GPa)
#
#
# Indices 1 2 3 4 5 6 
#
# 1 0.016457 -0.005288 -0.002980 0.000000 -0.002717 0.000000
# 2 -0.005288 0.027322 -0.003718 0.000000 0.001958 0.000000
# 3 -0.002980 -0.003718 0.011009 0.000000 -0.002897 0.000000
# 4 0.000000 0.000000 0.000000 0.111270 0.000000 -0.033408
# 5 -0.002717 0.001958 -0.002897 0.000000 0.030600 0.000000
# 6 0.000000 0.000000 0.000000 -0.033408 0.000000 0.099156
#
#
# Mechanical properties :
#
#
# Convention : Reuss Voigt Hill
#
# Bulk Modulus (GPa) = 32.45147 38.98582 35.71864
# Shear Modulus (GPa) = 15.14880 21.72273 18.43576
#
# Velocity S-wave (km/s) = 2.81495 3.37084 3.10536
# Velocity P-wave (km/s) = 5.24783 5.96176 5.61615
#
# Compressibility (1/GPa) = 0.03081525
#
# Stress axis : x y z
#
# Youngs Moduli (GPa) = 60.76265 36.60115 90.83704
#
# Poissons Ratio (x) = 0.19354 0.27072
# Poissons Ratio (y) = 0.32130 0.33775
# Poissons Ratio (z) = 0.18109 0.13609
#
# Static dielectric constant tensor:
#      x y z
#    x 3.619250 0.000000 0.263340 
#    y 0.000000 3.037600 0.000000 
#    z 0.263340 0.000000 3.793500 
# 
# 
# High freq. dielectric constant tensor:
#      x y z
#    x 1.745870 0.000000 0.010200 
#    y 0.000000 1.686790 0.000000 
#    z 0.010200 0.000000 1.760910 
# 
# From -- ./inp_files/71705.got.cif
#   From: 2010.06.25/outbox.cif.g09.slc.cpg/sg10_36_cif.got.tgz:71705.got - 2010.06.27 22:07:45.
