data_PCOD8060997
_publ_section_title
;
Structure prediction by ZEFSAII (Michael W. Deem and Ramdas Pophale) SiO2 
 PCOD8060997
Probable space group: P 2/M
;
_chemical_formula_sum "Si O2"
_cell_formula_units_Z 28
_cell_length_a 31.017295
_cell_length_b 8.970843
_cell_length_c 10.315805
_cell_angle_alpha 90.000000
_cell_angle_beta 147.872081
_cell_angle_gamma 90.000000
_cell_volume 1526.503704
_symmetry_space_group_name_H-M "P 2/M"
_symmetry_group_IT_number 10
_symmetry_cell_setting 'monoclinic'
loop_
_space_group_symop_operation_xyz
x,y,z
-x,y,-z
-x,-y,-z
x,-y,z
loop_
_atom_site_type_symbol
_atom_site_label
_atom_site_fract_x
_atom_site_fract_y
_atom_site_fract_z
Si Si1 0.738215 0.325492 0.110543
Si Si2 0.325570 0.676359 0.327042
Si Si3 0.239437 0.827419 0.341874
Si Si4 0.486714 0.827738 0.819718
Si Si5 0.072632 0.173664 0.039926
Si Si6 0.087501 0.324019 0.351517
Si Si7 0.338002 0.827811 0.840253
O O1 0.724901 0.500000 0.088726
O O2 0.833030 0.284434 0.363573
O O3 0.685174 0.254327 0.088145
O O4 0.707164 0.264612 0.893999
O O5 0.324740 0.500000 0.331619
O O6 0.265656 0.736606 0.283765
O O7 0.416689 0.732579 0.575656
O O8 0.287236 0.764794 0.588999
O O9 0.262393 0.000000 0.379649
O O10 0.143331 0.804017 0.114884
O O11 0.460142 0.000000 0.753837
O O12 0.500000 0.771438 0.000000
O O13 0.567154 0.801581 0.941497
O O14 0.990045 0.248337 0.775620
O O15 0.058278 0.000000 0.032738
O O16 0.098724 0.254872 0.238139
O O17 0.073336 0.500000 0.303267
O O18 0.316228 0.000000 0.802673
#
# Coordination Sequence:
#
# PCOD8060997 Si02
#       7
#     4   4   4   4   4   4   4
#     4  10  23  40  55  80 118 153 185 227 276 331
#     4  11  24  39  57  82 114 151 188 227 279 333
#     4  10  20  37  58  84 113 145 186 233 279 328
#     4  10  20  38  60  83 113 144 183 234 280 328
#     4  10  19  32  55  85 113 139 181 235 279 321
#     4  10  19  33  54  80 113 149 184 223 274 329
#     4  10  20  36  61  85 108 145 189 230 277 330
#
# _framework density 18.342569000000001
#
# number of rings (size 3 to 8) (size 9 to 14) (size 15 to 20)
#    0.000    1.857    2.857    2.143    0.000    4.857 
#    0.000    3.571    0.000    4.286    0.000    0.000 
#    0.000    0.000    0.000    0.000    0.000    0.000 
#
# Total GULP energy -347265.016126 kJ/mol
# GULP energy per Si atom -12402.322004 kJ/mol
# Density = 1.830082 g / cm^3
# Si number density = 18.342569 Si / 1000 Ang^3
#
#
#
# Elastic Constant Matrix: (Units=GPa)
#
#
# Indices 1 2 3 4 5 6 
#
# 1 126.0627 44.8356 77.9297 0.0000 -2.1667 0.0000
# 2 44.8356 66.1557 53.1773 0.0000 1.4349 0.0000
# 3 77.9297 53.1773 139.5910 0.0000 -6.0896 0.0000
# 4 0.0000 0.0000 0.0000 29.9173 0.0000 11.3273
# 5 -2.1667 1.4349 -6.0896 0.0000 30.6563 0.0000
# 6 0.0000 0.0000 0.0000 11.3273 0.0000 40.7821
#
#
#
# Elastic Compliance Matrix: (Units=1/GPa)
#
#
# Indices 1 2 3 4 5 6 
#
# 1 0.012894 -0.004256 -0.005577 0.000000 0.000003 0.000000
# 2 -0.004256 0.023415 -0.006663 0.000000 -0.002720 0.000000
# 3 -0.005577 -0.006663 0.012924 0.000000 0.002485 0.000000
# 4 0.000000 0.000000 0.000000 0.037354 0.000000 -0.010375
# 5 0.000003 -0.002720 0.002485 0.000000 0.033241 0.000000
# 6 0.000000 0.000000 0.000000 -0.010375 0.000000 0.027402
#
#
# Mechanical properties :
#
#
# Convention : Reuss Voigt Hill
#
# Bulk Modulus (GPa) = 61.57010 75.96607 68.76808
# Shear Modulus (GPa) = 26.93485 30.66227 28.79856
#
# Velocity S-wave (km/s) = 3.83617 4.09301 3.96667
# Velocity P-wave (km/s) = 7.29803 7.99012 7.65191
#
# Compressibility (1/GPa) = 0.01624165
#
# Stress axis : x y z
#
# Youngs Moduli (GPa) = 77.55723 42.70830 77.37701
#
# Poissons Ratio (x) = 0.18175 0.43152
# Poissons Ratio (y) = 0.33006 0.51554
# Poissons Ratio (z) = 0.43253 0.28455
#
# Static dielectric constant tensor:
#      x y z
#    x 3.350270 0.000000 0.135740 
#    y 0.000000 3.359210 0.000000 
#    z 0.135740 0.000000 3.531660 
# 
# 
# High freq. dielectric constant tensor:
#      x y z
#    x 1.711370 0.000000 0.018490 
#    y 0.000000 1.711520 0.000000 
#    z 0.018490 0.000000 1.711080 
# 
# From -- ./inp_files/37350.got.cif
#   From: 2010.06.25/outbox.cif.g09.slc.cpg/sg10_19_cif.got.tgz:37350.got - 2010.06.27 22:07:45.
