data_PCOD8060662
_publ_section_title
;
Structure prediction by ZEFSAII (Michael W. Deem and Ramdas Pophale) SiO2 
 PCOD8060662
Probable space group: P 2/M
;
_chemical_formula_sum "Si O2"
_cell_formula_units_Z 24
_cell_length_a 18.631554
_cell_length_b 9.042926
_cell_length_c 24.314725
_cell_angle_alpha 90.000000
_cell_angle_beta 160.853866
_cell_angle_gamma 90.000000
_cell_volume 1343.609299
_symmetry_space_group_name_H-M "P 2/M"
_symmetry_group_IT_number 10
_symmetry_cell_setting 'monoclinic'
loop_
_space_group_symop_operation_xyz
x,y,z
-x,y,-z
-x,-y,-z
x,-y,z
loop_
_atom_site_type_symbol
_atom_site_label
_atom_site_fract_x
_atom_site_fract_y
_atom_site_fract_z
Si Si1 0.076752 0.833807 0.493142
Si Si2 0.506268 0.673133 0.174091
Si Si3 0.705419 0.671591 0.687296
Si Si4 0.845807 0.175361 0.013516
Si Si5 0.660622 0.328010 0.164265
Si Si6 0.257999 0.162709 0.179917
O O1 0.298048 0.739904 0.647412
O O2 0.000000 0.832812 0.500000
O O3 0.886136 0.760327 0.318912
O O4 0.120568 0.000000 0.503822
O O5 0.491522 0.500000 0.175159
O O6 0.544917 0.708571 0.138151
O O7 0.279225 0.750794 0.025979
O O8 0.500000 0.703050 0.500000
O O9 0.767882 0.500000 0.734577
O O10 0.642226 0.724066 0.703432
O O11 0.909204 0.761803 0.810866
O O12 0.861249 0.000000 0.032605
O O13 0.707421 0.216131 0.857991
O O14 0.718795 0.500000 0.202151
O O15 0.500000 0.275777 0.000000
O O16 0.362659 0.000000 0.265224
O O17 0.000000 0.150948 0.000000
#
# Coordination Sequence:
#
# PCOD8060662 Si02
#       6
#     4   4   4   4   4   4
#     4   9  17  30  49  72  97 126 162 201 240 289
#     4  10  19  32  52  75  99 129 166 207 251 296
#     4  10  20  33  51  76 103 131 165 202 242 294
#     4  10  20  34  52  74 100 129 165 208 251 294
#     4   9  18  33  52  74 101 133 167 204 248 298
#     4   8  16  31  50  71  94 124 161 198 238 287
#
# _framework density 17.862337
#
# number of rings (size 3 to 8) (size 9 to 14) (size 15 to 20)
#    0.000    2.667    0.000    3.000    0.000    8.000 
#    0.000    1.667    0.000    2.000    0.000    0.000 
#    0.000    0.000    0.000    0.000    0.000    0.000 
#
# Total GULP energy -297556.909275 kJ/mol
# GULP energy per Si atom -12398.204553 kJ/mol
# Density = 1.782168 g / cm^3
# Si number density = 17.862337 Si / 1000 Ang^3
#
#
#
# Elastic Constant Matrix: (Units=GPa)
#
#
# Indices 1 2 3 4 5 6 
#
# 1 63.5573 46.9181 45.9916 0.0000 -1.8328 0.0000
# 2 46.9181 116.6479 65.6803 0.0000 -2.9239 0.0000
# 3 45.9916 65.6803 106.3312 0.0000 -11.3043 0.0000
# 4 0.0000 0.0000 0.0000 23.1429 0.0000 -1.7997
# 5 -1.8328 -2.9239 -11.3043 0.0000 27.3886 0.0000
# 6 0.0000 0.0000 0.0000 -1.7997 0.0000 24.2118
#
#
#
# Elastic Compliance Matrix: (Units=1/GPa)
#
#
# Indices 1 2 3 4 5 6 
#
# 1 0.025643 -0.006130 -0.007522 0.000000 -0.002043 0.000000
# 2 -0.006130 0.014719 -0.006607 0.000000 -0.001566 0.000000
# 3 -0.007522 -0.006607 0.017373 0.000000 0.005962 0.000000
# 4 0.000000 0.000000 0.000000 0.043461 0.000000 0.003231
# 5 -0.002043 -0.001566 0.005962 0.000000 0.038668 0.000000
# 6 0.000000 0.000000 0.000000 0.003231 0.000000 0.041542
#
#
# Mechanical properties :
#
#
# Convention : Reuss Voigt Hill
#
# Bulk Modulus (GPa) = 58.08167 67.07959 62.58063
# Shear Modulus (GPa) = 21.96203 23.47843 22.72023
#
# Velocity S-wave (km/s) = 3.51025 3.62941 3.57033
# Velocity P-wave (km/s) = 7.00114 7.42958 7.21854
#
# Compressibility (1/GPa) = 0.01721714
#
# Stress axis : x y z
#
# Youngs Moduli (GPa) = 38.99641 67.93753 57.55967
#
# Poissons Ratio (x) = 0.41645 0.43298
# Poissons Ratio (y) = 0.23904 0.38031
# Poissons Ratio (z) = 0.29334 0.44888
#
# Static dielectric constant tensor:
#      x y z
#    x 3.425960 0.000000 -0.090990 
#    y 0.000000 3.418470 0.000000 
#    z -0.090990 0.000000 3.177470 
# 
# 
# High freq. dielectric constant tensor:
#      x y z
#    x 1.673540 0.000000 -0.002190 
#    y 0.000000 1.702330 0.000000 
#    z -0.002190 0.000000 1.676290 
# 
# From -- ./inp_files/31204.got.cif
#   From: 2010.06.25/outbox.cif.g09.slc.cpg/sg10_16_cif.got.tgz:31204.got - 2010.06.27 22:07:45.
