data_PCOD8060860
_publ_section_title
;
Structure prediction by ZEFSAII (Michael W. Deem and Ramdas Pophale) SiO2 
 PCOD8060860
Probable space group: P 2/M
;
_chemical_formula_sum "Si O2"
_cell_formula_units_Z 14
_cell_length_a 5.156119
_cell_length_b 13.874521
_cell_length_c 11.119961
_cell_angle_alpha 90.000000
_cell_angle_beta 89.908402
_cell_angle_gamma 90.000000
_cell_volume 795.506330
_symmetry_space_group_name_H-M "P 2/M"
_symmetry_group_IT_number 10
_symmetry_cell_setting 'monoclinic'
loop_
_space_group_symop_operation_xyz
x,y,z
-x,y,-z
-x,-y,-z
x,-y,z
loop_
_atom_site_type_symbol
_atom_site_label
_atom_site_fract_x
_atom_site_fract_y
_atom_site_fract_z
Si Si1 0.725768 0.774711 0.763480
Si Si2 0.752907 0.389081 0.577682
Si Si3 0.500000 0.819286 0.000000
Si Si4 0.245945 0.109904 0.778335
O O1 0.744704 0.672298 0.699181
O O2 0.487928 0.838652 0.709702
O O3 0.986489 0.834413 0.743876
O O4 0.668328 0.754641 0.905925
O O5 0.500000 0.368857 0.500000
O O6 0.772527 0.500000 0.617700
O O7 0.000000 0.357602 0.500000
O O8 0.697255 0.885816 0.077608
O O9 0.219273 0.000000 0.735974
#
# Coordination Sequence:
#
# PCOD8060860 Si02
#       4
#     4   4   2   4
#     4  10  20  33  53  82 111 133 180 222 262 308
#     4  10  21  39  62  80  98 136 185 225 265 314
#     4   8  21  30  53  82 110 142 175 212 263 310
#     4  10  19  32  53  81 112 145 178 209 254 316
#
# _framework density 17.598855
#
# number of rings (size 3 to 8) (size 9 to 14) (size 15 to 20)
#    1.714    0.571    0.000    3.857    0.000    1.143 
#    0.000    0.714    0.000   18.857    0.000    0.000 
#    0.000    0.000    0.000    0.000    0.000    0.000 
#
# Total GULP energy -173454.961677 kJ/mol
# GULP energy per Si atom -12389.640120 kJ/mol
# Density = 1.755880 g / cm^3
# Si number density = 17.598855 Si / 1000 Ang^3
#
#
#
# Elastic Constant Matrix: (Units=GPa)
#
#
# Indices 1 2 3 4 5 6 
#
# 1 147.5004 47.5822 25.7455 0.0000 -14.1558 0.0000
# 2 47.5822 112.0423 54.2302 0.0000 -6.9173 0.0000
# 3 25.7455 54.2302 47.3485 0.0000 -10.5313 0.0000
# 4 0.0000 0.0000 0.0000 29.9462 0.0000 -0.3279
# 5 -14.1558 -6.9173 -10.5313 0.0000 13.2692 0.0000
# 6 0.0000 0.0000 0.0000 -0.3279 0.0000 42.6941
#
#
#
# Elastic Compliance Matrix: (Units=1/GPa)
#
#
# Indices 1 2 3 4 5 6 
#
# 1 0.008565 -0.003978 0.001785 0.000000 0.008480 0.000000
# 2 -0.003978 0.022897 -0.027142 0.000000 -0.013849 0.000000
# 3 0.001785 -0.027142 0.058912 0.000000 0.034512 0.000000
# 4 0.000000 0.000000 0.000000 0.033396 0.000000 0.000256
# 5 0.008480 -0.013849 0.034512 0.000000 0.104581 0.000000
# 6 0.000000 0.000000 0.000000 0.000256 0.000000 0.023424
#
#
# Mechanical properties :
#
#
# Convention : Reuss Voigt Hill
#
# Bulk Modulus (GPa) = 31.54121 62.44525 46.99323
# Shear Modulus (GPa) = 15.57572 29.13744 22.35658
#
# Velocity S-wave (km/s) = 2.97819 4.07337 3.56805
# Velocity P-wave (km/s) = 5.45778 7.59492 6.61325
#
# Compressibility (1/GPa) = 0.03170455
#
# Stress axis : x y z
#
# Youngs Moduli (GPa) = 116.75178 43.67476 16.97444
#
# Poissons Ratio (x) = 0.17373 -0.03030
# Poissons Ratio (y) = 0.46442 0.46072
# Poissons Ratio (z) = -0.20839 1.18541
#
# Static dielectric constant tensor:
#      x y z
#    x 3.417590 0.000000 -0.084900 
#    y 0.000000 3.033390 0.000000 
#    z -0.084900 0.000000 2.941190 
# 
# 
# High freq. dielectric constant tensor:
#      x y z
#    x 1.702580 0.000000 -0.007180 
#    y 0.000000 1.661450 0.000000 
#    z -0.007180 0.000000 1.650430 
# 
# From -- ./inp_files/38595.got.cif
#   From: 2010.06.25/outbox.cif.g09.slc.cpg/sg10_20_cif.got.tgz:38595.got - 2010.06.27 22:07:45.
