data_PCOD8060127
_publ_section_title
;
Structure prediction by ZEFSAII (Michael W. Deem and Ramdas Pophale) SiO2 
 PCOD8060127
Probable space group: P 2/M
;
_chemical_formula_sum "Si O2"
_cell_formula_units_Z 32
_cell_length_a 15.726728
_cell_length_b 8.986964
_cell_length_c 25.804812
_cell_angle_alpha 90.000000
_cell_angle_beta 149.742510
_cell_angle_gamma 90.000000
_cell_volume 1837.744547
_symmetry_space_group_name_H-M "P 2/M"
_symmetry_group_IT_number 10
_symmetry_cell_setting 'monoclinic'
loop_
_space_group_symop_operation_xyz
x,y,z
-x,y,-z
-x,-y,-z
x,-y,z
loop_
_atom_site_type_symbol
_atom_site_label
_atom_site_fract_x
_atom_site_fract_y
_atom_site_fract_z
Si Si1 0.265450 0.829505 0.822307
Si Si2 0.243642 0.176376 0.346342
Si Si3 0.130134 0.823278 0.857425
Si Si4 0.629594 0.670945 0.273178
Si Si5 0.569929 0.823801 0.914808
Si Si6 0.940492 0.828141 0.385278
Si Si7 0.561484 0.823805 0.450678
Si Si8 0.705857 0.670709 0.427954
O O1 0.216076 0.753302 0.850926
O O2 0.434760 0.761547 0.885880
O O3 0.108514 0.811125 0.700781
O O4 0.306740 0.000000 0.855558
O O5 0.300510 0.226533 0.433844
O O6 0.377517 0.230046 0.373713
O O7 0.058693 0.242640 0.235611
O O8 0.241486 0.000000 0.344327
O O9 0.118461 0.000000 0.844679
O O10 0.242768 0.781785 0.966794
O O11 0.646507 0.500000 0.265061
O O12 0.467311 0.743804 0.159354
O O13 0.800965 0.754471 0.348265
O O14 0.600292 0.685825 0.319211
O O15 0.546835 0.000000 0.894674
O O16 0.117108 0.750443 0.487094
O O17 0.954987 0.000000 0.408764
O O18 0.595851 0.744475 0.414818
O O19 0.568369 0.000000 0.445523
O O20 0.740545 0.500000 0.460333
#
# Coordination Sequence:
#
# PCOD8060127 Si02
#       8
#     4   4   4   4   4   4   4   4
#     4   8  14  24  41  69  99 122 147 182 226 275
#     4   8  15  28  48  75 101 123 150 189 239 286
#     4   9  14  23  44  71  97 122 151 191 236 278
#     4  10  21  35  47  62  93 131 160 193 236 277
#     4   9  17  28  45  69  93 122 162 199 227 266
#     4  10  19  31  50  74  97 123 157 193 228 274
#     4   9  17  31  51  73  97 124 155 191 231 281
#     4  11  22  33  47  68  94 126 160 192 235 284
#
# _framework density 17.412649999999999
#
# number of rings (size 3 to 8) (size 9 to 14) (size 15 to 20)
#    0.000    2.750    0.000    4.125    0.000    7.000 
#    0.000    1.250    0.000   10.500    0.000    5.250 
#    0.000    0.000    0.000    0.000    0.000    0.000 
#
# Total GULP energy -396661.974714 kJ/mol
# GULP energy per Si atom -12395.686710 kJ/mol
# Density = 1.737302 g / cm^3
# Si number density = 17.412650 Si / 1000 Ang^3
#
#
#
# Elastic Constant Matrix: (Units=GPa)
#
#
# Indices 1 2 3 4 5 6 
#
# 1 104.2583 41.3466 60.6558 0.0000 -9.2638 0.0000
# 2 41.3466 67.0938 37.0874 0.0000 -6.6218 0.0000
# 3 60.6558 37.0874 132.5203 0.0000 0.8608 0.0000
# 4 0.0000 0.0000 0.0000 5.8762 0.0000 4.2495
# 5 -9.2638 -6.6218 0.8608 0.0000 19.5541 0.0000
# 6 0.0000 0.0000 0.0000 4.2495 0.0000 7.0391
#
#
#
# Elastic Compliance Matrix: (Units=1/GPa)
#
#
# Indices 1 2 3 4 5 6 
#
# 1 0.015719 -0.006073 -0.005532 0.000000 0.005634 0.000000
# 2 -0.006073 0.020761 -0.003058 0.000000 0.004288 0.000000
# 3 -0.005532 -0.003058 0.010961 0.000000 -0.004139 0.000000
# 4 0.000000 0.000000 0.000000 0.302037 0.000000 -0.182338
# 5 0.005634 0.004288 -0.004139 0.000000 0.055444 0.000000
# 6 0.000000 0.000000 0.000000 -0.182338 0.000000 0.252140
#
#
# Mechanical properties :
#
#
# Convention : Reuss Voigt Hill
#
# Bulk Modulus (GPa) = 55.20492 64.67244 59.93868
# Shear Modulus (GPa) = 7.22100 17.47939 12.35020
#
# Velocity S-wave (km/s) = 2.03862 3.17177 2.66609
# Velocity P-wave (km/s) = 6.10852 7.11584 6.63134
#
# Compressibility (1/GPa) = 0.01811433
#
# Stress axis : x y z
#
# Youngs Moduli (GPa) = 63.61822 48.16783 91.23513
#
# Poissons Ratio (x) = 0.29252 0.50468
# Poissons Ratio (y) = 0.38635 0.27903
# Poissons Ratio (z) = 0.35191 0.14731
#
# Static dielectric constant tensor:
#      x y z
#    x 3.256720 0.000000 -0.000660 
#    y 0.000000 2.939070 0.000000 
#    z -0.000660 0.000000 3.436260 
# 
# 
# High freq. dielectric constant tensor:
#      x y z
#    x 1.659950 0.000000 -0.009190 
#    y 0.000000 1.637530 0.000000 
#    z -0.009190 0.000000 1.671110 
# 
# From -- ./inp_files/93138.got.cif
#   From: 2010.06.25/outbox.cif.g09.slc.cpg/sg10_47_cif.got.tgz:93138.got - 2010.06.27 22:07:45.
