data_PCOD8060243
_publ_section_title
;
Structure prediction by ZEFSAII (Michael W. Deem and Ramdas Pophale) SiO2 
 PCOD8060243
Probable space group: P 2/M
;
_chemical_formula_sum "Si O2"
_cell_formula_units_Z 32
_cell_length_a 16.240163
_cell_length_b 9.206246
_cell_length_c 13.176346
_cell_angle_alpha 90.000000
_cell_angle_beta 121.934908
_cell_angle_gamma 90.000000
_cell_volume 1671.846296
_symmetry_space_group_name_H-M "P 2/M"
_symmetry_group_IT_number 10
_symmetry_cell_setting 'monoclinic'
loop_
_space_group_symop_operation_xyz
x,y,z
-x,y,-z
-x,-y,-z
x,-y,z
loop_
_atom_site_type_symbol
_atom_site_label
_atom_site_fract_x
_atom_site_fract_y
_atom_site_fract_z
Si Si1 0.738638 0.834648 0.803787
Si Si2 0.089720 0.336554 0.451422
Si Si3 0.888938 0.662449 0.226779
Si Si4 0.216418 0.830245 0.688479
Si Si5 0.622593 0.834437 0.360873
Si Si6 0.201214 0.840714 0.381273
Si Si7 0.910847 0.329045 0.012938
Si Si8 0.538816 0.328278 0.636886
O O1 0.795291 0.835065 0.735890
O O2 0.810206 0.753211 0.926876
O O3 0.639489 0.748080 0.726991
O O4 0.718003 0.000000 0.826881
O O5 0.124460 0.500000 0.499246
O O6 0.131292 0.224738 0.559558
O O7 0.130036 0.288146 0.368064
O O8 0.973458 0.330066 0.367491
O O9 0.848194 0.500000 0.191517
O O10 0.799250 0.759129 0.210437
O O11 0.930833 0.709704 0.144365
O O12 0.320882 0.791538 0.706687
O O13 0.204613 0.000000 0.693531
O O14 0.692912 0.815565 0.502588
O O15 0.534242 0.725214 0.322616
O O16 0.584261 0.000000 0.328829
O O17 0.163266 0.000000 0.392686
O O18 0.895963 0.500000 0.984864
O O19 0.000000 0.273227 0.000000
O O20 0.500000 0.283027 0.500000
O O21 0.552095 0.500000 0.653637
#
# Coordination Sequence:
#
# PCOD8060243 Si02
#       8
#     4   4   4   4   4   4   4   4
#     4  11  22  36  56  81 113 152 191 232 280 335
#     4  10  19  31  51  78 108 143 185 228 276 333
#     4  10  21  36  54  77 106 144 187 232 281 329
#     4  10  21  35  53  79 110 145 183 227 280 335
#     4   9  18  34  52  75 110 147 178 216 275 334
#     4   9  18  31  48  74 109 146 181 220 271 329
#     4  10  22  41  61  82 113 151 192 238 282 326
#     4  11  22  34  54  86 117 147 186 228 278 339
#
# _framework density 19.140515000000001
#
# number of rings (size 3 to 8) (size 9 to 14) (size 15 to 20)
#    0.000    2.000    1.250    3.375    0.000    8.250 
#    0.000    0.000    0.000    0.750    0.000    5.250 
#    0.000    0.000    0.000    0.000    0.000    0.000 
#
# Total GULP energy -396648.612222 kJ/mol
# GULP energy per Si atom -12395.269132 kJ/mol
# Density = 1.909695 g / cm^3
# Si number density = 19.140515 Si / 1000 Ang^3
#
#
#
# Elastic Constant Matrix: (Units=GPa)
#
#
# Indices 1 2 3 4 5 6 
#
# 1 119.1446 64.1630 33.0633 0.0000 -6.6965 0.0000
# 2 64.1630 92.0458 28.4420 0.0000 4.3049 0.0000
# 3 33.0633 28.4420 48.5877 0.0000 3.9267 0.0000
# 4 0.0000 0.0000 0.0000 19.8488 0.0000 -3.7098
# 5 -6.6965 4.3049 3.9267 0.0000 28.5769 0.0000
# 6 0.0000 0.0000 0.0000 -3.7098 0.0000 35.0068
#
#
#
# Elastic Compliance Matrix: (Units=1/GPa)
#
#
# Indices 1 2 3 4 5 6 
#
# 1 0.015137 -0.009147 -0.005404 0.000000 0.005668 0.000000
# 2 -0.009147 0.018816 -0.004437 0.000000 -0.004368 0.000000
# 3 -0.005404 -0.004437 0.027207 0.000000 -0.004336 0.000000
# 4 0.000000 0.000000 0.000000 0.051399 0.000000 0.005447
# 5 0.005668 -0.004368 -0.004336 0.000000 0.037575 0.000000
# 6 0.000000 0.000000 0.000000 0.005447 0.000000 0.029143
#
#
# Mechanical properties :
#
#
# Convention : Reuss Voigt Hill
#
# Bulk Modulus (GPa) = 43.13462 56.79053 49.96258
# Shear Modulus (GPa) = 22.22409 25.62715 23.92562
#
# Velocity S-wave (km/s) = 3.41119 3.66306 3.53937
# Velocity P-wave (km/s) = 6.17249 6.90112 6.54695
#
# Compressibility (1/GPa) = 0.02318323
#
# Stress axis : x y z
#
# Youngs Moduli (GPa) = 66.06134 53.14738 36.75587
#
# Poissons Ratio (x) = 0.48614 0.19864
# Poissons Ratio (y) = 0.60427 0.16307
# Poissons Ratio (z) = 0.35702 0.23580
#
# Static dielectric constant tensor:
#      x y z
#    x 3.660370 0.000000 -0.194440 
#    y 0.000000 3.657250 0.000000 
#    z -0.194440 0.000000 3.236630 
# 
# 
# High freq. dielectric constant tensor:
#      x y z
#    x 1.749580 0.000000 -0.012870 
#    y 0.000000 1.750220 0.000000 
#    z -0.012870 0.000000 1.708110 
# 
# From -- ./inp_files/66563.got.cif
#   From: 2010.06.25/outbox.cif.g09.slc.cpg/sg10_34_cif.got.tgz:66563.got - 2010.06.27 22:07:45.
