data_PCOD8060857
_publ_section_title
;
Structure prediction by ZEFSAII (Michael W. Deem and Ramdas Pophale) SiO2 
 PCOD8060857
Probable space group: P 2/M
;
_chemical_formula_sum "Si O2"
_cell_formula_units_Z 28
_cell_length_a 21.856229
_cell_length_b 8.833493
_cell_length_c 14.901176
_cell_angle_alpha 90.000000
_cell_angle_beta 30.664107
_cell_angle_gamma 90.000000
_cell_volume 1467.242731
_symmetry_space_group_name_H-M "P 2/M"
_symmetry_group_IT_number 10
_symmetry_cell_setting 'monoclinic'
loop_
_space_group_symop_operation_xyz
x,y,z
-x,y,-z
-x,-y,-z
x,-y,z
loop_
_atom_site_type_symbol
_atom_site_label
_atom_site_fract_x
_atom_site_fract_y
_atom_site_fract_z
Si Si1 0.791687 0.674896 0.966729
Si Si2 0.114344 0.320402 0.966467
Si Si3 0.369381 0.679590 0.327539
Si Si4 0.151473 0.679991 0.722194
Si Si5 0.279072 0.177820 0.268168
Si Si6 0.966048 0.325750 0.444697
Si Si7 0.614349 0.822185 0.056293
O O1 0.751228 0.500000 0.010709
O O2 0.695800 0.778594 0.038025
O O3 0.922723 0.697116 0.760399
O O4 0.801851 0.733054 0.056818
O O5 0.104977 0.500000 0.981122
O O6 0.172171 0.266495 0.799350
O O7 0.977764 0.258058 0.148171
O O8 0.368459 0.500000 0.324713
O O9 0.256910 0.744805 0.526458
O O10 0.365319 0.744562 0.232062
O O11 0.489314 0.735750 0.224575
O O12 0.153659 0.500000 0.715058
O O13 0.143026 0.229040 0.456913
O O14 0.320063 0.230523 0.117696
O O15 0.290722 0.000000 0.265398
O O16 0.924560 0.500000 0.502080
O O17 0.000000 0.264188 0.500000
O O18 0.590752 0.000000 0.086234
#
# Coordination Sequence:
#
# PCOD8060857 Si02
#       7
#     4   4   4   4   4   4   4
#     4  10  19  33  55  82 109 141 178 216 263 312
#     4   8  14  28  54  84 111 134 162 209 266 320
#     4  11  22  36  57  80 103 135 180 227 269 309
#     4   8  15  30  53  83 111 132 163 214 270 315
#     4  11  23  37  54  76 106 144 182 217 263 320
#     4  10  19  32  53  81 111 136 170 220 263 304
#     4  11  24  39  52  71 106 147 183 218 261 317
#
# _framework density 19.083413
#
# number of rings (size 3 to 8) (size 9 to 14) (size 15 to 20)
#    0.000    2.143    1.429    3.429    0.000    6.571 
#    0.000    0.714    0.000    6.000    0.000    6.000 
#    0.000    0.000    0.000    0.000    0.000    0.000 
#
# Total GULP energy -347218.080488 kJ/mol
# GULP energy per Si atom -12400.645732 kJ/mol
# Density = 1.903998 g / cm^3
# Si number density = 19.083413 Si / 1000 Ang^3
#
#
#
# Elastic Constant Matrix: (Units=GPa)
#
#
# Indices 1 2 3 4 5 6 
#
# 1 142.9337 30.4722 48.5334 0.0000 3.4776 0.0000
# 2 30.4722 47.5197 27.9585 0.0000 -2.3396 0.0000
# 3 48.5334 27.9585 75.6378 0.0000 -6.6467 0.0000
# 4 0.0000 0.0000 0.0000 11.1539 0.0000 -3.0988
# 5 3.4776 -2.3396 -6.6467 0.0000 26.8308 0.0000
# 6 0.0000 0.0000 0.0000 -3.0988 0.0000 18.2989
#
#
#
# Elastic Compliance Matrix: (Units=1/GPa)
#
#
# Indices 1 2 3 4 5 6 
#
# 1 0.009496 -0.003192 -0.005158 0.000000 -0.002787 0.000000
# 2 -0.003192 0.027966 -0.008217 0.000000 0.000817 0.000000
# 3 -0.005158 -0.008217 0.019999 0.000000 0.004906 0.000000
# 4 0.000000 0.000000 0.000000 0.094081 0.000000 0.015932
# 5 -0.002787 0.000817 0.004906 0.000000 0.038919 0.000000
# 6 0.000000 0.000000 0.000000 0.015932 0.000000 0.057346
#
#
# Mechanical properties :
#
#
# Convention : Reuss Voigt Hill
#
# Bulk Modulus (GPa) = 41.10796 53.33549 47.22172
# Shear Modulus (GPa) = 17.29804 21.86518 19.58161
#
# Velocity S-wave (km/s) = 3.01399 3.38859 3.20676
# Velocity P-wave (km/s) = 5.80518 6.58175 6.20562
#
# Compressibility (1/GPa) = 0.02432619
#
# Stress axis : x y z
#
# Youngs Moduli (GPa) = 105.30740 35.75833 50.00149
#
# Poissons Ratio (x) = 0.11413 0.25792
# Poissons Ratio (y) = 0.33610 0.41088
# Poissons Ratio (z) = 0.54321 0.29384
#
# Static dielectric constant tensor:
#      x y z
#    x 3.761790 0.000000 0.126410 
#    y 0.000000 3.131800 0.000000 
#    z 0.126410 0.000000 3.562790 
# 
# 
# High freq. dielectric constant tensor:
#      x y z
#    x 1.753660 0.000000 0.000920 
#    y 0.000000 1.708250 0.000000 
#    z 0.000920 0.000000 1.733960 
# 
# From -- ./inp_files/49121.got.cif
#   From: 2010.06.25/outbox.cif.g09.slc.cpg/sg10_25_cif.got.tgz:49121.got - 2010.06.27 22:07:45.
