data_PCOD8060892
_publ_section_title
;
Structure prediction by ZEFSAII (Michael W. Deem and Ramdas Pophale) SiO2 
 PCOD8060892
Probable space group: P 2/M
;
_chemical_formula_sum "Si O2"
_cell_formula_units_Z 32
_cell_length_a 18.912347
_cell_length_b 13.345706
_cell_length_c 21.818038
_cell_angle_alpha 90.000000
_cell_angle_beta 160.301756
_cell_angle_gamma 90.000000
_cell_volume 1856.171682
_symmetry_space_group_name_H-M "P 2/M"
_symmetry_group_IT_number 10
_symmetry_cell_setting 'monoclinic'
loop_
_space_group_symop_operation_xyz
x,y,z
-x,y,-z
-x,-y,-z
x,-y,z
loop_
_atom_site_type_symbol
_atom_site_label
_atom_site_fract_x
_atom_site_fract_y
_atom_site_fract_z
Si Si1 0.580423 0.618788 0.808527
Si Si2 0.971886 0.113684 0.654102
Si Si3 0.159214 0.390325 0.084376
Si Si4 0.811712 0.696903 0.582948
Si Si5 0.419469 0.803252 0.001878
Si Si6 0.742035 0.613987 0.072982
Si Si7 0.422645 0.611002 0.500761
Si Si8 0.188817 0.117055 0.611747
O O1 0.559195 0.500000 0.780365
O O2 0.784547 0.659212 0.935567
O O3 0.367987 0.671219 0.612909
O O4 0.625281 0.645212 0.915076
O O5 0.875296 0.186774 0.626809
O O6 0.866834 0.140987 0.503614
O O7 0.222180 0.125590 0.854498
O O8 0.920216 0.000000 0.631194
O O9 0.054983 0.500000 0.988046
O O10 0.382057 0.402570 0.296703
O O11 0.000000 0.329191 0.000000
O O12 0.743661 0.679944 0.598421
O O13 0.008555 0.625767 0.729384
O O14 0.349386 0.687018 0.949506
O O15 0.500000 0.826791 0.000000
O O16 0.599229 0.825393 0.198045
O O17 0.690864 0.500000 0.049731
O O18 0.500000 0.661328 0.500000
O O19 0.325216 0.500000 0.407999
O O20 0.000000 0.157479 0.500000
O O21 0.224137 0.000000 0.652430
#
# Coordination Sequence:
#
# PCOD8060892 Si02
#       8
#     4   4   4   4   4   4   4   4
#     4   9  17  30  47  67  96 128 162 199 232 280
#     4  10  21  35  53  76  98 124 157 202 252 296
#     4   8  14  23  37  61  91 121 149 187 236 272
#     4  10  19  33  50  70 100 129 163 201 243 290
#     4  11  21  34  52  74 101 126 156 201 244 290
#     4  10  21  33  49  69  94 135 170 194 232 284
#     4   9  17  27  44  70  98 126 159 199 237 278
#     4  10  19  32  54  78  98 121 153 199 256 305
#
# _framework density 17.239784
#
# number of rings (size 3 to 8) (size 9 to 14) (size 15 to 20)
#    0.000    2.375    1.250    3.000    1.750    0.750 
#    0.000    0.000    0.000    0.750    0.000    0.000 
#    0.000    2.500    0.000    0.000    0.000    0.000 
#
# Total GULP energy -396583.109273 kJ/mol
# GULP energy per Si atom -12393.222165 kJ/mol
# Density = 1.720055 g / cm^3
# Si number density = 17.239784 Si / 1000 Ang^3
#
#
#
# Elastic Constant Matrix: (Units=GPa)
#
#
# Indices 1 2 3 4 5 6 
#
# 1 74.4692 35.2928 18.2422 0.0000 13.3906 0.0000
# 2 35.2928 71.6717 21.6992 0.0000 7.5784 0.0000
# 3 18.2422 21.6992 86.7128 0.0000 8.3066 0.0000
# 4 0.0000 0.0000 0.0000 15.0486 0.0000 -5.4098
# 5 13.3906 7.5784 8.3066 0.0000 24.8100 0.0000
# 6 0.0000 0.0000 0.0000 -5.4098 0.0000 14.3207
#
#
#
# Elastic Compliance Matrix: (Units=1/GPa)
#
#
# Indices 1 2 3 4 5 6 
#
# 1 0.018915 -0.008168 -0.001236 0.000000 -0.007300 0.000000
# 2 -0.008168 0.018916 -0.002980 0.000000 -0.000372 0.000000
# 3 -0.001236 -0.002980 0.012797 0.000000 -0.002707 0.000000
# 4 0.000000 0.000000 0.000000 0.076894 0.000000 0.029048
# 5 -0.007300 -0.000372 -0.002707 0.000000 0.045266 0.000000
# 6 0.000000 0.000000 0.000000 0.029048 0.000000 0.080802
#
#
# Mechanical properties :
#
#
# Convention : Reuss Voigt Hill
#
# Bulk Modulus (GPa) = 38.66812 42.59133 40.62972
# Shear Modulus (GPa) = 17.42292 21.34382 19.38337
#
# Velocity S-wave (km/s) = 3.18248 3.52242 3.35676
# Velocity P-wave (km/s) = 5.99854 6.42667 6.21629
#
# Compressibility (1/GPa) = 0.02586110
#
# Stress axis : x y z
#
# Youngs Moduli (GPa) = 52.86867 52.86514 78.14144
#
# Poissons Ratio (x) = 0.43180 0.09658
# Poissons Ratio (y) = 0.43183 0.23283
# Poissons Ratio (z) = 0.06534 0.15752
#
# Static dielectric constant tensor:
#      x y z
#    x 3.434280 0.000000 0.021760 
#    y 0.000000 2.937890 0.000000 
#    z 0.021760 0.000000 3.302350 
# 
# 
# High freq. dielectric constant tensor:
#      x y z
#    x 1.664920 0.000000 0.000430 
#    y 0.000000 1.621770 0.000000 
#    z 0.000430 0.000000 1.678700 
# 
# From -- ./inp_files/79724.got.cif
#   From: 2010.06.25/outbox.cif.g09.slc.cpg/sg10_40_cif.got.tgz:79724.got - 2010.06.27 22:07:45.
