data_PCOD8060050
_publ_section_title
;
Structure prediction by ZEFSAII (Michael W. Deem and Ramdas Pophale) SiO2 
 PCOD8060050
Probable space group: P 2/M
;
_chemical_formula_sum "Si O2"
_cell_formula_units_Z 32
_cell_length_a 7.856061
_cell_length_b 18.535286
_cell_length_c 23.397268
_cell_angle_alpha 90.000000
_cell_angle_beta 32.920986
_cell_angle_gamma 90.000000
_cell_volume 1851.630856
_symmetry_space_group_name_H-M "P 2/M"
_symmetry_group_IT_number 10
_symmetry_cell_setting 'monoclinic'
loop_
_space_group_symop_operation_xyz
x,y,z
-x,y,-z
-x,-y,-z
x,-y,z
loop_
_atom_site_type_symbol
_atom_site_label
_atom_site_fract_x
_atom_site_fract_y
_atom_site_fract_z
Si Si1 0.385839 0.821633 0.121900
Si Si2 0.740662 0.581950 0.383603
Si Si3 0.675343 0.326155 0.807793
Si Si4 0.004661 0.821633 0.121900
Si Si5 0.688170 0.080452 0.124732
Si Si6 0.341323 0.418050 0.383603
Si Si7 0.285690 0.673844 0.807793
Si Si8 0.797336 0.580150 0.000000
O O1 0.227994 0.748662 0.189914
O O2 0.160109 0.853763 0.135956
O O3 0.419553 0.879105 0.163766
O O4 0.727570 0.802673 0.000000
O O5 0.500000 0.607013 0.500000
O O6 0.854017 0.500000 0.364017
O O7 0.583852 0.587605 0.366459
O O8 0.030601 0.635967 0.304750
O O9 0.416650 0.307549 0.833340
O O10 0.529621 0.379359 0.896383
O O11 0.761618 0.879105 0.163766
O O12 0.822437 0.748662 0.189914
O O13 0.566497 0.000000 0.173401
O O14 0.000000 0.075666 0.000000
O O15 0.325897 0.500000 0.364017
O O16 0.445651 0.364034 0.304750
O O17 0.000000 0.392987 0.500000
O O18 0.988466 0.620641 0.896383
O O19 0.718765 0.500000 0.000000
O O20 0.000000 0.576062 0.000000
#
# Coordination Sequence:
#
# PCOD8060050 Si02
#       8
#     4   4   4   4   4   4   4   4
#     4  10  19  31  49  73 103 138 173 209 256 305
#     4  10  21  36  51  69  95 131 176 225 272 314
#     4  11  19  31  51  71 100 137 172 214 263 309
#     4  10  19  31  49  73 103 138 173 209 256 305
#     4   9  18  32  50  72 102 138 172 206 250 309
#     4  10  21  36  51  69  95 131 176 225 272 314
#     4  11  19  31  51  71 100 137 172 214 263 309
#     4   9  18  28  43  69  97 131 175 212 251 308
#
# _framework density 17.282062
#
# number of rings (size 3 to 8) (size 9 to 14) (size 15 to 20)
#    0.000    2.000    2.500    2.250    0.000    3.000 
#    0.000    2.500    0.000    3.000    0.000    0.000 
#    0.000    1.000    0.500    0.000    0.000    0.000 
#
# Total GULP energy -396858.773334 kJ/mol
# GULP energy per Si atom -12401.836667 kJ/mol
# Density = 1.724273 g / cm^3
# Si number density = 17.282062 Si / 1000 Ang^3
#
#
#
# Elastic Constant Matrix: (Units=GPa)
#
#
# Indices 1 2 3 4 5 6 
#
# 1 90.2086 44.3777 14.9680 0.0000 2.5760 0.0000
# 2 44.3777 127.3135 40.5093 0.0000 0.2508 0.0000
# 3 14.9680 40.5093 75.4223 0.0000 -1.6172 0.0000
# 4 0.0000 0.0000 0.0000 9.1408 0.0000 0.5988
# 5 2.5760 0.2508 -1.6172 0.0000 18.0274 0.0000
# 6 0.0000 0.0000 0.0000 0.5988 0.0000 18.3755
#
#
#
# Elastic Compliance Matrix: (Units=1/GPa)
#
#
# Indices 1 2 3 4 5 6 
#
# 1 0.013445 -0.004609 -0.000233 0.000000 -0.001878 0.000000
# 2 -0.004609 0.011060 -0.005024 0.000000 0.000054 0.000000
# 3 -0.000233 -0.005024 0.016037 0.000000 0.001542 0.000000
# 4 0.000000 0.000000 0.000000 0.109633 0.000000 -0.003572
# 5 -0.001878 0.000054 0.001542 0.000000 0.055877 0.000000
# 6 0.000000 0.000000 0.000000 -0.003572 0.000000 0.054537
#
#
# Mechanical properties :
#
#
# Convention : Reuss Voigt Hill
#
# Bulk Modulus (GPa) = 48.05660 54.73939 51.39800
# Shear Modulus (GPa) = 17.40603 21.98137 19.69370
#
# Velocity S-wave (km/s) = 3.17704 3.57027 3.37938
# Velocity P-wave (km/s) = 6.42851 6.98130 6.71060
#
# Compressibility (1/GPa) = 0.02080880
#
# Stress axis : x y z
#
# Youngs Moduli (GPa) = 74.37752 90.41908 62.35740
#
# Poissons Ratio (x) = 0.41671 0.01454
# Poissons Ratio (y) = 0.34278 0.31331
# Poissons Ratio (z) = 0.01735 0.45430
#
# Static dielectric constant tensor:
#      x y z
#    x 3.228190 0.000000 0.021030 
#    y 0.000000 3.194170 0.000000 
#    z 0.021030 0.000000 2.903810 
# 
# 
# High freq. dielectric constant tensor:
#      x y z
#    x 1.676740 0.000000 0.003210 
#    y 0.000000 1.651830 0.000000 
#    z 0.003210 0.000000 1.627270 
# 
# From -- ./inp_files/70884.got.cif
#   From: 2010.06.25/outbox.cif.g09.slc.cpg/sg10_36_cif.got.tgz:70884.got - 2010.06.27 22:07:45.
