data_PCOD8060391
_publ_section_title
;
Structure prediction by ZEFSAII (Michael W. Deem and Ramdas Pophale) SiO2 
 PCOD8060391
Probable space group: P 2/M
;
_chemical_formula_sum "Si O2"
_cell_formula_units_Z 32
_cell_length_a 22.271449
_cell_length_b 8.826595
_cell_length_c 16.664924
_cell_angle_alpha 90.000000
_cell_angle_beta 37.846103
_cell_angle_gamma 90.000000
_cell_volume 2009.970903
_symmetry_space_group_name_H-M "P 2/M"
_symmetry_group_IT_number 10
_symmetry_cell_setting 'monoclinic'
loop_
_space_group_symop_operation_xyz
x,y,z
-x,y,-z
-x,-y,-z
x,-y,z
loop_
_atom_site_type_symbol
_atom_site_label
_atom_site_fract_x
_atom_site_fract_y
_atom_site_fract_z
Si Si1 0.838218 0.320743 0.810774
Si Si2 0.693669 0.178439 0.082309
Si Si3 0.506657 0.319461 0.759915
Si Si4 0.221735 0.823449 0.291075
Si Si5 0.412783 0.675200 0.153391
Si Si6 0.355739 0.328847 0.709024
Si Si7 0.044082 0.666512 0.541348
Si Si8 0.419869 0.668778 0.478054
O O1 0.822120 0.500000 0.833740
O O2 0.788384 0.267224 0.780876
O O3 0.954013 0.278296 0.692327
O O4 0.790400 0.237629 0.936471
O O5 0.600081 0.247383 0.136131
O O6 0.703378 0.226195 0.165682
O O7 0.687216 0.000000 0.083387
O O8 0.493533 0.500000 0.766351
O O9 0.551757 0.271665 0.796675
O O10 0.580986 0.258070 0.610681
O O11 0.323506 0.781597 0.224387
O O12 0.134943 0.782038 0.445553
O O13 0.217649 0.000000 0.276127
O O14 0.379793 0.500000 0.187969
O O15 0.500000 0.703434 0.000000
O O16 0.312678 0.500000 0.754707
O O17 0.467080 0.334968 0.618440
O O18 0.355644 0.255018 0.618056
O O19 0.081428 0.500000 0.529332
O O20 0.000000 0.653274 0.500000
O O21 0.377658 0.500000 0.517137
#
# Coordination Sequence:
#
# PCOD8060391 Si02
#       8
#     4   4   4   4   4   4   4   4
#     4  10  19  32  48  63  83 113 146 176 208 250
#     4  11  20  27  39  63  92 115 138 173 216 260
#     4   9  17  30  45  59  80 115 155 187 213 245
#     4  11  21  31  46  66  89 113 138 176 219 255
#     4  10  20  32  46  62  83 116 154 185 211 244
#     4   8  13  24  40  56  78 109 142 173 208 253
#     4   8  16  31  49  65  81 106 141 176 208 249
#     4   7  11  22  41  59  74 102 146 185 210 239
#
# _framework density 15.920629
#
# number of rings (size 3 to 8) (size 9 to 14) (size 15 to 20)
#    0.000    2.750    0.000    5.625    0.000    4.500 
#    0.000    5.000    0.000    0.000    0.000    0.000 
#    0.000    1.000    0.000   11.500    0.000    3.500 
#
# Total GULP energy -396450.833970 kJ/mol
# GULP energy per Si atom -12389.088562 kJ/mol
# Density = 1.588439 g / cm^3
# Si number density = 15.920629 Si / 1000 Ang^3
#
#
#
# Elastic Constant Matrix: (Units=GPa)
#
#
# Indices 1 2 3 4 5 6 
#
# 1 52.6594 16.3871 41.9014 0.0000 18.8585 0.0000
# 2 16.3871 60.5806 31.5834 0.0000 2.0468 0.0000
# 3 41.9014 31.5834 108.2529 0.0000 19.6207 0.0000
# 4 0.0000 0.0000 0.0000 8.5175 0.0000 -2.2460
# 5 18.8585 2.0468 19.6207 0.0000 27.6880 0.0000
# 6 0.0000 0.0000 0.0000 -2.2460 0.0000 9.5645
#
#
#
# Elastic Compliance Matrix: (Units=1/GPa)
#
#
# Indices 1 2 3 4 5 6 
#
# 1 0.032784 -0.003793 -0.008705 0.000000 -0.015880 0.000000
# 2 -0.003793 0.020122 -0.005279 0.000000 0.004837 0.000000
# 3 -0.008705 -0.005279 0.014918 0.000000 -0.004252 0.000000
# 4 0.000000 0.000000 0.000000 0.125155 0.000000 0.029390
# 5 -0.015880 0.004837 -0.004252 0.000000 0.049589 0.000000
# 6 0.000000 0.000000 0.000000 0.029390 0.000000 0.111455
#
#
# Mechanical properties :
#
#
# Convention : Reuss Voigt Hill
#
# Bulk Modulus (GPa) = 30.98909 44.58184 37.78547
# Shear Modulus (GPa) = 12.48962 17.92875 15.20919
#
# Velocity S-wave (km/s) = 2.80392 3.35943 3.09417
# Velocity P-wave (km/s) = 5.47628 6.56590 6.04569
#
# Compressibility (1/GPa) = 0.03226942
#
# Stress axis : x y z
#
# Youngs Moduli (GPa) = 30.50285 49.69723 67.03390
#
# Poissons Ratio (x) = 0.18852 0.58350
# Poissons Ratio (y) = 0.11571 0.35388
# Poissons Ratio (z) = 0.26551 0.26236
#
# Static dielectric constant tensor:
#      x y z
#    x 2.943070 0.000000 0.403130 
#    y 0.000000 2.887480 0.000000 
#    z 0.403130 0.000000 3.473140 
# 
# 
# High freq. dielectric constant tensor:
#      x y z
#    x 1.567460 0.000000 0.026470 
#    y 0.000000 1.598110 0.000000 
#    z 0.026470 0.000000 1.614540 
# 
# From -- ./inp_files/79958.got.cif
#   From: 2010.06.25/outbox.cif.g09.slc.cpg/sg10_40_cif.got.tgz:79958.got - 2010.06.27 22:07:45.
