data_PCOD8060582
_publ_section_title
;
Structure prediction by ZEFSAII (Michael W. Deem and Ramdas Pophale) SiO2 
 PCOD8060582
Probable space group: P 2/M
;
_chemical_formula_sum "Si O2"
_cell_formula_units_Z 30
_cell_length_a 18.834768
_cell_length_b 19.383011
_cell_length_c 5.216678
_cell_angle_alpha 90.000000
_cell_angle_beta 117.800480
_cell_angle_gamma 90.000000
_cell_volume 1684.655966
_symmetry_space_group_name_H-M "P 2/M"
_symmetry_group_IT_number 10
_symmetry_cell_setting 'monoclinic'
loop_
_space_group_symop_operation_xyz
x,y,z
-x,y,-z
-x,-y,-z
x,-y,z
loop_
_atom_site_type_symbol
_atom_site_label
_atom_site_fract_x
_atom_site_fract_y
_atom_site_fract_z
Si Si1 0.289035 0.132607 0.950317
Si Si2 0.355843 0.418844 0.657877
Si Si3 0.780225 0.922457 0.660791
Si Si4 0.583218 0.761469 0.777042
Si Si5 0.703774 0.350685 0.919763
Si Si6 0.160976 0.747346 0.744497
Si Si7 0.091340 0.197918 0.130572
Si Si8 0.500000 0.662838 0.000000
O O1 0.275921 0.083787 0.683928
O O2 0.227080 0.194343 0.831230
O O3 0.276649 0.090746 0.191024
O O4 0.378625 0.164657 0.086344
O O5 0.364128 0.500000 0.687141
O O6 0.293540 0.399331 0.326756
O O7 0.328879 0.392250 0.891198
O O8 0.443850 0.386908 0.731028
O O9 0.855451 0.871139 0.775110
O O10 0.814638 0.000000 0.733251
O O11 0.500000 0.776947 0.500000
O O12 0.649055 0.715285 0.736156
O O13 0.564626 0.713324 0.984633
O O14 0.793877 0.325488 0.139018
O O15 0.111485 0.749252 0.395956
O O16 0.102537 0.761065 0.884789
O O17 0.000000 0.173179 0.000000
#
# Coordination Sequence:
#
# PCOD8060582 Si02
#       8
#     4   4   4   4   4   4   4   2
#     4   9  20  32  53  73  95 130 174 217 249 290
#     4  11  21  33  48  72 107 140 174 209 249 302
#     4  10  20  36  53  73 101 139 170 194 244 313
#     4  10  19  32  51  74  97 124 177 223 262 298
#     4  10  20  34  51  71 101 141 177 209 248 301
#     4   9  18  33  51  74 106 135 166 207 251 296
#     4  10  19  32  53  83 110 130 156 202 254 305
#     4  10  21  32  48  74 103 136 168 214 272 316
#
# _framework density 17.807790000000001
#
# number of rings (size 3 to 8) (size 9 to 14) (size 15 to 20)
#    0.000    2.133    1.333    2.200    1.867    3.467 
#    0.000    2.000    0.000    7.200    0.000    0.000 
#    0.000   37.333    0.000    0.000    0.000    0.000 
#
# Total GULP energy -371787.823625 kJ/mol
# GULP energy per Si atom -12392.927454 kJ/mol
# Density = 1.776726 g / cm^3
# Si number density = 17.807790 Si / 1000 Ang^3
#
#
#
# Elastic Constant Matrix: (Units=GPa)
#
#
# Indices 1 2 3 4 5 6 
#
# 1 70.1797 49.1931 38.6726 0.0000 -0.3872 0.0000
# 2 49.1931 80.2601 41.6021 0.0000 6.0526 0.0000
# 3 38.6726 41.6021 105.8918 0.0000 -13.7935 0.0000
# 4 0.0000 0.0000 0.0000 18.2232 0.0000 -4.5253
# 5 -0.3872 6.0526 -13.7935 0.0000 30.8968 0.0000
# 6 0.0000 0.0000 0.0000 -4.5253 0.0000 10.5384
#
#
#
# Elastic Compliance Matrix: (Units=1/GPa)
#
#
# Indices 1 2 3 4 5 6 
#
# 1 0.026391 -0.014293 -0.003838 0.000000 0.001417 0.000000
# 2 -0.014293 0.024578 -0.005401 0.000000 -0.007405 0.000000
# 3 -0.003838 -0.005401 0.013907 0.000000 0.007219 0.000000
# 4 0.000000 0.000000 0.000000 0.061425 0.000000 0.026377
# 5 0.001417 -0.007405 0.007219 0.000000 0.037057 0.000000
# 6 0.000000 0.000000 0.000000 0.026377 0.000000 0.106217
#
#
# Mechanical properties :
#
#
# Convention : Reuss Voigt Hill
#
# Bulk Modulus (GPa) = 56.14048 57.25190 56.69619
# Shear Modulus (GPa) = 15.50022 20.38926 17.94474
#
# Velocity S-wave (km/s) = 2.95349 3.38740 3.17786
# Velocity P-wave (km/s) = 6.57457 6.89340 6.73588
#
# Compressibility (1/GPa) = 0.01781246
#
# Stress axis : x y z
#
# Youngs Moduli (GPa) = 37.89222 40.68745 71.90387
#
# Poissons Ratio (x) = 0.58153 0.27599
# Poissons Ratio (y) = 0.54158 0.38833
# Poissons Ratio (z) = 0.14544 0.21974
#
# Static dielectric constant tensor:
#      x y z
#    x 3.310120 0.000000 -0.049120 
#    y 0.000000 3.183470 0.000000 
#    z -0.049120 0.000000 3.509960 
# 
# 
# High freq. dielectric constant tensor:
#      x y z
#    x 1.671500 0.000000 -0.012730 
#    y 0.000000 1.667140 0.000000 
#    z -0.012730 0.000000 1.695190 
# 
# From -- ./inp_files/11586.got.cif
#   From: 2010.06.25/outbox.cif.g09.slc.cpg/sg10_6_cif.got.tgz:11586.got - 2010.06.27 22:07:45.
