data_PCOD8060169
_publ_section_title
;
Structure prediction by ZEFSAII (Michael W. Deem and Ramdas Pophale) SiO2 
 PCOD8060169
Probable space group: P 2/M
;
_chemical_formula_sum "Si O2"
_cell_formula_units_Z 28
_cell_length_a 5.042994
_cell_length_b 32.470160
_cell_length_c 9.621337
_cell_angle_alpha 90.000000
_cell_angle_beta 73.135525
_cell_angle_gamma 90.000000
_cell_volume 1507.708419
_symmetry_space_group_name_H-M "P 2/M"
_symmetry_group_IT_number 10
_symmetry_cell_setting 'monoclinic'
loop_
_space_group_symop_operation_xyz
x,y,z
-x,y,-z
-x,-y,-z
x,-y,z
loop_
_atom_site_type_symbol
_atom_site_label
_atom_site_fract_x
_atom_site_fract_y
_atom_site_fract_z
Si Si1 0.085409 0.613800 0.830978
Si Si2 0.592471 0.334104 0.832543
Si Si3 0.088429 0.743828 0.333430
Si Si4 0.693311 0.132692 0.103011
Si Si5 0.307326 0.043343 0.898484
Si Si6 0.811490 0.453700 0.403864
Si Si7 0.581376 0.203779 0.331402
O O1 0.323543 0.649519 0.788749
O O2 0.177226 0.573014 0.737551
O O3 0.812222 0.629214 0.795147
O O4 0.000000 0.601730 0.000000
O O5 0.749829 0.294639 0.752155
O O6 0.500000 0.321826 0.000000
O O7 0.304264 0.781023 0.299296
O O8 0.000000 0.730276 0.500000
O O9 0.817233 0.760120 0.291532
O O10 0.626682 0.087518 0.183323
O O11 0.674237 0.164268 0.232216
O O12 0.500000 0.142900 0.000000
O O13 0.000000 0.134526 0.000000
O O14 0.348383 0.000000 0.803768
O O15 0.500000 0.040071 0.000000
O O16 0.000000 0.045111 0.000000
O O17 0.500000 0.453797 0.500000
O O18 0.912190 0.500000 0.351903
O O19 0.000000 0.435483 0.500000
O O20 0.500000 0.190824 0.500000
#
# Coordination Sequence:
#
# PCOD8060169 Si02
#       7
#     4   4   4   4   4   4   4
#     4  10  21  37  56  80 109 139 171 208 256 308
#     4  10  21  36  54  78 105 132 168 215 258 297
#     4  10  21  36  53  73  98 133 173 207 250 308
#     4  10  19  31  50  76  99 127 171 211 248 301
#     4   8  14  25  42  66  96 125 156 201 250 293
#     4  10  21  37  57  83 112 141 176 215 252 294
#     4  10  21  36  51  71 102 134 165 208 258 304
#
# _framework density 18.57123
#
# number of rings (size 3 to 8) (size 9 to 14) (size 15 to 20)
#    0.000    2.286    0.000    2.571    0.000    3.714 
#    0.000    0.000    0.000    5.571    0.000    0.000 
#    0.000   14.857    0.000    0.000    0.000    2.286 
#
# Total GULP energy -346866.340843 kJ/mol
# GULP energy per Si atom -12388.083602 kJ/mol
# Density = 1.852896 g / cm^3
# Si number density = 18.571230 Si / 1000 Ang^3
#
#
#
# Elastic Constant Matrix: (Units=GPa)
#
#
# Indices 1 2 3 4 5 6 
#
# 1 106.9030 15.2984 26.2866 0.0000 -2.9605 0.0000
# 2 15.2984 122.2673 72.1521 0.0000 -8.8957 0.0000
# 3 26.2866 72.1521 70.6686 0.0000 -8.3287 0.0000
# 4 0.0000 0.0000 0.0000 -158.2659 0.0000 77.1726
# 5 -2.9605 -8.8957 -8.3287 0.0000 21.1332 0.0000
# 6 0.0000 0.0000 0.0000 77.1726 0.0000 -17.0676
#
#
#
# Elastic Compliance Matrix: (Units=1/GPa)
#
#
# Indices 1 2 3 4 5 6 
#
# 1 0.010595 0.002516 -0.006512 0.000000 -0.000023 0.000000
# 2 0.002516 0.021176 -0.022510 0.000000 0.000395 0.000000
# 3 -0.006512 -0.022510 0.040198 0.000000 0.005455 0.000000
# 4 0.000000 0.000000 0.000000 0.005244 0.000000 0.023713
# 5 -0.000023 0.000395 0.005455 0.000000 0.049632 0.000000
# 6 0.000000 0.000000 0.000000 0.023713 0.000000 0.048631
#
#
# Mechanical properties :
#
#
# Convention : Reuss Voigt Hill
#
# Bulk Modulus (GPa) = 52.75267 58.59035 55.67151
# Shear Modulus (GPa) = 21.29389 -18.43327 1.43031
#
# Velocity S-wave (km/s) = 3.38983 -3.15393 0.87855
# Velocity P-wave (km/s) = 6.61729 4.28421 5.57418
#
# Compressibility (1/GPa) = 0.01895639
#
# Stress axis : x y z
#
# Youngs Moduli (GPa) = 94.38502 47.22244 24.87668
#
# Poissons Ratio (x) = -0.11879 0.16200
# Poissons Ratio (y) = -0.23743 0.55998
# Poissons Ratio (z) = 0.61464 1.06298
#
# Static dielectric constant tensor:
#      x y z
#    x 3.841520 0.000000 0.028270 
#    y 0.000000 3.792200 0.000000 
#    z 0.028270 0.000000 3.318880 
# 
# 
# High freq. dielectric constant tensor:
#      x y z
#    x 1.750060 0.000000 -0.006590 
#    y 0.000000 1.729210 0.000000 
#    z -0.006590 0.000000 1.682700 
# 
# From -- ./inp_files/15822.got.cif
#   From: 2010.06.25/outbox.cif.g09.slc.cpg/sg10_8_cif.got.tgz:15822.got - 2010.06.27 22:07:45.
