data_PCOD8060293
_publ_section_title
;
Structure prediction by ZEFSAII (Michael W. Deem and Ramdas Pophale) SiO2 
 PCOD8060293
Probable space group: P 2/M
;
_chemical_formula_sum "Si O2"
_cell_formula_units_Z 28
_cell_length_a 11.430904
_cell_length_b 8.998423
_cell_length_c 16.277768
_cell_angle_alpha 90.000000
_cell_angle_beta 60.359586
_cell_angle_gamma 90.000000
_cell_volume 1455.240343
_symmetry_space_group_name_H-M "P 2/M"
_symmetry_group_IT_number 10
_symmetry_cell_setting 'monoclinic'
loop_
_space_group_symop_operation_xyz
x,y,z
-x,y,-z
-x,-y,-z
x,-y,z
loop_
_atom_site_type_symbol
_atom_site_label
_atom_site_fract_x
_atom_site_fract_y
_atom_site_fract_z
Si Si1 0.057605 0.675176 0.896086
Si Si2 0.429552 0.661782 0.937790
Si Si3 0.813691 0.673872 0.876084
Si Si4 0.341512 0.166983 0.542732
Si Si5 0.335587 0.174920 0.218459
Si Si6 0.683904 0.325968 0.285723
Si Si7 0.624207 0.325308 0.632173
O O1 0.052780 0.500000 0.909539
O O2 0.210744 0.724636 0.822004
O O3 0.964037 0.718637 0.850582
O O4 0.000000 0.749850 0.000000
O O5 0.431277 0.500000 0.891073
O O6 0.510060 0.782333 0.857032
O O7 0.500000 0.641201 0.000000
O O8 0.277293 0.711353 0.011254
O O9 0.798327 0.500000 0.858921
O O10 0.770233 0.768732 0.812416
O O11 0.500000 0.166972 0.500000
O O12 0.274048 0.242614 0.645305
O O13 0.306534 0.260928 0.473720
O O14 0.285619 0.000000 0.552296
O O15 0.300049 0.250148 0.317494
O O16 0.323880 0.000000 0.230387
O O17 0.695242 0.500000 0.300617
O O18 0.534263 0.283547 0.308576
O O19 0.648041 0.500000 0.625816
#
# Coordination Sequence:
#
# PCOD8060293 Si02
#       7
#     4   4   4   4   4   4   4
#     4   9  18  32  54  80 103 133 176 219 250 289
#     4   8  15  28  46  67  91 126 168 208 250 295
#     4   9  18  33  52  71  98 134 174 214 255 300
#     4   9  17  31  51  75 106 138 167 204 257 312
#     4  11  21  31  47  72 103 135 169 210 262 311
#     4   9  18  32  53  79 105 135 172 212 255 302
#     4  10  19  31  52  80 107 132 168 214 258 306
#
# _framework density 19.240808000000001
#
# number of rings (size 3 to 8) (size 9 to 14) (size 15 to 20)
#    0.000    2.714    0.000    3.000    2.000    4.857 
#    0.000    0.714    0.000    1.714    0.000    6.000 
#    0.000    0.000    0.000    0.000    0.000    0.000 
#
# Total GULP energy -347064.184732 kJ/mol
# GULP energy per Si atom -12395.149455 kJ/mol
# Density = 1.919702 g / cm^3
# Si number density = 19.240808 Si / 1000 Ang^3
#
#
#
# Elastic Constant Matrix: (Units=GPa)
#
#
# Indices 1 2 3 4 5 6 
#
# 1 42.0575 20.8276 26.0031 0.0000 5.5407 0.0000
# 2 20.8276 94.5575 43.1716 0.0000 18.3018 0.0000
# 3 26.0031 43.1716 107.7219 0.0000 20.5960 0.0000
# 4 0.0000 0.0000 0.0000 16.8285 0.0000 3.8657
# 5 5.5407 18.3018 20.5960 0.0000 27.1437 0.0000
# 6 0.0000 0.0000 0.0000 3.8657 0.0000 12.5174
#
#
#
# Elastic Compliance Matrix: (Units=1/GPa)
#
#
# Indices 1 2 3 4 5 6 
#
# 1 0.029111 -0.004057 -0.005601 0.000000 0.001043 0.000000
# 2 -0.004057 0.014282 -0.003581 0.000000 -0.006084 0.000000
# 3 -0.005601 -0.003581 0.013323 0.000000 -0.006551 0.000000
# 4 0.000000 0.000000 0.000000 0.063960 0.000000 -0.019753
# 5 0.001043 -0.006084 -0.006551 0.000000 0.045701 0.000000
# 6 0.000000 0.000000 0.000000 -0.019753 0.000000 0.085989
#
#
# Mechanical properties :
#
#
# Convention : Reuss Voigt Hill
#
# Bulk Modulus (GPa) = 33.07031 47.14904 40.10968
# Shear Modulus (GPa) = 17.30557 21.58688 19.44622
#
# Velocity S-wave (km/s) = 3.00229 3.35316 3.18256
# Velocity P-wave (km/s) = 5.40770 6.28884 5.86484
#
# Compressibility (1/GPa) = 0.03023861
#
# Stress axis : x y z
#
# Youngs Moduli (GPa) = 34.35074 70.01915 75.05873
#
# Poissons Ratio (x) = 0.28406 0.42038
# Poissons Ratio (y) = 0.13936 0.26879
# Poissons Ratio (z) = 0.19239 0.25075
#
# Static dielectric constant tensor:
#      x y z
#    x 3.420000 0.000000 -0.019880 
#    y 0.000000 3.304240 0.000000 
#    z -0.019880 0.000000 3.709990 
# 
# 
# High freq. dielectric constant tensor:
#      x y z
#    x 1.723160 0.000000 0.017260 
#    y 0.000000 1.724330 0.000000 
#    z 0.017260 0.000000 1.744260 
# 
# From -- ./inp_files/49408.got.cif
#   From: 2010.06.25/outbox.cif.g09.slc.cpg/sg10_25_cif.got.tgz:49408.got - 2010.06.27 22:07:45.
