data_PCOD8060306
_publ_section_title
;
Structure prediction by ZEFSAII (Michael W. Deem and Ramdas Pophale) SiO2 
 PCOD8060306
Probable space group: P 2/M
;
_chemical_formula_sum "Si O2"
_cell_formula_units_Z 32
_cell_length_a 13.873261
_cell_length_b 13.724501
_cell_length_c 19.297926
_cell_angle_alpha 90.000000
_cell_angle_beta 26.102676
_cell_angle_gamma 90.000000
_cell_volume 1616.664082
_symmetry_space_group_name_H-M "P 2/M"
_symmetry_group_IT_number 10
_symmetry_cell_setting 'monoclinic'
loop_
_space_group_symop_operation_xyz
x,y,z
-x,y,-z
-x,-y,-z
x,-y,z
loop_
_atom_site_type_symbol
_atom_site_label
_atom_site_fract_x
_atom_site_fract_y
_atom_site_fract_z
Si Si1 0.466912 0.888066 0.443341
Si Si2 0.239552 0.802243 0.866786
Si Si3 0.343600 0.109693 0.166544
Si Si4 0.057934 0.392949 0.106807
Si Si5 0.304186 0.610660 0.767878
Si Si6 0.204077 0.393148 0.587112
Si Si7 0.013037 0.189810 0.694593
Si Si8 0.310275 0.791659 0.972503
O O1 0.500000 0.844004 0.500000
O O2 0.609860 0.835624 0.293274
O O3 0.219692 0.876245 0.577983
O O4 0.535940 0.000000 0.399937
O O5 0.284611 0.684717 0.845369
O O6 0.286745 0.845774 0.912882
O O7 0.000000 0.834808 0.000000
O O8 0.106789 0.149933 0.296748
O O9 0.321383 0.000000 0.211189
O O10 0.500000 0.108977 0.000000
O O11 0.445716 0.183076 0.158038
O O12 0.159053 0.500000 0.029221
O O13 0.261939 0.323187 0.993666
O O14 0.906792 0.357174 0.140991
O O15 0.874487 0.397153 0.284160
O O16 0.278474 0.500000 0.810852
O O17 0.535235 0.625837 0.579886
O O18 0.154451 0.500000 0.583477
O O19 0.076635 0.302002 0.634611
O O20 0.864729 0.172179 0.858281
#
# Coordination Sequence:
#
# PCOD8060306 Si02
#       8
#     4   4   4   4   4   4   4   4
#     4  11  25  41  59  83 112 151 196 239 289 348
#     4  12  23  37  56  85 122 155 184 232 292 350
#     4   9  19  37  61  86 108 142 196 249 295 341
#     4   9  17  30  51  83 120 154 193 231 275 336
#     4  10  19  31  52  81 118 158 193 227 274 339
#     4   9  17  29  52  86 116 148 189 235 280 332
#     4  10  19  38  65  84 112 150 196 241 279 344
#     4  10  21  35  57  87 117 150 186 238 298 337
#
# _framework density 19.793845999999998
#
# number of rings (size 3 to 8) (size 9 to 14) (size 15 to 20)
#    0.000    2.000    2.500    1.500    1.750    3.500 
#    0.000    1.250    0.000    5.250    0.000    1.750 
#    0.000    0.000    0.000    0.000    0.000    0.000 
#
# Total GULP energy -396438.346741 kJ/mol
# GULP energy per Si atom -12388.698336 kJ/mol
# Density = 1.974879 g / cm^3
# Si number density = 19.793846 Si / 1000 Ang^3
#
#
#
# Elastic Constant Matrix: (Units=GPa)
#
#
# Indices 1 2 3 4 5 6 
#
# 1 134.5126 51.6441 59.8575 0.0000 -19.1518 0.0000
# 2 51.6441 93.4755 33.6799 0.0000 -14.7338 0.0000
# 3 59.8575 33.6799 81.0712 0.0000 -10.7270 0.0000
# 4 0.0000 0.0000 0.0000 12.0917 0.0000 -10.0490
# 5 -19.1518 -14.7338 -10.7270 0.0000 28.8680 0.0000
# 6 0.0000 0.0000 0.0000 -10.0490 0.0000 25.0171
#
#
#
# Elastic Compliance Matrix: (Units=1/GPa)
#
#
# Indices 1 2 3 4 5 6 
#
# 1 0.012660 -0.003778 -0.007280 0.000000 0.003766 0.000000
# 2 -0.003778 0.014349 -0.002665 0.000000 0.003827 0.000000
# 3 -0.007280 -0.002665 0.018929 0.000000 0.000844 0.000000
# 4 0.000000 0.000000 0.000000 0.124144 0.000000 0.049867
# 5 0.003766 0.003827 0.000844 0.000000 0.039405 0.000000
# 6 0.000000 0.000000 0.000000 0.049867 0.000000 0.060003
#
#
# Mechanical properties :
#
#
# Convention : Reuss Voigt Hill
#
# Bulk Modulus (GPa) = 54.07847 66.60249 60.34048
# Shear Modulus (GPa) = 16.49619 24.12054 20.30837
#
# Velocity S-wave (km/s) = 2.89000 3.49461 3.20659
# Velocity P-wave (km/s) = 6.20615 7.07137 6.65284
#
# Compressibility (1/GPa) = 0.01849165
#
# Stress axis : x y z
#
# Youngs Moduli (GPa) = 78.98597 69.69209 52.83025
#
# Poissons Ratio (x) = 0.26331 0.38459
# Poissons Ratio (y) = 0.29843 0.14080
# Poissons Ratio (z) = 0.57500 0.18574
#
# Static dielectric constant tensor:
#      x y z
#    x 3.524990 0.000000 0.018880 
#    y 0.000000 3.875610 0.000000 
#    z 0.018880 0.000000 3.697060 
# 
# 
# High freq. dielectric constant tensor:
#      x y z
#    x 1.743530 0.000000 0.008880 
#    y 0.000000 1.776440 0.000000 
#    z 0.008880 0.000000 1.773660 
# 
# From -- ./inp_files/76996.got.cif
#   From: 2010.06.25/outbox.cif.g09.slc.cpg/sg10_39_cif.got.tgz:76996.got - 2010.06.27 22:07:45.
