data_PCOD8060810
_publ_section_title
;
Structure prediction by ZEFSAII (Michael W. Deem and Ramdas Pophale) SiO2 
 PCOD8060810
Probable space group: P 2/M
;
_chemical_formula_sum "Si O2"
_cell_formula_units_Z 32
_cell_length_a 20.199452
_cell_length_b 9.160918
_cell_length_c 12.225814
_cell_angle_alpha 90.000000
_cell_angle_beta 125.700548
_cell_angle_gamma 90.000000
_cell_volume 1837.190045
_symmetry_space_group_name_H-M "P 2/M"
_symmetry_group_IT_number 10
_symmetry_cell_setting 'monoclinic'
loop_
_space_group_symop_operation_xyz
x,y,z
-x,y,-z
-x,-y,-z
x,-y,z
loop_
_atom_site_type_symbol
_atom_site_label
_atom_site_fract_x
_atom_site_fract_y
_atom_site_fract_z
Si Si1 0.030028 0.673273 0.145628
Si Si2 0.126888 0.326938 0.889879
Si Si3 0.711051 0.172523 0.354553
Si Si4 0.384837 0.330888 0.118410
Si Si5 0.474988 0.171757 0.856622
Si Si6 0.787846 0.326711 0.634982
Si Si7 0.263655 0.672741 0.179813
Si Si8 0.240375 0.669603 0.810907
O O1 0.033544 0.500000 0.140718
O O2 0.119429 0.730416 0.263050
O O3 0.965810 0.725518 0.177368
O O4 0.000000 0.736399 0.000000
O O5 0.131792 0.500000 0.902417
O O6 0.160317 0.280574 0.802753
O O7 0.185178 0.261110 0.041033
O O8 0.616939 0.219335 0.256563
O O9 0.747585 0.243081 0.497209
O O10 0.759214 0.232831 0.296493
O O11 0.721802 0.000000 0.368987
O O12 0.408132 0.500000 0.145148
O O13 0.467255 0.241814 0.179179
O O14 0.346280 0.277809 0.197160
O O15 0.320572 0.299863 0.959961
O O16 0.487031 0.000000 0.862700
O O17 0.500000 0.231958 0.000000
O O18 0.784102 0.500000 0.611383
O O19 0.737532 0.279376 0.694956
O O20 0.256969 0.500000 0.164811
O O21 0.235279 0.500000 0.772662
#
# Coordination Sequence:
#
# PCOD8060810 Si02
#       8
#     4   4   4   4   4   4   4   4
#     4   9  14  24  48  82 108 128 161 204 247 288
#     4   8  13  24  46  78 108 127 155 204 250 288
#     4  11  23  37  51  68  99 137 170 207 251 298
#     4   9  17  29  51  80 103 123 156 206 255 295
#     4  10  20  35  52  71  95 128 171 212 250 294
#     4  10  19  32  53  78 105 135 167 201 243 298
#     4   8  14  27  47  76 108 131 154 196 251 297
#     4   9  17  30  50  76 103 129 161 203 250 297
#
# _framework density 17.417905000000001
#
# number of rings (size 3 to 8) (size 9 to 14) (size 15 to 20)
#    0.000    2.750    2.500    1.875    0.000    1.250 
#    0.000    1.875    0.000    9.375    0.000    0.000 
#    0.000    0.000    0.000    0.000    0.000    0.000 
#
# Total GULP energy -396632.643999 kJ/mol
# GULP energy per Si atom -12394.770125 kJ/mol
# Density = 1.737826 g / cm^3
# Si number density = 17.417905 Si / 1000 Ang^3
#
#
#
# Elastic Constant Matrix: (Units=GPa)
#
#
# Indices 1 2 3 4 5 6 
#
# 1 171.6157 38.9643 79.3694 0.0000 -11.5177 0.0000
# 2 38.9643 31.2600 38.0064 0.0000 -3.5911 0.0000
# 3 79.3694 38.0064 120.9381 0.0000 -7.5875 0.0000
# 4 0.0000 0.0000 0.0000 14.5242 0.0000 4.4529
# 5 -11.5177 -3.5911 -7.5875 0.0000 25.6077 0.0000
# 6 0.0000 0.0000 0.0000 4.4529 0.0000 1.0729
#
#
#
# Elastic Compliance Matrix: (Units=1/GPa)
#
#
# Indices 1 2 3 4 5 6 
#
# 1 0.009253 -0.006586 -0.003872 0.000000 0.002091 0.000000
# 2 -0.006586 0.056614 -0.013406 0.000000 0.001005 0.000000
# 3 -0.003872 -0.013406 0.015076 0.000000 0.000845 0.000000
# 4 0.000000 0.000000 0.000000 -0.252746 0.000000 1.048959
# 5 0.002091 0.001005 0.000845 0.000000 0.040383 0.000000
# 6 0.000000 0.000000 0.000000 1.048959 0.000000 -3.421410
#
#
# Mechanical properties :
#
#
# Convention : Reuss Voigt Hill
#
# Bulk Modulus (GPa) = 30.10713 70.72155 50.41434
# Shear Modulus (GPa) = -1.43101 19.40588 8.98743
#
# Velocity S-wave (km/s) = -0.90739 3.34149 2.27400
# Velocity P-wave (km/s) = 4.02801 7.45509 5.99179
#
# Compressibility (1/GPa) = 0.03321472
#
# Stress axis : x y z
#
# Youngs Moduli (GPa) = 108.06934 17.66341 66.33160
#
# Poissons Ratio (x) = 0.11634 0.25682
# Poissons Ratio (y) = 0.71178 0.88926
# Poissons Ratio (z) = 0.41842 0.23680
#
# Static dielectric constant tensor:
#      x y z
#    x 3.679910 0.000000 -0.055410 
#    y 0.000000 2.793510 0.000000 
#    z -0.055410 0.000000 3.076840 
# 
# 
# High freq. dielectric constant tensor:
#      x y z
#    x 1.693560 0.000000 -0.006160 
#    y 0.000000 1.627070 0.000000 
#    z -0.006160 0.000000 1.649490 
# 
# From -- ./inp_files/55368.got.cif
#   From: 2010.06.25/outbox.cif.g09.slc.cpg/sg10_28_cif.got.tgz:55368.got - 2010.06.27 22:07:45.
