data_PCOD8060696
_publ_section_title
;
Structure prediction by ZEFSAII (Michael W. Deem and Ramdas Pophale) SiO2 
 PCOD8060696
Probable space group: P 2/M
;
_chemical_formula_sum "Si O2"
_cell_formula_units_Z 28
_cell_length_a 29.538117
_cell_length_b 8.720523
_cell_length_c 9.348145
_cell_angle_alpha 90.000000
_cell_angle_beta 37.616435
_cell_angle_gamma 90.000000
_cell_volume 1469.757442
_symmetry_space_group_name_H-M "P 2/M"
_symmetry_group_IT_number 10
_symmetry_cell_setting 'monoclinic'
loop_
_space_group_symop_operation_xyz
x,y,z
-x,y,-z
-x,-y,-z
x,-y,z
loop_
_atom_site_type_symbol
_atom_site_label
_atom_site_fract_x
_atom_site_fract_y
_atom_site_fract_z
Si Si1 0.352834 0.182158 0.703582
Si Si2 0.770222 0.817084 0.472901
Si Si3 0.635284 0.182127 0.001414
Si Si4 0.070375 0.824375 0.239166
Si Si5 0.496220 0.182461 0.171292
Si Si6 0.225665 0.319926 0.842360
Si Si7 0.932846 0.825119 0.082851
O O1 0.367494 0.239648 0.828612
O O2 0.420786 0.238140 0.434909
O O3 0.278317 0.261144 0.836403
O O4 0.343221 0.000000 0.721954
O O5 0.748884 0.756536 0.369785
O O6 0.851358 0.752357 0.316832
O O7 0.772465 0.000000 0.454204
O O8 0.710438 0.758801 0.737401
O O9 0.565096 0.248804 0.090200
O O10 0.632806 0.000000 0.003348
O O11 0.000000 0.757806 0.500000
O O12 0.087095 0.000000 0.241286
O O13 0.142286 0.724527 0.095273
O O14 0.048410 0.811991 0.129611
O O15 0.499798 0.000000 0.160173
O O16 0.500000 0.247238 0.000000
O O17 0.232157 0.500000 0.809689
O O18 0.929219 0.000000 0.144916
O O19 0.000000 0.740602 0.000000
#
# Coordination Sequence:
#
# PCOD8060696 Si02
#       7
#     4   4   4   4   4   4   4
#     4  10  19  32  52  77 105 134 169 214 260 308
#     4   9  17  32  53  74  98 131 173 216 257 305
#     4   9  17  29  50  80 105 128 166 218 269 309
#     4   9  18  33  54  77 100 129 168 212 255 300
#     4   9  16  27  48  78 107 133 164 209 262 311
#     4  11  22  35  51  72 103 141 177 210 250 303
#     4   8  14  25  44  71  98 122 153 198 247 293
#
# _framework density 19.050763
#
# number of rings (size 3 to 8) (size 9 to 14) (size 15 to 20)
#    0.000    2.714    0.000    3.429    0.000    5.429 
#    0.000    5.000    0.000   12.429    0.000    0.000 
#    0.000    0.000    0.000    0.000    0.000    0.000 
#
# Total GULP energy -347136.828362 kJ/mol
# GULP energy per Si atom -12397.743870 kJ/mol
# Density = 1.900740 g / cm^3
# Si number density = 19.050763 Si / 1000 Ang^3
#
#
#
# Elastic Constant Matrix: (Units=GPa)
#
#
# Indices 1 2 3 4 5 6 
#
# 1 162.7859 21.0701 71.1472 0.0000 -7.1420 0.0000
# 2 21.0701 30.9598 20.2138 0.0000 -2.1088 0.0000
# 3 71.1472 20.2138 156.9797 0.0000 0.8005 0.0000
# 4 0.0000 0.0000 0.0000 5.4288 0.0000 -0.0242
# 5 -7.1420 -2.1088 0.8005 0.0000 26.2152 0.0000
# 6 0.0000 0.0000 0.0000 -0.0242 0.0000 3.8453
#
#
#
# Elastic Compliance Matrix: (Units=1/GPa)
#
#
# Indices 1 2 3 4 5 6 
#
# 1 0.008072 -0.003231 -0.003253 0.000000 0.002039 0.000000
# 2 -0.003231 0.036792 -0.003284 0.000000 0.002180 0.000000
# 3 -0.003253 -0.003284 0.008275 0.000000 -0.001403 0.000000
# 4 0.000000 0.000000 0.000000 0.184207 0.000000 0.001158
# 5 0.002039 0.002180 -0.001403 0.000000 0.038919 0.000000
# 6 0.000000 0.000000 0.000000 0.001158 0.000000 0.260067
#
#
# Mechanical properties :
#
#
# Convention : Reuss Voigt Hill
#
# Bulk Modulus (GPa) = 29.76003 63.95419 46.85711
# Shear Modulus (GPa) = 8.81727 22.98415 15.90071
#
# Velocity S-wave (km/s) = 2.15368 3.47719 2.89216
# Velocity P-wave (km/s) = 4.67331 7.05439 5.98349
#
# Compressibility (1/GPa) = 0.03360212
#
# Stress axis : x y z
#
# Youngs Moduli (GPa) = 123.87827 27.18009 120.85109
#
# Poissons Ratio (x) = 0.08782 0.39313
# Poissons Ratio (y) = 0.40026 0.39691
# Poissons Ratio (z) = 0.40297 0.08927
#
# Static dielectric constant tensor:
#      x y z
#    x 3.688260 0.000000 -0.120320 
#    y 0.000000 2.895720 0.000000 
#    z -0.120320 0.000000 3.704310 
# 
# 
# High freq. dielectric constant tensor:
#      x y z
#    x 1.751170 0.000000 -0.007990 
#    y 0.000000 1.677880 0.000000 
#    z -0.007990 0.000000 1.751300 
# 
# From -- ./inp_files/37904.got.cif
#   From: 2010.06.25/outbox.cif.g09.slc.cpg/sg10_19_cif.got.tgz:37904.got - 2010.06.27 22:07:45.
