data_PCOD8060746
_publ_section_title
;
Structure prediction by ZEFSAII (Michael W. Deem and Ramdas Pophale) SiO2 
 PCOD8060746
Probable space group: P 2/M
;
_chemical_formula_sum "Si O2"
_cell_formula_units_Z 28
_cell_length_a 11.957452
_cell_length_b 14.065768
_cell_length_c 10.220095
_cell_angle_alpha 90.000000
_cell_angle_beta 57.279254
_cell_angle_gamma 90.000000
_cell_volume 1446.157917
_symmetry_space_group_name_H-M "P 2/M"
_symmetry_group_IT_number 10
_symmetry_cell_setting 'monoclinic'
loop_
_space_group_symop_operation_xyz
x,y,z
-x,y,-z
-x,-y,-z
x,-y,z
loop_
_atom_site_type_symbol
_atom_site_label
_atom_site_fract_x
_atom_site_fract_y
_atom_site_fract_z
Si Si1 0.602290 0.105930 0.542384
Si Si2 0.457284 0.743305 0.211904
Si Si3 0.712271 0.235378 0.911486
Si Si4 0.064317 0.888023 0.325321
Si Si5 0.871975 0.105535 0.220027
Si Si6 0.592629 0.611290 0.318750
Si Si7 0.148119 0.289059 0.928114
O O1 0.500000 0.146105 0.500000
O O2 0.614737 0.181111 0.650183
O O3 0.742682 0.098683 0.387597
O O4 0.559089 0.000000 0.618756
O O5 0.354197 0.705387 0.166557
O O6 0.510488 0.648246 0.246656
O O7 0.586318 0.801004 0.075612
O O8 0.787458 0.149589 0.792115
O O9 0.809784 0.296683 0.944929
O O10 0.000000 0.845777 0.500000
O O11 0.983282 0.855346 0.248691
O O12 0.070669 0.000000 0.334589
O O13 0.857952 0.177227 0.107191
O O14 0.905424 0.000000 0.143247
O O15 0.500000 0.637582 0.500000
O O16 0.616075 0.500000 0.290305
O O17 0.740134 0.659231 0.232623
O O18 0.000000 0.334144 0.000000
#
# Coordination Sequence:
#
# PCOD8060746 Si02
#       7
#     4   4   4   4   4   4   4
#     4  10  19  32  52  79 111 150 193 235 280 329
#     4  10  20  36  57  80 115 142 188 233 284 342
#     4  10  21  35  51  80 109 148 187 232 282 335
#     4  10  20  33  49  73 109 154 199 234 271 327
#     4  10  20  33  52  79 113 156 195 228 273 333
#     4  10  22  41  66  91 113 145 186 233 291 352
#     4  11  21  37  60  86 119 150 194 237 286 332
#
# _framework density 19.361647000000001
#
# number of rings (size 3 to 8) (size 9 to 14) (size 15 to 20)
#    0.000    1.857    1.429    3.857    0.000    3.429 
#    0.000    7.143    0.000    0.000    0.000    2.000 
#    0.000    0.000    0.000    0.000    0.000    0.000 
#
# Total GULP energy -346964.961483 kJ/mol
# GULP energy per Si atom -12391.605767 kJ/mol
# Density = 1.931758 g / cm^3
# Si number density = 19.361647 Si / 1000 Ang^3
#
#
#
# Elastic Constant Matrix: (Units=GPa)
#
#
# Indices 1 2 3 4 5 6 
#
# 1 146.5450 37.6428 55.4057 0.0000 4.4183 0.0000
# 2 37.6428 60.9143 30.4014 0.0000 5.2116 0.0000
# 3 55.4057 30.4014 102.7313 0.0000 -0.9199 0.0000
# 4 0.0000 0.0000 0.0000 13.1038 0.0000 -3.2735
# 5 4.4183 5.2116 -0.9199 0.0000 31.2474 0.0000
# 6 0.0000 0.0000 0.0000 -3.2735 0.0000 17.9715
#
#
#
# Elastic Compliance Matrix: (Units=1/GPa)
#
#
# Indices 1 2 3 4 5 6 
#
# 1 0.009282 -0.003713 -0.003914 0.000000 -0.000808 0.000000
# 2 -0.003713 0.021111 -0.004273 0.000000 -0.003122 0.000000
# 3 -0.003914 -0.004273 0.013124 0.000000 0.001652 0.000000
# 4 0.000000 0.000000 0.000000 0.079952 0.000000 0.014563
# 5 -0.000808 -0.003122 0.001652 0.000000 0.032686 0.000000
# 6 0.000000 0.000000 0.000000 0.014563 0.000000 0.058296
#
#
# Mechanical properties :
#
#
# Convention : Reuss Voigt Hill
#
# Bulk Modulus (GPa) = 50.71854 61.89891 56.30873
# Shear Modulus (GPa) = 20.42282 24.91392 22.66837
#
# Velocity S-wave (km/s) = 3.25130 3.59104 3.42539
# Velocity P-wave (km/s) = 6.35192 7.01665 6.69254
#
# Compressibility (1/GPa) = 0.01971665
#
# Stress axis : x y z
#
# Youngs Moduli (GPa) = 107.73590 47.36969 76.19349
#
# Poissons Ratio (x) = 0.17589 0.29825
# Poissons Ratio (y) = 0.40004 0.32555
# Poissons Ratio (z) = 0.42172 0.20239
#
# Static dielectric constant tensor:
#      x y z
#    x 3.751840 0.000000 -0.063050 
#    y 0.000000 3.178660 0.000000 
#    z -0.063050 0.000000 3.733040 
# 
# 
# High freq. dielectric constant tensor:
#      x y z
#    x 1.770110 0.000000 -0.006260 
#    y 0.000000 1.703760 0.000000 
#    z -0.006260 0.000000 1.767530 
# 
# From -- ./inp_files/25165.got.cif
#   From: 2010.06.25/outbox.cif.g09.slc.cpg/sg10_13_cif.got.tgz:25165.got - 2010.06.27 22:07:45.
