data_PCOD8060816
_publ_section_title
;
Structure prediction by ZEFSAII (Michael W. Deem and Ramdas Pophale) SiO2 
 PCOD8060816
Probable space group: P 2/M
;
_chemical_formula_sum "Si O2"
_cell_formula_units_Z 28
_cell_length_a 19.701513
_cell_length_b 9.278226
_cell_length_c 16.929558
_cell_angle_alpha 90.000000
_cell_angle_beta 30.213639
_cell_angle_gamma 90.000000
_cell_volume 1557.302325
_symmetry_space_group_name_H-M "P 2/M"
_symmetry_group_IT_number 10
_symmetry_cell_setting 'monoclinic'
loop_
_space_group_symop_operation_xyz
x,y,z
-x,y,-z
-x,-y,-z
x,-y,z
loop_
_atom_site_type_symbol
_atom_site_label
_atom_site_fract_x
_atom_site_fract_y
_atom_site_fract_z
Si Si1 0.842163 0.169742 0.830168
Si Si2 0.482073 0.332393 0.606967
Si Si3 0.291330 0.166627 0.531964
Si Si4 0.791050 0.331972 0.031009
Si Si5 0.016989 0.834324 0.893397
Si Si6 0.149763 0.829239 0.348938
Si Si7 0.844547 0.829569 0.487541
O O1 0.781626 0.214214 0.803830
O O2 0.999169 0.216170 0.677425
O O3 0.824126 0.000000 0.863711
O O4 0.758371 0.257611 0.979689
O O5 0.500000 0.272383 0.500000
O O6 0.519096 0.500000 0.572865
O O7 0.579313 0.252166 0.569465
O O8 0.329726 0.301994 0.786886
O O9 0.244372 0.233857 0.494668
O O10 0.172239 0.186915 0.714787
O O11 0.332025 0.000000 0.483004
O O12 0.813863 0.500000 0.994034
O O13 0.926711 0.264423 0.928826
O O14 0.971592 0.000000 0.927439
O O15 0.000000 0.782990 0.000000
O O16 0.217452 0.778475 0.364304
O O17 0.000000 0.763791 0.500000
O O18 0.138965 0.000000 0.361888
O O19 0.838986 0.000000 0.485060
#
# Coordination Sequence:
#
# PCOD8060816 Si02
#       7
#     4   4   4   4   4   4   4
#     4   9  15  28  50  75 104 133 164 203 249 296
#     4  10  23  41  54  67  95 136 178 214 248 296
#     4  10  19  32  53  79 103 128 162 209 256 300
#     4  11  22  34  51  74 101 134 171 209 251 300
#     4  10  20  34  53  78 104 127 158 207 262 309
#     4   7  11  20  42  73 101 132 161 193 243 296
#     4   8  13  25  46  76 107 128 159 204 249 296
#
# _framework density 17.979810000000001
#
# number of rings (size 3 to 8) (size 9 to 14) (size 15 to 20)
#    0.000    2.714    1.429    3.000    0.000    2.286 
#    0.000    0.000    0.000    5.571    0.000    6.000 
#    0.000    0.000    0.000    0.000    0.000    0.000 
#
# Total GULP energy -346946.215090 kJ/mol
# GULP energy per Si atom -12390.936253 kJ/mol
# Density = 1.793889 g / cm^3
# Si number density = 17.979810 Si / 1000 Ang^3
#
#
#
# Elastic Constant Matrix: (Units=GPa)
#
#
# Indices 1 2 3 4 5 6 
#
# 1 105.0529 24.2586 21.1529 0.0000 25.1543 0.0000
# 2 24.2586 43.6946 25.1217 0.0000 6.2401 0.0000
# 3 21.1529 25.1217 43.5810 0.0000 16.4953 0.0000
# 4 0.0000 0.0000 0.0000 22.0755 0.0000 -2.4879
# 5 25.1543 6.2401 16.4953 0.0000 36.5300 0.0000
# 6 0.0000 0.0000 0.0000 -2.4879 0.0000 9.1932
#
#
#
# Elastic Compliance Matrix: (Units=1/GPa)
#
#
# Indices 1 2 3 4 5 6 
#
# 1 0.012760 -0.006153 0.000339 0.000000 -0.007889 0.000000
# 2 -0.006153 0.037616 -0.021552 0.000000 0.007543 0.000000
# 3 0.000339 -0.021552 0.040888 0.000000 -0.015015 0.000000
# 4 0.000000 0.000000 0.000000 0.046724 0.000000 0.012645
# 5 -0.007889 0.007543 -0.015015 0.000000 0.038298 0.000000
# 6 0.000000 0.000000 0.000000 0.012645 0.000000 0.112198
#
#
# Mechanical properties :
#
#
# Convention : Reuss Voigt Hill
#
# Bulk Modulus (GPa) = 27.37262 37.04387 32.20825
# Shear Modulus (GPa) = 14.06893 21.67943 17.87418
#
# Velocity S-wave (km/s) = 2.80033 3.47618 3.15640
# Velocity P-wave (km/s) = 5.07079 6.06296 5.58894
#
# Compressibility (1/GPa) = 0.03653286
#
# Stress axis : x y z
#
# Youngs Moduli (GPa) = 78.36710 26.58460 24.45730
#
# Poissons Ratio (x) = 0.16357 -0.00829
# Poissons Ratio (y) = 0.48217 0.52710
# Poissons Ratio (z) = -0.02657 0.57295
#
# Static dielectric constant tensor:
#      x y z
#    x 3.762050 0.000000 0.482590 
#    y 0.000000 2.979980 0.000000 
#    z 0.482590 0.000000 3.216330 
# 
# 
# High freq. dielectric constant tensor:
#      x y z
#    x 1.707660 0.000000 0.032050 
#    y 0.000000 1.657710 0.000000 
#    z 0.032050 0.000000 1.673620 
# 
# From -- ./inp_files/79253.got.cif
#   From: 2010.06.25/outbox.cif.g09.slc.cpg/sg10_40_cif.got.tgz:79253.got - 2010.06.27 22:07:45.
