data_PCOD8060540
_publ_section_title
;
Structure prediction by ZEFSAII (Michael W. Deem and Ramdas Pophale) SiO2 
 PCOD8060540
Probable space group: P 2/M
;
_chemical_formula_sum "Si O2"
_cell_formula_units_Z 32
_cell_length_a 21.585474
_cell_length_b 9.139881
_cell_length_c 12.125201
_cell_angle_alpha 90.000000
_cell_angle_beta 128.302478
_cell_angle_gamma 90.000000
_cell_volume 1877.250209
_symmetry_space_group_name_H-M "P 2/M"
_symmetry_group_IT_number 10
_symmetry_cell_setting 'monoclinic'
loop_
_space_group_symop_operation_xyz
x,y,z
-x,y,-z
-x,-y,-z
x,-y,z
loop_
_atom_site_type_symbol
_atom_site_label
_atom_site_fract_x
_atom_site_fract_y
_atom_site_fract_z
Si Si1 0.227704 0.174091 0.860757
Si Si2 0.601480 0.172789 0.016511
Si Si3 0.171750 0.669599 0.587140
Si Si4 0.042881 0.327272 0.273840
Si Si5 0.432160 0.827410 0.776547
Si Si6 0.133793 0.674372 0.945602
Si Si7 0.706228 0.330614 0.470984
Si Si8 0.160643 0.326135 0.223095
O O1 0.318425 0.229359 0.951512
O O2 0.178431 0.229518 0.701501
O O3 0.195523 0.246338 0.935547
O O4 0.220983 0.000000 0.860011
O O5 0.594781 0.233247 0.133569
O O6 0.603032 0.000000 0.028139
O O7 0.524046 0.219194 0.860186
O O8 0.170380 0.500000 0.621780
O O9 0.089712 0.713692 0.437020
O O10 0.243824 0.700816 0.584253
O O11 0.040390 0.500000 0.256922
O O12 0.088275 0.262359 0.216690
O O13 0.953780 0.267967 0.181459
O O14 0.376798 0.754338 0.623305
O O15 0.421755 0.000000 0.755671
O O16 0.141527 0.500000 0.941720
O O17 0.153709 0.728830 0.090785
O O18 0.686443 0.500000 0.460705
O O19 0.756266 0.274684 0.631848
O O20 0.156418 0.500000 0.224237
#
# Coordination Sequence:
#
# PCOD8060540 Si02
#       8
#     4   4   4   4   4   4   4   4
#     4  11  21  33  47  65  96 130 156 186 230 280
#     4   8  16  29  46  66  91 123 156 189 222 270
#     4   9  17  30  47  69  96 123 152 188 231 276
#     4   8  15  29  51  74  92 115 155 202 234 264
#     4   9  15  28  49  70  90 118 157 189 225 275
#     4  10  19  32  51  71  90 122 164 196 226 269
#     4   9  16  27  46  74 101 118 141 190 243 277
#     4   8  15  29  50  73  95 119 152 195 237 272
#
# _framework density 17.046209000000001
#
# number of rings (size 3 to 8) (size 9 to 14) (size 15 to 20)
#    0.000    3.000    1.250    3.000    0.000    2.000 
#    0.000    6.250    0.000    3.750    0.000    5.250 
#    0.000    0.000    0.000    0.000    0.000    0.000 
#
# Total GULP energy -396613.880926 kJ/mol
# GULP energy per Si atom -12394.183779 kJ/mol
# Density = 1.700741 g / cm^3
# Si number density = 17.046209 Si / 1000 Ang^3
#
#
#
# Elastic Constant Matrix: (Units=GPa)
#
#
# Indices 1 2 3 4 5 6 
#
# 1 113.9113 30.9337 73.7281 0.0000 11.1123 0.0000
# 2 30.9337 34.1001 29.9828 0.0000 2.4028 0.0000
# 3 73.7281 29.9828 111.7323 0.0000 21.8895 0.0000
# 4 0.0000 0.0000 0.0000 7.0291 0.0000 7.5250
# 5 11.1123 2.4028 21.8895 0.0000 26.6050 0.0000
# 6 0.0000 0.0000 0.0000 7.5250 0.0000 19.7798
#
#
#
# Elastic Compliance Matrix: (Units=1/GPa)
#
#
# Indices 1 2 3 4 5 6 
#
# 1 0.016574 -0.006906 -0.009358 0.000000 0.001400 0.000000
# 2 -0.006906 0.042071 -0.007813 0.000000 0.005513 0.000000
# 3 -0.009358 -0.007813 0.019453 0.000000 -0.011391 0.000000
# 4 0.000000 0.000000 0.000000 0.240020 0.000000 -0.091314
# 5 0.001400 0.005513 -0.011391 0.000000 0.045876 0.000000
# 6 0.000000 0.000000 0.000000 -0.091314 0.000000 0.085296
#
#
# Mechanical properties :
#
#
# Convention : Reuss Voigt Hill
#
# Bulk Modulus (GPa) = 33.39415 58.78143 46.08779
# Shear Modulus (GPa) = 9.85366 19.02274 14.43820
#
# Velocity S-wave (km/s) = 2.40689 3.34421 2.91349
# Velocity P-wave (km/s) = 5.23040 7.03350 6.19787
#
# Compressibility (1/GPa) = 0.02994536
#
# Stress axis : x y z
#
# Youngs Moduli (GPa) = 60.33390 23.76944 51.40585
#
# Poissons Ratio (x) = 0.16415 0.48106
# Poissons Ratio (y) = 0.41666 0.40161
# Poissons Ratio (z) = 0.56461 0.18570
#
# Static dielectric constant tensor:
#      x y z
#    x 3.233790 0.000000 0.231980 
#    y 0.000000 2.778030 0.000000 
#    z 0.231980 0.000000 3.413510 
# 
# 
# High freq. dielectric constant tensor:
#      x y z
#    x 1.639660 0.000000 0.017220 
#    y 0.000000 1.618160 0.000000 
#    z 0.017220 0.000000 1.664420 
# 
# From -- ./inp_files/54828.got.cif
#   From: 2010.06.25/outbox.cif.g09.slc.cpg/sg10_28_cif.got.tgz:54828.got - 2010.06.27 22:07:45.
