data_PCOD8060763
_publ_section_title
;
Structure prediction by ZEFSAII (Michael W. Deem and Ramdas Pophale) SiO2 
 PCOD8060763
Probable space group: P 2/M
;
_chemical_formula_sum "Si O2"
_cell_formula_units_Z 28
_cell_length_a 14.696202
_cell_length_b 9.145138
_cell_length_c 13.475482
_cell_angle_alpha 90.000000
_cell_angle_beta 51.612865
_cell_angle_gamma 90.000000
_cell_volume 1419.590803
_symmetry_space_group_name_H-M "P 2/M"
_symmetry_group_IT_number 10
_symmetry_cell_setting 'monoclinic'
loop_
_space_group_symop_operation_xyz
x,y,z
-x,y,-z
-x,-y,-z
x,-y,z
loop_
_atom_site_type_symbol
_atom_site_label
_atom_site_fract_x
_atom_site_fract_y
_atom_site_fract_z
Si Si1 0.644382 0.168583 0.170632
Si Si2 0.627139 0.837325 0.957169
Si Si3 0.875165 0.830028 0.129072
Si Si4 0.291251 0.664205 0.274605
Si Si5 0.811178 0.673817 0.373313
Si Si6 0.097987 0.829031 0.508941
Si Si7 0.569822 0.662961 0.631941
O O1 0.775485 0.202063 0.115844
O O2 0.548320 0.246550 0.305675
O O3 0.613599 0.000000 0.200496
O O4 0.632090 0.221219 0.065785
O O5 0.690619 0.713289 0.850380
O O6 0.685669 0.000000 0.911004
O O7 0.500000 0.851719 0.000000
O O8 0.844013 0.730906 0.243479
O O9 0.876652 0.000000 0.159701
O O10 0.000000 0.783815 0.000000
O O11 0.236515 0.500000 0.312369
O O12 0.215587 0.790424 0.374352
O O13 0.405883 0.663171 0.265759
O O14 0.821004 0.500000 0.371593
O O15 0.906344 0.741429 0.384407
O O16 0.680803 0.724310 0.494351
O O17 0.000000 0.774467 0.500000
O O18 0.088903 0.000000 0.538494
O O19 0.544155 0.500000 0.611360
#
# Coordination Sequence:
#
# PCOD8060763 Si02
#       7
#     4   4   4   4   4   4   4
#     4  10  21  36  57  84 113 152 200 245 292 347
#     4  10  19  32  52  81 116 152 191 238 287 343
#     4  10  23  43  62  82 113 153 199 248 291 340
#     4  10  20  33  52  81 118 156 189 232 289 347
#     4  10  22  40  62  88 118 152 189 237 297 350
#     4  10  21  37  59  86 115 151 194 237 284 340
#     4   9  19  35  55  83 117 148 182 232 294 355
#
# _framework density 19.723994000000001
#
# number of rings (size 3 to 8) (size 9 to 14) (size 15 to 20)
#    0.000    2.143    1.429    2.143    0.000    7.429 
#    0.000    5.714    0.000    0.000    0.000    0.000 
#    0.000    0.000    0.000    0.000    0.000    0.000 
#
# Total GULP energy -347032.026545 kJ/mol
# GULP energy per Si atom -12394.000948 kJ/mol
# Density = 1.967910 g / cm^3
# Si number density = 19.723994 Si / 1000 Ang^3
#
#
#
# Elastic Constant Matrix: (Units=GPa)
#
#
# Indices 1 2 3 4 5 6 
#
# 1 106.8273 37.7708 49.5687 0.0000 0.2329 0.0000
# 2 37.7708 66.5584 46.0906 0.0000 1.1234 0.0000
# 3 49.5687 46.0906 116.3014 0.0000 6.6597 0.0000
# 4 0.0000 0.0000 0.0000 31.3861 0.0000 1.7916
# 5 0.2329 1.1234 6.6597 0.0000 25.4696 0.0000
# 6 0.0000 0.0000 0.0000 1.7916 0.0000 -47.4199
#
#
#
# Elastic Compliance Matrix: (Units=1/GPa)
#
#
# Indices 1 2 3 4 5 6 
#
# 1 0.012701 -0.004735 -0.003596 0.000000 0.001033 0.000000
# 2 -0.004735 0.022512 -0.006953 0.000000 0.000868 0.000000
# 3 -0.003596 -0.006953 0.013063 0.000000 -0.003076 0.000000
# 4 0.000000 0.000000 0.000000 0.031793 0.000000 0.001201
# 5 0.001033 0.000868 -0.003076 0.000000 0.040019 0.000000
# 6 0.000000 0.000000 0.000000 0.001201 0.000000 -0.021043
#
#
# Mechanical properties :
#
#
# Convention : Reuss Voigt Hill
#
# Bulk Modulus (GPa) = 56.47358 61.83858 59.15608
# Shear Modulus (GPa) = 36.89615 12.30430 24.60023
#
# Velocity S-wave (km/s) = 4.32976 2.50036 3.53544
# Velocity P-wave (km/s) = 7.32734 6.30521 6.83541
#
# Compressibility (1/GPa) = 0.01770739
#
# Stress axis : x y z
#
# Youngs Moduli (GPa) = 78.73124 44.42144 76.55397
#
# Poissons Ratio (x) = 0.21034 0.27530
# Poissons Ratio (y) = 0.37280 0.53228
# Poissons Ratio (z) = 0.28313 0.30886
#
# Static dielectric constant tensor:
#      x y z
#    x 3.709400 0.000000 0.249140 
#    y 0.000000 3.580520 0.000000 
#    z 0.249140 0.000000 3.811740 
# 
# 
# High freq. dielectric constant tensor:
#      x y z
#    x 1.760080 0.000000 0.007460 
#    y 0.000000 1.768250 0.000000 
#    z 0.007460 0.000000 1.760810 
# 
# From -- ./inp_files/49631.got.cif
#   From: 2010.06.25/outbox.cif.g09.slc.cpg/sg10_25_cif.got.tgz:49631.got - 2010.06.27 22:07:45.
