data_PCOD8060189
_publ_section_title
;
Structure prediction by ZEFSAII (Michael W. Deem and Ramdas Pophale) SiO2 
 PCOD8060189
Probable space group: P 2/M
;
_chemical_formula_sum "Si O2"
_cell_formula_units_Z 32
_cell_length_a 19.615484
_cell_length_b 8.725500
_cell_length_c 12.539677
_cell_angle_alpha 90.000000
_cell_angle_beta 49.802802
_cell_angle_gamma 90.000000
_cell_volume 1639.347583
_symmetry_space_group_name_H-M "P 2/M"
_symmetry_group_IT_number 10
_symmetry_cell_setting 'monoclinic'
loop_
_space_group_symop_operation_xyz
x,y,z
-x,y,-z
-x,-y,-z
x,-y,z
loop_
_atom_site_type_symbol
_atom_site_label
_atom_site_fract_x
_atom_site_fract_y
_atom_site_fract_z
Si Si1 0.985186 0.183025 0.894173
Si Si2 0.161313 0.825615 0.621961
Si Si3 0.687784 0.318682 0.919968
Si Si4 0.208594 0.817101 0.986375
Si Si5 0.492959 0.678323 0.187855
Si Si6 0.279533 0.825024 0.695897
Si Si7 0.694746 0.182164 0.689870
Si Si8 0.456216 0.172779 0.430703
O O1 0.892591 0.236694 0.934363
O O2 0.061598 0.244955 0.733412
O O3 0.990035 0.000000 0.895272
O O4 0.000000 0.247948 0.000000
O O5 0.191146 0.813104 0.715196
O O6 0.231755 0.748256 0.468321
O O7 0.155054 0.000000 0.590248
O O8 0.696309 0.500000 0.905805
O O9 0.751119 0.259409 0.949895
O O10 0.724070 0.243564 0.775311
O O11 0.583758 0.269970 0.037200
O O12 0.214094 0.000000 0.991240
O O13 0.264992 0.754699 0.827758
O O14 0.476155 0.500000 0.187493
O O15 0.405742 0.765671 0.234722
O O16 0.509077 0.719536 0.295507
O O17 0.359011 0.749855 0.546795
O O18 0.309477 0.000000 0.683625
O O19 0.695401 0.000000 0.686891
O O20 0.500000 0.172500 0.500000
O O21 0.451110 0.000000 0.387938
#
# Coordination Sequence:
#
# PCOD8060189 Si02
#       8
#     4   4   4   4   4   4   4   4
#     4   9  15  27  53  89 121 144 172 220 280 334
#     4   9  16  29  52  85 118 140 169 224 283 324
#     4  11  25  42  56  75 112 153 188 233 286 330
#     4  10  19  33  59  89 113 145 189 229 273 332
#     4  11  23  38  56  79 110 148 188 231 282 337
#     4   9  15  27  49  80 115 143 173 221 275 322
#     4  11  22  38  62  85 109 144 191 237 275 325
#     4  10  19  31  50  78 113 150 186 228 274 321
#
# _framework density 19.519960000000001
#
# number of rings (size 3 to 8) (size 9 to 14) (size 15 to 20)
#    0.000    2.000    2.500    2.250    0.000    4.750 
#    0.000    1.250    0.000    5.625    0.000    0.000 
#    0.000    0.000    0.000    0.000    0.000    0.000 
#
# Total GULP energy -396491.424149 kJ/mol
# GULP energy per Si atom -12390.357005 kJ/mol
# Density = 1.947553 g / cm^3
# Si number density = 19.519960 Si / 1000 Ang^3
#
#
#
# Elastic Constant Matrix: (Units=GPa)
#
#
# Indices 1 2 3 4 5 6 
#
# 1 86.1508 30.0104 63.9293 0.0000 1.5899 0.0000
# 2 30.0104 36.4286 30.4570 0.0000 -1.1527 0.0000
# 3 63.9293 30.4570 138.9064 0.0000 3.5764 0.0000
# 4 0.0000 0.0000 0.0000 7.0328 0.0000 -4.0912
# 5 1.5899 -1.1527 3.5764 0.0000 34.6740 0.0000
# 6 0.0000 0.0000 0.0000 -4.0912 0.0000 8.9570
#
#
#
# Elastic Compliance Matrix: (Units=1/GPa)
#
#
# Indices 1 2 3 4 5 6 
#
# 1 0.020789 -0.011214 -0.007094 0.000000 -0.000594 0.000000
# 2 -0.011214 0.039785 -0.003619 0.000000 0.002210 0.000000
# 3 -0.007094 -0.003619 0.011282 0.000000 -0.000959 0.000000
# 4 0.000000 0.000000 0.000000 0.193642 0.000000 0.088447
# 5 -0.000594 0.002210 -0.000959 0.000000 0.029040 0.000000
# 6 0.000000 0.000000 0.000000 0.088447 0.000000 0.152043
#
#
# Mechanical properties :
#
#
# Convention : Reuss Voigt Hill
#
# Bulk Modulus (GPa) = 35.71145 56.69768 46.20456
# Shear Modulus (GPa) = 10.00463 19.27205 14.63834
#
# Velocity S-wave (km/s) = 2.26638 3.14554 2.74143
# Velocity P-wave (km/s) = 5.01828 6.50397 5.80882
#
# Compressibility (1/GPa) = 0.02800222
#
# Stress axis : x y z
#
# Youngs Moduli (GPa) = 48.10276 25.13495 88.63676
#
# Poissons Ratio (x) = 0.28187 0.62875
# Poissons Ratio (y) = 0.53944 0.32079
# Poissons Ratio (z) = 0.34122 0.09097
#
# Static dielectric constant tensor:
#      x y z
#    x 3.718720 0.000000 -0.249120 
#    y 0.000000 3.173430 0.000000 
#    z -0.249120 0.000000 4.070690 
# 
# 
# High freq. dielectric constant tensor:
#      x y z
#    x 1.759260 0.000000 -0.005370 
#    y 0.000000 1.708190 0.000000 
#    z -0.005370 0.000000 1.776160 
# 
# From -- ./inp_files/55273.got.cif
#   From: 2010.06.25/outbox.cif.g09.slc.cpg/sg10_28_cif.got.tgz:55273.got - 2010.06.27 22:07:45.
