data_PCOD8060960
_publ_section_title
;
Structure prediction by ZEFSAII (Michael W. Deem and Ramdas Pophale) SiO2 
 PCOD8060960
Probable space group: P 2/M
;
_chemical_formula_sum "Si O2"
_cell_formula_units_Z 32
_cell_length_a 14.915144
_cell_length_b 9.314998
_cell_length_c 23.558629
_cell_angle_alpha 90.000000
_cell_angle_beta 29.983802
_cell_angle_gamma 90.000000
_cell_volume 1635.752172
_symmetry_space_group_name_H-M "P 2/M"
_symmetry_group_IT_number 10
_symmetry_cell_setting 'monoclinic'
loop_
_space_group_symop_operation_xyz
x,y,z
-x,y,-z
-x,-y,-z
x,-y,z
loop_
_atom_site_type_symbol
_atom_site_label
_atom_site_fract_x
_atom_site_fract_y
_atom_site_fract_z
Si Si1 0.224465 0.330657 0.998777
Si Si2 0.793393 0.169634 0.389422
Si Si3 0.467773 0.167301 0.783890
Si Si4 0.520889 0.663527 0.922986
Si Si5 0.825503 0.670900 0.254750
Si Si6 0.533606 0.833502 0.348133
Si Si7 0.136774 0.156155 0.267348
Si Si8 0.156893 0.840817 0.381082
O O1 0.233212 0.500000 0.983117
O O2 0.294140 0.251982 0.903545
O O3 0.348026 0.279579 0.983882
O O4 0.024517 0.283586 0.125830
O O5 0.766672 0.256948 0.346340
O O6 0.640318 0.207242 0.519053
O O7 0.983500 0.221483 0.311245
O O8 0.793696 0.000000 0.376197
O O9 0.498473 0.198430 0.700545
O O10 0.644005 0.228189 0.721089
O O11 0.431767 0.000000 0.815574
O O12 0.552485 0.500000 0.890159
O O13 0.698699 0.743387 0.809495
O O14 0.500000 0.692511 0.000000
O O15 0.807472 0.500000 0.270883
O O16 0.694791 0.730664 0.278349
O O17 0.585099 0.000000 0.329670
O O18 0.066263 0.140906 0.369501
O O19 0.196224 0.000000 0.210712
O O20 0.000000 0.753819 0.500000
O O21 0.182135 0.000000 0.394736
#
# Coordination Sequence:
#
# PCOD8060960 Si02
#       8
#     4   4   4   4   4   4   4   4
#     4  10  22  39  57  80 116 156 195 242 292 340
#     4  10  21  38  60  88 121 151 185 237 297 351
#     4  10  20  36  60  87 116 152 194 237 285 347
#     4  10  20  35  54  76 109 152 189 226 277 333
#     4  11  24  41  61  84 111 152 201 245 293 346
#     4  10  22  40  61  87 117 150 189 240 301 351
#     4  10  19  32  54  85 113 142 182 223 269 327
#     4   9  16  29  52  82 114 145 179 221 269 327
#
# _framework density 19.562864999999999
#
# number of rings (size 3 to 8) (size 9 to 14) (size 15 to 20)
#    0.000    2.000    1.250    2.250    0.000    8.750 
#    0.000    2.500    0.000    3.000    0.000    0.000 
#    0.000    0.000    0.000    0.000    0.000    0.000 
#
# Total GULP energy -396571.317175 kJ/mol
# GULP energy per Si atom -12392.853662 kJ/mol
# Density = 1.951834 g / cm^3
# Si number density = 19.562865 Si / 1000 Ang^3
#
#
#
# Elastic Constant Matrix: (Units=GPa)
#
#
# Indices 1 2 3 4 5 6 
#
# 1 98.0471 23.8345 26.3212 0.0000 -0.8830 0.0000
# 2 23.8345 49.8580 34.5964 0.0000 -5.2441 0.0000
# 3 26.3212 34.5964 103.5784 0.0000 2.4480 0.0000
# 4 0.0000 0.0000 0.0000 -2.8240 0.0000 4.9913
# 5 -0.8830 -5.2441 2.4480 0.0000 41.7330 0.0000
# 6 0.0000 0.0000 0.0000 4.9913 0.0000 25.1283
#
#
#
# Elastic Compliance Matrix: (Units=1/GPa)
#
#
# Indices 1 2 3 4 5 6 
#
# 1 0.011705 -0.004637 -0.001420 0.000000 -0.000252 0.000000
# 2 -0.004637 0.028560 -0.008455 0.000000 0.003987 0.000000
# 3 -0.001420 -0.008455 0.012883 0.000000 -0.001848 0.000000
# 4 0.000000 0.000000 0.000000 -0.262095 0.000000 0.052061
# 5 -0.000252 0.003987 -0.001848 0.000000 0.024566 0.000000
# 6 0.000000 0.000000 0.000000 0.052061 0.000000 0.029455
#
#
# Mechanical properties :
#
#
# Convention : Reuss Voigt Hill
#
# Bulk Modulus (GPa) = 41.45171 46.77641 44.11406
# Shear Modulus (GPa) = -42.42328 23.92289 -9.25020
#
# Velocity S-wave (km/s) = -4.66183 3.50075 -2.17686
# Velocity P-wave (km/s) = 2.78244 6.34847 4.03492
#
# Compressibility (1/GPa) = 0.02412446
#
# Stress axis : x y z
#
# Youngs Moduli (GPa) = 85.43159 35.01385 77.62073
#
# Poissons Ratio (x) = 0.16236 0.11020
# Poissons Ratio (y) = 0.39615 0.65631
# Poissons Ratio (z) = 0.12129 0.29605
#
# Static dielectric constant tensor:
#      x y z
#    x 3.538380 0.000000 -0.127620 
#    y 0.000000 3.359190 0.000000 
#    z -0.127620 0.000000 3.558710 
# 
# 
# High freq. dielectric constant tensor:
#      x y z
#    x 1.772370 0.000000 0.000820 
#    y 0.000000 1.736740 0.000000 
#    z 0.000820 0.000000 1.769680 
# 
# From -- ./inp_files/71626.got.cif
#   From: 2010.06.25/outbox.cif.g09.slc.cpg/sg10_36_cif.got.tgz:71626.got - 2010.06.27 22:07:45.
