data_PCOD8060408
_publ_section_title
;
Structure prediction by ZEFSAII (Michael W. Deem and Ramdas Pophale) SiO2 
 PCOD8060408
Probable space group: P 2/M
;
_chemical_formula_sum "Si O2"
_cell_formula_units_Z 22
_cell_length_a 5.100603
_cell_length_b 12.435560
_cell_length_c 19.306413
_cell_angle_alpha 90.000000
_cell_angle_beta 65.240646
_cell_angle_gamma 90.000000
_cell_volume 1112.013580
_symmetry_space_group_name_H-M "P 2/M"
_symmetry_group_IT_number 10
_symmetry_cell_setting 'monoclinic'
loop_
_space_group_symop_operation_xyz
x,y,z
-x,y,-z
-x,-y,-z
x,-y,z
loop_
_atom_site_type_symbol
_atom_site_label
_atom_site_fract_x
_atom_site_fract_y
_atom_site_fract_z
Si Si1 0.942324 0.752287 0.716358
Si Si2 0.666907 0.375018 0.863833
Si Si3 0.830834 0.000000 0.448934
Si Si4 0.083748 0.744329 0.915211
Si Si5 0.357193 0.873681 0.768642
Si Si6 0.833616 0.764912 0.447347
O O1 0.838998 0.652613 0.774452
O O2 0.688343 0.839247 0.737367
O O3 0.216976 0.810512 0.720170
O O4 0.042073 0.697987 0.631545
O O5 0.695689 0.500000 0.876438
O O6 0.332262 0.345485 0.892363
O O7 0.801671 0.309302 0.912721
O O8 0.500000 0.000000 0.500000
O O9 0.898394 0.885012 0.406928
O O10 0.000000 0.000000 0.500000
O O11 0.189300 0.845800 0.858315
O O12 0.000000 0.788538 0.000000
O O13 0.339737 0.000000 0.756388
O O14 0.500000 0.742190 0.500000
O O15 0.000000 0.741099 0.500000
#
# Coordination Sequence:
#
# PCOD8060408 Si02
#       6
#     4   4   2   4   4   4
#     4  10  21  36  53  76 105 140 180 218 256 316
#     4  10  21  37  57  80 106 137 173 217 270 313
#     4   8  16  26  38  62  90 118 155 190 243 292
#     4  10  21  36  55  83 110 134 174 216 257 315
#     4  10  21  35  53  76 106 146 179 208 253 307
#     4  10  19  32  48  71 101 135 169 216 262 300
#
# _framework density 19.783930000000002
#
# number of rings (size 3 to 8) (size 9 to 14) (size 15 to 20)
#    0.000    2.182    0.000    2.727    2.545    2.545 
#    3.273    0.000    0.000    7.636    0.000    0.000 
#    0.000    0.000    0.000    0.000    0.000    0.000 
#
# Total GULP energy -272670.161577 kJ/mol
# GULP energy per Si atom -12394.098254 kJ/mol
# Density = 1.973890 g / cm^3
# Si number density = 19.783930 Si / 1000 Ang^3
#
#
#
# Elastic Constant Matrix: (Units=GPa)
#
#
# Indices 1 2 3 4 5 6 
#
# 1 93.9138 -3.0955 12.4659 0.0000 14.7900 0.0000
# 2 -3.0955 24.6195 -4.6006 0.0000 -1.6381 0.0000
# 3 12.4659 -4.6006 133.0389 0.0000 17.9655 0.0000
# 4 0.0000 0.0000 0.0000 10.1220 0.0000 1.0812
# 5 14.7900 -1.6381 17.9655 0.0000 22.1602 0.0000
# 6 0.0000 0.0000 0.0000 1.0812 0.0000 16.2524
#
#
#
# Elastic Compliance Matrix: (Units=1/GPa)
#
#
# Indices 1 2 3 4 5 6 
#
# 1 0.011922 0.000972 -0.000021 0.000000 -0.007868 0.000000
# 2 0.000972 0.041049 0.001130 0.000000 0.001470 0.000000
# 3 -0.000021 0.001130 0.008472 0.000000 -0.006771 0.000000
# 4 0.000000 0.000000 0.000000 0.099502 0.000000 -0.006620
# 5 -0.007868 0.001470 -0.006771 0.000000 0.055975 0.000000
# 6 0.000000 0.000000 0.000000 -0.006620 0.000000 0.061970
#
#
# Mechanical properties :
#
#
# Convention : Reuss Voigt Hill
#
# Bulk Modulus (GPa) = 15.24292 29.01242 22.12767
# Shear Modulus (GPa) = 16.85789 26.16041 21.50915
#
# Velocity S-wave (km/s) = 2.92224 3.64030 3.30085
# Velocity P-wave (km/s) = 4.37120 5.68907 5.07311
#
# Compressibility (1/GPa) = 0.06560423
#
# Stress axis : x y z
#
# Youngs Moduli (GPa) = 83.87873 24.36098 118.03652
#
# Poissons Ratio (x) = -0.02367 0.00248
# Poissons Ratio (y) = -0.08149 -0.13338
# Poissons Ratio (z) = 0.00176 -0.02753
#
# Static dielectric constant tensor:
#      x y z
#    x 3.830650 0.000000 0.056810 
#    y 0.000000 3.361440 0.000000 
#    z 0.056810 0.000000 3.716010 
# 
# 
# High freq. dielectric constant tensor:
#      x y z
#    x 1.795960 0.000000 0.003870 
#    y 0.000000 1.724790 0.000000 
#    z 0.003870 0.000000 1.781270 
# 
# From -- ./inp_files/73159.got.cif
#   From: 2010.06.25/outbox.cif.g09.slc.cpg/sg10_37_cif.got.tgz:73159.got - 2010.06.27 22:07:45.
