data_PCOD8060146
_publ_section_title
;
Structure prediction by ZEFSAII (Michael W. Deem and Ramdas Pophale) SiO2 
 PCOD8060146
Probable space group: P 2/M
;
_chemical_formula_sum "Si O2"
_cell_formula_units_Z 30
_cell_length_a 17.082119
_cell_length_b 9.180397
_cell_length_c 10.372088
_cell_angle_alpha 90.000000
_cell_angle_beta 69.799025
_cell_angle_gamma 90.000000
_cell_volume 1526.503229
_symmetry_space_group_name_H-M "P 2/M"
_symmetry_group_IT_number 10
_symmetry_cell_setting 'monoclinic'
loop_
_space_group_symop_operation_xyz
x,y,z
-x,y,-z
-x,-y,-z
x,-y,z
loop_
_atom_site_type_symbol
_atom_site_label
_atom_site_fract_x
_atom_site_fract_y
_atom_site_fract_z
Si Si1 0.995020 0.160195 0.349951
Si Si2 0.666372 0.343506 0.513716
Si Si3 0.844944 0.326784 0.755950
Si Si4 0.448511 0.158944 0.804059
Si Si5 0.184914 0.829151 0.497101
Si Si6 0.410267 0.663115 0.165211
Si Si7 0.297637 0.832583 0.038870
Si Si8 0.500000 0.763245 0.500000
O O1 0.061054 0.278008 0.259525
O O2 0.000000 0.152556 0.500000
O O3 0.899368 0.204203 0.372648
O O4 0.016255 0.000000 0.280343
O O5 0.706213 0.500000 0.455966
O O6 0.737760 0.220457 0.456556
O O7 0.640679 0.341348 0.675520
O O8 0.584360 0.328322 0.472222
O O9 0.840175 0.500000 0.749552
O O10 0.815709 0.258121 0.637323
O O11 0.783995 0.269367 0.904226
O O12 0.495384 0.283992 0.859203
O O13 0.480189 0.145098 0.639029
O O14 0.467016 0.000000 0.854878
O O15 0.347858 0.187509 0.874091
O O16 0.192208 0.000000 0.460984
O O17 0.413103 0.500000 0.102696
O O18 0.365349 0.782980 0.104979
O O19 0.270868 0.000000 0.077566
#
# Coordination Sequence:
#
# PCOD8060146 Si02
#       8
#     4   4   4   4   4   4   4   2
#     4   8  16  30  46  69 103 140 173 205 249 304
#     4  10  20  34  53  76 104 138 177 217 261 307
#     4  11  20  30  47  74 107 140 173 209 255 307
#     4  10  22  37  54  74  96 132 175 218 263 311
#     4  10  19  31  50  75 104 140 176 211 255 304
#     4  10  20  33  50  74 103 134 168 211 261 310
#     4  11  21  33  50  73 103 136 173 211 257 313
#     4  10  22  40  58  74 102 132 176 228 268 306
#
# _framework density 19.652759
#
# number of rings (size 3 to 8) (size 9 to 14) (size 15 to 20)
#    0.000    2.000    1.333    4.000    0.000    8.800 
#    0.000    0.000    0.000    0.000    0.000    0.933 
#    0.000    6.400    0.000    0.000    0.000    0.000 
#
# Total GULP energy -371680.364482 kJ/mol
# GULP energy per Si atom -12389.345483 kJ/mol
# Density = 1.960803 g / cm^3
# Si number density = 19.652759 Si / 1000 Ang^3
#
#
#
# Elastic Constant Matrix: (Units=GPa)
#
#
# Indices 1 2 3 4 5 6 
#
# 1 110.3909 49.9627 24.7107 0.0000 -35.6200 0.0000
# 2 49.9627 141.3244 28.9278 0.0000 -28.3385 0.0000
# 3 24.7107 28.9278 44.2395 0.0000 -27.6217 0.0000
# 4 0.0000 0.0000 0.0000 16.4392 0.0000 -10.0022
# 5 -35.6200 -28.3385 -27.6217 0.0000 33.1981 0.0000
# 6 0.0000 0.0000 0.0000 -10.0022 0.0000 12.3571
#
#
#
# Elastic Compliance Matrix: (Units=1/GPa)
#
#
# Indices 1 2 3 4 5 6 
#
# 1 0.014860 -0.002669 0.004115 0.000000 0.017089 0.000000
# 2 -0.002669 0.009116 -0.002912 0.000000 0.002495 0.000000
# 3 0.004115 -0.002912 0.048729 0.000000 0.042473 0.000000
# 4 0.000000 0.000000 0.000000 0.119859 0.000000 0.097017
# 5 0.017089 0.002495 0.042473 0.000000 0.085926 0.000000
# 6 0.000000 0.000000 0.000000 0.097017 0.000000 0.159453
#
#
# Mechanical properties :
#
#
# Convention : Reuss Voigt Hill
#
# Bulk Modulus (GPa) = 14.33244 55.90635 35.11939
# Shear Modulus (GPa) = 10.77278 25.22245 17.99762
#
# Velocity S-wave (km/s) = 2.34381 3.58635 3.02947
# Velocity P-wave (km/s) = 3.82535 6.75707 5.49051
#
# Compressibility (1/GPa) = 0.06977180
#
# Stress axis : x y z
#
# Youngs Moduli (GPa) = 67.29569 109.69916 20.52177
#
# Poissons Ratio (x) = 0.29278 -0.08445
# Poissons Ratio (y) = 0.17961 0.05977
# Poissons Ratio (z) = -0.27693 0.31949
#
# Static dielectric constant tensor:
#      x y z
#    x 3.754760 0.000000 -0.509890 
#    y 0.000000 3.696620 0.000000 
#    z -0.509890 0.000000 3.625580 
# 
# 
# High freq. dielectric constant tensor:
#      x y z
#    x 1.744350 0.000000 -0.043140 
#    y 0.000000 1.774460 0.000000 
#    z -0.043140 0.000000 1.735320 
# 
# From -- ./inp_files/53054.got.cif
#   From: 2010.06.25/outbox.cif.g09.slc.cpg/sg10_27_cif.got.tgz:53054.got - 2010.06.27 22:07:45.
