data_PCOD8060585
_publ_section_title
;
Structure prediction by ZEFSAII (Michael W. Deem and Ramdas Pophale) SiO2 
 PCOD8060585
Probable space group: P 2/M
;
_chemical_formula_sum "Si O2"
_cell_formula_units_Z 32
_cell_length_a 26.409955
_cell_length_b 9.329939
_cell_length_c 20.863306
_cell_angle_alpha 90.000000
_cell_angle_beta 158.908649
_cell_angle_gamma 90.000000
_cell_volume 1849.942829
_symmetry_space_group_name_H-M "P 2/M"
_symmetry_group_IT_number 10
_symmetry_cell_setting 'monoclinic'
loop_
_space_group_symop_operation_xyz
x,y,z
-x,y,-z
-x,-y,-z
x,-y,z
loop_
_atom_site_type_symbol
_atom_site_label
_atom_site_fract_x
_atom_site_fract_y
_atom_site_fract_z
Si Si1 0.246077 0.169311 0.416076
Si Si2 0.704547 0.830405 0.788751
Si Si3 0.879544 0.335771 0.549099
Si Si4 0.113207 0.332885 0.584701
Si Si5 0.402832 0.168342 0.475919
Si Si6 0.017665 0.330100 0.842692
Si Si7 0.395919 0.835652 0.933974
Si Si8 0.630767 0.163086 0.305062
O O1 0.323340 0.231399 0.444134
O O2 0.352603 0.203044 0.600475
O O3 0.100918 0.255553 0.253357
O O4 0.211444 0.000000 0.369697
O O5 0.685534 0.791818 0.691514
O O6 0.564345 0.778433 0.660995
O O7 0.732693 0.000000 0.831261
O O8 0.832353 0.737526 0.965497
O O9 0.837409 0.500000 0.506704
O O10 0.943073 0.302781 0.553955
O O11 0.734777 0.251778 0.383489
O O12 0.988901 0.293274 0.734030
O O13 0.134312 0.500000 0.622163
O O14 0.260832 0.261829 0.773388
O O15 0.000000 0.267395 0.500000
O O16 0.411141 0.000000 0.493048
O O17 0.018689 0.500000 0.857442
O O18 0.349633 0.000000 0.870808
O O19 0.500000 0.789764 0.000000
O O20 0.472531 0.810489 0.093234
O O21 0.675534 0.000000 0.346765
#
# Coordination Sequence:
#
# PCOD8060585 Si02
#       8
#     4   4   4   4   4   4   4   4
#     4   9  17  32  53  74  97 128 165 203 241 283
#     4   9  17  33  54  74  97 129 166 199 237 288
#     4   9  18  33  51  68  95 131 164 199 240 284
#     4  10  21  36  52  71  96 129 169 206 238 283
#     4   8  16  32  54  75  97 126 163 206 241 277
#     4  10  20  33  49  73 102 130 161 199 243 290
#     4  10  19  32  51  75 101 127 158 200 247 293
#     4   9  17  30  50  74  99 125 159 201 244 290
#
# _framework density 17.297830999999999
#
# number of rings (size 3 to 8) (size 9 to 14) (size 15 to 20)
#    0.000    2.750    1.250    1.125    0.000    2.000 
#    2.250    5.000    0.000    0.000    0.000    0.000 
#    0.000    0.000    0.000    0.000    0.000    0.000 
#
# Total GULP energy -396680.075671 kJ/mol
# GULP energy per Si atom -12396.252365 kJ/mol
# Density = 1.725846 g / cm^3
# Si number density = 17.297831 Si / 1000 Ang^3
#
#
#
# Elastic Constant Matrix: (Units=GPa)
#
#
# Indices 1 2 3 4 5 6 
#
# 1 139.6716 45.5803 71.2719 0.0000 8.4074 0.0000
# 2 45.5803 49.0817 46.9334 0.0000 3.8910 0.0000
# 3 71.2719 46.9334 124.4016 0.0000 4.3066 0.0000
# 4 0.0000 0.0000 0.0000 29.6982 0.0000 -5.7698
# 5 8.4074 3.8910 4.3066 0.0000 19.0247 0.0000
# 6 0.0000 0.0000 0.0000 -5.7698 0.0000 18.0887
#
#
#
# Elastic Compliance Matrix: (Units=1/GPa)
#
#
# Indices 1 2 3 4 5 6 
#
# 1 0.011550 -0.006676 -0.004001 0.000000 -0.002833 0.000000
# 2 -0.006676 0.036010 -0.009684 0.000000 -0.002223 0.000000
# 3 -0.004001 -0.009684 0.013964 0.000000 0.000588 0.000000
# 4 0.000000 0.000000 0.000000 0.035897 0.000000 0.011450
# 5 -0.002833 -0.002223 0.000588 0.000000 0.054137 0.000000
# 6 0.000000 0.000000 0.000000 0.011450 0.000000 0.058935
#
#
# Mechanical properties :
#
#
# Convention : Reuss Voigt Hill
#
# Bulk Modulus (GPa) = 48.07012 71.19181 59.63096
# Shear Modulus (GPa) = 19.36865 23.32025 21.34445
#
# Velocity S-wave (km/s) = 3.34985 3.67571 3.51656
# Velocity P-wave (km/s) = 6.54309 7.69807 7.14396
#
# Compressibility (1/GPa) = 0.02080294
#
# Stress axis : x y z
#
# Youngs Moduli (GPa) = 86.57758 27.76973 71.61493
#
# Poissons Ratio (x) = 0.18540 0.28650
# Poissons Ratio (y) = 0.57802 0.69351
# Poissons Ratio (z) = 0.34635 0.26892
#
# Static dielectric constant tensor:
#      x y z
#    x 3.756900 0.000000 -0.132290 
#    y 0.000000 3.086860 0.000000 
#    z -0.132290 0.000000 3.199470 
# 
# 
# High freq. dielectric constant tensor:
#      x y z
#    x 1.667680 0.000000 -0.012090 
#    y 0.000000 1.653450 0.000000 
#    z -0.012090 0.000000 1.665900 
# 
# From -- ./inp_files/87037.got.cif
#   From: 2010.06.25/outbox.cif.g09.slc.cpg/sg10_44_cif.got.tgz:87037.got - 2010.06.27 22:07:45.
