data_PCOD8060889
_publ_section_title
;
Structure prediction by ZEFSAII (Michael W. Deem and Ramdas Pophale) SiO2 
 PCOD8060889
Probable space group: P 2/M
;
_chemical_formula_sum "Si O2"
_cell_formula_units_Z 24
_cell_length_a 18.190057
_cell_length_b 7.882586
_cell_length_c 9.701362
_cell_angle_alpha 90.000000
_cell_angle_beta 111.209211
_cell_angle_gamma 90.000000
_cell_volume 1296.806481
_symmetry_space_group_name_H-M "P 2/M"
_symmetry_group_IT_number 10
_symmetry_cell_setting 'monoclinic'
loop_
_space_group_symop_operation_xyz
x,y,z
-x,y,-z
-x,-y,-z
x,-y,z
loop_
_atom_site_type_symbol
_atom_site_label
_atom_site_fract_x
_atom_site_fract_y
_atom_site_fract_z
Si Si1 0.741932 0.314108 0.139163
Si Si2 0.112045 0.500000 0.687767
Si Si3 0.700835 0.193648 0.395487
Si Si4 0.840553 0.195612 0.672284
Si Si5 0.058792 0.500000 0.337631
Si Si6 0.272525 0.698251 0.173964
Si Si7 0.587922 0.798247 0.547127
O O1 0.701992 0.500000 0.106078
O O2 0.835084 0.332756 0.241048
O O3 0.695261 0.215275 0.227671
O O4 0.730752 0.224864 0.983661
O O5 0.087203 0.500000 0.513353
O O6 0.035837 0.500000 0.734147
O O7 0.782181 0.268089 0.512681
O O8 0.625234 0.268125 0.426728
O O9 0.703614 0.000000 0.439514
O O10 0.913120 0.327647 0.720575
O O11 0.793268 0.202128 0.783782
O O12 0.869142 0.000000 0.667625
O O13 0.250444 0.500000 0.157290
O O14 0.359801 0.726957 0.292227
O O15 0.500000 0.722555 0.500000
O O16 0.585559 0.000000 0.555797
#
# Coordination Sequence:
#
# PCOD8060889 Si02
#       7
#     4   2   4   4   2   4   4
#     4   9  18  34  50  75 104 139 175 215 263 326
#     4   9  20  33  55  81 106 142 176 220 282 317
#     4   9  17  30  52  76 100 136 181 221 261 315
#     4  10  19  33  54  81 105 140 188 226 262 318
#     4  11  18  35  59  81 106 143 180 226 278 318
#     4  10  19  32  54  78 104 142 180 216 266 321
#     4   9  19  35  53  77 107 137 176 226 270 314
#
# _framework density 18.507002
#
# number of rings (size 3 to 8) (size 9 to 14) (size 15 to 20)
#    0.500    2.000    2.500    1.500    0.000    2.333 
#    0.000    5.000    0.000    6.000    0.000    0.000 
#    0.000    0.000    0.000    0.000    0.000    0.000 
#
# Total GULP energy -297374.013183 kJ/mol
# GULP energy per Si atom -12390.583883 kJ/mol
# Density = 1.846488 g / cm^3
# Si number density = 18.507002 Si / 1000 Ang^3
#
#
#
# Elastic Constant Matrix: (Units=GPa)
#
#
# Indices 1 2 3 4 5 6 
#
# 1 118.7435 26.0066 47.7437 0.0000 -12.2277 0.0000
# 2 26.0066 56.2405 7.4093 0.0000 -7.0474 0.0000
# 3 47.7437 7.4093 136.2445 0.0000 -17.8228 0.0000
# 4 0.0000 0.0000 0.0000 21.7219 0.0000 -5.6190
# 5 -12.2277 -7.0474 -17.8228 0.0000 20.7115 0.0000
# 6 0.0000 0.0000 0.0000 -5.6190 0.0000 18.7397
#
#
#
# Elastic Compliance Matrix: (Units=1/GPa)
#
#
# Indices 1 2 3 4 5 6 
#
# 1 0.010925 -0.004350 -0.003315 0.000000 0.002117 0.000000
# 2 -0.004350 0.020310 0.001113 0.000000 0.005301 0.000000
# 3 -0.003315 0.001113 0.009279 0.000000 0.006406 0.000000
# 4 0.000000 0.000000 0.000000 0.049908 0.000000 0.014965
# 5 0.002117 0.005301 0.006406 0.000000 0.056849 0.000000
# 6 0.000000 0.000000 0.000000 0.014965 0.000000 0.057850
#
#
# Mechanical properties :
#
#
# Convention : Reuss Voigt Hill
#
# Bulk Modulus (GPa) = 36.48222 52.61639 44.54931
# Shear Modulus (GPa) = 21.99154 27.57254 24.78204
#
# Velocity S-wave (km/s) = 3.45089 3.86404 3.66329
# Velocity P-wave (km/s) = 5.96939 6.95701 6.48204
#
# Compressibility (1/GPa) = 0.02741061
#
# Stress axis : x y z
#
# Youngs Moduli (GPa) = 91.53257 49.23724 107.77140
#
# Poissons Ratio (x) = 0.21418 0.35725
# Poissons Ratio (y) = 0.39816 -0.11997
# Poissons Ratio (z) = 0.30342 -0.05481
#
# Static dielectric constant tensor:
#      x y z
#    x 3.437300 0.000000 -0.110140 
#    y 0.000000 3.167870 0.000000 
#    z -0.110140 0.000000 3.356900 
# 
# 
# High freq. dielectric constant tensor:
#      x y z
#    x 1.698320 0.000000 -0.018400 
#    y 0.000000 1.703080 0.000000 
#    z -0.018400 0.000000 1.711290 
# 
# From -- ./inp_files/31254.got.cif
#   From: 2010.06.25/outbox.cif.g09.slc.cpg/sg10_16_cif.got.tgz:31254.got - 2010.06.27 22:07:45.
