data_PCOD8060165
_publ_section_title
;
Structure prediction by ZEFSAII (Michael W. Deem and Ramdas Pophale) SiO2 
 PCOD8060165
Probable space group: P 2/M
;
_chemical_formula_sum "Si O2"
_cell_formula_units_Z 32
_cell_length_a 15.297245
_cell_length_b 9.296244
_cell_length_c 13.406026
_cell_angle_alpha 90.000000
_cell_angle_beta 118.498683
_cell_angle_gamma 90.000000
_cell_volume 1675.423949
_symmetry_space_group_name_H-M "P 2/M"
_symmetry_group_IT_number 10
_symmetry_cell_setting 'monoclinic'
loop_
_space_group_symop_operation_xyz
x,y,z
-x,y,-z
-x,-y,-z
x,-y,z
loop_
_atom_site_type_symbol
_atom_site_label
_atom_site_fract_x
_atom_site_fract_y
_atom_site_fract_z
Si Si1 0.215637 0.832669 0.164563
Si Si2 0.939907 0.166522 0.748189
Si Si3 0.904060 0.169841 0.504443
Si Si4 0.683448 0.831159 0.360803
Si Si5 0.494621 0.832922 0.881294
Si Si6 0.436718 0.341519 0.556702
Si Si7 0.610666 0.342386 0.798582
Si Si8 0.921105 0.338091 0.045257
O O1 0.152432 0.806027 0.229061
O O2 0.319865 0.752039 0.236762
O O3 0.230608 0.000000 0.150572
O O4 0.170426 0.758812 0.040914
O O5 0.907985 0.217495 0.621661
O O6 0.033097 0.263011 0.832261
O O7 0.972804 0.000000 0.769456
O O8 0.797414 0.220412 0.400314
O O9 0.000000 0.238622 0.500000
O O10 0.911210 0.000000 0.499122
O O11 0.612168 0.791926 0.227874
O O12 0.650639 0.760132 0.448861
O O13 0.681698 0.000000 0.381142
O O14 0.586777 0.744286 0.886366
O O15 0.515980 0.000000 0.874001
O O16 0.500000 0.793749 0.000000
O O17 0.500000 0.271445 0.500000
O O18 0.395290 0.500000 0.500986
O O19 0.507532 0.364454 0.688310
O O20 0.657599 0.500000 0.847794
O O21 0.886871 0.500000 0.053516
O O22 0.000000 0.340627 0.000000
#
# Coordination Sequence:
#
# PCOD8060165 Si02
#       8
#     4   4   4   4   4   4   4   4
#     4  10  19  31  50  76 108 138 172 218 267 318
#     4   9  18  32  51  75 102 137 178 220 269 320
#     4   9  18  34  54  78 108 139 181 229 271 320
#     4   9  18  33  55  79 104 139 179 224 271 314
#     4   9  18  35  55  77 107 139 178 223 267 317
#     4   9  19  34  51  75 108 143 175 211 262 325
#     4  10  20  33  50  76 108 138 174 215 262 320
#     4   9  17  31  50  72 101 136 172 211 258 314
#
# _framework density 19.099643
#
# number of rings (size 3 to 8) (size 9 to 14) (size 15 to 20)
#    0.000    2.750    0.000    1.125    1.750    3.000 
#    2.250    0.625    0.000    1.500    0.000    0.000 
#    0.000    0.000    0.000    0.000    0.000    0.000 
#
# Total GULP energy -396571.841546 kJ/mol
# GULP energy per Si atom -12392.870048 kJ/mol
# Density = 1.905617 g / cm^3
# Si number density = 19.099643 Si / 1000 Ang^3
#
#
#
# Elastic Constant Matrix: (Units=GPa)
#
#
# Indices 1 2 3 4 5 6 
#
# 1 113.7478 46.0336 44.8062 0.0000 -1.9795 0.0000
# 2 46.0336 84.5568 30.1013 0.0000 -3.4753 0.0000
# 3 44.8062 30.1013 85.9862 0.0000 -8.1416 0.0000
# 4 0.0000 0.0000 0.0000 18.1136 0.0000 -1.1691
# 5 -1.9795 -3.4753 -8.1416 0.0000 25.8174 0.0000
# 6 0.0000 0.0000 0.0000 -1.1691 0.0000 19.6558
#
#
#
# Elastic Compliance Matrix: (Units=1/GPa)
#
#
# Indices 1 2 3 4 5 6 
#
# 1 0.012869 -0.005287 -0.004978 0.000000 -0.001295 0.000000
# 2 -0.005287 0.015685 -0.002653 0.000000 0.000869 0.000000
# 3 -0.004978 -0.002653 0.015547 0.000000 0.004164 0.000000
# 4 0.000000 0.000000 0.000000 0.055420 0.000000 0.003296
# 5 -0.001295 0.000869 0.004164 0.000000 0.040064 0.000000
# 6 0.000000 0.000000 0.000000 0.003296 0.000000 0.051072
#
#
# Mechanical properties :
#
#
# Convention : Reuss Voigt Hill
#
# Bulk Modulus (GPa) = 54.75177 58.46364 56.60771
# Shear Modulus (GPa) = 22.46358 23.60734 23.03546
#
# Velocity S-wave (km/s) = 3.43319 3.51951 3.47662
# Velocity P-wave (km/s) = 6.66666 6.86966 6.76892
#
# Compressibility (1/GPa) = 0.01826425
#
# Stress axis : x y z
#
# Youngs Moduli (GPa) = 77.70348 63.75417 64.32229
#
# Poissons Ratio (x) = 0.33710 0.32018
# Poissons Ratio (y) = 0.41086 0.17067
# Poissons Ratio (z) = 0.38678 0.16917
#
# Static dielectric constant tensor:
#      x y z
#    x 3.492000 0.000000 0.112700 
#    y 0.000000 3.651010 0.000000 
#    z 0.112700 0.000000 3.458120 
# 
# 
# High freq. dielectric constant tensor:
#      x y z
#    x 1.728750 0.000000 0.007210 
#    y 0.000000 1.731640 0.000000 
#    z 0.007210 0.000000 1.733550 
# 
# From -- ./inp_files/66637.got.cif
#   From: 2010.06.25/outbox.cif.g09.slc.cpg/sg10_34_cif.got.tgz:66637.got - 2010.06.27 22:07:45.
