data_PCOD8060323
_publ_section_title
;
Structure prediction by ZEFSAII (Michael W. Deem and Ramdas Pophale) SiO2 
 PCOD8060323
Probable space group: P 2/M
;
_chemical_formula_sum "Si O2"
_cell_formula_units_Z 28
_cell_length_a 14.282079
_cell_length_b 8.936799
_cell_length_c 12.058569
_cell_angle_alpha 90.000000
_cell_angle_beta 72.929162
_cell_angle_gamma 90.000000
_cell_volume 1471.299159
_symmetry_space_group_name_H-M "P 2/M"
_symmetry_group_IT_number 10
_symmetry_cell_setting 'monoclinic'
loop_
_space_group_symop_operation_xyz
x,y,z
-x,y,-z
-x,-y,-z
x,-y,z
loop_
_atom_site_type_symbol
_atom_site_label
_atom_site_fract_x
_atom_site_fract_y
_atom_site_fract_z
Si Si1 0.614663 0.672971 0.967785
Si Si2 0.078539 0.178436 0.884048
Si Si3 0.354595 0.822839 0.269567
Si Si4 0.474791 0.823146 0.631018
Si Si5 0.977754 0.821834 0.333915
Si Si6 0.851049 0.823067 0.576640
Si Si7 0.299742 0.176972 0.844226
O O1 0.643097 0.500000 0.961482
O O2 0.660726 0.747111 0.843446
O O3 0.500000 0.700234 0.000000
O O4 0.655735 0.750379 0.062394
O O5 0.042799 0.245991 0.779600
O O6 0.188962 0.236423 0.867832
O O7 0.079233 0.000000 0.884151
O O8 0.000000 0.239963 0.000000
O O9 0.448210 0.761355 0.304575
O O10 0.260643 0.772965 0.373737
O O11 0.360449 0.000000 0.249178
O O12 0.500000 0.755013 0.500000
O O13 0.365949 0.779778 0.712842
O O14 0.487240 0.000000 0.619025
O O15 0.893696 0.761026 0.446217
O O16 0.083247 0.766101 0.342317
O O17 0.974045 0.000000 0.327496
O O18 0.860175 0.000000 0.571545
O O19 0.302195 0.000000 0.860432
#
# Coordination Sequence:
#
# PCOD8060323 Si02
#       7
#     4   4   4   4   4   4   4
#     4  11  23  38  54  72 101 136 172 215 263 312
#     4   9  18  28  43  71 106 137 165 204 251 299
#     4  10  19  31  53  80 103 130 170 214 256 305
#     4   9  18  30  47  77 111 135 161 203 257 309
#     4   8  14  26  40  66 106 137 163 197 250 301
#     4   8  15  25  43  70 101 133 162 204 250 295
#     4  10  20  34  54  78 104 136 172 213 256 302
#
# _framework density 19.030799999999999
#
# number of rings (size 3 to 8) (size 9 to 14) (size 15 to 20)
#    0.000    2.714    1.429    1.286    4.000    0.571 
#    0.000    0.000    0.000    2.143    0.000    2.000 
#    0.000    0.000    0.000    0.000    0.000    0.000 
#
# Total GULP energy -347030.684022 kJ/mol
# GULP energy per Si atom -12393.953001 kJ/mol
# Density = 1.898748 g / cm^3
# Si number density = 19.030800 Si / 1000 Ang^3
#
#
#
# Elastic Constant Matrix: (Units=GPa)
#
#
# Indices 1 2 3 4 5 6 
#
# 1 124.7742 26.5684 81.8826 0.0000 -9.6344 0.0000
# 2 26.5684 13.0887 22.1774 0.0000 -0.6065 0.0000
# 3 81.8826 22.1774 164.6290 0.0000 6.2777 0.0000
# 4 0.0000 0.0000 0.0000 -0.3973 0.0000 -0.1320
# 5 -9.6344 -0.6065 6.2777 0.0000 38.0502 0.0000
# 6 0.0000 0.0000 0.0000 -0.1320 0.0000 5.9715
#
#
#
# Elastic Compliance Matrix: (Units=1/GPa)
#
#
# Indices 1 2 3 4 5 6 
#
# 1 0.017482 -0.026188 -0.005354 0.000000 0.004892 0.000000
# 2 -0.026188 0.138778 -0.005536 0.000000 -0.003506 0.000000
# 3 -0.005354 -0.005536 0.009598 0.000000 -0.003027 0.000000
# 4 0.000000 0.000000 0.000000 -2.498719 0.000000 -0.055218
# 5 0.004892 -0.003506 -0.003027 0.000000 0.027963 0.000000
# 6 0.000000 0.000000 0.000000 -0.055218 0.000000 0.166242
#
#
# Mechanical properties :
#
#
# Convention : Reuss Voigt Hill
#
# Bulk Modulus (GPa) = 10.90482 62.63875 36.77178
# Shear Modulus (GPa) = -2.45829 20.18245 8.86208
#
# Velocity S-wave (km/s) = -1.13778 3.26009 2.16028
# Velocity P-wave (km/s) = 2.00411 6.86708 5.05832
#
# Compressibility (1/GPa) = 0.09170260
#
# Stress axis : x y z
#
# Youngs Moduli (GPa) = 57.20205 7.20576 104.18446
#
# Poissons Ratio (x) = 0.18870 0.55779
# Poissons Ratio (y) = 1.49800 0.57677
# Poissons Ratio (z) = 0.30625 0.03989
#
# Static dielectric constant tensor:
#      x y z
#    x 3.807270 0.000000 -0.084280 
#    y 0.000000 2.809000 0.000000 
#    z -0.084280 0.000000 3.913420 
# 
# 
# High freq. dielectric constant tensor:
#      x y z
#    x 1.750300 0.000000 -0.002530 
#    y 0.000000 1.663870 0.000000 
#    z -0.002530 0.000000 1.755640 
# 
# From -- ./inp_files/49133.got.cif
#   From: 2010.06.25/outbox.cif.g09.slc.cpg/sg10_25_cif.got.tgz:49133.got - 2010.06.27 22:07:45.
