data_PCOD8060806
_publ_section_title
;
Structure prediction by ZEFSAII (Michael W. Deem and Ramdas Pophale) SiO2 
 PCOD8060806
Probable space group: P 2/M
;
_chemical_formula_sum "Si O2"
_cell_formula_units_Z 32
_cell_length_a 13.164030
_cell_length_b 9.146342
_cell_length_c 20.398284
_cell_angle_alpha 90.000000
_cell_angle_beta 42.974542
_cell_angle_gamma 90.000000
_cell_volume 1674.195765
_symmetry_space_group_name_H-M "P 2/M"
_symmetry_group_IT_number 10
_symmetry_cell_setting 'monoclinic'
loop_
_space_group_symop_operation_xyz
x,y,z
-x,y,-z
-x,-y,-z
x,-y,z
loop_
_atom_site_type_symbol
_atom_site_label
_atom_site_fract_x
_atom_site_fract_y
_atom_site_fract_z
Si Si1 0.332437 0.168330 0.101478
Si Si2 0.199914 0.828813 0.783613
Si Si3 0.823410 0.165022 0.576891
Si Si4 0.823410 0.334979 0.076892
Si Si5 0.199913 0.328813 0.283613
Si Si6 0.144479 0.329851 0.565506
Si Si7 0.855522 0.170149 0.934494
Si Si8 0.667562 0.668330 0.398523
O O1 0.304944 0.268014 0.177280
O O2 0.222375 0.219462 0.095709
O O3 0.302010 0.000000 0.134527
O O4 0.500000 0.193330 0.000000
O O5 0.248076 0.752409 0.828736
O O6 0.304945 0.768008 0.677281
O O7 0.029490 0.791795 0.845994
O O8 0.226336 0.000000 0.779237
O O9 0.751922 0.252406 0.671265
O O10 0.778164 0.241819 0.530245
O O11 0.000000 0.168896 0.500000
O O12 0.761754 0.000000 0.606218
O O13 0.761748 0.500000 0.106222
O O14 0.778166 0.258182 0.030244
O O15 0.000000 0.331114 0.000000
O O16 0.226333 0.500000 0.279241
O O17 0.029489 0.291795 0.345994
O O18 0.170316 0.500000 0.538674
O O19 0.222375 0.280536 0.595709
O O20 0.829686 0.000000 0.961326
O O21 0.500000 0.693333 0.500000
O O22 0.697985 0.500000 0.365477
#
# Coordination Sequence:
#
# PCOD8060806 Si02
#       8
#     4   4   4   4   4   4   4   4
#     4  10  21  36  52  72 102 137 170 206 248 295
#     4  10  19  32  53  78 103 131 165 207 251 297
#     4   9  17  30  51  78 104 129 162 206 252 298
#     4   9  17  30  51  78 104 129 162 206 252 298
#     4  10  19  32  53  78 103 131 165 207 251 297
#     4   9  18  33  53  77 103 131 165 206 251 296
#     4   9  18  33  53  77 103 131 165 206 251 296
#     4  10  21  36  52  72 102 137 170 206 248 295
#
# _framework density 19.113655000000001
#
# number of rings (size 3 to 8) (size 9 to 14) (size 15 to 20)
#    0.000    2.500    0.000    2.250    0.000    5.500 
#    0.000    1.250    0.000    0.000    0.000    0.000 
#    0.000    0.000    0.000    0.000    0.000    0.000 
#
# Total GULP energy -396903.081273 kJ/mol
# GULP energy per Si atom -12403.221290 kJ/mol
# Density = 1.907015 g / cm^3
# Si number density = 19.113655 Si / 1000 Ang^3
#
#
#
# Elastic Constant Matrix: (Units=GPa)
#
#
# Indices 1 2 3 4 5 6 
#
# 1 23.9841 27.9445 38.7671 0.0000 15.2506 0.0000
# 2 27.9445 105.7401 66.0806 0.0000 23.5465 0.0000
# 3 38.7671 66.0806 107.7834 0.0000 35.4276 0.0000
# 4 0.0000 0.0000 0.0000 37.4956 0.0000 12.3762
# 5 15.2506 23.5465 35.4276 0.0000 30.2199 0.0000
# 6 0.0000 0.0000 0.0000 12.3762 0.0000 23.7079
#
#
#
# Elastic Compliance Matrix: (Units=1/GPa)
#
#
# Indices 1 2 3 4 5 6 
#
# 1 0.105660 -0.006384 -0.029606 0.000000 -0.013639 0.000000
# 2 -0.006384 0.015759 -0.007140 0.000000 -0.000687 0.000000
# 3 -0.029606 -0.007140 0.028575 0.000000 -0.012996 0.000000
# 4 0.000000 0.000000 0.000000 0.032222 0.000000 -0.016821
# 5 -0.013639 -0.000687 -0.012996 0.000000 0.055745 0.000000
# 6 0.000000 0.000000 0.000000 -0.016821 0.000000 0.050961
#
#
# Mechanical properties :
#
#
# Convention : Reuss Voigt Hill
#
# Bulk Modulus (GPa) = 15.69007 55.89909 35.79458
# Shear Modulus (GPa) = 12.61269 25.26572 18.93920
#
# Velocity S-wave (km/s) = 2.57160 3.63969 3.15123
# Velocity P-wave (km/s) = 4.12845 6.85363 5.65758
#
# Compressibility (1/GPa) = 0.06373459
#
# Stress axis : x y z
#
# Youngs Moduli (GPa) = 9.46433 63.45519 34.99533
#
# Poissons Ratio (x) = 0.40511 1.03608
# Poissons Ratio (y) = 0.06042 0.24985
# Poissons Ratio (z) = 0.28020 0.45304
#
# Static dielectric constant tensor:
#      x y z
#    x 3.414390 0.000000 0.231040 
#    y 0.000000 3.538960 0.000000 
#    z 0.231040 0.000000 3.340040 
# 
# 
# High freq. dielectric constant tensor:
#      x y z
#    x 1.728420 0.000000 0.024790 
#    y 0.000000 1.746820 0.000000 
#    z 0.024790 0.000000 1.735380 
# 
# From -- ./inp_files/84723.got.cif
#   From: 2010.06.25/outbox.cif.g09.slc.cpg/sg10_43_cif.got.tgz:84723.got - 2010.06.27 22:07:45.
