data_PCOD8060994
_publ_section_title
;
Structure prediction by ZEFSAII (Michael W. Deem and Ramdas Pophale) SiO2 
 PCOD8060994
Probable space group: P 2/M
;
_chemical_formula_sum "Si O2"
_cell_formula_units_Z 28
_cell_length_a 14.289937
_cell_length_b 9.068204
_cell_length_c 17.446392
_cell_angle_alpha 90.000000
_cell_angle_beta 43.008953
_cell_angle_gamma 90.000000
_cell_volume 1542.102761
_symmetry_space_group_name_H-M "P 2/M"
_symmetry_group_IT_number 10
_symmetry_cell_setting 'monoclinic'
loop_
_space_group_symop_operation_xyz
x,y,z
-x,y,-z
-x,-y,-z
x,-y,z
loop_
_atom_site_type_symbol
_atom_site_label
_atom_site_fract_x
_atom_site_fract_y
_atom_site_fract_z
Si Si1 0.140681 0.673065 0.374889
Si Si2 0.222811 0.327760 0.583935
Si Si3 0.387190 0.670048 0.337017
Si Si4 0.331777 0.825537 0.831473
Si Si5 0.940775 0.172718 0.722003
Si Si6 0.203963 0.174737 0.748165
Si Si7 0.896700 0.171439 0.918976
O O1 0.141446 0.500000 0.356893
O O2 0.265937 0.721530 0.353461
O O3 0.155585 0.760935 0.286304
O O4 0.000000 0.720392 0.500000
O O5 0.192132 0.500000 0.613526
O O6 0.344017 0.301434 0.450622
O O7 0.271292 0.255000 0.634626
O O8 0.086971 0.252328 0.632246
O O9 0.421458 0.500000 0.302869
O O10 0.520542 0.762734 0.236392
O O11 0.288373 0.777710 0.772112
O O12 0.338985 0.000000 0.834471
O O13 0.221448 0.756762 0.957469
O O14 0.865785 0.202599 0.848124
O O15 0.965172 0.000000 0.694505
O O16 0.047350 0.232440 0.850927
O O17 0.207177 0.000000 0.731476
O O18 0.898013 0.000000 0.937094
#
# Coordination Sequence:
#
# PCOD8060994 Si02
#       7
#     4   4   4   4   4   4   4
#     4  10  19  36  57  76 103 140 176 209 257 317
#     4  10  19  34  53  75 106 143 175 209 262 316
#     4  10  22  37  52  73 106 142 175 212 256 314
#     4  10  20  35  55  76 104 142 177 214 261 309
#     4  10  19  32  55  85 108 128 169 224 264 301
#     4   9  18  33  55  81 104 132 177 224 259 300
#     4   8  16  33  55  78 105 137 172 212 260 309
#
# _framework density 18.157025999999998
#
# number of rings (size 3 to 8) (size 9 to 14) (size 15 to 20)
#    0.000    2.429    1.429    2.143    0.000    4.857 
#    0.000    7.143    0.000    8.571    0.000    0.000 
#    0.000    0.000    0.000    0.000    0.000    0.000 
#
# Total GULP energy -347203.827181 kJ/mol
# GULP energy per Si atom -12400.136685 kJ/mol
# Density = 1.811570 g / cm^3
# Si number density = 18.157026 Si / 1000 Ang^3
#
#
#
# Elastic Constant Matrix: (Units=GPa)
#
#
# Indices 1 2 3 4 5 6 
#
# 1 115.1526 37.3051 46.3330 0.0000 1.2423 0.0000
# 2 37.3051 49.5181 29.3381 0.0000 5.4204 0.0000
# 3 46.3330 29.3381 68.2588 0.0000 -4.2939 0.0000
# 4 0.0000 0.0000 0.0000 8.2353 0.0000 -8.1144
# 5 1.2423 5.4204 -4.2939 0.0000 23.9230 0.0000
# 6 0.0000 0.0000 0.0000 -8.1144 0.0000 26.9837
#
#
#
# Elastic Compliance Matrix: (Units=1/GPa)
#
#
# Indices 1 2 3 4 5 6 
#
# 1 0.013248 -0.006156 -0.006374 0.000000 -0.000437 0.000000
# 2 -0.006156 0.031699 -0.009990 0.000000 -0.008656 0.000000
# 3 -0.006374 -0.009990 0.023701 0.000000 0.006849 0.000000
# 4 0.000000 0.000000 0.000000 0.172557 0.000000 0.051890
# 5 -0.000437 -0.008656 0.006849 0.000000 0.045014 0.000000
# 6 0.000000 0.000000 0.000000 0.051890 0.000000 0.052664
#
#
# Mechanical properties :
#
#
# Convention : Reuss Voigt Hill
#
# Bulk Modulus (GPa) = 42.35957 50.98689 46.67323
# Shear Modulus (GPa) = 12.76188 19.82529 16.29359
#
# Velocity S-wave (km/s) = 2.65403 3.30795 2.99886
# Velocity P-wave (km/s) = 5.72469 6.53698 6.14427
#
# Compressibility (1/GPa) = 0.02360741
#
# Stress axis : x y z
#
# Youngs Moduli (GPa) = 75.48393 31.54683 42.19173
#
# Poissons Ratio (x) = 0.19421 0.26893
# Poissons Ratio (y) = 0.46470 0.42150
# Poissons Ratio (z) = 0.48113 0.31516
#
# Static dielectric constant tensor:
#      x y z
#    x 3.373100 0.000000 0.168980 
#    y 0.000000 3.169230 0.000000 
#    z 0.168980 0.000000 3.410800 
# 
# 
# High freq. dielectric constant tensor:
#      x y z
#    x 1.703450 0.000000 0.013770 
#    y 0.000000 1.687470 0.000000 
#    z 0.013770 0.000000 1.698030 
# 
# From -- ./inp_files/63504.got.cif
#   From: 2010.06.25/outbox.cif.g09.slc.cpg/sg10_32_cif.got.tgz:63504.got - 2010.06.27 22:07:45.
