data_PCOD8060745
_publ_section_title
;
Structure prediction by ZEFSAII (Michael W. Deem and Ramdas Pophale) SiO2 
 PCOD8060745
Probable space group: P 2/M
;
_chemical_formula_sum "Si O2"
_cell_formula_units_Z 32
_cell_length_a 14.383208
_cell_length_b 9.352981
_cell_length_c 24.592996
_cell_angle_alpha 90.000000
_cell_angle_beta 150.508839
_cell_angle_gamma 90.000000
_cell_volume 1628.687020
_symmetry_space_group_name_H-M "P 2/M"
_symmetry_group_IT_number 10
_symmetry_cell_setting 'monoclinic'
loop_
_space_group_symop_operation_xyz
x,y,z
-x,y,-z
-x,-y,-z
x,-y,z
loop_
_atom_site_type_symbol
_atom_site_label
_atom_site_fract_x
_atom_site_fract_y
_atom_site_fract_z
Si Si1 0.948116 0.841872 0.212030
Si Si2 0.540473 0.667431 0.459045
Si Si3 0.789559 0.834502 0.748755
Si Si4 0.442186 0.161910 0.030532
Si Si5 0.882119 0.667744 0.389835
Si Si6 0.035652 0.332300 0.354631
Si Si7 0.095208 0.833420 0.990744
Si Si8 0.531512 0.668414 0.850484
O O1 0.138225 0.808541 0.275953
O O2 0.911184 0.734788 0.242863
O O3 0.784811 0.833199 0.083304
O O4 0.954228 0.000000 0.240804
O O5 0.500000 0.718247 0.500000
O O6 0.504826 0.500000 0.435196
O O7 0.403188 0.745347 0.346002
O O8 0.748786 0.711484 0.546350
O O9 0.746724 0.000000 0.739106
O O10 0.943327 0.776438 0.869789
O O11 0.516716 0.000000 0.079270
O O12 0.500000 0.214576 0.000000
O O13 0.516541 0.269458 0.114226
O O14 0.921251 0.500000 0.408446
O O15 0.657551 0.697927 0.281437
O O16 0.000000 0.736389 0.500000
O O17 0.965754 0.732034 0.376337
O O18 0.003088 0.500000 0.335004
O O19 0.290645 0.745997 0.086536
O O20 0.144245 0.000000 0.006146
O O21 0.000000 0.806272 0.000000
O O22 0.572956 0.500000 0.876474
#
# Coordination Sequence:
#
# PCOD8060745 Si02
#       8
#     4   4   4   4   4   4   4   4
#     4  10  19  32  52  79 111 145 183 226 277 337
#     4  10  20  33  51  80 113 146 185 229 281 334
#     4  10  20  35  55  79 108 147 187 224 277 339
#     4  10  20  35  56  82 116 157 194 231 283 346
#     4   9  20  39  59  80 110 151 191 229 279 335
#     4  10  20  35  56  80 110 148 189 232 281 337
#     4  10  22  42  64  84 114 155 193 231 283 349
#     4  11  22  36  60  90 116 146 191 243 288 337
#
# _framework density 19.647729000000002
#
# number of rings (size 3 to 8) (size 9 to 14) (size 15 to 20)
#    0.000    2.000    2.500    1.125    0.000    3.250 
#    0.000    1.875    0.000    3.375    0.000    0.000 
#    0.000    0.000    0.000    0.000    0.000    0.000 
#
# Total GULP energy -396744.019889 kJ/mol
# GULP energy per Si atom -12398.250622 kJ/mol
# Density = 1.960301 g / cm^3
# Si number density = 19.647729 Si / 1000 Ang^3
#
#
#
# Elastic Constant Matrix: (Units=GPa)
#
#
# Indices 1 2 3 4 5 6 
#
# 1 82.5780 35.2015 42.5547 0.0000 -2.5991 0.0000
# 2 35.2015 55.1025 45.1518 0.0000 -2.0603 0.0000
# 3 42.5547 45.1518 118.7978 0.0000 -8.0557 0.0000
# 4 0.0000 0.0000 0.0000 28.9853 0.0000 0.0760
# 5 -2.5991 -2.0603 -8.0557 0.0000 26.7694 0.0000
# 6 0.0000 0.0000 0.0000 0.0760 0.0000 22.5588
#
#
#
# Elastic Compliance Matrix: (Units=1/GPa)
#
#
# Indices 1 2 3 4 5 6 
#
# 1 0.017304 -0.008682 -0.002889 0.000000 0.000142 0.000000
# 2 -0.008682 0.030739 -0.008646 0.000000 -0.001079 0.000000
# 3 -0.002889 -0.008646 0.012939 0.000000 0.002948 0.000000
# 4 0.000000 0.000000 0.000000 0.034501 0.000000 -0.000116
# 5 0.000142 -0.001079 0.002948 0.000000 0.038174 0.000000
# 6 0.000000 0.000000 0.000000 -0.000116 0.000000 0.044329
#
#
# Mechanical properties :
#
#
# Convention : Reuss Voigt Hill
#
# Bulk Modulus (GPa) = 48.66841 55.81049 52.23945
# Shear Modulus (GPa) = 22.19579 24.56738 23.38158
#
# Velocity S-wave (km/s) = 3.36473 3.53993 3.45344
# Velocity P-wave (km/s) = 6.31819 6.72126 6.52284
#
# Compressibility (1/GPa) = 0.02054721
#
# Stress axis : x y z
#
# Youngs Moduli (GPa) = 57.79037 32.53228 77.28768
#
# Poissons Ratio (x) = 0.28243 0.22329
# Poissons Ratio (y) = 0.50172 0.66825
# Poissons Ratio (z) = 0.16696 0.28128
#
# Static dielectric constant tensor:
#      x y z
#    x 3.623010 0.000000 0.049620 
#    y 0.000000 3.328920 0.000000 
#    z 0.049620 0.000000 3.661460 
# 
# 
# High freq. dielectric constant tensor:
#      x y z
#    x 1.765600 0.000000 0.009730 
#    y 0.000000 1.741350 0.000000 
#    z 0.009730 0.000000 1.771210 
# 
# From -- ./inp_files/89646.got.cif
#   From: 2010.06.25/outbox.cif.g09.slc.cpg/sg10_45_cif.got.tgz:89646.got - 2010.06.27 22:07:45.
