data_PCOD8060576
_publ_section_title
;
Structure prediction by ZEFSAII (Michael W. Deem and Ramdas Pophale) SiO2 
 PCOD8060576
Probable space group: P 2/M
;
_chemical_formula_sum "Si O2"
_cell_formula_units_Z 28
_cell_length_a 31.601516
_cell_length_b 7.780589
_cell_length_c 9.942196
_cell_angle_alpha 90.000000
_cell_angle_beta 37.755052
_cell_angle_gamma 90.000000
_cell_volume 1496.779231
_symmetry_space_group_name_H-M "P 2/M"
_symmetry_group_IT_number 10
_symmetry_cell_setting 'monoclinic'
loop_
_space_group_symop_operation_xyz
x,y,z
-x,y,-z
-x,-y,-z
x,-y,z
loop_
_atom_site_type_symbol
_atom_site_label
_atom_site_fract_x
_atom_site_fract_y
_atom_site_fract_z
Si Si1 0.056121 0.196828 0.761266
Si Si2 0.579243 0.500000 0.646678
Si Si3 0.425775 0.500000 0.022609
Si Si4 0.209399 0.303413 0.061449
Si Si5 0.673654 0.198253 0.731442
Si Si6 0.053495 0.703623 0.475985
Si Si7 0.208482 0.202207 0.357051
Si Si8 0.325439 0.190956 0.581323
O O1 0.029474 0.213907 0.676147
O O2 0.132695 0.280563 0.583066
O O3 0.062163 0.000000 0.790129
O O4 0.000000 0.288765 0.000000
O O5 0.570730 0.500000 0.826648
O O6 0.620041 0.329038 0.497901
O O7 0.503605 0.500000 0.767662
O O8 0.387879 0.325784 0.068740
O O9 0.215352 0.500000 0.001377
O O10 0.130885 0.234898 0.244691
O O11 0.235384 0.283672 0.149934
O O12 0.255877 0.193864 0.843238
O O13 0.740211 0.249472 0.651482
O O14 0.693417 0.230407 0.526426
O O15 0.651149 0.000000 0.813741
O O16 0.051371 0.500000 0.495466
O O17 0.000000 0.772287 0.500000
O O18 0.202883 0.000000 0.347935
O O19 0.358205 0.000000 0.510532
#
# Coordination Sequence:
#
# PCOD8060576 Si02
#       8
#     4   2   2   4   4   4   4   4
#     4   9  18  32  50  71  98 132 170 214 258 303
#     4   9  18  34  51  81 110 137 168 207 252 307
#     4   9  18  32  55  77 110 139 166 207 256 303
#     4  10  19  32  51  74 101 136 177 215 257 310
#     4   9  19  33  52  79 106 135 173 213 255 305
#     4   9  19  34  49  69 100 134 170 214 258 302
#     4   9  18  33  50  72 102 134 172 215 259 309
#     4  10  19  33  54  79 107 137 171 212 257 303
#
# _framework density 18.706831999999999
#
# number of rings (size 3 to 8) (size 9 to 14) (size 15 to 20)
#    0.000    2.714    0.714    0.429    1.000    2.857 
#    0.000    4.286    0.000    1.714    0.000    3.000 
#    0.000    0.000    0.000    0.000    0.000    0.000 
#
# Total GULP energy -347135.770730 kJ/mol
# GULP energy per Si atom -12397.706098 kJ/mol
# Density = 1.866425 g / cm^3
# Si number density = 18.706832 Si / 1000 Ang^3
#
#
#
# Elastic Constant Matrix: (Units=GPa)
#
#
# Indices 1 2 3 4 5 6 
#
# 1 115.1857 38.4469 67.0940 0.0000 -15.9024 0.0000
# 2 38.4469 74.2090 37.2658 0.0000 -8.7445 0.0000
# 3 67.0940 37.2658 112.1795 0.0000 -10.9669 0.0000
# 4 0.0000 0.0000 0.0000 15.4216 0.0000 2.5134
# 5 -15.9024 -8.7445 -10.9669 0.0000 18.8160 0.0000
# 6 0.0000 0.0000 0.0000 2.5134 0.0000 21.2826
#
#
#
# Elastic Compliance Matrix: (Units=1/GPa)
#
#
# Indices 1 2 3 4 5 6 
#
# 1 0.014896 -0.003325 -0.007132 0.000000 0.006888 0.000000
# 2 -0.003325 0.017309 -0.003446 0.000000 0.003226 0.000000
# 3 -0.007132 -0.003446 0.014399 0.000000 0.000764 0.000000
# 4 0.000000 0.000000 0.000000 0.066116 0.000000 -0.007808
# 5 0.006888 0.003226 0.000764 0.000000 0.060912 0.000000
# 6 0.000000 0.000000 0.000000 -0.007808 0.000000 0.047909
#
#
# Mechanical properties :
#
#
# Convention : Reuss Voigt Hill
#
# Bulk Modulus (GPa) = 53.19342 65.24307 59.21824
# Shear Modulus (GPa) = 19.56089 21.68855 20.62472
#
# Velocity S-wave (km/s) = 3.23717 3.40868 3.32403
# Velocity P-wave (km/s) = 6.51685 7.10242 6.81593
#
# Compressibility (1/GPa) = 0.01879932
#
# Stress axis : x y z
#
# Youngs Moduli (GPa) = 67.13056 57.77488 69.44880
#
# Poissons Ratio (x) = 0.19208 0.49528
# Poissons Ratio (y) = 0.22319 0.23932
# Poissons Ratio (z) = 0.47875 0.19910
#
# Static dielectric constant tensor:
#      x y z
#    x 3.385450 0.000000 -0.152710 
#    y 0.000000 3.411120 0.000000 
#    z -0.152710 0.000000 3.472860 
# 
# 
# High freq. dielectric constant tensor:
#      x y z
#    x 1.708610 0.000000 -0.003870 
#    y 0.000000 1.729400 0.000000 
#    z -0.003870 0.000000 1.713790 
# 
# From -- ./inp_files/37131.got.cif
#   From: 2010.06.25/outbox.cif.g09.slc.cpg/sg10_19_cif.got.tgz:37131.got - 2010.06.27 22:07:45.
