data_PCOD8060143
_publ_section_title
;
Structure prediction by ZEFSAII (Michael W. Deem and Ramdas Pophale) SiO2 
 PCOD8060143
Probable space group: P 2/M
;
_chemical_formula_sum "Si O2"
_cell_formula_units_Z 32
_cell_length_a 18.807331
_cell_length_b 9.201902
_cell_length_c 20.064374
_cell_angle_alpha 90.000000
_cell_angle_beta 30.520985
_cell_angle_gamma 90.000000
_cell_volume 1763.474500
_symmetry_space_group_name_H-M "P 2/M"
_symmetry_group_IT_number 10
_symmetry_cell_setting 'monoclinic'
loop_
_space_group_symop_operation_xyz
x,y,z
-x,y,-z
-x,-y,-z
x,-y,z
loop_
_atom_site_type_symbol
_atom_site_label
_atom_site_fract_x
_atom_site_fract_y
_atom_site_fract_z
Si Si1 0.120518 0.827461 0.713892
Si Si2 0.062224 0.826433 0.017789
Si Si3 0.566435 0.826509 0.516114
Si Si4 0.630002 0.172771 0.208154
Si Si5 0.914510 0.172234 0.765483
Si Si6 0.619888 0.827945 0.066411
Si Si7 0.419461 0.332401 0.132716
Si Si8 0.105031 0.329468 0.356407
O O1 0.277183 0.765570 0.597205
O O2 0.027712 0.763724 0.848701
O O3 0.046864 0.780090 0.704205
O O4 0.124509 0.000000 0.714580
O O5 0.060940 0.000000 0.020613
O O6 0.218273 0.765505 0.896211
O O7 0.000000 0.764989 0.000000
O O8 0.500000 0.769065 0.500000
O O9 0.477514 0.765659 0.650291
O O10 0.566725 0.000000 0.514553
O O11 0.595837 0.226303 0.161305
O O12 0.629956 0.000000 0.210699
O O13 0.938161 0.246045 0.675359
O O14 0.910449 0.000000 0.759115
O O15 0.769422 0.226394 0.916711
O O16 0.489315 0.763334 0.132900
O O17 0.614331 0.000000 0.066143
O O18 0.429953 0.500000 0.145098
O O19 0.259734 0.281992 0.253864
O O20 0.500000 0.300588 0.000000
O O21 0.098672 0.500000 0.346042
O O22 0.000000 0.284431 0.500000
#
# Coordination Sequence:
#
# PCOD8060143 Si02
#       8
#     4   4   4   4   4   4   4   4
#     4   9  16  26  39  60  91 126 161 196 241 289
#     4   9  14  21  36  56  82 119 158 192 229 279
#     4   9  16  25  38  59  92 132 166 198 241 291
#     4   9  16  26  38  59  91 123 158 198 239 283
#     4  10  19  32  51  74 103 134 164 205 252 298
#     4  10  19  31  50  75 103 133 165 207 253 295
#     4  10  20  35  55  76  97 128 168 206 246 294
#     4  10  22  39  56  75 101 130 162 205 251 295
#
# _framework density 18.145994000000002
#
# number of rings (size 3 to 8) (size 9 to 14) (size 15 to 20)
#    0.000    2.500    2.500    0.750    0.000    5.000 
#    0.000    1.250    0.000    0.000    0.000    0.000 
#    0.000    6.000    0.000    0.000    0.000    0.000 
#
# Total GULP energy -396716.941543 kJ/mol
# GULP energy per Si atom -12397.404423 kJ/mol
# Density = 1.810469 g / cm^3
# Si number density = 18.145994 Si / 1000 Ang^3
#
#
#
# Elastic Constant Matrix: (Units=GPa)
#
#
# Indices 1 2 3 4 5 6 
#
# 1 164.0295 26.0064 75.2009 0.0000 -9.8966 0.0000
# 2 26.0064 11.8855 16.2702 0.0000 3.0366 0.0000
# 3 75.2009 16.2702 152.1423 0.0000 -9.3511 0.0000
# 4 0.0000 0.0000 0.0000 -12.7203 0.0000 -7.4683
# 5 -9.8966 3.0366 -9.3511 0.0000 32.8717 0.0000
# 6 0.0000 0.0000 0.0000 -7.4683 0.0000 -4.4920
#
#
#
# Elastic Compliance Matrix: (Units=1/GPa)
#
#
# Indices 1 2 3 4 5 6 
#
# 1 0.011108 -0.021458 -0.002920 0.000000 0.004496 0.000000
# 2 -0.021458 0.145174 -0.006249 0.000000 -0.021649 0.000000
# 3 -0.002920 -0.006249 0.008820 0.000000 0.002207 0.000000
# 4 0.000000 0.000000 0.000000 -3.293486 0.000000 5.475677
# 5 0.004496 -0.021649 0.002207 0.000000 0.034403 0.000000
# 6 0.000000 0.000000 0.000000 5.475677 0.000000 -9.326357
#
#
# Mechanical properties :
#
#
# Convention : Reuss Voigt Hill
#
# Bulk Modulus (GPa) = 9.62943 62.55691 36.09317
# Shear Modulus (GPa) = -0.40570 17.17052 8.38241
#
# Velocity S-wave (km/s) = -0.47335 3.07944 2.15162
# Velocity P-wave (km/s) = 2.24041 6.86972 5.10943
#
# Compressibility (1/GPa) = 0.10384831
#
# Stress axis : x y z
#
# Youngs Moduli (GPa) = 90.02254 6.88829 113.38057
#
# Poissons Ratio (x) = 0.14781 0.33102
# Poissons Ratio (y) = 1.93170 0.70855
# Poissons Ratio (z) = 0.26283 0.04305
#
# Static dielectric constant tensor:
#      x y z
#    x 3.484960 0.000000 -0.050790 
#    y 0.000000 2.716070 0.000000 
#    z -0.050790 0.000000 3.580270 
# 
# 
# High freq. dielectric constant tensor:
#      x y z
#    x 1.720920 0.000000 -0.000620 
#    y 0.000000 1.634070 0.000000 
#    z -0.000620 0.000000 1.713250 
# 
# From -- ./inp_files/78941.got.cif
#   From: 2010.06.25/outbox.cif.g09.slc.cpg/sg10_40_cif.got.tgz:78941.got - 2010.06.27 22:07:45.
