data_PCOD8060627
_publ_section_title
;
Structure prediction by ZEFSAII (Michael W. Deem and Ramdas Pophale) SiO2 
 PCOD8060627
Probable space group: P 2/M
;
_chemical_formula_sum "Si O2"
_cell_formula_units_Z 32
_cell_length_a 22.507263
_cell_length_b 13.313468
_cell_length_c 12.120055
_cell_angle_alpha 90.000000
_cell_angle_beta 150.360353
_cell_angle_gamma 90.000000
_cell_volume 1796.068504
_symmetry_space_group_name_H-M "P 2/M"
_symmetry_group_IT_number 10
_symmetry_cell_setting 'monoclinic'
loop_
_space_group_symop_operation_xyz
x,y,z
-x,y,-z
-x,-y,-z
x,-y,z
loop_
_atom_site_type_symbol
_atom_site_label
_atom_site_fract_x
_atom_site_fract_y
_atom_site_fract_z
Si Si1 0.997926 0.240294 0.373862
Si Si2 0.778579 0.884689 0.931256
Si Si3 0.625981 0.882296 0.243351
Si Si4 0.034621 0.385059 0.232596
Si Si5 0.227809 0.882086 0.720813
Si Si6 0.659430 0.199748 0.535548
Si Si7 0.805369 0.615201 0.712680
Si Si8 0.584527 0.115816 0.795098
O O1 0.000000 0.289194 0.500000
O O2 0.037711 0.322979 0.349923
O O3 0.095305 0.153083 0.533108
O O4 0.871252 0.189257 0.140773
O O5 0.761568 0.849994 0.777537
O O6 0.648663 0.876000 0.780186
O O7 0.824821 0.000000 0.010097
O O8 0.731410 0.842252 0.333592
O O9 0.659157 0.859691 0.421381
O O10 0.614958 0.000000 0.209591
O O11 0.500000 0.832936 0.000000
O O12 0.053470 0.500000 0.296591
O O13 0.140940 0.352729 0.319969
O O14 0.907243 0.370166 0.968556
O O15 0.223334 0.000000 0.721863
O O16 0.323569 0.843554 0.964820
O O17 0.692062 0.315753 0.562944
O O18 0.530165 0.189433 0.385544
O O19 0.760962 0.500000 0.638352
O O20 0.544081 0.000000 0.752202
#
# Coordination Sequence:
#
# PCOD8060627 Si02
#       8
#     4   4   4   4   4   4   4   4
#     4  12  22  35  57  82 113 149 187 232 284 326
#     4  11  23  36  52  82 117 151 190 232 273 321
#     4  10  19  32  51  78 110 145 184 223 269 326
#     4   9  19  39  61  84 109 138 184 234 284 344
#     4  10  20  34  51  76 112 151 190 221 264 332
#     4  12  20  34  59  83 109 141 192 236 272 320
#     4   9  19  37  63  85 108 141 179 231 292 345
#     4  10  20  35  54  77 110 156 195 221 256 322
#
# _framework density 17.816693000000001
#
# number of rings (size 3 to 8) (size 9 to 14) (size 15 to 20)
#    0.000    1.625    3.750    3.375    0.000    1.750 
#    0.000    0.000    0.000    6.375    0.000    0.000 
#    0.000    0.000    0.000    0.000    0.000    0.000 
#
# Total GULP energy -396723.424179 kJ/mol
# GULP energy per Si atom -12397.607006 kJ/mol
# Density = 1.777614 g / cm^3
# Si number density = 17.816693 Si / 1000 Ang^3
#
#
#
# Elastic Constant Matrix: (Units=GPa)
#
#
# Indices 1 2 3 4 5 6 
#
# 1 94.9159 43.6096 46.8190 0.0000 -14.4878 0.0000
# 2 43.6096 68.5491 31.5536 0.0000 4.8200 0.0000
# 3 46.8190 31.5536 81.6760 0.0000 -7.8273 0.0000
# 4 0.0000 0.0000 0.0000 20.0962 0.0000 3.1293
# 5 -14.4878 4.8200 -7.8273 0.0000 40.5135 0.0000
# 6 0.0000 0.0000 0.0000 3.1293 0.0000 30.2618
#
#
#
# Elastic Compliance Matrix: (Units=1/GPa)
#
#
# Indices 1 2 3 4 5 6 
#
# 1 0.019316 -0.009689 -0.006680 0.000000 0.006770 0.000000
# 2 -0.009689 0.023105 -0.004042 0.000000 -0.006995 0.000000
# 3 -0.006680 -0.004042 0.017781 0.000000 0.001527 0.000000
# 4 0.000000 0.000000 0.000000 0.050575 0.000000 -0.005230
# 5 0.006770 -0.006995 0.001527 0.000000 0.028231 0.000000
# 6 0.000000 0.000000 0.000000 -0.005230 0.000000 0.033586
#
#
# Mechanical properties :
#
#
# Convention : Reuss Voigt Hill
#
# Bulk Modulus (GPa) = 51.60563 54.34503 52.97533
# Shear Modulus (GPa) = 22.74001 26.38490 24.56246
#
# Velocity S-wave (km/s) = 3.57645 3.85243 3.71701
# Velocity P-wave (km/s) = 6.78840 7.09626 6.94403
#
# Compressibility (1/GPa) = 0.01937773
#
# Stress axis : x y z
#
# Youngs Moduli (GPa) = 51.77040 43.28121 56.24031
#
# Poissons Ratio (x) = 0.41937 0.37571
# Poissons Ratio (y) = 0.50163 0.22733
# Poissons Ratio (z) = 0.34585 0.17494
#
# Static dielectric constant tensor:
#      x y z
#    x 3.574590 0.000000 -0.094850 
#    y 0.000000 3.070120 0.000000 
#    z -0.094850 0.000000 3.335150 
# 
# 
# High freq. dielectric constant tensor:
#      x y z
#    x 1.702800 0.000000 -0.010060 
#    y 0.000000 1.656530 0.000000 
#    z -0.010060 0.000000 1.690420 
# 
# From -- ./inp_files/46970.got.cif
#   From: 2010.06.25/outbox.cif.g09.slc.cpg/sg10_24_cif.got.tgz:46970.got - 2010.06.27 22:07:45.
