data_PCOD8060653
_publ_section_title
;
Structure prediction by ZEFSAII (Michael W. Deem and Ramdas Pophale) SiO2 
 PCOD8060653
Probable space group: P 2/M
;
_chemical_formula_sum "Si O2"
_cell_formula_units_Z 24
_cell_length_a 23.740058
_cell_length_b 9.002506
_cell_length_c 18.147134
_cell_angle_alpha 90.000000
_cell_angle_beta 159.987074
_cell_angle_gamma 90.000000
_cell_volume 1327.315060
_symmetry_space_group_name_H-M "P 2/M"
_symmetry_group_IT_number 10
_symmetry_cell_setting 'monoclinic'
loop_
_space_group_symop_operation_xyz
x,y,z
-x,y,-z
-x,-y,-z
x,-y,z
loop_
_atom_site_type_symbol
_atom_site_label
_atom_site_fract_x
_atom_site_fract_y
_atom_site_fract_z
Si Si1 0.658026 0.822759 0.424313
Si Si2 0.168049 0.836358 0.504215
Si Si3 0.668727 0.325800 0.921256
Si Si4 0.002860 0.672103 0.585279
Si Si5 0.034330 0.671115 0.127830
Si Si6 0.161170 0.167096 0.994872
O O1 0.692917 0.777958 0.381680
O O2 0.482486 0.757810 0.228216
O O3 0.794609 0.752852 0.645448
O O4 0.662687 0.000000 0.439790
O O5 0.148058 0.735307 0.551701
O O6 0.213619 0.000000 0.588653
O O7 0.000180 0.839343 0.252656
O O8 0.632385 0.500000 0.868716
O O9 0.698962 0.257900 0.877248
O O10 0.822829 0.293208 0.163418
O O11 0.966331 0.500000 0.534705
O O12 0.000000 0.743705 0.500000
O O13 0.047115 0.500000 0.168900
O O14 0.881301 0.747558 0.981877
O O15 0.000000 0.685679 0.000000
O O16 0.223925 0.000000 0.089418
#
# Coordination Sequence:
#
# PCOD8060653 Si02
#       6
#     4   4   4   4   4   4
#     4  10  20  34  52  74 101 131 166 206 247 295
#     4   8  16  30  48  70  94 126 165 200 239 290
#     4  10  19  32  52  75 100 131 167 207 250 294
#     4   9  18  32  50  73  99 128 164 204 246 294
#     4  10  20  34  53  77 103 130 163 203 245 292
#     4   9  17  31  51  73  99 131 167 203 241 293
#
# _framework density 18.081613999999998
#
# number of rings (size 3 to 8) (size 9 to 14) (size 15 to 20)
#    0.000    2.667    0.000    3.000    0.000    7.000 
#    0.000    1.667    0.000   10.000    0.000    0.000 
#    0.000    0.000    0.000    0.000    0.000    0.000 
#
# Total GULP energy -297536.042022 kJ/mol
# GULP energy per Si atom -12397.335084 kJ/mol
# Density = 1.804046 g / cm^3
# Si number density = 18.081614 Si / 1000 Ang^3
#
#
#
# Elastic Constant Matrix: (Units=GPa)
#
#
# Indices 1 2 3 4 5 6 
#
# 1 161.0907 77.4563 42.3376 0.0000 16.1685 0.0000
# 2 77.4563 117.2818 38.2909 0.0000 6.0885 0.0000
# 3 42.3376 38.2909 32.4486 0.0000 9.6737 0.0000
# 4 0.0000 0.0000 0.0000 18.1053 0.0000 7.9240
# 5 16.1685 6.0885 9.6737 0.0000 27.5081 0.0000
# 6 0.0000 0.0000 0.0000 7.9240 0.0000 37.5651
#
#
#
# Elastic Compliance Matrix: (Units=1/GPa)
#
#
# Indices 1 2 3 4 5 6 
#
# 1 0.010629 -0.004235 -0.008142 0.000000 -0.002447 0.000000
# 2 -0.004235 0.015783 -0.014299 0.000000 0.004024 0.000000
# 3 -0.008142 -0.014299 0.062497 0.000000 -0.014028 0.000000
# 4 0.000000 0.000000 0.000000 0.060850 0.000000 -0.012836
# 5 -0.002447 0.004024 -0.014028 0.000000 0.041834 0.000000
# 6 0.000000 0.000000 0.000000 -0.012836 0.000000 0.029328
#
#
# Mechanical properties :
#
#
# Convention : Reuss Voigt Hill
#
# Bulk Modulus (GPa) = 28.12343 69.66562 48.89453
# Shear Modulus (GPa) = 17.47496 26.81812 22.14654
#
# Velocity S-wave (km/s) = 3.11215 3.85537 3.50353
# Velocity P-wave (km/s) = 5.33866 7.64399 6.59287
#
# Compressibility (1/GPa) = 0.03555754
#
# Stress axis : x y z
#
# Youngs Moduli (GPa) = 94.07986 63.36122 16.00084
#
# Poissons Ratio (x) = 0.26830 0.13028
# Poissons Ratio (y) = 0.39838 0.22879
# Poissons Ratio (z) = 0.76602 0.90599
#
# Static dielectric constant tensor:
#      x y z
#    x 3.752320 0.000000 0.151880 
#    y 0.000000 3.549710 0.000000 
#    z 0.151880 0.000000 2.961060 
# 
# 
# High freq. dielectric constant tensor:
#      x y z
#    x 1.717220 0.000000 0.013030 
#    y 0.000000 1.712130 0.000000 
#    z 0.013030 0.000000 1.656280 
# 
# From -- ./inp_files/31223.got.cif
#   From: 2010.06.25/outbox.cif.g09.slc.cpg/sg10_16_cif.got.tgz:31223.got - 2010.06.27 22:07:45.
