data_PCOD8060217
_publ_section_title
;
Structure prediction by ZEFSAII (Michael W. Deem and Ramdas Pophale) SiO2 
 PCOD8060217
Probable space group: P 2/M
;
_chemical_formula_sum "Si O2"
_cell_formula_units_Z 28
_cell_length_a 23.940817
_cell_length_b 10.067093
_cell_length_c 17.799775
_cell_angle_alpha 90.000000
_cell_angle_beta 20.862742
_cell_angle_gamma 90.000000
_cell_volume 1527.800506
_symmetry_space_group_name_H-M "P 2/M"
_symmetry_group_IT_number 10
_symmetry_cell_setting 'monoclinic'
loop_
_space_group_symop_operation_xyz
x,y,z
-x,y,-z
-x,-y,-z
x,-y,z
loop_
_atom_site_type_symbol
_atom_site_label
_atom_site_fract_x
_atom_site_fract_y
_atom_site_fract_z
Si Si1 0.788124 0.852722 0.835966
Si Si2 0.021665 0.658738 0.058074
Si Si3 0.354734 0.656211 0.234880
Si Si4 0.603333 0.346168 0.167145
Si Si5 0.143655 0.147533 0.420434
Si Si6 0.339250 0.657685 0.736798
Si Si7 0.295495 0.653126 0.475372
O O1 0.797205 0.820633 0.737043
O O2 0.957792 0.847592 0.659918
O O3 0.715818 0.000000 0.939962
O O4 0.683831 0.739638 0.002533
O O5 0.024821 0.500000 0.055655
O O6 0.873517 0.717888 0.291748
O O7 0.184392 0.714335 0.889400
O O8 0.000000 0.709295 0.000000
O O9 0.322804 0.500000 0.265189
O O10 0.203736 0.737621 0.399013
O O11 0.374911 0.699673 0.296834
O O12 0.500000 0.700847 0.000000
O O13 0.645587 0.500000 0.099803
O O14 0.661869 0.298718 0.174842
O O15 0.416208 0.323390 0.392482
O O16 0.202286 0.000000 0.370980
O O17 0.500000 0.716623 0.500000
O O18 0.342128 0.500000 0.726078
O O19 0.257873 0.500000 0.513030
#
# Coordination Sequence:
#
# PCOD8060217 Si02
#       7
#     4   4   4   4   4   4   4
#     4   9  19  35  52  71  99 133 168 213 262 302
#     4   9  16  27  44  66  99 139 167 199 255 306
#     4  10  20  32  48  71 104 138 169 211 261 304
#     4  10  19  31  51  76 102 132 171 211 250 300
#     4   9  19  35  52  70  96 133 175 214 254 304
#     4   9  17  28  45  73 105 133 168 210 249 300
#     4   9  18  30  44  68 104 137 166 205 257 307
#
# _framework density 18.326999000000001
#
# number of rings (size 3 to 8) (size 9 to 14) (size 15 to 20)
#    0.000    2.714    0.000    2.571    2.000    6.000 
#    0.000    2.143    0.000    0.429    0.000    0.000 
#    0.000    2.857    0.000    0.000    0.000    0.000 
#
# Total GULP energy -347005.244021 kJ/mol
# GULP energy per Si atom -12393.044429 kJ/mol
# Density = 1.828529 g / cm^3
# Si number density = 18.326999 Si / 1000 Ang^3
#
#
#
# Elastic Constant Matrix: (Units=GPa)
#
#
# Indices 1 2 3 4 5 6 
#
# 1 106.0909 15.1241 46.1083 0.0000 -15.8101 0.0000
# 2 15.1241 33.3645 15.4260 0.0000 -3.5180 0.0000
# 3 46.1083 15.4260 110.7966 0.0000 3.2535 0.0000
# 4 0.0000 0.0000 0.0000 9.1217 0.0000 -1.7335
# 5 -15.8101 -3.5180 3.2535 0.0000 25.1317 0.0000
# 6 0.0000 0.0000 0.0000 -1.7335 0.0000 14.1973
#
#
#
# Elastic Compliance Matrix: (Units=1/GPa)
#
#
# Indices 1 2 3 4 5 6 
#
# 1 0.013520 -0.002644 -0.005518 0.000000 0.008849 0.000000
# 2 -0.002644 0.033211 -0.003625 0.000000 0.003455 0.000000
# 3 -0.005518 -0.003625 0.011989 0.000000 -0.005531 0.000000
# 4 0.000000 0.000000 0.000000 0.112233 0.000000 0.013704
# 5 0.008849 0.003455 -0.005531 0.000000 0.046557 0.000000
# 6 0.000000 0.000000 0.000000 0.013704 0.000000 0.072109
#
#
# Mechanical properties :
#
#
# Convention : Reuss Voigt Hill
#
# Bulk Modulus (GPa) = 28.45326 44.84098 36.64712
# Shear Modulus (GPa) = 15.38893 21.26303 18.32598
#
# Velocity S-wave (km/s) = 2.90088 3.40987 3.16562
# Velocity P-wave (km/s) = 5.17486 6.32639 5.77938
#
# Compressibility (1/GPa) = 0.03514536
#
# Stress axis : x y z
#
# Youngs Moduli (GPa) = 73.96563 30.11062 83.40988
#
# Poissons Ratio (x) = 0.07962 0.46026
# Poissons Ratio (y) = 0.19558 0.30236
# Poissons Ratio (z) = 0.40814 0.10915
#
# Static dielectric constant tensor:
#      x y z
#    x 3.511630 0.000000 -0.005420 
#    y 0.000000 2.938080 0.000000 
#    z -0.005420 0.000000 3.500380 
# 
# 
# High freq. dielectric constant tensor:
#      x y z
#    x 1.718740 0.000000 -0.002820 
#    y 0.000000 1.654150 0.000000 
#    z -0.002820 0.000000 1.715150 
# 
# From -- ./inp_files/80208.got.cif
#   From: 2010.06.25/outbox.cif.g09.slc.cpg/sg10_41_cif.got.tgz:80208.got - 2010.06.27 22:07:45.
