data_PCOD8060940
_publ_section_title
;
Structure prediction by ZEFSAII (Michael W. Deem and Ramdas Pophale) SiO2 
 PCOD8060940
Probable space group: P 2/M
;
_chemical_formula_sum "Si O2"
_cell_formula_units_Z 32
_cell_length_a 30.654996
_cell_length_b 9.110529
_cell_length_c 12.535359
_cell_angle_alpha 90.000000
_cell_angle_beta 151.769575
_cell_angle_gamma 90.000000
_cell_volume 1655.998470
_symmetry_space_group_name_H-M "P 2/M"
_symmetry_group_IT_number 10
_symmetry_cell_setting 'monoclinic'
loop_
_space_group_symop_operation_xyz
x,y,z
-x,y,-z
-x,-y,-z
x,-y,z
loop_
_atom_site_type_symbol
_atom_site_label
_atom_site_fract_x
_atom_site_fract_y
_atom_site_fract_z
Si Si1 0.341049 0.662766 0.414883
Si Si2 0.783014 0.172018 0.152950
Si Si3 0.868620 0.325711 0.540357
Si Si4 0.405880 0.172552 0.746678
Si Si5 0.214696 0.829091 0.439280
Si Si6 0.169866 0.165997 0.981410
Si Si7 0.397918 0.334171 0.298457
Si Si8 0.053718 0.166387 0.926164
O O1 0.333401 0.500000 0.445958
O O2 0.404396 0.760072 0.626468
O O3 0.388308 0.663805 0.403312
O O4 0.238879 0.725579 0.188179
O O5 0.835506 0.257942 0.357889
O O6 0.839558 0.203390 0.164620
O O7 0.780745 0.000000 0.175056
O O8 0.678156 0.229760 0.919294
O O9 0.861895 0.500000 0.520128
O O10 0.806786 0.267334 0.503599
O O11 0.973939 0.277947 0.787564
O O12 0.316350 0.220839 0.621303
O O13 0.408093 0.000000 0.738494
O O14 0.500000 0.232836 0.000000
O O15 0.212802 0.000000 0.467144
O O16 0.143340 0.796823 0.189995
O O17 0.075428 0.182429 0.845670
O O18 0.208100 0.000000 0.075250
O O19 0.500000 0.269875 0.500000
O O20 0.387824 0.500000 0.230187
O O21 0.020250 0.000000 0.877326
#
# Coordination Sequence:
#
# PCOD8060940 Si02
#       8
#     4   4   4   4   4   4   4   4
#     4  10  19  32  54  82 114 149 186 233 286 342
#     4  10  21  38  60  85 116 152 197 243 288 343
#     4  12  26  40  56  83 122 159 194 241 295 350
#     4  10  21  38  60  86 115 149 191 241 292 342
#     4  10  21  40  63  85 114 153 196 241 290 346
#     4   9  18  36  62  87 111 146 190 237 285 341
#     4   9  19  36  57  83 117 155 192 233 288 347
#     4  10  20  38  64  88 113 149 195 241 291 350
#
# _framework density 19.323688000000001
#
# number of rings (size 3 to 8) (size 9 to 14) (size 15 to 20)
#    0.000    2.000    1.250    2.250    0.000    6.000 
#    0.000    5.000    0.000    0.000    0.000    0.000 
#    0.000    0.000    0.000    0.000    0.000    0.000 
#
# Total GULP energy -396791.781202 kJ/mol
# GULP energy per Si atom -12399.743163 kJ/mol
# Density = 1.927971 g / cm^3
# Si number density = 19.323688 Si / 1000 Ang^3
#
#
#
# Elastic Constant Matrix: (Units=GPa)
#
#
# Indices 1 2 3 4 5 6 
#
# 1 66.8404 47.6453 53.4317 0.0000 -0.2434 0.0000
# 2 47.6453 74.4668 48.2000 0.0000 -0.4242 0.0000
# 3 53.4317 48.2000 112.4530 0.0000 2.2998 0.0000
# 4 0.0000 0.0000 0.0000 21.3745 0.0000 -3.7164
# 5 -0.2434 -0.4242 2.2998 0.0000 30.9231 0.0000
# 6 0.0000 0.0000 0.0000 -3.7164 0.0000 26.4034
#
#
#
# Elastic Compliance Matrix: (Units=1/GPa)
#
#
# Indices 1 2 3 4 5 6 
#
# 1 0.033268 -0.015279 -0.009273 0.000000 0.000742 0.000000
# 2 -0.015279 0.025624 -0.003734 0.000000 0.000509 0.000000
# 3 -0.009273 -0.003734 0.014925 0.000000 -0.001234 0.000000
# 4 0.000000 0.000000 0.000000 0.047958 0.000000 0.006750
# 5 0.000742 0.000509 -0.001234 0.000000 0.032443 0.000000
# 6 0.000000 0.000000 0.000000 0.006750 0.000000 0.038824
#
#
# Mechanical properties :
#
#
# Convention : Reuss Voigt Hill
#
# Bulk Modulus (GPa) = 57.98995 61.36823 59.67909
# Shear Modulus (GPa) = 19.58001 22.70573 21.14287
#
# Velocity S-wave (km/s) = 3.18664 3.43158 3.31137
# Velocity P-wave (km/s) = 6.60412 6.89405 6.75064
#
# Compressibility (1/GPa) = 0.01724437
#
# Stress axis : x y z
#
# Youngs Moduli (GPa) = 30.05899 39.02568 67.00382
#
# Poissons Ratio (x) = 0.59627 0.62136
# Poissons Ratio (y) = 0.45926 0.25018
# Poissons Ratio (z) = 0.27875 0.14572
#
# Static dielectric constant tensor:
#      x y z
#    x 3.678500 0.000000 -0.007360 
#    y 0.000000 3.636460 0.000000 
#    z -0.007360 0.000000 3.498610 
# 
# 
# High freq. dielectric constant tensor:
#      x y z
#    x 1.760060 0.000000 -0.002290 
#    y 0.000000 1.748740 0.000000 
#    z -0.002290 0.000000 1.744080 
# 
# From -- ./inp_files/58220.got.cif
#   From: 2010.06.25/outbox.cif.g09.slc.cpg/sg10_30_cif.got.tgz:58220.got - 2010.06.27 22:07:45.
