data_PCOD8060457
_publ_section_title
;
Structure prediction by ZEFSAII (Michael W. Deem and Ramdas Pophale) SiO2 
 PCOD8060457
Probable space group: P 2/M
;
_chemical_formula_sum "Si O2"
_cell_formula_units_Z 28
_cell_length_a 12.995442
_cell_length_b 14.280743
_cell_length_c 8.903441
_cell_angle_alpha 90.000000
_cell_angle_beta 110.032938
_cell_angle_gamma 90.000000
_cell_volume 1552.367737
_symmetry_space_group_name_H-M "P 2/M"
_symmetry_group_IT_number 10
_symmetry_cell_setting 'monoclinic'
loop_
_space_group_symop_operation_xyz
x,y,z
-x,y,-z
-x,-y,-z
x,-y,z
loop_
_atom_site_type_symbol
_atom_site_label
_atom_site_fract_x
_atom_site_fract_y
_atom_site_fract_z
Si Si1 0.387320 0.500000 0.022996
Si Si2 1.000000 0.889757 0.174041
Si Si3 0.380760 0.702711 0.367163
Si Si4 0.000000 0.394475 0.322815
Si Si5 0.387320 0.500000 0.364324
Si Si6 0.830532 0.239289 0.237032
Si Si7 0.619240 0.297289 0.986402
Si Si8 0.830532 0.760711 0.593500
O O1 0.420987 0.500000 0.210494
O O2 0.329243 0.401709 0.954751
O O3 0.500000 0.500000 0.000000
O O4 0.107404 0.849571 0.308006
O O5 0.892595 0.849572 0.200602
O O6 0.000000 0.000000 0.195422
O O7 0.000000 0.860319 0.000000
O O8 0.500000 0.717390 0.500000
O O9 0.329243 0.598291 0.374492
O O10 0.389527 0.724247 0.194764
O O11 0.292030 0.768593 0.401610
O O12 1.000000 0.500000 0.250690
O O13 0.107292 0.335449 0.326174
O O14 0.000000 0.405107 0.500000
O O15 0.892708 0.335448 0.218882
O O16 0.500000 0.500000 0.500000
O O17 0.826681 0.230429 0.413340
O O18 0.707970 0.231407 0.109580
O O19 0.500000 0.282610 0.000000
#
# Coordination Sequence:
#
# PCOD8060457 Si02
#       8
#     2   4   4   4   2   4   4   4
#     4   8  16  28  42  63  94 137 184 222 254 290
#     4  10  21  39  62  83 104 133 170 217 270 322
#     4  10  19  32  49  72 106 144 185 225 263 309
#     4   8  16  30  46  69 102 139 175 212 256 306
#     4   8  16  28  42  63  94 137 184 222 254 290
#     4  10  20  33  53  80 108 139 176 218 267 317
#     4  10  19  32  49  72 106 144 185 225 263 309
#     4  10  20  33  53  80 108 139 176 218 267 317
#
# _framework density 18.036961999999999
#
# number of rings (size 3 to 8) (size 9 to 14) (size 15 to 20)
#    0.000    2.571    0.000    3.000    2.000    2.286 
#    0.000    0.000    0.000    3.429    0.000    0.000 
#    0.000    0.000    0.000    0.000    0.000    0.000 
#
# Total GULP energy -346868.377804 kJ/mol
# GULP energy per Si atom -12388.156350 kJ/mol
# Density = 1.799591 g / cm^3
# Si number density = 18.036962 Si / 1000 Ang^3
#
#
#
# Elastic Constant Matrix: (Units=GPa)
#
#
# Indices 1 2 3 4 5 6 
#
# 1 136.6849 46.2658 62.6294 0.0000 4.6268 0.0000
# 2 46.2658 78.5010 43.9956 0.0000 1.0192 0.0000
# 3 62.6294 43.9956 106.7257 0.0000 8.8230 0.0000
# 4 0.0000 0.0000 0.0000 21.8053 0.0000 -4.0958
# 5 4.6268 1.0192 8.8230 0.0000 29.9909 0.0000
# 6 0.0000 0.0000 0.0000 -4.0958 0.0000 12.6822
#
#
#
# Elastic Compliance Matrix: (Units=1/GPa)
#
#
# Indices 1 2 3 4 5 6 
#
# 1 0.010752 -0.003648 -0.004796 0.000000 -0.000124 0.000000
# 2 -0.003648 0.017868 -0.005352 0.000000 0.001530 0.000000
# 3 -0.004796 -0.005352 0.014671 0.000000 -0.003394 0.000000
# 4 0.000000 0.000000 0.000000 0.048822 0.000000 0.015767
# 5 -0.000124 0.001530 -0.003394 0.000000 0.034309 0.000000
# 6 0.000000 0.000000 0.000000 0.015767 0.000000 0.083943
#
#
# Mechanical properties :
#
#
# Convention : Reuss Voigt Hill
#
# Bulk Modulus (GPa) = 63.69072 69.74367 66.71720
# Shear Modulus (GPa) = 20.56013 24.16374 22.36194
#
# Velocity S-wave (km/s) = 3.37989 3.66413 3.52488
# Velocity P-wave (km/s) = 7.11473 7.52676 7.32365
#
# Compressibility (1/GPa) = 0.01570087
#
# Stress axis : x y z
#
# Youngs Moduli (GPa) = 93.00190 55.96615 68.16221
#
# Poissons Ratio (x) = 0.20415 0.32690
# Poissons Ratio (y) = 0.33924 0.36478
# Poissons Ratio (z) = 0.44603 0.29951
#
# Static dielectric constant tensor:
#      x y z
#    x 3.224000 0.000000 -0.023480 
#    y 0.000000 3.277760 0.000000 
#    z -0.023480 0.000000 3.276290 
# 
# 
# High freq. dielectric constant tensor:
#      x y z
#    x 1.694900 0.000000 -0.003200 
#    y 0.000000 1.671420 0.000000 
#    z -0.003200 0.000000 1.702030 
# 
# From -- ./inp_files/25082.got.cif
#   From: 2010.06.25/outbox.cif.g09.slc.cpg/sg10_13_cif.got.tgz:25082.got - 2010.06.27 22:07:45.
