data_PCOD8060489
_publ_section_title
;
Structure prediction by ZEFSAII (Michael W. Deem and Ramdas Pophale) SiO2 
 PCOD8060489
Probable space group: P 2/M
;
_chemical_formula_sum "Si O2"
_cell_formula_units_Z 32
_cell_length_a 14.299199
_cell_length_b 14.798642
_cell_length_c 9.632294
_cell_angle_alpha 90.000000
_cell_angle_beta 71.658296
_cell_angle_gamma 90.000000
_cell_volume 1934.726207
_symmetry_space_group_name_H-M "P 2/M"
_symmetry_group_IT_number 10
_symmetry_cell_setting 'monoclinic'
loop_
_space_group_symop_operation_xyz
x,y,z
-x,y,-z
-x,-y,-z
x,-y,z
loop_
_atom_site_type_symbol
_atom_site_label
_atom_site_fract_x
_atom_site_fract_y
_atom_site_fract_z
Si Si1 0.993584 0.727694 0.342422
Si Si2 0.796577 0.281728 0.898993
Si Si3 0.175258 0.600545 0.605585
Si Si4 0.304908 0.607079 0.284927
Si Si5 0.496520 0.607042 0.657120
Si Si6 0.941835 0.901003 0.229313
Si Si7 0.714384 0.397710 0.168618
Si Si8 0.842746 0.899894 0.998735
O O1 0.916673 0.660739 0.307439
O O2 0.946615 0.827581 0.349259
O O3 0.000000 0.704023 0.500000
O O4 0.095584 0.710610 0.216802
O O5 0.715874 0.326125 0.834580
O O6 0.777469 0.176029 0.948883
O O7 0.789519 0.337403 0.044871
O O8 0.133483 0.500000 0.613229
O O9 0.222543 0.629361 0.437471
O O10 0.258974 0.607306 0.682165
O O11 0.303291 0.500000 0.244345
O O12 0.410482 0.637155 0.294828
O O13 0.500000 0.649605 0.500000
O O14 0.495029 0.500000 0.641905
O O15 0.398294 0.638388 0.785620
O O16 0.047488 0.900993 0.109108
O O17 0.920237 0.000000 0.304445
O O18 0.855860 0.877893 0.157085
O O19 0.722290 0.500000 0.108757
O O20 0.794569 0.000000 0.000378
#
# Coordination Sequence:
#
# PCOD8060489 Si02
#       8
#     4   4   4   4   4   4   4   4
#     4  11  21  32  45  67 100 140 170 192 237 287
#     4  11  21  32  47  74 104 129 159 205 240 282
#     4  10  20  33  48  66  94 137 176 197 224 283
#     4  10  19  32  50  71  98 130 164 201 244 290
#     4   9  16  31  54  73  93 126 163 203 254 297
#     4   8  15  29  49  69  90 120 163 208 246 284
#     4  10  20  33  51  75  98 123 164 212 249 282
#     4   8  15  30  50  69  92 126 160 197 247 292
#
# _framework density 16.539808000000001
#
# number of rings (size 3 to 8) (size 9 to 14) (size 15 to 20)
#    0.000    2.375    2.500    1.875    0.000    3.500 
#    0.000    3.125    0.000    0.000    0.000    1.750 
#    0.000    1.000    0.000    0.000    0.000    0.000 
#
# Total GULP energy -396544.363682 kJ/mol
# GULP energy per Si atom -12392.011365 kJ/mol
# Density = 1.650216 g / cm^3
# Si number density = 16.539808 Si / 1000 Ang^3
#
#
#
# Elastic Constant Matrix: (Units=GPa)
#
#
# Indices 1 2 3 4 5 6 
#
# 1 75.2178 46.1733 21.2603 0.0000 6.1734 0.0000
# 2 46.1733 91.3099 33.8540 0.0000 3.4296 0.0000
# 3 21.2603 33.8540 54.5561 0.0000 2.5159 0.0000
# 4 0.0000 0.0000 0.0000 16.6250 0.0000 12.9945
# 5 6.1734 3.4296 2.5159 0.0000 20.0115 0.0000
# 6 0.0000 0.0000 0.0000 12.9945 0.0000 6.9937
#
#
#
# Elastic Compliance Matrix: (Units=1/GPa)
#
#
# Indices 1 2 3 4 5 6 
#
# 1 0.019793 -0.009171 -0.001824 0.000000 -0.004305 0.000000
# 2 -0.009171 0.018509 -0.007942 0.000000 0.000656 0.000000
# 3 -0.001824 -0.007942 0.024019 0.000000 -0.001096 0.000000
# 4 0.000000 0.000000 0.000000 -0.132991 0.000000 0.247102
# 5 -0.004305 0.000656 -0.001096 0.000000 0.051325 0.000000
# 6 0.000000 0.000000 0.000000 0.247102 0.000000 -0.316137
#
#
# Mechanical properties :
#
#
# Convention : Reuss Voigt Hill
#
# Bulk Modulus (GPa) = 40.90298 47.07321 43.98810
# Shear Modulus (GPa) = -17.27366 16.71245 -0.28060
#
# Velocity S-wave (km/s) = -3.23518 3.18219 -0.41234
# Velocity P-wave (km/s) = 3.29068 6.48260 5.14065
#
# Compressibility (1/GPa) = 0.02444810
#
# Stress axis : x y z
#
# Youngs Moduli (GPa) = 50.52191 54.02696 41.63323
#
# Poissons Ratio (x) = 0.49549 0.07593
# Poissons Ratio (y) = 0.46334 0.33065
# Poissons Ratio (z) = 0.09214 0.42908
#
# Static dielectric constant tensor:
#      x y z
#    x 3.018230 0.000000 0.092470 
#    y 0.000000 3.248710 0.000000 
#    z 0.092470 0.000000 3.073250 
# 
# 
# High freq. dielectric constant tensor:
#      x y z
#    x 1.616330 0.000000 0.011860 
#    y 0.000000 1.618010 0.000000 
#    z 0.011860 0.000000 1.633380 
# 
# From -- ./inp_files/29077.got.cif
#   From: 2010.06.25/outbox.cif.g09.slc.cpg/sg10_15_cif.got.tgz:29077.got - 2010.06.27 22:07:45.
