data_PCOD8060890
_publ_section_title
;
Structure prediction by ZEFSAII (Michael W. Deem and Ramdas Pophale) SiO2 
 PCOD8060890
Probable space group: P 2/M
;
_chemical_formula_sum "Si O2"
_cell_formula_units_Z 24
_cell_length_a 9.392017
_cell_length_b 9.236833
_cell_length_c 18.786311
_cell_angle_alpha 90.000000
_cell_angle_beta 128.118048
_cell_angle_gamma 90.000000
_cell_volume 1282.197844
_symmetry_space_group_name_H-M "P 2/M"
_symmetry_group_IT_number 10
_symmetry_cell_setting 'monoclinic'
loop_
_space_group_symop_operation_xyz
x,y,z
-x,y,-z
-x,-y,-z
x,-y,z
loop_
_atom_site_type_symbol
_atom_site_label
_atom_site_fract_x
_atom_site_fract_y
_atom_site_fract_z
Si Si1 0.406695 0.829140 0.755740
Si Si2 0.306080 0.827804 0.415685
Si Si3 0.730428 0.171849 0.756895
Si Si4 0.979794 0.172735 0.412901
Si Si5 0.399217 0.838790 0.042530
Si Si6 0.956077 0.663904 0.068529
O O1 0.552289 0.771125 0.743170
O O2 0.208290 0.764433 0.677220
O O3 0.467351 0.782739 0.853766
O O4 0.393086 0.000000 0.744705
O O5 0.500000 0.765724 0.500000
O O6 0.275458 0.774667 0.325966
O O7 0.146603 0.766758 0.417192
O O8 0.307686 0.000000 0.420194
O O9 0.907519 0.238340 0.845778
O O10 0.746197 0.000000 0.767374
O O11 0.000000 0.228444 0.500000
O O12 0.980463 0.000000 0.411170
O O13 0.325681 0.000000 0.040664
O O14 0.500000 0.849637 0.000000
O O15 0.242974 0.724463 0.982312
O O16 0.964345 0.500000 0.099498
O O17 0.000000 0.673021 0.000000
#
# Coordination Sequence:
#
# PCOD8060890 Si02
#       6
#     4   4   4   4   4   4
#     4   9  17  29  45  71 102 135 170 211 261 310
#     4   9  17  28  46  76 108 137 171 214 265 319
#     4  10  19  32  54  78 106 139 178 224 268 314
#     4   9  16  26  42  67 105 141 167 204 260 319
#     4  10  21  35  55  80 108 139 179 223 268 321
#     4  11  23  38  55  77 108 145 186 223 269 324
#
# _framework density 18.717860999999999
#
# number of rings (size 3 to 8) (size 9 to 14) (size 15 to 20)
#    0.000    2.333    1.667    1.500    2.333    5.000 
#    0.000    0.000    0.000    0.500    0.000    0.000 
#    0.000    3.333    0.000    0.000    0.000    0.000 
#
# Total GULP energy -297562.098352 kJ/mol
# GULP energy per Si atom -12398.420765 kJ/mol
# Density = 1.867526 g / cm^3
# Si number density = 18.717861 Si / 1000 Ang^3
#
#
#
# Elastic Constant Matrix: (Units=GPa)
#
#
# Indices 1 2 3 4 5 6 
#
# 1 139.9469 15.3742 85.5881 0.0000 -4.1103 0.0000
# 2 15.3742 23.8755 19.7206 0.0000 -0.8629 0.0000
# 3 85.5881 19.7206 170.4690 0.0000 6.8755 0.0000
# 4 0.0000 0.0000 0.0000 1.4865 0.0000 -3.9725
# 5 -4.1103 -0.8629 6.8755 0.0000 36.8096 0.0000
# 6 0.0000 0.0000 0.0000 -3.9725 0.0000 0.8642
#
#
#
# Elastic Compliance Matrix: (Units=1/GPa)
#
#
# Indices 1 2 3 4 5 6 
#
# 1 0.010617 -0.002531 -0.005122 0.000000 0.002083 0.000000
# 2 -0.002531 0.047074 -0.004240 0.000000 0.001613 0.000000
# 3 -0.005122 -0.004240 0.009023 0.000000 -0.002357 0.000000
# 4 0.000000 0.000000 0.000000 -0.059615 0.000000 -0.274039
# 5 0.002083 0.001613 -0.002357 0.000000 0.027877 0.000000
# 6 0.000000 0.000000 0.000000 -0.274039 0.000000 -0.102545
#
#
# Mechanical properties :
#
#
# Convention : Reuss Voigt Hill
#
# Bulk Modulus (GPa) = 23.29434 63.96191 43.62813
# Shear Modulus (GPa) = -169.65011 22.07262 -73.78875
#
# Velocity S-wave (km/s) = -9.53059 3.43771 -6.28547
# Velocity P-wave (km/s) = 10.42293 7.07128 5.41455
#
# Compressibility (1/GPa) = 0.04292889
#
# Stress axis : x y z
#
# Youngs Moduli (GPa) = 94.18705 21.24308 110.82459
#
# Poissons Ratio (x) = 0.05376 0.56762
# Poissons Ratio (y) = 0.23838 0.46991
# Poissons Ratio (z) = 0.48241 0.09007
#
# Static dielectric constant tensor:
#      x y z
#    x 3.732450 0.000000 -0.068480 
#    y 0.000000 2.945490 0.000000 
#    z -0.068480 0.000000 3.728050 
# 
# 
# High freq. dielectric constant tensor:
#      x y z
#    x 1.738730 0.000000 -0.001040 
#    y 0.000000 1.658800 0.000000 
#    z -0.001040 0.000000 1.744880 
# 
# From -- ./inp_files/27053.got.cif
#   From: 2010.06.25/outbox.cif.g09.slc.cpg/sg10_14_cif.got.tgz:27053.got - 2010.06.27 22:07:45.
