data_PCOD8060765
_publ_section_title
;
Structure prediction by ZEFSAII (Michael W. Deem and Ramdas Pophale) SiO2 
 PCOD8060765
Probable space group: P 2/M
;
_chemical_formula_sum "Si O2"
_cell_formula_units_Z 28
_cell_length_a 16.708876
_cell_length_b 8.615963
_cell_length_c 19.539653
_cell_angle_alpha 90.000000
_cell_angle_beta 148.482784
_cell_angle_gamma 90.000000
_cell_volume 1470.502905
_symmetry_space_group_name_H-M "P 2/M"
_symmetry_group_IT_number 10
_symmetry_cell_setting 'monoclinic'
loop_
_space_group_symop_operation_xyz
x,y,z
-x,y,-z
-x,-y,-z
x,-y,z
loop_
_atom_site_type_symbol
_atom_site_label
_atom_site_fract_x
_atom_site_fract_y
_atom_site_fract_z
Si Si1 0.093499 0.681497 0.500820
Si Si2 0.150995 0.173998 0.155182
Si Si3 0.929101 0.182383 0.251928
Si Si4 0.979043 0.681792 0.146979
Si Si5 0.419775 0.183933 0.008306
Si Si6 0.686627 0.317481 0.846635
Si Si7 0.426443 0.817081 0.742463
O O1 0.131366 0.500000 0.531128
O O2 0.249022 0.777467 0.609255
O O3 0.000000 0.734063 0.500000
O O4 0.996642 0.720366 0.363356
O O5 0.287812 0.245188 0.209880
O O6 0.120578 0.277111 0.200340
O O7 0.194886 0.000000 0.209571
O O8 0.000000 0.175774 0.000000
O O9 0.010295 0.226081 0.239953
O O10 0.946319 0.000000 0.279408
O O11 0.754665 0.237447 0.117622
O O12 0.977491 0.500000 0.160968
O O13 0.818226 0.737915 0.995981
O O14 0.506770 0.249845 0.137871
O O15 0.433212 0.000000 0.016980
O O16 0.500000 0.256371 0.000000
O O17 0.693060 0.500000 0.843224
O O18 0.519879 0.263248 0.749462
O O19 0.449766 0.000000 0.753176
#
# Coordination Sequence:
#
# PCOD8060765 Si02
#       7
#     4   4   4   4   4   4   4
#     4  11  25  43  59  80 113 152 193 237 289 347
#     4   9  17  29  49  78 113 150 191 234 277 328
#     4  11  21  36  59  84 113 148 191 238 284 337
#     4  10  19  32  52  81 118 153 187 229 285 341
#     4   9  18  32  53  82 111 138 177 233 288 333
#     4  10  19  32  52  81 118 153 187 229 285 341
#     4  11  21  36  59  84 113 148 191 238 284 337
#
# _framework density 19.041104000000001
#
# number of rings (size 3 to 8) (size 9 to 14) (size 15 to 20)
#    0.000    1.857    1.429    3.429    0.000    5.143 
#    0.000    0.000    0.000    4.286    0.000    6.000 
#    0.000    0.000    0.000    0.000    0.000    0.000 
#
# Total GULP energy -347282.001823 kJ/mol
# GULP energy per Si atom -12402.928637 kJ/mol
# Density = 1.899777 g / cm^3
# Si number density = 19.041104 Si / 1000 Ang^3
#
#
#
# Elastic Constant Matrix: (Units=GPa)
#
#
# Indices 1 2 3 4 5 6 
#
# 1 144.7050 19.0967 28.3231 0.0000 1.3277 0.0000
# 2 19.0967 47.5377 8.5190 0.0000 1.1486 0.0000
# 3 28.3231 8.5190 54.6120 0.0000 -4.9275 0.0000
# 4 0.0000 0.0000 0.0000 23.5394 0.0000 -1.6999
# 5 1.3277 1.1486 -4.9275 0.0000 24.7468 0.0000
# 6 0.0000 0.0000 0.0000 -1.6999 0.0000 29.6696
#
#
#
# Elastic Compliance Matrix: (Units=1/GPa)
#
#
# Indices 1 2 3 4 5 6 
#
# 1 0.008006 -0.002498 -0.003860 0.000000 -0.001082 0.000000
# 2 -0.002498 0.022492 -0.002337 0.000000 -0.001375 0.000000
# 3 -0.003860 -0.002337 0.021085 0.000000 0.004514 0.000000
# 4 0.000000 0.000000 0.000000 0.042659 0.000000 0.002444
# 5 -0.001082 -0.001375 0.004514 0.000000 0.041430 0.000000
# 6 0.000000 0.000000 0.000000 0.002444 0.000000 0.033845
#
#
# Mechanical properties :
#
#
# Convention : Reuss Voigt Hill
#
# Bulk Modulus (GPa) = 29.24674 39.85913 34.55294
# Shear Modulus (GPa) = 25.21404 28.31889 26.76646
#
# Velocity S-wave (km/s) = 3.64289 3.86067 3.75336
# Velocity P-wave (km/s) = 5.75216 6.39153 6.08026
#
# Compressibility (1/GPa) = 0.03419184
#
# Stress axis : x y z
#
# Youngs Moduli (GPa) = 124.91067 44.46122 47.42790
#
# Poissons Ratio (x) = 0.11107 0.18307
# Poissons Ratio (y) = 0.31205 0.11084
# Poissons Ratio (z) = 0.48214 0.10390
#
# Static dielectric constant tensor:
#      x y z
#    x 3.735350 0.000000 -0.026400 
#    y 0.000000 3.355020 0.000000 
#    z -0.026400 0.000000 3.196400 
# 
# 
# High freq. dielectric constant tensor:
#      x y z
#    x 1.759690 0.000000 -0.000170 
#    y 0.000000 1.738950 0.000000 
#    z -0.000170 0.000000 1.702930 
# 
# From -- ./inp_files/85651.got.cif
#   From: 2010.06.25/outbox.cif.g09.slc.cpg/sg10_43_cif.got.tgz:85651.got - 2010.06.27 22:07:45.
