data_PCOD8060877
_publ_section_title
;
Structure prediction by ZEFSAII (Michael W. Deem and Ramdas Pophale) SiO2 
 PCOD8060877
Probable space group: P 2/M
;
_chemical_formula_sum "Si O2"
_cell_formula_units_Z 28
_cell_length_a 19.849822
_cell_length_b 11.299908
_cell_length_c 17.727414
_cell_angle_alpha 90.000000
_cell_angle_beta 21.363113
_cell_angle_gamma 90.000000
_cell_volume 1448.468366
_symmetry_space_group_name_H-M "P 2/M"
_symmetry_group_IT_number 10
_symmetry_cell_setting 'monoclinic'
loop_
_space_group_symop_operation_xyz
x,y,z
-x,y,-z
-x,-y,-z
x,-y,z
loop_
_atom_site_type_symbol
_atom_site_label
_atom_site_fract_x
_atom_site_fract_y
_atom_site_fract_z
Si Si1 0.126851 0.364623 0.568446
Si Si2 0.538862 0.362900 0.878136
Si Si3 0.436002 0.249687 0.695996
Si Si4 0.130264 0.365173 0.928451
Si Si5 0.702525 0.637183 0.006612
Si Si6 0.085008 0.000000 0.826022
Si Si7 0.491184 0.000000 0.597736
Si Si8 0.848692 0.755502 0.308459
O O1 0.160053 0.500000 0.562790
O O2 0.247566 0.343197 0.367347
O O3 0.196638 0.266091 0.556376
O O4 0.916321 0.342744 0.765321
O O5 0.485549 0.500000 0.940353
O O6 0.500000 0.301696 0.000000
O O7 0.408706 0.308887 0.948252
O O8 0.382875 0.112034 0.743702
O O9 0.659695 0.264515 0.457005
O O10 0.334219 0.311747 0.730714
O O11 0.356818 0.295117 0.856610
O O12 0.163033 0.500000 0.872335
O O13 0.000035 0.348997 0.137397
O O14 0.000000 0.301548 0.000000
O O15 0.653428 0.500000 0.071684
O O16 0.302306 0.000000 0.590557
O O17 0.039790 0.122249 0.828248
O O18 0.000000 0.000000 0.000000
O O19 0.500000 0.000000 0.500000
#
# Coordination Sequence:
#
# PCOD8060877 Si02
#       8
#     4   4   4   4   4   2   2   4
#     4  10  19  32  53  83 114 146 187 230 276 338
#     4   9  18  32  52  81 117 153 186 225 279 339
#     4  11  23  39  58  79 111 147 190 238 286 335
#     4  11  25  39  55  81 111 146 187 233 289 345
#     4  10  19  33  55  81 113 150 184 228 283 334
#     4  10  24  40  58  82 108 147 189 246 299 334
#     4  10  26  40  58  84 108 144 196 243 295 341
#     4  11  22  37  59  81 109 146 194 236 284 342
#
# _framework density 19.330765
#
# number of rings (size 3 to 8) (size 9 to 14) (size 15 to 20)
#    0.000    1.714    2.857    1.286    6.000    2.286 
#    0.000    4.643    0.000    0.000    0.000    2.000 
#    0.000    2.286    0.000    0.000    0.000    0.000 
#
# Total GULP energy -346929.548726 kJ/mol
# GULP energy per Si atom -12390.341026 kJ/mol
# Density = 1.928677 g / cm^3
# Si number density = 19.330765 Si / 1000 Ang^3
#
#
#
# Elastic Constant Matrix: (Units=GPa)
#
#
# Indices 1 2 3 4 5 6 
#
# 1 94.4592 38.4658 33.5412 0.0000 2.7278 0.0000
# 2 38.4658 83.0000 34.8004 0.0000 6.1637 0.0000
# 3 33.5412 34.8004 96.9409 0.0000 -6.8419 0.0000
# 4 0.0000 0.0000 0.0000 12.6537 0.0000 -2.0295
# 5 2.7278 6.1637 -6.8419 0.0000 38.8652 0.0000
# 6 0.0000 0.0000 0.0000 -2.0295 0.0000 15.3125
#
#
#
# Elastic Compliance Matrix: (Units=1/GPa)
#
#
# Indices 1 2 3 4 5 6 
#
# 1 0.013725 -0.005060 -0.002981 0.000000 -0.000686 0.000000
# 2 -0.005060 0.016449 -0.004367 0.000000 -0.003022 0.000000
# 3 -0.002981 -0.004367 0.013142 0.000000 0.003215 0.000000
# 4 0.000000 0.000000 0.000000 0.080745 0.000000 0.010702
# 5 -0.000686 -0.003022 0.003215 0.000000 0.026823 0.000000
# 6 0.000000 0.000000 0.000000 0.010702 0.000000 0.066725
#
#
# Mechanical properties :
#
#
# Convention : Reuss Voigt Hill
#
# Bulk Modulus (GPa) = 54.05652 54.22388 54.14020
# Shear Modulus (GPa) = 20.11325 24.53912 22.32619
#
# Velocity S-wave (km/s) = 3.22914 3.56678 3.40215
# Velocity P-wave (km/s) = 6.47517 6.71372 6.59552
#
# Compressibility (1/GPa) = 0.01849916
#
# Stress axis : x y z
#
# Youngs Moduli (GPa) = 72.85724 60.79411 76.09373
#
# Poissons Ratio (x) = 0.30763 0.22682
# Poissons Ratio (y) = 0.36868 0.33233
# Poissons Ratio (z) = 0.21717 0.26551
#
# Static dielectric constant tensor:
#      x y z
#    x 3.731600 0.000000 -0.158510 
#    y 0.000000 3.490030 0.000000 
#    z -0.158510 0.000000 3.639680 
# 
# 
# High freq. dielectric constant tensor:
#      x y z
#    x 1.742820 0.000000 -0.016260 
#    y 0.000000 1.717070 0.000000 
#    z -0.016260 0.000000 1.766380 
# 
# From -- ./inp_files/79535.got.cif
#   From: 2010.06.25/outbox.cif.g09.slc.cpg/sg10_40_cif.got.tgz:79535.got - 2010.06.27 22:07:45.
