data_PCOD8060804
_publ_section_title
;
Structure prediction by ZEFSAII (Michael W. Deem and Ramdas Pophale) SiO2 
 PCOD8060804
Probable space group: P 2/M
;
_chemical_formula_sum "Si O2"
_cell_formula_units_Z 32
_cell_length_a 27.676052
_cell_length_b 8.611293
_cell_length_c 21.166524
_cell_angle_alpha 90.000000
_cell_angle_beta 160.689289
_cell_angle_gamma 90.000000
_cell_volume 1668.184920
_symmetry_space_group_name_H-M "P 2/M"
_symmetry_group_IT_number 10
_symmetry_cell_setting 'monoclinic'
loop_
_space_group_symop_operation_xyz
x,y,z
-x,y,-z
-x,-y,-z
x,-y,z
loop_
_atom_site_type_symbol
_atom_site_label
_atom_site_fract_x
_atom_site_fract_y
_atom_site_fract_z
Si Si1 0.181444 0.321309 0.863103
Si Si2 0.592205 0.181415 0.420681
Si Si3 0.098067 0.681646 0.180113
Si Si4 0.949086 0.319663 0.126293
Si Si5 0.315149 0.177665 0.148061
Si Si6 0.457201 0.677426 0.129978
Si Si7 0.414446 0.182643 0.834601
Si Si8 0.913407 0.816713 0.579577
O O1 0.189375 0.500000 0.896453
O O2 0.012241 0.268396 0.647207
O O3 0.242255 0.203273 0.990094
O O4 0.282135 0.300900 0.925313
O O5 0.753607 0.222451 0.641793
O O6 0.485340 0.224413 0.348152
O O7 0.549810 0.276345 0.305870
O O8 0.577970 0.000000 0.386998
O O9 0.135135 0.500000 0.225135
O O10 0.012175 0.731163 0.136968
O O11 0.000000 0.730367 0.000000
O O12 0.974023 0.500000 0.169973
O O13 0.032000 0.223622 0.282626
O O14 0.774347 0.281113 0.911569
O O15 0.299390 0.000000 0.149596
O O16 0.495453 0.500000 0.161753
O O17 0.499544 0.780923 0.123117
O O18 0.250236 0.249826 0.629990
O O19 0.405849 0.000000 0.831303
O O20 0.500000 0.255842 0.000000
O O21 0.919749 0.000000 0.577099
#
# Coordination Sequence:
#
# PCOD8060804 Si02
#       8
#     4   4   4   4   4   4   4   4
#     4   9  17  30  50  77 105 130 163 208 255 303
#     4  10  20  34  55  81 105 134 171 211 257 307
#     4  10  22  38  53  73 104 140 177 216 257 304
#     4  10  19  32  53  78 102 131 168 209 255 305
#     4   9  17  30  50  77 105 130 163 208 255 303
#     4  10  20  34  55  81 105 134 171 211 257 307
#     4  10  22  38  53  73 104 140 177 216 257 304
#     4  10  19  32  53  78 102 131 168 209 255 305
#
# _framework density 19.182525999999999
#
# number of rings (size 3 to 8) (size 9 to 14) (size 15 to 20)
#    0.000    2.250    0.000    4.500    0.000    7.500 
#    0.000    1.250    0.000    7.500    0.000    0.000 
#    0.000    0.000    0.000    0.000    0.000    0.000 
#
# Total GULP energy -396657.698382 kJ/mol
# GULP energy per Si atom -12395.553074 kJ/mol
# Density = 1.913887 g / cm^3
# Si number density = 19.182526 Si / 1000 Ang^3
#
#
#
# Elastic Constant Matrix: (Units=GPa)
#
#
# Indices 1 2 3 4 5 6 
#
# 1 75.0645 16.9066 85.7275 0.0000 25.9171 0.0000
# 2 16.9066 37.3953 26.4939 0.0000 9.2149 0.0000
# 3 85.7275 26.4939 114.6758 0.0000 26.8308 0.0000
# 4 0.0000 0.0000 0.0000 19.6209 0.0000 7.5338
# 5 25.9171 9.2149 26.8308 0.0000 33.0497 0.0000
# 6 0.0000 0.0000 0.0000 7.5338 0.0000 26.2689
#
#
#
# Elastic Compliance Matrix: (Units=1/GPa)
#
#
# Indices 1 2 3 4 5 6 
#
# 1 0.107693 0.012392 -0.077529 0.000000 -0.024966 0.000000
# 2 0.012392 0.033752 -0.015537 0.000000 -0.006514 0.000000
# 3 -0.077529 -0.015537 0.067933 0.000000 0.009979 0.000000
# 4 0.000000 0.000000 0.000000 0.057273 0.000000 -0.016426
# 5 -0.024966 -0.006514 0.009979 0.000000 0.043550 0.000000
# 6 0.000000 0.000000 0.000000 -0.016426 0.000000 0.042779
#
#
# Mechanical properties :
#
#
# Convention : Reuss Voigt Hill
#
# Bulk Modulus (GPa) = 20.82082 53.93239 37.37660
# Shear Modulus (GPa) = 9.42795 22.32173 15.87484
#
# Velocity S-wave (km/s) = 2.21935 3.41493 2.87987
# Velocity P-wave (km/s) = 4.17672 6.61252 5.53039
#
# Compressibility (1/GPa) = 0.04802885
#
# Stress axis : x y z
#
# Youngs Moduli (GPa) = 9.28569 29.62771 14.72043
#
# Poissons Ratio (x) = -0.36714 1.14126
# Poissons Ratio (y) = -0.11506 0.22871
# Poissons Ratio (z) = 0.71991 0.46033
#
# Static dielectric constant tensor:
#      x y z
#    x 3.550040 0.000000 0.500660 
#    y 0.000000 3.428760 0.000000 
#    z 0.500660 0.000000 3.785200 
# 
# 
# High freq. dielectric constant tensor:
#      x y z
#    x 1.734010 0.000000 0.039490 
#    y 0.000000 1.748870 0.000000 
#    z 0.039490 0.000000 1.736410 
# 
# From -- ./inp_files/87051.got.cif
#   From: 2010.06.25/outbox.cif.g09.slc.cpg/sg10_44_cif.got.tgz:87051.got - 2010.06.27 22:07:45.
