data_PCOD8060132
_publ_section_title
;
Structure prediction by ZEFSAII (Michael W. Deem and Ramdas Pophale) SiO2 
 PCOD8060132
Probable space group: P 2/M
;
_chemical_formula_sum "Si O2"
_cell_formula_units_Z 32
_cell_length_a 15.352231
_cell_length_b 9.111035
_cell_length_c 27.455784
_cell_angle_alpha 90.000000
_cell_angle_beta 27.938133
_cell_angle_gamma 90.000000
_cell_volume 1799.282047
_symmetry_space_group_name_H-M "P 2/M"
_symmetry_group_IT_number 10
_symmetry_cell_setting 'monoclinic'
loop_
_space_group_symop_operation_xyz
x,y,z
-x,y,-z
-x,-y,-z
x,-y,z
loop_
_atom_site_type_symbol
_atom_site_label
_atom_site_fract_x
_atom_site_fract_y
_atom_site_fract_z
Si Si1 0.438730 0.673430 0.918957
Si Si2 0.209649 0.831377 0.839267
Si Si3 0.290109 0.659772 0.619095
Si Si4 0.215703 0.831030 0.949133
Si Si5 0.212617 0.830599 0.565602
Si Si6 0.803196 0.170272 0.770846
Si Si7 0.435631 0.326664 0.647493
Si Si8 0.298822 0.160661 0.076408
O O1 0.447363 0.500000 0.915948
O O2 0.355047 0.726883 0.909440
O O3 0.648249 0.734162 0.820182
O O4 0.301437 0.727281 0.030032
O O5 0.257350 0.805316 0.871954
O O6 0.347650 0.729969 0.740683
O O7 0.243495 0.000000 0.808169
O O8 0.996549 0.787684 0.933986
O O9 0.500000 0.635093 0.500000
O O10 0.188694 0.500000 0.665550
O O11 0.199584 0.778366 0.628240
O O12 0.295452 0.716952 0.672473
O O13 0.252155 0.000000 0.945234
O O14 0.359431 0.741673 0.460872
O O15 0.004947 0.807628 0.646030
O O16 0.271171 0.000000 0.536408
O O17 0.827292 0.216953 0.816202
O O18 0.740345 0.000000 0.799577
O O19 0.462816 0.500000 0.636575
O O20 0.232653 0.000000 0.090131
O O21 0.500000 0.147127 0.000000
#
# Coordination Sequence:
#
# PCOD8060132 Si02
#       8
#     4   4   4   4   4   4   4   4
#     4  11  21  31  49  77 104 133 168 203 247 303
#     4   9  19  36  58  79  96 124 166 205 245 297
#     4   8  16  30  44  63  96 134 165 196 243 292
#     4   9  19  37  57  76 100 127 159 204 253 297
#     4  10  19  31  50  74  99 133 178 216 243 283
#     4   9  19  34  50  70  99 137 176 212 249 286
#     4  10  20  33  50  74 106 138 163 199 254 304
#     4   8  15  30  48  65  92 130 168 205 244 282
#
# _framework density 17.784870999999999
#
# number of rings (size 3 to 8) (size 9 to 14) (size 15 to 20)
#    0.000    2.750    0.000    4.125    0.000    8.000 
#    0.000    5.000    0.000    0.750    0.000    5.250 
#    0.000    0.000    0.000    0.000    0.000    0.000 
#
# Total GULP energy -396603.855699 kJ/mol
# GULP energy per Si atom -12393.870491 kJ/mol
# Density = 1.774439 g / cm^3
# Si number density = 17.784871 Si / 1000 Ang^3
#
#
#
# Elastic Constant Matrix: (Units=GPa)
#
#
# Indices 1 2 3 4 5 6 
#
# 1 84.5792 55.6718 42.6337 0.0000 -0.2266 0.0000
# 2 55.6718 112.5646 54.1984 0.0000 -2.3429 0.0000
# 3 42.6337 54.1984 99.0852 0.0000 3.8250 0.0000
# 4 0.0000 0.0000 0.0000 180.9090 0.0000 390.0432
# 5 -0.2266 -2.3429 3.8250 0.0000 19.0785 0.0000
# 6 0.0000 0.0000 0.0000 390.0432 0.0000 915.2841
#
#
#
# Elastic Compliance Matrix: (Units=1/GPa)
#
#
# Indices 1 2 3 4 5 6 
#
# 1 0.018653 -0.007270 -0.004055 0.000000 0.000142 0.000000
# 2 -0.007270 0.015047 -0.005211 0.000000 0.002806 0.000000
# 3 -0.004055 -0.005211 0.014828 0.000000 -0.003661 0.000000
# 4 0.000000 0.000000 0.000000 0.068054 0.000000 -0.029001
# 5 0.000142 0.002806 -0.003661 0.000000 0.053495 0.000000
# 6 0.000000 0.000000 0.000000 -0.029001 0.000000 0.013451
#
#
# Mechanical properties :
#
#
# Convention : Reuss Voigt Hill
#
# Bulk Modulus (GPa) = 64.69432 66.80409 65.74921
# Shear Modulus (GPa) = 22.54785 232.63597 127.59191
#
# Velocity S-wave (km/s) = 3.56450 11.44943 8.47924
# Velocity P-wave (km/s) = 7.30725 14.57497 11.52878
#
# Compressibility (1/GPa) = 0.01545731
#
# Stress axis : x y z
#
# Youngs Moduli (GPa) = 53.61158 66.46037 67.43837
#
# Poissons Ratio (x) = 0.48317 0.27344
# Poissons Ratio (y) = 0.38976 0.35139
# Poissons Ratio (z) = 0.21738 0.34629
#
# Static dielectric constant tensor:
#      x y z
#    x 3.224560 0.000000 0.045090 
#    y 0.000000 3.253400 0.000000 
#    z 0.045090 0.000000 3.433310 
# 
# 
# High freq. dielectric constant tensor:
#      x y z
#    x 1.665340 0.000000 -0.001780 
#    y 0.000000 1.688110 0.000000 
#    z -0.001780 0.000000 1.679570 
# 
# From -- ./inp_files/93104.got.cif
#   From: 2010.06.25/outbox.cif.g09.slc.cpg/sg10_47_cif.got.tgz:93104.got - 2010.06.27 22:07:45.
