data_PCOD8060479
_publ_section_title
;
Structure prediction by ZEFSAII (Michael W. Deem and Ramdas Pophale) SiO2 
 PCOD8060479
Probable space group: P 2/M
;
_chemical_formula_sum "Si O2"
_cell_formula_units_Z 32
_cell_length_a 21.100243
_cell_length_b 8.768147
_cell_length_c 12.551312
_cell_angle_alpha 90.000000
_cell_angle_beta 126.892374
_cell_angle_gamma 90.000000
_cell_volume 1857.148207
_symmetry_space_group_name_H-M "P 2/M"
_symmetry_group_IT_number 10
_symmetry_cell_setting 'monoclinic'
loop_
_space_group_symop_operation_xyz
x,y,z
-x,y,-z
-x,-y,-z
x,-y,z
loop_
_atom_site_type_symbol
_atom_site_label
_atom_site_fract_x
_atom_site_fract_y
_atom_site_fract_z
Si Si1 0.502901 0.171404 0.129445
Si Si2 0.185600 0.177792 0.882491
Si Si3 0.179764 0.177847 0.489864
Si Si4 0.663280 0.322191 0.286312
Si Si5 0.342554 0.322252 0.967640
Si Si6 0.907031 0.323628 0.401521
Si Si7 0.908678 0.324708 0.785054
Si Si8 0.908604 0.324816 0.030298
O O1 0.577509 0.271189 0.243513
O O2 0.512320 0.000000 0.182230
O O3 0.500000 0.175384 0.000000
O O4 0.421531 0.241530 0.092000
O O5 0.268716 0.265034 0.961297
O O6 0.127429 0.226381 0.729461
O O7 0.145742 0.214786 0.954891
O O8 0.202706 0.000000 0.890310
O O9 0.271292 0.226884 0.584044
O O10 0.130521 0.273883 0.525474
O O11 0.145736 0.213594 0.339030
O O12 0.171908 0.000000 0.507383
O O13 0.674799 0.500000 0.320403
O O14 0.673046 0.282763 0.171555
O O15 0.354794 0.500000 0.996685
O O16 0.886146 0.500000 0.360259
O O17 0.000000 0.294698 0.500000
O O18 0.893001 0.500000 0.737229
O O19 0.000073 0.283112 0.856828
O O20 0.886357 0.297501 0.885218
O O21 0.893302 0.500000 0.047476
#
# Coordination Sequence:
#
# PCOD8060479 Si02
#       8
#     4   4   4   4   4   4   4   4
#     4   9  17  29  47  71 102 133 166 209 256 299
#     4  12  23  33  50  76 106 135 168 213 263 306
#     4  12  23  33  50  76 106 135 168 213 263 306
#     4  10  19  32  50  71 100 138 177 209 245 302
#     4  10  19  32  50  71 100 138 177 209 245 302
#     4  11  23  37  51  68  97 138 177 209 249 309
#     4   9  19  37  58  76  97 131 175 218 259 307
#     4   9  19  37  58  76  97 131 175 218 259 307
#
# _framework density 17.230720000000002
#
# number of rings (size 3 to 8) (size 9 to 14) (size 15 to 20)
#    0.000    1.750    1.250    5.250    0.000    7.500 
#    0.000    1.250    0.000    0.000    0.000    0.875 
#    0.000    7.000    0.000    0.000    0.000    0.000 
#
# Total GULP energy -396939.064910 kJ/mol
# GULP energy per Si atom -12404.345778 kJ/mol
# Density = 1.719150 g / cm^3
# Si number density = 17.230720 Si / 1000 Ang^3
#
#
#
# Elastic Constant Matrix: (Units=GPa)
#
#
# Indices 1 2 3 4 5 6 
#
# 1 81.1256 25.9876 42.2286 0.0000 11.8404 0.0000
# 2 25.9876 49.5614 17.9383 0.0000 7.5198 0.0000
# 3 42.2286 17.9383 64.0685 0.0000 9.4901 0.0000
# 4 0.0000 0.0000 0.0000 22.6634 0.0000 2.0168
# 5 11.8404 7.5198 9.4901 0.0000 23.2390 0.0000
# 6 0.0000 0.0000 0.0000 2.0168 0.0000 23.3195
#
#
#
# Elastic Compliance Matrix: (Units=1/GPa)
#
#
# Indices 1 2 3 4 5 6 
#
# 1 0.020824 -0.006191 -0.011407 0.000000 -0.003948 0.000000
# 2 -0.006191 0.024853 -0.002292 0.000000 -0.003951 0.000000
# 3 -0.011407 -0.002292 0.024266 0.000000 -0.003356 0.000000
# 4 0.000000 0.000000 0.000000 0.044466 0.000000 -0.003846
# 5 -0.003948 -0.003951 -0.003356 0.000000 0.047692 0.000000
# 6 0.000000 0.000000 0.000000 -0.003846 0.000000 0.043215
#
#
# Mechanical properties :
#
#
# Convention : Reuss Voigt Hill
#
# Bulk Modulus (GPa) = 33.15551 40.78496 36.97023
# Shear Modulus (GPa) = 19.59628 21.08444 20.34036
#
# Velocity S-wave (km/s) = 3.37603 3.50187 3.43953
# Velocity P-wave (km/s) = 5.87202 6.33025 6.10544
#
# Compressibility (1/GPa) = 0.03016090
#
# Stress axis : x y z
#
# Youngs Moduli (GPa) = 48.02170 40.23717 41.21038
#
# Poissons Ratio (x) = 0.24912 0.47009
# Poissons Ratio (y) = 0.29732 0.09447
# Poissons Ratio (z) = 0.54779 0.09223
#
# Static dielectric constant tensor:
#      x y z
#    x 3.181400 0.000000 0.196630 
#    y 0.000000 3.270900 0.000000 
#    z 0.196630 0.000000 3.097690 
# 
# 
# High freq. dielectric constant tensor:
#      x y z
#    x 1.656350 0.000000 0.022410 
#    y 0.000000 1.676180 0.000000 
#    z 0.022410 0.000000 1.642990 
# 
# From -- ./inp_files/55397.got.cif
#   From: 2010.06.25/outbox.cif.g09.slc.cpg/sg10_28_cif.got.tgz:55397.got - 2010.06.27 22:07:45.
