data_PCOD8060063
_publ_section_title
;
Structure prediction by ZEFSAII (Michael W. Deem and Ramdas Pophale) SiO2 
 PCOD8060063
Probable space group: P 2/M
;
_chemical_formula_sum "Si O2"
_cell_formula_units_Z 28
_cell_length_a 31.624258
_cell_length_b 8.647544
_cell_length_c 31.624255
_cell_angle_alpha 90.000000
_cell_angle_beta 170.551326
_cell_angle_gamma 90.000000
_cell_volume 1419.748440
_symmetry_space_group_name_H-M "P 2/M"
_symmetry_group_IT_number 10
_symmetry_cell_setting 'monoclinic'
loop_
_space_group_symop_operation_xyz
x,y,z
-x,y,-z
-x,-y,-z
x,-y,z
loop_
_atom_site_type_symbol
_atom_site_label
_atom_site_fract_x
_atom_site_fract_y
_atom_site_fract_z
Si Si1 0.548427 0.183615 0.451507
Si Si2 0.167589 0.316169 0.832427
Si Si3 0.595155 0.683685 0.404824
Si Si4 0.310253 0.816238 0.689731
Si Si5 0.738154 0.816258 0.261846
Si Si6 0.023802 0.816232 0.976132
Si Si7 0.119327 0.316590 0.880653
O O1 0.571638 0.253364 0.428390
O O2 0.785072 0.245383 0.713084
O O3 0.550115 0.000000 0.449821
O O4 0.286814 0.245385 0.214814
O O5 0.168979 0.500000 0.831043
O O6 0.143404 0.256359 0.856603
O O7 0.928799 0.250306 0.571368
O O8 0.428652 0.250304 0.071222
O O9 0.594556 0.500000 0.405436
O O10 0.856573 0.748528 0.641757
O O11 0.358205 0.748531 0.143393
O O12 0.286007 0.758925 0.713988
O O13 0.311934 0.000000 0.688040
O O14 0.000000 0.748793 0.500000
O O15 0.739181 0.000000 0.260826
O O16 0.500000 0.748793 0.000000
O O17 0.023053 0.000000 0.976899
O O18 0.000000 0.748490 0.000000
O O19 0.118996 0.500000 0.880992
#
# Coordination Sequence:
#
# PCOD8060063 Si02
#       7
#     4   4   4   4   4   4   4
#     4  10  19  31  49  74 100 125 160 206 253 297
#     4  11  22  39  61  83 112 151 192 230 277 338
#     4  10  19  34  54  74  98 131 172 212 253 303
#     4  11  22  37  59  88 117 144 185 239 286 327
#     4   9  17  31  53  79 107 144 187 225 265 325
#     4   9  17  30  49  71  96 129 166 200 238 295
#     4   9  19  35  55  75  98 137 182 214 246 312
#
# _framework density 19.721805
#
# number of rings (size 3 to 8) (size 9 to 14) (size 15 to 20)
#    0.000    2.143    0.000    3.857    0.000    6.286 
#    0.000    4.286    0.000   11.143    0.000    0.000 
#    0.000    0.000    0.000    0.000    0.000    0.000 
#
# Total GULP energy -347283.243288 kJ/mol
# GULP energy per Si atom -12402.972975 kJ/mol
# Density = 1.967692 g / cm^3
# Si number density = 19.721805 Si / 1000 Ang^3
#
#
#
# Elastic Constant Matrix: (Units=GPa)
#
#
# Indices 1 2 3 4 5 6 
#
# 1 227.9175 31.9747 129.6911 0.0000 0.2373 0.0000
# 2 31.9747 34.7935 29.0387 0.0000 -0.2590 0.0000
# 3 129.6911 29.0387 234.4130 0.0000 0.3434 0.0000
# 4 0.0000 0.0000 0.0000 18.5052 0.0000 -2.1371
# 5 0.2373 -0.2590 0.3434 0.0000 50.4423 0.0000
# 6 0.0000 0.0000 0.0000 -2.1371 0.0000 42.7565
#
#
#
# Elastic Compliance Matrix: (Units=1/GPa)
#
#
# Indices 1 2 3 4 5 6 
#
# 1 0.006754 -0.003445 -0.003310 0.000000 -0.000027 0.000000
# 2 -0.003445 0.033814 -0.002283 0.000000 0.000205 0.000000
# 3 -0.003310 -0.002283 0.006380 0.000000 -0.000040 0.000000
# 4 0.000000 0.000000 0.000000 0.054352 0.000000 0.002717
# 5 -0.000027 0.000205 -0.000040 0.000000 0.019826 0.000000
# 6 0.000000 0.000000 0.000000 0.002717 0.000000 0.023524
#
#
# Mechanical properties :
#
#
# Convention : Reuss Voigt Hill
#
# Bulk Modulus (GPa) = 34.63546 97.61479 66.12513
# Shear Modulus (GPa) = 29.01047 42.76876 35.88962
#
# Velocity S-wave (km/s) = 3.83950 4.66188 4.27053
# Velocity P-wave (km/s) = 6.10376 8.86458 7.61041
#
# Compressibility (1/GPa) = 0.02887214
#
# Stress axis : x y z
#
# Youngs Moduli (GPa) = 148.05114 29.57370 156.73323
#
# Poissons Ratio (x) = 0.10187 0.51881
# Poissons Ratio (y) = 0.51000 0.35787
# Poissons Ratio (z) = 0.49008 0.06752
#
# Static dielectric constant tensor:
#      x y z
#    x 3.851190 0.000000 0.011160 
#    y 0.000000 3.159480 0.000000 
#    z 0.011160 0.000000 3.977490 
# 
# 
# High freq. dielectric constant tensor:
#      x y z
#    x 1.790350 0.000000 0.000250 
#    y 0.000000 1.726160 0.000000 
#    z 0.000250 0.000000 1.793160 
# 
# From -- ./inp_files/94288.got.cif
#   From: 2010.06.25/outbox.cif.g09.slc.cpg/sg10_48_cif.got.tgz:94288.got - 2010.06.27 22:07:45.
