data_PCOD8060672
_publ_section_title
;
Structure prediction by ZEFSAII (Michael W. Deem and Ramdas Pophale) SiO2 
 PCOD8060672
Probable space group: P 2/M
;
_chemical_formula_sum "Si O2"
_cell_formula_units_Z 24
_cell_length_a 11.979675
_cell_length_b 8.572566
_cell_length_c 20.771289
_cell_angle_alpha 90.000000
_cell_angle_beta 39.189485
_cell_angle_gamma 90.000000
_cell_volume 1347.903474
_symmetry_space_group_name_H-M "P 2/M"
_symmetry_group_IT_number 10
_symmetry_cell_setting 'monoclinic'
loop_
_space_group_symop_operation_xyz
x,y,z
-x,y,-z
-x,-y,-z
x,-y,z
loop_
_atom_site_type_symbol
_atom_site_label
_atom_site_fract_x
_atom_site_fract_y
_atom_site_fract_z
Si Si1 0.112086 0.820361 0.624603
Si Si2 0.149160 0.815351 0.887243
Si Si3 0.195442 0.180057 0.724366
Si Si4 0.556218 0.319854 0.580486
Si Si5 0.544813 0.181258 0.720861
Si Si6 0.891889 0.682414 0.611440
O O1 0.061924 0.799038 0.723326
O O2 0.286674 0.716973 0.538375
O O3 0.956857 0.764014 0.647605
O O4 0.153767 0.000000 0.591133
O O5 0.110910 0.763703 0.830192
O O6 0.343865 0.759575 0.823463
O O7 0.140966 0.000000 0.896487
O O8 0.000000 0.739034 0.000000
O O9 0.369797 0.280707 0.631242
O O10 0.253657 0.000000 0.705819
O O11 0.563548 0.500000 0.598175
O O12 0.589703 0.210106 0.626676
O O13 0.684306 0.278607 0.700535
O O14 0.567012 0.000000 0.727588
O O15 0.922494 0.500000 0.605193
O O16 0.000000 0.743256 0.500000
#
# Coordination Sequence:
#
# PCOD8060672 Si02
#       6
#     4   4   4   4   4   4
#     4  11  21  32  48  69  99 136 171 205 242 292
#     4   8  15  31  56  81 101 122 156 208 260 298
#     4   9  19  33  49  73 100 129 166 206 250 296
#     4  11  20  30  46  70 101 136 169 202 244 293
#     4  10  19  32  52  76 101 132 169 207 248 292
#     4  11  22  34  49  71 101 137 174 208 242 289
#
# _framework density 17.805430000000001
#
# number of rings (size 3 to 8) (size 9 to 14) (size 15 to 20)
#    0.000    2.000    1.667    4.500    0.000    4.000 
#    0.000    0.000    0.000   13.500    0.000    7.000 
#    0.000    0.000    0.000    0.000    0.000    0.000 
#
# Total GULP energy -297467.973752 kJ/mol
# GULP energy per Si atom -12394.498906 kJ/mol
# Density = 1.776490 g / cm^3
# Si number density = 17.805430 Si / 1000 Ang^3
#
#
#
# Elastic Constant Matrix: (Units=GPa)
#
#
# Indices 1 2 3 4 5 6 
#
# 1 139.4759 18.0373 60.7900 0.0000 4.8555 0.0000
# 2 18.0373 39.8251 14.2307 0.0000 -3.6378 0.0000
# 3 60.7900 14.2307 104.0217 0.0000 -0.6456 0.0000
# 4 0.0000 0.0000 0.0000 7.8819 0.0000 -1.2586
# 5 4.8555 -3.6378 -0.6456 0.0000 14.2646 0.0000
# 6 0.0000 0.0000 0.0000 -1.2586 0.0000 15.7080
#
#
#
# Elastic Compliance Matrix: (Units=1/GPa)
#
#
# Indices 1 2 3 4 5 6 
#
# 1 0.010127 -0.003018 -0.005533 0.000000 -0.004467 0.000000
# 2 -0.003018 0.027930 -0.002007 0.000000 0.008059 0.000000
# 3 -0.005533 -0.002007 0.013134 0.000000 0.001966 0.000000
# 4 0.000000 0.000000 0.000000 0.128517 0.000000 0.010297
# 5 -0.004467 0.008059 0.001966 0.000000 0.073769 0.000000
# 6 0.000000 0.000000 0.000000 0.010297 0.000000 0.064487
#
#
# Mechanical properties :
#
#
# Convention : Reuss Voigt Hill
#
# Bulk Modulus (GPa) = 33.25083 52.15986 42.70534
# Shear Modulus (GPa) = 14.32235 20.25520 17.28877
#
# Velocity S-wave (km/s) = 2.83924 3.37647 3.11944
# Velocity P-wave (km/s) = 5.42802 6.67523 6.08367
#
# Compressibility (1/GPa) = 0.03007444
#
# Stress axis : x y z
#
# Youngs Moduli (GPa) = 98.74558 35.80380 76.13970
#
# Poissons Ratio (x) = 0.10804 0.42129
# Poissons Ratio (y) = 0.29797 0.15285
# Poissons Ratio (z) = 0.54637 0.07188
#
# Static dielectric constant tensor:
#      x y z
#    x 3.401500 0.000000 0.039210 
#    y 0.000000 3.162830 0.000000 
#    z 0.039210 0.000000 3.310550 
# 
# 
# High freq. dielectric constant tensor:
#      x y z
#    x 1.693010 0.000000 0.005450 
#    y 0.000000 1.680960 0.000000 
#    z 0.005450 0.000000 1.649150 
# 
# From -- ./inp_files/45128.got.cif
#   From: 2010.06.25/outbox.cif.g09.slc.cpg/sg10_23_cif.got.tgz:45128.got - 2010.06.27 22:07:45.
