data_PCOD8060521
_publ_section_title
;
Structure prediction by ZEFSAII (Michael W. Deem and Ramdas Pophale) SiO2 
 PCOD8060521
Probable space group: P 2/M
;
_chemical_formula_sum "Si O2"
_cell_formula_units_Z 32
_cell_length_a 23.617789
_cell_length_b 14.114847
_cell_length_c 18.704587
_cell_angle_alpha 90.000000
_cell_angle_beta 16.920572
_cell_angle_gamma 90.000000
_cell_volume 1814.783202
_symmetry_space_group_name_H-M "P 2/M"
_symmetry_group_IT_number 10
_symmetry_cell_setting 'monoclinic'
loop_
_space_group_symop_operation_xyz
x,y,z
-x,y,-z
-x,-y,-z
x,-y,z
loop_
_atom_site_type_symbol
_atom_site_label
_atom_site_fract_x
_atom_site_fract_y
_atom_site_fract_z
Si Si1 0.442644 0.797656 0.151624
Si Si2 0.988561 0.111476 0.175404
Si Si3 0.682777 0.887422 0.322293
Si Si4 0.408382 0.112321 0.408419
Si Si5 0.332366 0.601947 0.261118
Si Si6 0.064610 0.607615 0.342955
Si Si7 0.721772 0.210107 0.939954
Si Si8 0.039072 0.109307 0.634517
O O1 0.373181 0.692535 0.262349
O O2 0.621957 0.827181 0.986694
O O3 0.268973 0.872560 0.363896
O O4 0.500000 0.790570 0.000000
O O5 0.764801 0.141550 0.435731
O O6 0.056393 0.139028 0.173560
O O7 0.000650 0.000000 0.150579
O O8 0.127345 0.156548 0.946646
O O9 0.500000 0.847759 0.500000
O O10 0.664571 0.854501 0.425743
O O11 0.690776 0.000000 0.310079
O O12 0.591808 0.175449 0.163640
O O13 0.461327 0.000000 0.342219
O O14 0.331091 0.500000 0.304031
O O15 0.121462 0.619375 0.482166
O O16 0.500000 0.595906 0.000000
O O17 0.145182 0.500000 0.244671
O O18 0.000000 0.637983 0.500000
O O19 0.241347 0.676634 0.105405
O O20 0.935761 0.164425 0.693996
O O21 0.007171 0.000000 0.657174
#
# Coordination Sequence:
#
# PCOD8060521 Si02
#       8
#     4   4   4   4   4   4   4   4
#     4  11  23  38  55  73 101 140 183 224 268 319
#     4   9  17  32  51  72 102 139 179 222 263 307
#     4   9  16  27  47  74 102 134 174 217 262 313
#     4  10  19  32  50  75 106 144 179 211 260 314
#     4   9  17  33  56  80 103 126 160 215 280 332
#     4  10  20  35  57  82 105 131 171 224 280 330
#     4  12  23  35  57  78 107 140 178 221 274 320
#     4  11  23  38  53  74 106 144 185 225 263 305
#
# _framework density 17.632961000000002
#
# number of rings (size 3 to 8) (size 9 to 14) (size 15 to 20)
#    0.000    1.875    2.500    3.000    0.000    5.750 
#    0.000    0.625    0.000    0.000    0.000    0.000 
#    0.000    7.500    0.000    0.000    0.000    0.625 
#
# Total GULP energy -396512.779327 kJ/mol
# GULP energy per Si atom -12391.024354 kJ/mol
# Density = 1.759283 g / cm^3
# Si number density = 17.632961 Si / 1000 Ang^3
#
#
#
# Elastic Constant Matrix: (Units=GPa)
#
#
# Indices 1 2 3 4 5 6 
#
# 1 75.4853 39.6875 34.3302 0.0000 -20.5700 0.0000
# 2 39.6875 63.7122 29.0740 0.0000 7.1301 0.0000
# 3 34.3302 29.0740 84.5870 0.0000 -4.8994 0.0000
# 4 0.0000 0.0000 0.0000 23.8866 0.0000 -9.8482
# 5 -20.5700 7.1301 -4.8994 0.0000 27.2984 0.0000
# 6 0.0000 0.0000 0.0000 -9.8482 0.0000 11.9054
#
#
#
# Elastic Compliance Matrix: (Units=1/GPa)
#
#
# Indices 1 2 3 4 5 6 
#
# 1 0.038312 -0.025583 -0.004746 0.000000 0.034699 0.000000
# 2 -0.025583 0.036751 -0.003963 0.000000 -0.029587 0.000000
# 3 -0.004746 -0.003963 0.015120 0.000000 0.000172 0.000000
# 4 0.000000 0.000000 0.000000 0.063532 0.000000 0.052554
# 5 0.034699 -0.029587 0.000172 0.000000 0.070538 0.000000
# 6 0.000000 0.000000 0.000000 0.052554 0.000000 0.127469
#
#
# Mechanical properties :
#
#
# Convention : Reuss Voigt Hill
#
# Bulk Modulus (GPa) = 46.29566 47.77420 47.03493
# Shear Modulus (GPa) = 11.69571 20.66426 16.17999
#
# Velocity S-wave (km/s) = 2.57823 3.42703 3.03248
# Velocity P-wave (km/s) = 5.93087 6.54308 6.24448
#
# Compressibility (1/GPa) = 0.02160030
#
# Stress axis : x y z
#
# Youngs Moduli (GPa) = 26.10123 27.21011 66.13541
#
# Poissons Ratio (x) = 0.69611 0.31389
# Poissons Ratio (y) = 0.66774 0.26208
# Poissons Ratio (z) = 0.12388 0.10783
#
# Static dielectric constant tensor:
#      x y z
#    x 3.354630 0.000000 -0.166410 
#    y 0.000000 3.287520 0.000000 
#    z -0.166410 0.000000 3.416170 
# 
# 
# High freq. dielectric constant tensor:
#      x y z
#    x 1.676640 0.000000 -0.023140 
#    y 0.000000 1.641700 0.000000 
#    z -0.023140 0.000000 1.687020 
# 
# From -- ./inp_files/79717.got.cif
#   From: 2010.06.25/outbox.cif.g09.slc.cpg/sg10_40_cif.got.tgz:79717.got - 2010.06.27 22:07:45.
