data_PCOD8060380
_publ_section_title
;
Structure prediction by ZEFSAII (Michael W. Deem and Ramdas Pophale) SiO2 
 PCOD8060380
Probable space group: P 2/M
;
_chemical_formula_sum "Si O2"
_cell_formula_units_Z 20
_cell_length_a 5.048621
_cell_length_b 13.622398
_cell_length_c 17.639977
_cell_angle_alpha 90.000000
_cell_angle_beta 104.447378
_cell_angle_gamma 90.000000
_cell_volume 1174.813420
_symmetry_space_group_name_H-M "P 2/M"
_symmetry_group_IT_number 10
_symmetry_cell_setting 'monoclinic'
loop_
_space_group_symop_operation_xyz
x,y,z
-x,y,-z
-x,-y,-z
x,-y,z
loop_
_atom_site_type_symbol
_atom_site_label
_atom_site_fract_x
_atom_site_fract_y
_atom_site_fract_z
Si Si1 0.794880 0.500000 0.555147
Si Si2 0.953900 0.115592 0.913455
Si Si3 0.249868 0.808988 0.647123
Si Si4 0.624131 0.115780 0.183579
Si Si5 0.684202 0.292502 0.587974
Si Si6 0.703786 0.000000 0.445057
O O1 0.500000 0.500000 0.500000
O O2 0.819839 0.400941 0.606722
O O3 0.000000 0.500000 0.500000
O O4 0.680047 0.155059 0.853995
O O5 0.206716 0.143773 0.878921
O O6 0.919904 0.000000 0.920840
O O7 0.000000 0.162864 0.000000
O O8 0.250871 0.826186 0.736855
O O9 0.478981 0.726938 0.643426
O O10 0.347987 0.905505 0.610213
O O11 0.940949 0.781315 0.601366
O O12 0.637760 0.000000 0.201772
O O13 0.500000 0.279967 0.500000
O O14 0.500000 0.000000 0.500000
O O15 0.000000 0.000000 0.500000
#
# Coordination Sequence:
#
# PCOD8060380 Si02
#       6
#     2   4   4   4   4   2
#     4  10  20  36  56  74  90 116 159 218 271 306
#     4   9  17  29  48  68  89 124 168 203 233 278
#     4  12  22  35  49  71  99 135 165 206 243 287
#     4  10  19  32  46  66  99 131 163 197 239 285
#     4  11  22  36  54  71  94 124 170 213 256 298
#     4  12  24  34  46  64  93 134 177 204 226 266
#
# _framework density 17.023978
#
# number of rings (size 3 to 8) (size 9 to 14) (size 15 to 20)
#    0.000    1.400    1.000    7.800    0.000    2.400 
#    0.000    0.000    0.000    0.000    0.000    0.000 
#    0.000    0.000    0.000   63.000    0.000    0.000 
#
# Total GULP energy -247985.348235 kJ/mol
# GULP energy per Si atom -12399.267412 kJ/mol
# Density = 1.698523 g / cm^3
# Si number density = 17.023978 Si / 1000 Ang^3
#
#
#
# Elastic Constant Matrix: (Units=GPa)
#
#
# Indices 1 2 3 4 5 6 
#
# 1 106.6401 23.8579 23.0934 0.0000 -1.5050 0.0000
# 2 23.8579 60.6570 34.5162 0.0000 -1.4664 0.0000
# 3 23.0934 34.5162 93.4309 0.0000 -4.2558 0.0000
# 4 0.0000 0.0000 0.0000 9.4960 0.0000 -4.9688
# 5 -1.5050 -1.4664 -4.2558 0.0000 24.1523 0.0000
# 6 0.0000 0.0000 0.0000 -4.9688 0.0000 19.9422
#
#
#
# Elastic Compliance Matrix: (Units=1/GPa)
#
#
# Indices 1 2 3 4 5 6 
#
# 1 0.010415 -0.003332 -0.001333 0.000000 0.000212 0.000000
# 2 -0.003332 0.021941 -0.007289 0.000000 -0.000160 0.000000
# 3 -0.001333 -0.007289 0.013812 0.000000 0.001908 0.000000
# 4 0.000000 0.000000 0.000000 0.121095 0.000000 0.030172
# 5 0.000212 -0.000160 0.001908 0.000000 0.041744 0.000000
# 6 0.000000 0.000000 0.000000 0.030172 0.000000 0.057663
#
#
# Mechanical properties :
#
#
# Convention : Reuss Voigt Hill
#
# Bulk Modulus (GPa) = 44.92818 47.07367 46.00093
# Shear Modulus (GPa) = 16.77857 22.66878 19.72368
#
# Velocity S-wave (km/s) = 3.14281 3.65304 3.40749
# Velocity P-wave (km/s) = 6.29429 6.74569 6.52390
#
# Compressibility (1/GPa) = 0.02225774
#
# Stress axis : x y z
#
# Youngs Moduli (GPa) = 96.01874 45.57709 72.39838
#
# Poissons Ratio (x) = 0.15188 0.09654
# Poissons Ratio (y) = 0.31998 0.52773
# Poissons Ratio (z) = 0.12804 0.33222
#
# Static dielectric constant tensor:
#      x y z
#    x 3.331700 0.000000 -0.026920 
#    y 0.000000 1.591190 0.000000 
#    z -0.026920 0.000000 3.137650 
# 
# 
# High freq. dielectric constant tensor:
#      x y z
#    x 1.683890 0.000000 -0.007040 
#    y 0.000000 1.612040 0.000000 
#    z -0.007040 0.000000 1.643470 
# 
# From -- ./inp_files/8886.got.cif
#   From: 2010.06.25/outbox.cif.g09.slc.cpg/sg10_5_cif.got.tgz:8886.got - 2010.06.27 22:07:45.
