data_PCOD8060455
_publ_section_title
;
Structure prediction by ZEFSAII (Michael W. Deem and Ramdas Pophale) SiO2 
 PCOD8060455
Probable space group: P 2/M
;
_chemical_formula_sum "Si O2"
_cell_formula_units_Z 24
_cell_length_a 22.946217
_cell_length_b 8.685480
_cell_length_c 11.700544
_cell_angle_alpha 90.000000
_cell_angle_beta 34.545655
_cell_angle_gamma 90.000000
_cell_volume 1322.336821
_symmetry_space_group_name_H-M "P 2/M"
_symmetry_group_IT_number 10
_symmetry_cell_setting 'monoclinic'
loop_
_space_group_symop_operation_xyz
x,y,z
-x,y,-z
-x,-y,-z
x,-y,z
loop_
_atom_site_type_symbol
_atom_site_label
_atom_site_fract_x
_atom_site_fract_y
_atom_site_fract_z
Si Si1 0.786344 0.820742 0.690807
Si Si2 0.750050 0.676378 0.385722
Si Si3 0.615385 0.818402 0.790791
Si Si4 0.888948 0.320124 0.729891
Si Si5 0.077296 0.323364 0.709963
Si Si6 0.870210 0.180544 0.006046
O O1 0.684083 0.766348 0.788414
O O2 0.798590 0.724267 0.787261
O O3 0.884409 0.785760 0.453739
O O4 0.782650 0.000000 0.727153
O O5 0.727497 0.500000 0.392999
O O6 0.653556 0.741463 0.612030
O O7 0.853682 0.698422 0.290728
O O8 0.766233 0.768954 0.241033
O O9 0.623062 0.000000 0.761581
O O10 0.500000 0.762334 0.000000
O O11 0.885361 0.500000 0.763501
O O12 0.000000 0.271849 0.500000
O O13 0.864306 0.226855 0.883802
O O14 0.078768 0.500000 0.664923
O O15 0.961912 0.270801 0.922541
O O16 0.886490 0.000000 0.991300
#
# Coordination Sequence:
#
# PCOD8060455 Si02
#       6
#     4   4   4   4   4   4
#     4  10  19  32  53  80 107 138 179 220 258 307
#     4  10  21  35  52  76 107 139 176 218 264 317
#     4   9  19  37  60  84 109 136 170 218 272 319
#     4  11  22  35  52  73 106 148 183 217 259 309
#     4  10  19  32  49  72 105 143 177 214 259 308
#     4  12  23  33  50  74 105 143 181 218 259 312
#
# _framework density 18.149687
#
# number of rings (size 3 to 8) (size 9 to 14) (size 15 to 20)
#    0.000    1.667    1.667    4.000    0.000    5.667 
#    0.000    0.000    0.000    1.000    0.000    7.000 
#    0.000    0.000    0.000    0.000    0.000    0.000 
#
# Total GULP energy -297640.488064 kJ/mol
# GULP energy per Si atom -12401.687003 kJ/mol
# Density = 1.810838 g / cm^3
# Si number density = 18.149687 Si / 1000 Ang^3
#
#
#
# Elastic Constant Matrix: (Units=GPa)
#
#
# Indices 1 2 3 4 5 6 
#
# 1 64.3638 28.9645 53.9925 0.0000 8.7701 0.0000
# 2 28.9645 61.5250 32.4009 0.0000 6.1263 0.0000
# 3 53.9925 32.4009 116.1392 0.0000 6.4162 0.0000
# 4 0.0000 0.0000 0.0000 25.1157 0.0000 5.3972
# 5 8.7701 6.1263 6.4162 0.0000 22.0041 0.0000
# 6 0.0000 0.0000 0.0000 5.3972 0.0000 27.4149
#
#
#
# Elastic Compliance Matrix: (Units=1/GPa)
#
#
# Indices 1 2 3 4 5 6 
#
# 1 0.028927 -0.007141 -0.011107 0.000000 -0.006302 0.000000
# 2 -0.007141 0.021136 -0.002448 0.000000 -0.002325 0.000000
# 3 -0.011107 -0.002448 0.014407 0.000000 0.000908 0.000000
# 4 0.000000 0.000000 0.000000 0.041575 0.000000 -0.008185
# 5 -0.006302 -0.002325 0.000908 0.000000 0.048340 0.000000
# 6 0.000000 0.000000 0.000000 -0.008185 0.000000 0.038088
#
#
# Mechanical properties :
#
#
# Convention : Reuss Voigt Hill
#
# Bulk Modulus (GPa) = 43.33457 52.52708 47.93082
# Shear Modulus (GPa) = 20.69891 23.35160 22.02526
#
# Velocity S-wave (km/s) = 3.38073 3.59083 3.48736
# Velocity P-wave (km/s) = 6.25836 6.79676 6.53311
#
# Compressibility (1/GPa) = 0.02307626
#
# Stress axis : x y z
#
# Youngs Moduli (GPa) = 34.57034 47.31219 69.41023
#
# Poissons Ratio (x) = 0.33785 0.77097
# Poissons Ratio (y) = 0.24686 0.16995
# Poissons Ratio (z) = 0.38399 0.11584
#
# Static dielectric constant tensor:
#      x y z
#    x 3.305550 0.000000 0.083560 
#    y 0.000000 3.354940 0.000000 
#    z 0.083560 0.000000 3.241410 
# 
# 
# High freq. dielectric constant tensor:
#      x y z
#    x 1.687350 0.000000 0.020390 
#    y 0.000000 1.713330 0.000000 
#    z 0.020390 0.000000 1.685010 
# 
# From -- ./inp_files/54591.got.cif
#   From: 2010.06.25/outbox.cif.g09.slc.cpg/sg10_28_cif.got.tgz:54591.got - 2010.06.27 22:07:45.
