data_PCOD8060845
_publ_section_title
;
Structure prediction by ZEFSAII (Michael W. Deem and Ramdas Pophale) SiO2 
 PCOD8060845
Probable space group: P 2/M
;
_chemical_formula_sum "Si O2"
_cell_formula_units_Z 32
_cell_length_a 21.783638
_cell_length_b 9.335745
_cell_length_c 10.975030
_cell_angle_alpha 90.000000
_cell_angle_beta 131.890362
_cell_angle_gamma 90.000000
_cell_volume 1661.519342
_symmetry_space_group_name_H-M "P 2/M"
_symmetry_group_IT_number 10
_symmetry_cell_setting 'monoclinic'
loop_
_space_group_symop_operation_xyz
x,y,z
-x,y,-z
-x,-y,-z
x,-y,z
loop_
_atom_site_type_symbol
_atom_site_label
_atom_site_fract_x
_atom_site_fract_y
_atom_site_fract_z
Si Si1 0.498930 0.668333 0.640508
Si Si2 0.802183 0.831357 0.515753
Si Si3 0.092551 0.662876 0.817335
Si Si4 0.324538 0.661734 0.520360
Si Si5 0.254862 0.659256 0.173759
Si Si6 0.047218 0.668381 0.185598
Si Si7 0.345269 0.831651 0.104465
Si Si8 0.185388 0.833583 0.747287
O O1 0.500000 0.714838 0.500000
O O2 0.514718 0.500000 0.672756
O O3 0.413226 0.713254 0.589648
O O4 0.568866 0.752159 0.809561
O O5 0.711309 0.766989 0.423808
O O6 0.869509 0.759025 0.692490
O O7 0.823293 0.793160 0.404719
O O8 0.800271 0.000000 0.536636
O O9 0.089526 0.500000 0.768266
O O10 0.112380 0.756080 0.724493
O O11 0.007397 0.707755 0.768003
O O12 0.160992 0.685527 0.012121
O O13 0.329898 0.500000 0.579074
O O14 0.259075 0.670544 0.323868
O O15 0.285210 0.500000 0.172324
O O16 0.314151 0.778130 0.194564
O O17 0.068541 0.500000 0.210454
O O18 0.000000 0.713797 0.000000
O O19 0.360956 0.000000 0.128278
O O20 0.276394 0.786571 0.913774
O O21 0.173091 0.000000 0.755709
#
# Coordination Sequence:
#
# PCOD8060845 Si02
#       8
#     4   4   4   4   4   4   4   4
#     4  10  19  34  55  82 114 145 176 220 280 337
#     4  11  24  40  57  78 109 149 190 229 272 325
#     4   9  18  32  57  86 107 139 187 231 266 316
#     4  10  20  35  56  79 109 146 182 223 279 334
#     4   9  16  31  53  78 109 143 176 216 275 333
#     4  10  21  39  61  86 117 146 177 222 279 334
#     4  10  19  32  53  80 110 143 182 226 269 320
#     4   9  21  40  56  75 110 153 189 226 275 322
#
# _framework density 19.259481000000001
#
# number of rings (size 3 to 8) (size 9 to 14) (size 15 to 20)
#    0.000    2.250    1.250    1.500    0.000    6.000 
#    0.000    5.625    0.000    3.750    0.000    0.000 
#    0.000    0.000    0.000    0.000    0.000    0.000 
#
# Total GULP energy -396791.858328 kJ/mol
# GULP energy per Si atom -12399.745573 kJ/mol
# Density = 1.921565 g / cm^3
# Si number density = 19.259481 Si / 1000 Ang^3
#
#
#
# Elastic Constant Matrix: (Units=GPa)
#
#
# Indices 1 2 3 4 5 6 
#
# 1 119.5805 54.8748 31.6869 0.0000 8.0346 0.0000
# 2 54.8748 70.0825 34.5190 0.0000 3.1175 0.0000
# 3 31.6869 34.5190 55.9175 0.0000 1.4886 0.0000
# 4 0.0000 0.0000 0.0000 23.3577 0.0000 -5.9766
# 5 8.0346 3.1175 1.4886 0.0000 25.8123 0.0000
# 6 0.0000 0.0000 0.0000 -5.9766 0.0000 21.6489
#
#
#
# Elastic Compliance Matrix: (Units=1/GPa)
#
#
# Indices 1 2 3 4 5 6 
#
# 1 0.013363 -0.009544 -0.001603 0.000000 -0.002914 0.000000
# 2 -0.009544 0.027398 -0.011514 0.000000 0.000326 0.000000
# 3 -0.001603 -0.011514 0.025889 0.000000 0.000397 0.000000
# 4 0.000000 0.000000 0.000000 0.046066 0.000000 0.012718
# 5 -0.002914 0.000326 0.000397 0.000000 0.039586 0.000000
# 6 0.000000 0.000000 0.000000 0.012718 0.000000 0.049703
#
#
# Mechanical properties :
#
#
# Convention : Reuss Voigt Hill
#
# Bulk Modulus (GPa) = 46.88577 54.19356 50.53966
# Shear Modulus (GPa) = 19.65121 22.46378 21.05750
#
# Velocity S-wave (km/s) = 3.19774 3.41893 3.31018
# Velocity P-wave (km/s) = 6.16694 6.61704 6.39595
#
# Compressibility (1/GPa) = 0.02132843
#
# Stress axis : x y z
#
# Youngs Moduli (GPa) = 74.83465 36.49837 38.62601
#
# Poissons Ratio (x) = 0.34833 0.06192
# Poissons Ratio (y) = 0.71421 0.44474
# Poissons Ratio (z) = 0.11997 0.42025
#
# Static dielectric constant tensor:
#      x y z
#    x 3.497270 0.000000 0.117320 
#    y 0.000000 3.431790 0.000000 
#    z 0.117320 0.000000 3.451180 
# 
# 
# High freq. dielectric constant tensor:
#      x y z
#    x 1.748610 0.000000 0.012300 
#    y 0.000000 1.740780 0.000000 
#    z 0.012300 0.000000 1.737960 
# 
# From -- ./inp_files/55376.got.cif
#   From: 2010.06.25/outbox.cif.g09.slc.cpg/sg10_28_cif.got.tgz:55376.got - 2010.06.27 22:07:45.
