data_PCOD8060011
_publ_section_title
;
Structure prediction by ZEFSAII (Michael W. Deem and Ramdas Pophale) SiO2 
 PCOD8060011
Probable space group: P 2/M
;
_chemical_formula_sum "Si O2"
_cell_formula_units_Z 28
_cell_length_a 17.248484
_cell_length_b 8.604207
_cell_length_c 20.592185
_cell_angle_alpha 90.000000
_cell_angle_beta 27.888442
_cell_angle_gamma 90.000000
_cell_volume 1429.484417
_symmetry_space_group_name_H-M "P 2/M"
_symmetry_group_IT_number 10
_symmetry_cell_setting 'monoclinic'
loop_
_space_group_symop_operation_xyz
x,y,z
-x,y,-z
-x,-y,-z
x,-y,z
loop_
_atom_site_type_symbol
_atom_site_label
_atom_site_fract_x
_atom_site_fract_y
_atom_site_fract_z
Si Si1 0.839141 0.317909 0.920037
Si Si2 0.136297 0.816789 0.450571
Si Si3 0.427722 0.179280 0.387791
Si Si4 0.989942 0.321914 0.079221
Si Si5 0.087415 0.317153 0.627325
Si Si6 0.615243 0.677461 0.358372
Si Si7 0.475026 0.318823 0.216558
O O1 0.878440 0.500000 0.894934
O O2 0.896639 0.245660 0.947598
O O3 0.944213 0.251270 0.781484
O O4 0.644115 0.285203 0.051245
O O5 0.074666 0.768178 0.567565
O O6 0.309442 0.734464 0.301221
O O7 0.000000 0.761509 0.500000
O O8 0.164029 0.000000 0.428116
O O9 0.265456 0.279206 0.527450
O O10 0.581961 0.221373 0.319198
O O11 0.487172 0.217486 0.271932
O O12 0.380609 0.000000 0.427964
O O13 0.047379 0.500000 0.027412
O O14 0.802938 0.306497 0.242884
O O15 0.000000 0.241047 0.000000
O O16 0.068974 0.500000 0.629307
O O17 0.500000 0.745550 0.500000
O O18 0.569223 0.500000 0.376403
O O19 0.461121 0.500000 0.244692
#
# Coordination Sequence:
#
# PCOD8060011 Si02
#       7
#     4   4   4   4   4   4   4
#     4   9  18  32  52  81 109 133 171 224 272 310
#     4  10  21  38  58  81 110 140 171 208 253 311
#     4  11  21  33  49  72 105 141 178 218 263 316
#     4   9  16  27  46  71  99 131 169 215 264 308
#     4  10  19  34  57  81 106 137 176 220 263 311
#     4  10  19  31  49  70  93 129 178 227 270 310
#     4  10  19  34  58  82 104 133 172 214 256 307
#
# _framework density 19.587481
#
# number of rings (size 3 to 8) (size 9 to 14) (size 15 to 20)
#    0.000    2.143    0.000    6.000    0.000    6.000 
#    0.000    3.571    0.000    9.000    0.000    0.000 
#    0.000    0.000    0.000    0.000    0.000    0.000 
#
# Total GULP energy -347099.565475 kJ/mol
# GULP energy per Si atom -12396.413053 kJ/mol
# Density = 1.954290 g / cm^3
# Si number density = 19.587481 Si / 1000 Ang^3
#
#
#
# Elastic Constant Matrix: (Units=GPa)
#
#
# Indices 1 2 3 4 5 6 
#
# 1 101.9795 16.2911 35.3971 0.0000 -17.7538 0.0000
# 2 16.2911 41.9288 13.6000 0.0000 -6.0089 0.0000
# 3 35.3971 13.6000 123.3232 0.0000 -6.7354 0.0000
# 4 0.0000 0.0000 0.0000 9.7739 0.0000 -17.2574
# 5 -17.7538 -6.0089 -6.7354 0.0000 24.9523 0.0000
# 6 0.0000 0.0000 0.0000 -17.2574 0.0000 107.7630
#
#
#
# Elastic Compliance Matrix: (Units=1/GPa)
#
#
# Indices 1 2 3 4 5 6 
#
# 1 0.012566 -0.002877 -0.002882 0.000000 0.007470 0.000000
# 2 -0.002877 0.026103 -0.001849 0.000000 0.003740 0.000000
# 3 -0.002882 -0.001849 0.009138 0.000000 -0.000029 0.000000
# 4 0.000000 0.000000 0.000000 0.142648 0.000000 0.022844
# 5 0.007470 0.003740 -0.000029 0.000000 0.046285 0.000000
# 6 0.000000 0.000000 0.000000 0.022844 0.000000 0.012938
#
#
# Mechanical properties :
#
#
# Convention : Reuss Voigt Hill
#
# Bulk Modulus (GPa) = 30.68135 44.20088 37.44111
# Shear Modulus (GPa) = 18.13186 41.96073 30.04629
#
# Velocity S-wave (km/s) = 3.04581 4.63344 3.92082
# Velocity P-wave (km/s) = 5.29783 7.15820 6.29710
#
# Compressibility (1/GPa) = 0.03259309
#
# Stress axis : x y z
#
# Youngs Moduli (GPa) = 79.57838 38.30911 109.43139
#
# Poissons Ratio (x) = 0.11022 0.31533
# Poissons Ratio (y) = 0.22897 0.20229
# Poissons Ratio (z) = 0.22931 0.07082
#
# Static dielectric constant tensor:
#      x y z
#    x 3.597870 0.000000 -0.089860 
#    y 0.000000 3.266040 0.000000 
#    z -0.089860 0.000000 3.720700 
# 
# 
# High freq. dielectric constant tensor:
#      x y z
#    x 1.750710 0.000000 -0.007990 
#    y 0.000000 1.732060 0.000000 
#    z -0.007990 0.000000 1.769730 
# 
# From -- ./inp_files/85599.got.cif
#   From: 2010.06.25/outbox.cif.g09.slc.cpg/sg10_43_cif.got.tgz:85599.got - 2010.06.27 22:07:45.
