data_PCOD8060988
_publ_section_title
;
Structure prediction by ZEFSAII (Michael W. Deem and Ramdas Pophale) SiO2 
 PCOD8060988
Probable space group: P 2/M
;
_chemical_formula_sum "Si O2"
_cell_formula_units_Z 28
_cell_length_a 25.837040
_cell_length_b 9.187284
_cell_length_c 11.864242
_cell_angle_alpha 90.000000
_cell_angle_beta 32.868429
_cell_angle_gamma 90.000000
_cell_volume 1528.407280
_symmetry_space_group_name_H-M "P 2/M"
_symmetry_group_IT_number 10
_symmetry_cell_setting 'monoclinic'
loop_
_space_group_symop_operation_xyz
x,y,z
-x,y,-z
-x,-y,-z
x,-y,z
loop_
_atom_site_type_symbol
_atom_site_label
_atom_site_fract_x
_atom_site_fract_y
_atom_site_fract_z
Si Si1 0.670463 0.332025 0.243584
Si Si2 0.985797 0.829616 0.154380
Si Si3 0.462270 0.830892 0.347635
Si Si4 0.293511 0.165314 0.494473
Si Si5 0.162832 0.669237 0.897160
Si Si6 0.344579 0.329440 0.988775
Si Si7 0.224489 0.167084 0.381545
O O1 0.641981 0.500000 0.315211
O O2 0.588260 0.235044 0.449723
O O3 0.773294 0.297312 0.109616
O O4 0.676843 0.292069 0.101436
O O5 0.881181 0.786991 0.387865
O O6 0.004768 0.000000 0.129385
O O7 0.061514 0.748507 0.096298
O O8 0.000000 0.776618 0.000000
O O9 0.397793 0.805351 0.354834
O O10 0.481630 0.000000 0.334859
O O11 0.560647 0.750711 0.142947
O O12 0.216365 0.272443 0.688864
O O13 0.296322 0.190917 0.355408
O O14 0.259942 0.000000 0.582225
O O15 0.144254 0.500000 0.914955
O O16 0.356727 0.500000 0.986763
O O17 0.255707 0.270525 0.222798
O O18 0.227458 0.000000 0.335513
#
# Coordination Sequence:
#
# PCOD8060988 Si02
#       7
#     4   4   4   4   4   4   4
#     4   9  20  38  56  77 108 146 180 217 267 316
#     4  10  19  35  58  81 108 141 174 213 269 324
#     4  10  20  34  58  85 106 135 182 228 265 312
#     4   9  18  35  55  78 109 143 174 215 271 321
#     4  10  19  32  55  84 109 134 176 225 263 310
#     4  11  23  38  54  74 109 149 181 218 268 318
#     4  10  21  37  56  77 107 143 180 217 260 321
#
# _framework density 18.319724999999998
#
# number of rings (size 3 to 8) (size 9 to 14) (size 15 to 20)
#    0.000    2.143    1.429    1.714    0.000    6.000 
#    0.000    3.571    0.000    4.286    0.000    0.000 
#    0.000    0.000    0.000    0.000    0.000    0.000 
#
# Total GULP energy -347297.927239 kJ/mol
# GULP energy per Si atom -12403.497401 kJ/mol
# Density = 1.827803 g / cm^3
# Si number density = 18.319725 Si / 1000 Ang^3
#
#
#
# Elastic Constant Matrix: (Units=GPa)
#
#
# Indices 1 2 3 4 5 6 
#
# 1 64.2639 34.9280 44.2205 0.0000 -10.0866 0.0000
# 2 34.9280 77.0415 54.5242 0.0000 -7.4241 0.0000
# 3 44.2205 54.5242 114.1852 0.0000 -6.6436 0.0000
# 4 0.0000 0.0000 0.0000 32.5353 0.0000 -0.5379
# 5 -10.0866 -7.4241 -6.6436 0.0000 24.6138 0.0000
# 6 0.0000 0.0000 0.0000 -0.5379 0.0000 29.0596
#
#
#
# Elastic Compliance Matrix: (Units=1/GPa)
#
#
# Indices 1 2 3 4 5 6 
#
# 1 0.023979 -0.005961 -0.006068 0.000000 0.006391 0.000000
# 2 -0.005961 0.021378 -0.007789 0.000000 0.001903 0.000000
# 3 -0.006068 -0.007789 0.014778 0.000000 -0.000847 0.000000
# 4 0.000000 0.000000 0.000000 0.030745 0.000000 0.000569
# 5 0.006391 0.001903 -0.000847 0.000000 0.043592 0.000000
# 6 0.000000 0.000000 0.000000 0.000569 0.000000 0.034423
#
#
# Mechanical properties :
#
#
# Convention : Reuss Voigt Hill
#
# Bulk Modulus (GPa) = 48.78296 58.09289 53.43793
# Shear Modulus (GPa) = 23.21639 25.36292 24.28965
#
# Velocity S-wave (km/s) = 3.56376 3.72487 3.64521
# Velocity P-wave (km/s) = 6.60457 7.09076 6.85198
#
# Compressibility (1/GPa) = 0.02049896
#
# Stress axis : x y z
#
# Youngs Moduli (GPa) = 41.70250 46.77605 67.66892
#
# Poissons Ratio (x) = 0.27883 0.41063
# Poissons Ratio (y) = 0.24859 0.52708
# Poissons Ratio (z) = 0.25306 0.36435
#
# Static dielectric constant tensor:
#      x y z
#    x 3.493560 0.000000 -0.139190 
#    y 0.000000 3.399900 0.000000 
#    z -0.139190 0.000000 3.199590 
# 
# 
# High freq. dielectric constant tensor:
#      x y z
#    x 1.713830 0.000000 -0.012300 
#    y 0.000000 1.713860 0.000000 
#    z -0.012300 0.000000 1.695140 
# 
# From -- ./inp_files/49159.got.cif
#   From: 2010.06.25/outbox.cif.g09.slc.cpg/sg10_25_cif.got.tgz:49159.got - 2010.06.27 22:07:45.
