data_PCOD8060981
_publ_section_title
;
Structure prediction by ZEFSAII (Michael W. Deem and Ramdas Pophale) SiO2 
 PCOD8060981
Probable space group: P 2/M
;
_chemical_formula_sum "Si O2"
_cell_formula_units_Z 28
_cell_length_a 13.546290
_cell_length_b 9.216607
_cell_length_c 13.556429
_cell_angle_alpha 90.000000
_cell_angle_beta 60.484499
_cell_angle_gamma 90.000000
_cell_volume 1472.878834
_symmetry_space_group_name_H-M "P 2/M"
_symmetry_group_IT_number 10
_symmetry_cell_setting 'monoclinic'
loop_
_space_group_symop_operation_xyz
x,y,z
-x,y,-z
-x,-y,-z
x,-y,z
loop_
_atom_site_type_symbol
_atom_site_label
_atom_site_fract_x
_atom_site_fract_y
_atom_site_fract_z
Si Si1 0.488617 0.666087 0.621765
Si Si2 0.109244 0.333649 0.513572
Si Si3 0.805995 0.672615 0.942458
Si Si4 0.376932 0.832294 0.096387
Si Si5 0.327929 0.831598 0.345503
Si Si6 0.946417 0.672564 0.240387
Si Si7 0.244830 0.327605 0.812468
O O1 0.500000 0.679030 0.500000
O O2 0.503376 0.500000 0.649282
O O3 0.586331 0.761614 0.620131
O O4 0.366987 0.728313 0.715821
O O5 0.150782 0.500000 0.499188
O O6 0.205232 0.238495 0.416225
O O7 0.081764 0.272654 0.635889
O O8 0.000000 0.318722 0.500000
O O9 0.799278 0.500000 0.939329
O O10 0.717196 0.736549 0.909765
O O11 0.930616 0.730827 0.852792
O O12 0.777426 0.728755 0.066201
O O13 0.373153 0.802843 0.214094
O O14 0.355003 0.000000 0.081004
O O15 0.500000 0.780877 0.000000
O O16 0.317958 0.000000 0.374897
O O17 0.947449 0.500000 0.236869
O O18 0.852148 0.735769 0.211954
O O19 0.240170 0.500000 0.810396
#
# Coordination Sequence:
#
# PCOD8060981 Si02
#       7
#     4   4   4   4   4   4   4
#     4  10  20  35  56  80 108 143 179 216 261 313
#     4  10  20  35  56  80 107 141 179 218 263 317
#     4  10  19  32  55  83 105 131 174 223 261 302
#     4  10  22  39  55  73 104 144 177 210 262 319
#     4  11  23  37  55  79 107 140 177 219 265 313
#     4   9  17  31  52  79 110 139 168 210 266 318
#     4   9  17  30  51  80 109 137 172 215 262 310
#
# _framework density 19.010390999999998
#
# number of rings (size 3 to 8) (size 9 to 14) (size 15 to 20)
#    0.000    2.143    0.000    3.429    0.000    7.143 
#    0.000    0.714    0.000    3.429    0.000    0.000 
#    0.000    0.000    0.000    0.000    0.000    0.000 
#
# Total GULP energy -347296.938317 kJ/mol
# GULP energy per Si atom -12403.462083 kJ/mol
# Density = 1.896712 g / cm^3
# Si number density = 19.010391 Si / 1000 Ang^3
#
#
#
# Elastic Constant Matrix: (Units=GPa)
#
#
# Indices 1 2 3 4 5 6 
#
# 1 106.4232 45.6617 30.7475 0.0000 -8.2106 0.0000
# 2 45.6617 54.6591 41.6983 0.0000 -2.8652 0.0000
# 3 30.7475 41.6983 115.5662 0.0000 -18.1127 0.0000
# 4 0.0000 0.0000 0.0000 17.9916 0.0000 1.1451
# 5 -8.2106 -2.8652 -18.1127 0.0000 38.1056 0.0000
# 6 0.0000 0.0000 0.0000 1.1451 0.0000 5.9715
#
#
#
# Elastic Compliance Matrix: (Units=1/GPa)
#
#
# Indices 1 2 3 4 5 6 
#
# 1 0.014963 -0.013318 0.001267 0.000000 0.002825 0.000000
# 2 -0.013318 0.037344 -0.010741 0.000000 -0.005167 0.000000
# 3 0.001267 -0.010741 0.013082 0.000000 0.005684 0.000000
# 4 0.000000 0.000000 0.000000 0.056268 0.000000 -0.010789
# 5 0.002825 -0.005167 0.005684 0.000000 0.029165 0.000000
# 6 0.000000 0.000000 0.000000 -0.010789 0.000000 0.169530
#
#
# Mechanical properties :
#
#
# Convention : Reuss Voigt Hill
#
# Bulk Modulus (GPa) = 50.49149 56.98483 53.73816
# Shear Modulus (GPa) = 13.42148 22.98315 18.20231
#
# Velocity S-wave (km/s) = 2.65996 3.48081 3.09770
# Velocity P-wave (km/s) = 6.00429 6.79672 6.41276
#
# Compressibility (1/GPa) = 0.01980532
#
# Stress axis : x y z
#
# Youngs Moduli (GPa) = 66.83349 26.77788 76.43984
#
# Poissons Ratio (x) = 0.35663 -0.09687
# Poissons Ratio (y) = 0.89011 0.82103
# Poissons Ratio (z) = -0.08470 0.28762
#
# Static dielectric constant tensor:
#      x y z
#    x 3.556220 0.000000 -0.056680 
#    y 0.000000 3.158310 0.000000 
#    z -0.056680 0.000000 3.787940 
# 
# 
# High freq. dielectric constant tensor:
#      x y z
#    x 1.754650 0.000000 -0.001320 
#    y 0.000000 1.697830 0.000000 
#    z -0.001320 0.000000 1.760460 
# 
# From -- ./inp_files/49558.got.cif
#   From: 2010.06.25/outbox.cif.g09.slc.cpg/sg10_25_cif.got.tgz:49558.got - 2010.06.27 22:07:45.
