data_PCOD8060548
_publ_section_title
;
Structure prediction by ZEFSAII (Michael W. Deem and Ramdas Pophale) SiO2 
 PCOD8060548
Probable space group: P 2/M
;
_chemical_formula_sum "Si O2"
_cell_formula_units_Z 28
_cell_length_a 14.560954
_cell_length_b 9.476376
_cell_length_c 16.155134
_cell_angle_alpha 90.000000
_cell_angle_beta 40.930934
_cell_angle_gamma 90.000000
_cell_volume 1460.436340
_symmetry_space_group_name_H-M "P 2/M"
_symmetry_group_IT_number 10
_symmetry_cell_setting 'monoclinic'
loop_
_space_group_symop_operation_xyz
x,y,z
-x,y,-z
-x,-y,-z
x,-y,z
loop_
_atom_site_type_symbol
_atom_site_label
_atom_site_fract_x
_atom_site_fract_y
_atom_site_fract_z
Si Si1 0.608373 0.159865 0.181400
Si Si2 0.064233 0.835822 0.705794
Si Si3 0.078783 0.168092 0.027595
Si Si4 0.395941 0.160242 0.000460
Si Si5 0.841623 0.339749 0.595333
Si Si6 0.319951 0.164586 0.429759
Si Si7 0.157698 0.660397 0.221064
O O1 0.482450 0.221350 0.325918
O O2 0.636714 0.000000 0.188753
O O3 0.762233 0.233446 0.082303
O O4 0.542398 0.169891 0.133855
O O5 0.232069 0.813296 0.575184
O O6 0.013284 0.781470 0.830541
O O7 0.991061 0.740977 0.684690
O O8 0.024825 0.000000 0.720134
O O9 0.085557 0.000000 0.025104
O O10 0.000000 0.224479 0.000000
O O11 0.259957 0.258069 0.089550
O O12 0.350778 0.000000 0.052449
O O13 0.500000 0.217594 0.000000
O O14 0.839475 0.500000 0.561753
O O15 0.755612 0.239846 0.594641
O O16 0.776463 0.333232 0.731957
O O17 0.000000 0.287242 0.500000
O O18 0.326255 0.000000 0.402129
O O19 0.138151 0.500000 0.204625
#
# Coordination Sequence:
#
# PCOD8060548 Si02
#       7
#     4   4   4   4   4   4   4
#     4   9  17  31  49  75 108 135 167 214 262 309
#     4  10  19  33  53  77 101 129 174 218 254 309
#     4   9  17  32  56  80 103 135 169 209 269 326
#     4  10  19  32  51  72 102 142 178 213 259 308
#     4  10  20  33  46  67 105 146 180 212 252 307
#     4  10  20  32  51  77 104 136 176 220 256 296
#     4  11  21  32  49  72 102 139 179 219 259 299
#
# _framework density 19.172353000000001
#
# number of rings (size 3 to 8) (size 9 to 14) (size 15 to 20)
#    0.000    2.143    2.857    1.286    0.000    2.857 
#    0.000    1.429    0.000    4.714    0.000    0.000 
#    0.000    2.286    0.000    0.000    0.000    0.000 
#
# Total GULP energy -346889.990241 kJ/mol
# GULP energy per Si atom -12388.928223 kJ/mol
# Density = 1.912872 g / cm^3
# Si number density = 19.172353 Si / 1000 Ang^3
#
#
#
# Elastic Constant Matrix: (Units=GPa)
#
#
# Indices 1 2 3 4 5 6 
#
# 1 90.8376 13.2708 55.0079 0.0000 -8.5224 0.0000
# 2 13.2708 45.8207 28.6559 0.0000 -2.1677 0.0000
# 3 55.0079 28.6559 164.3431 0.0000 -21.1168 0.0000
# 4 0.0000 0.0000 0.0000 7.7241 0.0000 0.3969
# 5 -8.5224 -2.1677 -21.1168 0.0000 23.6203 0.0000
# 6 0.0000 0.0000 0.0000 0.3969 0.0000 6.5920
#
#
#
# Elastic Compliance Matrix: (Units=1/GPa)
#
#
# Indices 1 2 3 4 5 6 
#
# 1 0.013894 -0.001292 -0.004289 0.000000 0.001060 0.000000
# 2 -0.001292 0.024681 -0.004113 0.000000 -0.001878 0.000000
# 3 -0.004289 -0.004113 0.009027 0.000000 0.006145 0.000000
# 4 0.000000 0.000000 0.000000 0.129867 0.000000 -0.007820
# 5 0.001060 -0.001878 0.006145 0.000000 0.048041 0.000000
# 6 0.000000 0.000000 0.000000 -0.007820 0.000000 0.152169
#
#
# Mechanical properties :
#
#
# Convention : Reuss Voigt Hill
#
# Bulk Modulus (GPa) = 35.44059 54.98564 45.21311
# Shear Modulus (GPa) = 12.30099 21.19174 16.74636
#
# Velocity S-wave (km/s) = 2.53573 3.32825 2.95865
# Velocity P-wave (km/s) = 5.20563 6.59633 5.94181
#
# Compressibility (1/GPa) = 0.02821623
#
# Stress axis : x y z
#
# Youngs Moduli (GPa) = 71.97275 40.51632 110.77617
#
# Poissons Ratio (x) = 0.05233 0.47514
# Poissons Ratio (y) = 0.09295 0.45558
# Poissons Ratio (z) = 0.30870 0.16663
#
# Static dielectric constant tensor:
#      x y z
#    x 3.326690 0.000000 -0.124030 
#    y 0.000000 3.139450 0.000000 
#    z -0.124030 0.000000 3.891180 
# 
# 
# High freq. dielectric constant tensor:
#      x y z
#    x 1.709970 0.000000 -0.006530 
#    y 0.000000 1.703200 0.000000 
#    z -0.006530 0.000000 1.766500 
# 
# From -- ./inp_files/49366.got.cif
#   From: 2010.06.25/outbox.cif.g09.slc.cpg/sg10_25_cif.got.tgz:49366.got - 2010.06.27 22:07:45.
