data_PCOD8060736
_publ_section_title
;
Structure prediction by ZEFSAII (Michael W. Deem and Ramdas Pophale) SiO2 
 PCOD8060736
Probable space group: P 2/M
;
_chemical_formula_sum "Si O2"
_cell_formula_units_Z 32
_cell_length_a 20.244917
_cell_length_b 9.077155
_cell_length_c 25.430389
_cell_angle_alpha 90.000000
_cell_angle_beta 22.104513
_cell_angle_gamma 90.000000
_cell_volume 1758.530035
_symmetry_space_group_name_H-M "P 2/M"
_symmetry_group_IT_number 10
_symmetry_cell_setting 'monoclinic'
loop_
_space_group_symop_operation_xyz
x,y,z
-x,y,-z
-x,-y,-z
x,-y,z
loop_
_atom_site_type_symbol
_atom_site_label
_atom_site_fract_x
_atom_site_fract_y
_atom_site_fract_z
Si Si1 0.445475 0.328229 0.231249
Si Si2 0.451791 0.672584 0.957520
Si Si3 0.090145 0.826046 0.823895
Si Si4 0.738034 0.329838 0.098105
Si Si5 0.672394 0.328225 0.266915
Si Si6 0.216435 0.325354 0.222607
Si Si7 0.614847 0.838310 0.467291
Si Si8 0.923479 0.174332 0.500255
O O1 0.392677 0.500000 0.267454
O O2 0.558217 0.282867 0.096260
O O3 0.563045 0.292364 0.195000
O O4 0.272809 0.231252 0.362087
O O5 0.457829 0.500000 0.961658
O O6 0.634370 0.731686 0.846961
O O7 0.281031 0.726370 0.116494
O O8 0.178371 0.752198 0.809689
O O9 0.193517 0.784363 0.693659
O O10 0.093847 0.000000 0.830587
O O11 0.894135 0.769255 0.960645
O O12 0.790733 0.500000 0.052390
O O13 0.704145 0.289230 0.183236
O O14 0.686454 0.500000 0.268360
O O15 0.474848 0.275470 0.426523
O O16 0.182440 0.500000 0.251188
O O17 0.037558 0.242388 0.368830
O O18 0.500000 0.850219 0.500000
O O19 0.625676 0.000000 0.486125
O O20 0.000000 0.226650 0.500000
O O21 0.924690 0.000000 0.494300
#
# Coordination Sequence:
#
# PCOD8060736 Si02
#       8
#     4   4   4   4   4   4   4   4
#     4  10  20  37  57  74 100 139 177 212 258 309
#     4   8  15  29  53  80 100 124 166 214 251 297
#     4  10  20  34  54  78 103 136 177 214 255 311
#     4  10  22  36  51  76 106 136 173 217 260 306
#     4  10  19  32  52  79 108 135 170 218 263 300
#     4   9  16  30  54  81 102 126 167 212 253 298
#     4   8  16  31  50  75 103 131 169 212 252 303
#     4  11  22  34  50  78 109 135 167 208 254 307
#
# _framework density 18.197016000000001
#
# number of rings (size 3 to 8) (size 9 to 14) (size 15 to 20)
#    0.000    2.500    1.250    3.000    0.000    6.250 
#    0.000    3.125    0.000    6.000    0.000    0.000 
#    0.000    0.000    0.000    0.000    0.000    0.000 
#
# Total GULP energy -396702.666219 kJ/mol
# GULP energy per Si atom -12396.958319 kJ/mol
# Density = 1.815560 g / cm^3
# Si number density = 18.197016 Si / 1000 Ang^3
#
#
#
# Elastic Constant Matrix: (Units=GPa)
#
#
# Indices 1 2 3 4 5 6 
#
# 1 42.0435 22.9614 37.5271 0.0000 -5.9084 0.0000
# 2 22.9614 63.9553 54.9804 0.0000 -0.1197 0.0000
# 3 37.5271 54.9804 137.5930 0.0000 8.2598 0.0000
# 4 0.0000 0.0000 0.0000 18.2329 0.0000 -9.9756
# 5 -5.9084 -0.1197 8.2598 0.0000 19.6298 0.0000
# 6 0.0000 0.0000 0.0000 -9.9756 0.0000 -0.9993
#
#
#
# Elastic Compliance Matrix: (Units=1/GPa)
#
#
# Indices 1 2 3 4 5 6 
#
# 1 0.036625 -0.005760 -0.008563 0.000000 0.014592 0.000000
# 2 -0.005760 0.025075 -0.008570 0.000000 0.002025 0.000000
# 3 -0.008563 -0.008570 0.013528 0.000000 -0.008322 0.000000
# 4 0.000000 0.000000 0.000000 0.008488 0.000000 -0.084731
# 5 0.014592 0.002025 -0.008322 0.000000 0.058849 0.000000
# 6 0.000000 0.000000 0.000000 -0.084731 0.000000 -0.154867
#
#
# Mechanical properties :
#
#
# Convention : Reuss Voigt Hill
#
# Bulk Modulus (GPa) = 33.96739 52.72551 43.34645
# Shear Modulus (GPa) = 115.47762 15.91421 65.69591
#
# Velocity S-wave (km/s) = 7.97480 2.96049 6.01506
# Velocity P-wave (km/s) = 10.17367 6.38151 8.49197
#
# Compressibility (1/GPa) = 0.02944000
#
# Stress axis : x y z
#
# Youngs Moduli (GPa) = 27.30391 39.87968 73.92331
#
# Poissons Ratio (x) = 0.22972 0.63303
# Poissons Ratio (y) = 0.15728 0.63355
# Poissons Ratio (z) = 0.23381 0.34178
#
# Static dielectric constant tensor:
#      x y z
#    x 3.243530 0.000000 0.275870 
#    y 0.000000 3.230060 0.000000 
#    z 0.275870 0.000000 3.698830 
# 
# 
# High freq. dielectric constant tensor:
#      x y z
#    x 1.678240 0.000000 0.018030 
#    y 0.000000 1.692580 0.000000 
#    z 0.018030 0.000000 1.715790 
# 
# From -- ./inp_files/93661.got.cif
#   From: 2010.06.25/outbox.cif.g09.slc.cpg/sg10_47_cif.got.tgz:93661.got - 2010.06.27 22:07:45.
