data_PCOD8060836
_publ_section_title
;
Structure prediction by ZEFSAII (Michael W. Deem and Ramdas Pophale) SiO2 
 PCOD8060836
Probable space group: P 2/M
;
_chemical_formula_sum "Si O2"
_cell_formula_units_Z 28
_cell_length_a 5.221278
_cell_length_b 28.723566
_cell_length_c 9.855275
_cell_angle_alpha 90.000000
_cell_angle_beta 61.889627
_cell_angle_gamma 90.000000
_cell_volume 1303.685929
_symmetry_space_group_name_H-M "P 2/M"
_symmetry_group_IT_number 10
_symmetry_cell_setting 'monoclinic'
loop_
_space_group_symop_operation_xyz
x,y,z
-x,y,-z
-x,-y,-z
x,-y,z
loop_
_atom_site_type_symbol
_atom_site_label
_atom_site_fract_x
_atom_site_fract_y
_atom_site_fract_z
Si Si1 0.669421 0.446524 0.096264
Si Si2 0.835881 0.819556 0.903395
Si Si3 0.808248 0.690490 0.437548
Si Si4 0.638148 0.947762 0.317730
Si Si5 0.315241 0.412663 0.428665
Si Si6 0.867352 0.104076 0.681968
Si Si7 0.158390 0.288604 0.095987
O O1 0.669647 0.500000 0.145219
O O2 0.495113 0.415191 0.245669
O O3 0.500000 0.440210 0.000000
O O4 0.000000 0.428318 0.000000
O O5 0.918459 0.847057 0.746145
O O6 0.901342 0.765557 0.860339
O O7 0.500000 0.829518 0.000000
O O8 0.000000 0.836206 0.000000
O O9 0.500000 0.717606 0.500000
O O10 0.729210 0.641050 0.523271
O O11 0.000000 0.718758 0.500000
O O12 0.997287 0.683278 0.255080
O O13 0.500000 0.946015 0.500000
O O14 0.464319 0.913946 0.256054
O O15 0.970082 0.932421 0.259130
O O16 0.629907 0.000000 0.260171
O O17 0.500000 0.438154 0.500000
O O18 0.000000 0.437595 0.500000
O O19 0.000000 0.109376 0.500000
O O20 0.500000 0.300448 0.000000
O O21 0.000000 0.305150 0.000000
#
# Coordination Sequence:
#
# PCOD8060836 Si02
#       7
#     4   4   4   4   4   4   4
#     4  10  21  38  60  86 117 156 201 244 286 341
#     4  10  21  37  56  78 108 143 175 219 280 334
#     4  10  21  39  58  85 119 148 186 236 290 340
#     4   9  17  30  50  76 106 138 176 222 265 313
#     4  10  21  38  57  85 119 152 191 237 293 342
#     4  10  19  32  53  80 103 133 180 223 266 318
#     4  10  21  39  61  83 109 148 192 228 277 348
#
# _framework density 21.477564999999998
#
# number of rings (size 3 to 8) (size 9 to 14) (size 15 to 20)
#    0.000    2.143    0.000    3.000    0.000    2.857 
#    0.000   19.286    0.000    8.571    0.000    0.000 
#    0.000    0.000    0.000    0.000    0.000    0.000 
#
# Total GULP energy -346987.681433 kJ/mol
# GULP energy per Si atom -12392.417194 kJ/mol
# Density = 2.142868 g / cm^3
# Si number density = 21.477565 Si / 1000 Ang^3
#
#
#
# Elastic Constant Matrix: (Units=GPa)
#
#
# Indices 1 2 3 4 5 6 
#
# 1 209.8185 17.8074 58.6054 0.0000 1.8343 0.0000
# 2 17.8074 50.5810 35.4482 0.0000 1.5498 0.0000
# 3 58.6054 35.4482 114.8669 0.0000 -4.3206 0.0000
# 4 0.0000 0.0000 0.0000 45.0119 0.0000 -9.1141
# 5 1.8343 1.5498 -4.3206 0.0000 36.8059 0.0000
# 6 0.0000 0.0000 0.0000 -9.1141 0.0000 22.9700
#
#
#
# Elastic Compliance Matrix: (Units=1/GPa)
#
#
# Indices 1 2 3 4 5 6 
#
# 1 0.005572 0.000084 -0.002892 0.000000 -0.000621 0.000000
# 2 0.000084 0.025373 -0.007948 0.000000 -0.002006 0.000000
# 3 -0.002892 -0.007948 0.012708 0.000000 0.001971 0.000000
# 4 0.000000 0.000000 0.000000 0.024157 0.000000 0.009585
# 5 -0.000621 -0.002006 0.001971 0.000000 0.027516 0.000000
# 6 0.000000 0.000000 0.000000 0.009585 0.000000 0.047338
#
#
# Mechanical properties :
#
#
# Convention : Reuss Voigt Hill
#
# Bulk Modulus (GPa) = 45.16683 66.55427 55.86055
# Shear Modulus (GPa) = 29.14472 38.51793 33.83133
#
# Velocity S-wave (km/s) = 3.68772 4.23945 3.97318
# Velocity P-wave (km/s) = 6.26162 7.41748 6.86392
#
# Compressibility (1/GPa) = 0.02214014
#
# Stress axis : x y z
#
# Youngs Moduli (GPa) = 179.46377 39.41275 78.68803
#
# Poissons Ratio (x) = -0.00332 0.22759
# Poissons Ratio (y) = -0.01512 0.62545
# Poissons Ratio (z) = 0.51906 0.31327
#
# Static dielectric constant tensor:
#      x y z
#    x -13.177650 0.000000 0.173420 
#    y 0.000000 3.610490 0.000000 
#    z 0.173420 0.000000 3.385190 
# 
# 
# High freq. dielectric constant tensor:
#      x y z
#    x 1.878530 0.000000 0.007650 
#    y 0.000000 1.812490 0.000000 
#    z 0.007650 0.000000 1.828850 
# 
# From -- ./inp_files/15873.got.cif
#   From: 2010.06.25/outbox.cif.g09.slc.cpg/sg10_8_cif.got.tgz:15873.got - 2010.06.27 22:07:45.
