data_PCOD8060277
_publ_section_title
;
Structure prediction by ZEFSAII (Michael W. Deem and Ramdas Pophale) SiO2 
 PCOD8060277
Probable space group: P 2/M
;
_chemical_formula_sum "Si O2"
_cell_formula_units_Z 32
_cell_length_a 22.749218
_cell_length_b 8.918741
_cell_length_c 14.952513
_cell_angle_alpha 90.000000
_cell_angle_beta 30.364742
_cell_angle_gamma 90.000000
_cell_volume 1533.585060
_symmetry_space_group_name_H-M "P 2/M"
_symmetry_group_IT_number 10
_symmetry_cell_setting 'monoclinic'
loop_
_space_group_symop_operation_xyz
x,y,z
-x,y,-z
-x,-y,-z
x,-y,z
loop_
_atom_site_type_symbol
_atom_site_label
_atom_site_fract_x
_atom_site_fract_y
_atom_site_fract_z
Si Si1 0.871125 0.830886 0.501475
Si Si2 0.277479 0.178238 0.145556
Si Si3 0.605701 0.675330 0.420762
Si Si4 0.144202 0.323302 0.969988
Si Si5 0.317622 0.673943 0.490698
Si Si6 0.129127 0.829299 0.175430
Si Si7 0.495092 0.324265 0.109110
Si Si8 0.090643 0.821532 0.745601
O O1 0.779769 0.751585 0.688651
O O2 0.878800 0.756204 0.393585
O O3 0.996733 0.826578 0.383956
O O4 0.828846 0.000000 0.541361
O O5 0.208585 0.235315 0.149768
O O6 0.271992 0.000000 0.156879
O O7 0.407003 0.236842 0.965137
O O8 0.500000 0.748209 0.500000
O O9 0.604742 0.500000 0.401569
O O10 0.593283 0.708906 0.543806
O O11 0.732516 0.739062 0.227728
O O12 0.131726 0.500000 0.972224
O O13 0.143017 0.282671 0.075324
O O14 0.035360 0.244809 0.060887
O O15 0.283781 0.500000 0.536933
O O16 0.376449 0.716779 0.317842
O O17 0.197913 0.764919 0.665139
O O18 0.162653 0.000000 0.103292
O O19 0.519990 0.500000 0.081465
O O20 0.500000 0.267677 0.000000
O O21 0.079710 0.000000 0.763456
#
# Coordination Sequence:
#
# PCOD8060277 Si02
#       8
#     4   4   4   4   4   4   4   4
#     4   8  15  30  51  75 105 146 185 220 264 321
#     4  10  19  31  52  77 104 144 191 232 269 328
#     4   9  20  38  60  84 109 146 194 233 268 324
#     4  10  20  35  59  85 110 143 188 233 276 330
#     4  10  21  38  60  82 110 148 190 234 276 328
#     4   9  18  32  51  78 112 144 182 230 280 329
#     4  10  22  37  53  79 113 145 178 228 289 335
#     4  10  20  36  59  84 115 146 181 229 282 338
#
# _framework density 20.866140000000001
#
# number of rings (size 3 to 8) (size 9 to 14) (size 15 to 20)
#    0.000    2.500    0.000    2.625    1.750    3.250 
#    0.000    6.250    0.000    5.625    0.000    0.000 
#    0.000    0.000    0.000    0.000    0.000    0.000 
#
# Total GULP energy -396591.379503 kJ/mol
# GULP energy per Si atom -12393.480609 kJ/mol
# Density = 2.081865 g / cm^3
# Si number density = 20.866140 Si / 1000 Ang^3
#
#
#
# Elastic Constant Matrix: (Units=GPa)
#
#
# Indices 1 2 3 4 5 6 
#
# 1 104.8596 21.6796 40.4280 0.0000 -23.3251 0.0000
# 2 21.6796 38.7272 24.5430 0.0000 -7.1401 0.0000
# 3 40.4280 24.5430 110.2589 0.0000 -12.5885 0.0000
# 4 0.0000 0.0000 0.0000 21.7543 0.0000 -8.7003
# 5 -23.3251 -7.1401 -12.5885 0.0000 30.8743 0.0000
# 6 0.0000 0.0000 0.0000 -8.7003 0.0000 26.2661
#
#
#
# Elastic Compliance Matrix: (Units=1/GPa)
#
#
# Indices 1 2 3 4 5 6 
#
# 1 0.013311 -0.004049 -0.003082 0.000000 0.007863 0.000000
# 2 -0.004049 0.031883 -0.005370 0.000000 0.002125 0.000000
# 3 -0.003082 -0.005370 0.011524 0.000000 0.001129 0.000000
# 4 0.000000 0.000000 0.000000 0.052988 0.000000 0.017551
# 5 0.007863 0.002125 0.001129 0.000000 0.039282 0.000000
# 6 0.000000 0.000000 0.000000 0.017551 0.000000 0.043886
#
#
# Mechanical properties :
#
#
# Convention : Reuss Voigt Hill
#
# Bulk Modulus (GPa) = 31.52866 47.46076 39.49471
# Shear Modulus (GPa) = 21.88710 26.92528 24.40619
#
# Velocity S-wave (km/s) = 3.24223 3.59609 3.42373
# Velocity P-wave (km/s) = 5.39989 6.32749 5.88201
#
# Compressibility (1/GPa) = 0.03171718
#
# Stress axis : x y z
#
# Youngs Moduli (GPa) = 75.12651 31.36463 86.77826
#
# Poissons Ratio (x) = 0.12699 0.26742
# Poissons Ratio (y) = 0.30417 0.46598
# Poissons Ratio (z) = 0.23151 0.16842
#
# Static dielectric constant tensor:
#      x y z
#    x 3.909760 0.000000 -0.009650 
#    y 0.000000 3.319510 0.000000 
#    z -0.009650 0.000000 3.918150 
# 
# 
# High freq. dielectric constant tensor:
#      x y z
#    x 1.824800 0.000000 -0.002940 
#    y 0.000000 1.776350 0.000000 
#    z -0.002940 0.000000 1.820000 
# 
# From -- ./inp_files/71486.got.cif
#   From: 2010.06.25/outbox.cif.g09.slc.cpg/sg10_36_cif.got.tgz:71486.got - 2010.06.27 22:07:45.
