data_PCOD8060369
_publ_section_title
;
Structure prediction by ZEFSAII (Michael W. Deem and Ramdas Pophale) SiO2 
 PCOD8060369
Probable space group: P 2/M
;
_chemical_formula_sum "Si O2"
_cell_formula_units_Z 30
_cell_length_a 21.836747
_cell_length_b 19.979431
_cell_length_c 21.760717
_cell_angle_alpha 90.000000
_cell_angle_beta 166.430282
_cell_angle_gamma 90.000000
_cell_volume 2227.536346
_symmetry_space_group_name_H-M "P 2/M"
_symmetry_group_IT_number 10
_symmetry_cell_setting 'monoclinic'
loop_
_space_group_symop_operation_xyz
x,y,z
-x,y,-z
-x,-y,-z
x,-y,z
loop_
_atom_site_type_symbol
_atom_site_label
_atom_site_fract_x
_atom_site_fract_y
_atom_site_fract_z
Si Si1 0.561434 0.575957 0.988115
Si Si2 0.762741 0.000000 0.220230
Si Si3 0.652433 0.130055 0.036299
Si Si4 0.111157 0.800490 0.541045
Si Si5 0.936338 0.353640 0.508110
Si Si6 0.812545 0.920697 0.637671
Si Si7 0.343877 0.079433 0.094743
Si Si8 0.234153 0.920124 0.270342
O O1 0.627346 0.500000 0.033857
O O2 0.302496 0.601041 0.700327
O O3 0.500000 0.582670 0.000000
O O4 0.801035 0.623791 0.200152
O O5 0.000000 0.000000 0.500000
O O6 0.500000 0.000000 0.000000
O O7 0.765152 0.064710 0.179896
O O8 0.598966 0.115573 0.913323
O O9 0.382570 0.158799 0.800749
O O10 0.891695 0.181314 0.276751
O O11 0.000000 0.816420 0.500000
O O12 0.157311 0.722374 0.574953
O O13 0.000000 0.369383 0.500000
O O14 0.563934 0.896528 0.356800
O O15 0.796448 0.890941 0.690779
O O16 0.819588 0.000000 0.649137
O O17 0.070971 0.894962 0.855805
O O18 0.349251 0.000000 0.089784
O O19 0.500000 0.892908 0.500000
O O20 0.233731 0.000000 0.271427
O O21 0.000000 0.892865 0.000000
#
# Coordination Sequence:
#
# PCOD8060369 Si02
#       8
#     4   2   4   4   4   4   4   4
#     4   9  15  24  40  60  80  98 116 134 158 196
#     4  12  24  36  48  60  72  84 110 160 214 254
#     4  12  22  35  47  59  71  92 121 160 201 249
#     4  11  22  34  47  58  75  95 121 151 197 248
#     4   9  17  28  40  57  77  98 116 139 169 215
#     4   9  17  27  42  56  74  96 114 138 175 216
#     4  10  19  32  43  56  71  90 119 153 191 231
#     4   9  15  23  36  56  78  96 114 132 156 200
#
# _framework density 13.467794
#
# number of rings (size 3 to 8) (size 9 to 14) (size 15 to 20)
#    0.000    2.000    0.667    5.200    0.000    6.933 
#    0.000    0.000    0.000    0.000    0.000    0.000 
#    0.000    0.000    0.000    0.000    0.000    0.000 
#
# Total GULP energy -371891.643617 kJ/mol
# GULP energy per Si atom -12396.388121 kJ/mol
# Density = 1.343714 g / cm^3
# Si number density = 13.467794 Si / 1000 Ang^3
#
#
#
# Elastic Constant Matrix: (Units=GPa)
#
#
# Indices 1 2 3 4 5 6 
#
# 1 66.6393 19.1575 31.8437 0.0000 -3.9999 0.0000
# 2 19.1575 42.6470 32.3130 0.0000 3.7793 0.0000
# 3 31.8437 32.3130 120.5853 0.0000 1.9639 0.0000
# 4 0.0000 0.0000 0.0000 16.9935 0.0000 -0.2823
# 5 -3.9999 3.7793 1.9639 0.0000 21.1560 0.0000
# 6 0.0000 0.0000 0.0000 -0.2823 0.0000 2.0960
#
#
#
# Elastic Compliance Matrix: (Units=1/GPa)
#
#
# Indices 1 2 3 4 5 6 
#
# 1 0.018714 -0.006326 -0.003328 0.000000 0.004977 0.000000
# 2 -0.006326 0.032001 -0.006802 0.000000 -0.006281 0.000000
# 3 -0.003328 -0.006802 0.011002 0.000000 -0.000435 0.000000
# 4 0.000000 0.000000 0.000000 0.058978 0.000000 0.007942
# 5 0.004977 -0.006281 -0.000435 0.000000 0.049371 0.000000
# 6 0.000000 0.000000 0.000000 0.007942 0.000000 0.478174
#
#
# Mechanical properties :
#
#
# Convention : Reuss Voigt Hill
#
# Bulk Modulus (GPa) = 34.71774 44.05554 39.38664
# Shear Modulus (GPa) = 7.23848 17.81959 12.52904
#
# Velocity S-wave (km/s) = 2.32085 3.64143 3.05338
# Velocity P-wave (km/s) = 5.74596 7.10372 6.46061
#
# Compressibility (1/GPa) = 0.02880372
#
# Stress axis : x y z
#
# Youngs Moduli (GPa) = 53.43683 31.24937 90.89640
#
# Poissons Ratio (x) = 0.19769 0.30248
# Poissons Ratio (y) = 0.33805 0.61830
# Poissons Ratio (z) = 0.17782 0.21257
#
# Static dielectric constant tensor:
#      x y z
#    x 2.522730 0.000000 0.022530 
#    y 0.000000 2.393840 0.000000 
#    z 0.022530 0.000000 2.986170 
# 
# 
# High freq. dielectric constant tensor:
#      x y z
#    x 1.475870 0.000000 0.004320 
#    y 0.000000 1.469590 0.000000 
#    z 0.004320 0.000000 1.541970 
# 
# From -- ./inp_files/73662.got.cif
#   From: 2010.06.25/outbox.cif.g09.slc.cpg/sg10_37_cif.got.tgz:73662.got - 2010.06.27 22:07:45.
