data_PCOD8060081
_publ_section_title
;
Structure prediction by ZEFSAII (Michael W. Deem and Ramdas Pophale) SiO2 
 PCOD8060081
Probable space group: P 2/M
;
_chemical_formula_sum "Si O2"
_cell_formula_units_Z 32
_cell_length_a 14.223788
_cell_length_b 8.681346
_cell_length_c 15.425755
_cell_angle_alpha 90.000000
_cell_angle_beta 90.198693
_cell_angle_gamma 90.000000
_cell_volume 1904.785842
_symmetry_space_group_name_H-M "P 2/M"
_symmetry_group_IT_number 10
_symmetry_cell_setting 'monoclinic'
loop_
_space_group_symop_operation_xyz
x,y,z
-x,y,-z
-x,-y,-z
x,-y,z
loop_
_atom_site_type_symbol
_atom_site_label
_atom_site_fract_x
_atom_site_fract_y
_atom_site_fract_z
Si Si1 0.608698 0.678788 0.997044
Si Si2 0.405760 0.176940 0.675842
Si Si3 0.606356 0.680983 0.686156
Si Si4 0.719859 0.820402 0.840891
Si Si5 0.388627 0.669502 0.504826
Si Si6 0.708148 0.177113 0.156259
Si Si7 0.908319 0.821061 0.094294
Si Si8 0.099790 0.319425 0.092302
O O1 0.622875 0.500000 0.974263
O O2 0.657029 0.779020 0.923283
O O3 0.500000 0.724639 0.000000
O O4 0.653672 0.713399 0.090018
O O5 0.496472 0.279969 0.696045
O O6 0.358967 0.216495 0.582309
O O7 0.327335 0.212216 0.747399
O O8 0.437357 0.000000 0.676367
O O9 0.618168 0.500000 0.704270
O O10 0.666090 0.778682 0.753388
O O11 0.645249 0.726118 0.590312
O O12 0.818325 0.728766 0.841434
O O13 0.741876 0.000000 0.842722
O O14 0.500000 0.659410 0.500000
O O15 0.347168 0.500000 0.524790
O O16 0.819393 0.213092 0.155407
O O17 0.689394 0.000000 0.129396
O O18 0.998276 0.727916 0.130785
O O19 0.934460 0.000000 0.092475
O O20 0.881934 0.767992 0.997616
O O21 0.102399 0.500000 0.074835
#
# Coordination Sequence:
#
# PCOD8060081 Si02
#       8
#     4   4   4   4   4   4   4   4
#     4  11  23  35  48  68  97 134 171 204 239 285
#     4  10  19  31  49  75 103 133 168 205 244 290
#     4  10  20  34  50  71 100 133 169 208 248 292
#     4  12  23  35  51  72  98 131 167 204 248 298
#     4   8  16  31  49  69  96 130 165 205 250 290
#     4  10  21  34  49  71 100 133 166 202 243 290
#     4  10  19  34  53  72  96 129 165 204 252 294
#     4  11  21  34  52  74  97 124 163 209 252 293
#
# _framework density 16.799790000000002
#
# number of rings (size 3 to 8) (size 9 to 14) (size 15 to 20)
#    0.000    1.750    1.250    6.000    0.000    7.250 
#    0.000    0.000    0.000    0.000    0.000    0.875 
#    0.000    7.000    0.000    0.000    0.000    0.000 
#
# Total GULP energy -396824.939580 kJ/mol
# GULP energy per Si atom -12400.779362 kJ/mol
# Density = 1.676155 g / cm^3
# Si number density = 16.799790 Si / 1000 Ang^3
#
#
#
# Elastic Constant Matrix: (Units=GPa)
#
#
# Indices 1 2 3 4 5 6 
#
# 1 93.6452 27.4674 41.1277 0.0000 -5.3479 0.0000
# 2 27.4674 56.3176 23.0825 0.0000 1.0746 0.0000
# 3 41.1277 23.0825 98.0943 0.0000 -4.4366 0.0000
# 4 0.0000 0.0000 0.0000 27.0473 0.0000 4.6646
# 5 -5.3479 1.0746 -4.4366 0.0000 6.4463 0.0000
# 6 0.0000 0.0000 0.0000 4.6646 0.0000 15.1029
#
#
#
# Elastic Compliance Matrix: (Units=1/GPa)
#
#
# Indices 1 2 3 4 5 6 
#
# 1 0.014864 -0.005621 -0.004447 0.000000 0.010207 0.000000
# 2 -0.005621 0.022059 -0.003314 0.000000 -0.010622 0.000000
# 3 -0.004447 -0.003314 0.013105 0.000000 0.005882 0.000000
# 4 0.000000 0.000000 0.000000 0.039052 0.000000 -0.012061
# 5 0.010207 -0.010622 0.005882 0.000000 0.169415 0.000000
# 6 0.000000 0.000000 0.000000 -0.012061 0.000000 0.069938
#
#
# Mechanical properties :
#
#
# Convention : Reuss Voigt Hill
#
# Bulk Modulus (GPa) = 42.98932 47.93469 45.46201
# Shear Modulus (GPa) = 13.77590 20.14459 16.96024
#
# Velocity S-wave (km/s) = 2.86668 3.46656 3.18079
# Velocity P-wave (km/s) = 6.04995 6.67964 6.37257
#
# Compressibility (1/GPa) = 0.02326159
#
# Stress axis : x y z
#
# Youngs Moduli (GPa) = 67.27872 45.33274 76.30756
#
# Poissons Ratio (x) = 0.25482 0.33937
# Poissons Ratio (y) = 0.37819 0.25291
# Poissons Ratio (z) = 0.29922 0.15025
#
# Static dielectric constant tensor:
#      x y z
#    x 3.142410 0.000000 0.018130 
#    y 0.000000 3.258150 0.000000 
#    z 0.018130 0.000000 3.260840 
# 
# 
# High freq. dielectric constant tensor:
#      x y z
#    x 1.628570 0.000000 0.000340 
#    y 0.000000 1.661950 0.000000 
#    z 0.000340 0.000000 1.633170 
# 
# From -- ./inp_files/66142.got.cif
#   From: 2010.06.25/outbox.cif.g09.slc.cpg/sg10_34_cif.got.tgz:66142.got - 2010.06.27 22:07:45.
