data_PCOD8060961
_publ_section_title
;
Structure prediction by ZEFSAII (Michael W. Deem and Ramdas Pophale) SiO2 
 PCOD8060961
Probable space group: P 2/M
;
_chemical_formula_sum "Si O2"
_cell_formula_units_Z 28
_cell_length_a 22.495251
_cell_length_b 12.601364
_cell_length_c 9.006182
_cell_angle_alpha 90.000000
_cell_angle_beta 147.517926
_cell_angle_gamma 90.000000
_cell_volume 1371.046820
_symmetry_space_group_name_H-M "P 2/M"
_symmetry_group_IT_number 10
_symmetry_cell_setting 'monoclinic'
loop_
_space_group_symop_operation_xyz
x,y,z
-x,y,-z
-x,-y,-z
x,-y,z
loop_
_atom_site_type_symbol
_atom_site_label
_atom_site_fract_x
_atom_site_fract_y
_atom_site_fract_z
Si Si1 0.375847 0.377209 0.286015
Si Si2 0.394947 0.883055 0.697436
Si Si3 0.252216 0.746927 0.787320
Si Si4 0.869629 0.120939 0.230413
Si Si5 0.870621 0.376730 0.732698
Si Si6 0.240798 0.266028 0.245114
Si Si7 0.541662 0.882602 0.741459
O O1 0.500000 0.346572 0.500000
O O2 0.364828 0.500000 0.295700
O O3 0.341527 0.319480 0.366784
O O4 0.289056 0.347412 0.974563
O O5 0.289879 0.806686 0.482315
O O6 0.430016 0.892572 0.599972
O O7 0.367619 0.000000 0.707989
O O8 0.500000 0.831559 0.000000
O O9 0.169884 0.827182 0.698440
O O10 0.193485 0.695943 0.521463
O O11 0.362953 0.813221 0.976797
O O12 0.000000 0.120159 0.500000
O O13 0.824123 0.000000 0.120850
O O14 0.831619 0.191577 0.012082
O O15 0.847234 0.500000 0.648068
O O16 0.832124 0.352450 0.820701
O O17 0.000000 0.350437 0.000000
O O18 0.500000 0.829162 0.500000
O O19 0.591118 0.000000 0.814883
#
# Coordination Sequence:
#
# PCOD8060961 Si02
#       7
#     4   4   4   4   4   4   4
#     4  10  21  36  56  85 116 146 186 236 290 350
#     4  10  20  33  51  78 111 143 176 215 263 331
#     4  11  20  36  60  82 112 153 193 239 291 341
#     4  10  21  37  58  86 116 146 187 238 291 350
#     4  11  25  43  60  81 111 151 205 260 301 341
#     4  11  21  37  61  83 112 153 191 234 292 346
#     4  10  19  32  54  85 116 146 181 220 270 338
#
# _framework density 20.422352
#
# number of rings (size 3 to 8) (size 9 to 14) (size 15 to 20)
#    0.000    1.571    0.000    6.429    0.000    1.143 
#    0.000    2.143    0.000   16.714    0.000    0.000 
#    0.000    0.000    0.000    0.000    0.000    0.000 
#
# Total GULP energy -347092.306427 kJ/mol
# GULP energy per Si atom -12396.153801 kJ/mol
# Density = 2.037587 g / cm^3
# Si number density = 20.422352 Si / 1000 Ang^3
#
#
#
# Elastic Constant Matrix: (Units=GPa)
#
#
# Indices 1 2 3 4 5 6 
#
# 1 89.3542 33.0718 30.9093 0.0000 6.2335 0.0000
# 2 33.0718 124.2868 54.4279 0.0000 -0.7911 0.0000
# 3 30.9093 54.4279 101.0792 0.0000 -2.6012 0.0000
# 4 0.0000 0.0000 0.0000 31.6334 0.0000 1.0509
# 5 6.2335 -0.7911 -2.6012 0.0000 33.6436 0.0000
# 6 0.0000 0.0000 0.0000 1.0509 0.0000 25.7768
#
#
#
# Elastic Compliance Matrix: (Units=1/GPa)
#
#
# Indices 1 2 3 4 5 6 
#
# 1 0.013222 -0.002269 -0.002891 0.000000 -0.002727 0.000000
# 2 -0.002269 0.010919 -0.005179 0.000000 0.000277 0.000000
# 3 -0.002891 -0.005179 0.013604 0.000000 0.001466 0.000000
# 4 0.000000 0.000000 0.000000 0.031655 0.000000 -0.001291
# 5 -0.002727 0.000277 0.001466 0.000000 0.030348 0.000000
# 6 0.000000 0.000000 0.000000 -0.001291 0.000000 0.038847
#
#
# Mechanical properties :
#
#
# Convention : Reuss Voigt Hill
#
# Bulk Modulus (GPa) = 58.59579 61.28203 59.93891
# Shear Modulus (GPa) = 30.30989 31.29817 30.80403
#
# Velocity S-wave (km/s) = 3.85665 3.91902 3.88796
# Velocity P-wave (km/s) = 6.97036 7.10991 7.04048
#
# Compressibility (1/GPa) = 0.01706607
#
# Stress axis : x y z
#
# Youngs Moduli (GPa) = 75.63311 91.58022 73.50990
#
# Poissons Ratio (x) = 0.20783 0.21254
# Poissons Ratio (y) = 0.17164 0.38068
# Poissons Ratio (z) = 0.21868 0.47426
#
# Static dielectric constant tensor:
#      x y z
#    x 3.675270 0.000000 0.059720 
#    y 0.000000 3.922530 0.000000 
#    z 0.059720 0.000000 3.568550 
# 
# 
# High freq. dielectric constant tensor:
#      x y z
#    x 1.798360 0.000000 -0.001150 
#    y 0.000000 1.811530 0.000000 
#    z -0.001150 0.000000 1.792760 
# 
# From -- ./inp_files/35293.got.cif
#   From: 2010.06.25/outbox.cif.g09.slc.cpg/sg10_18_cif.got.tgz:35293.got - 2010.06.27 22:07:45.
