data_PCOD8060299
_publ_section_title
;
Structure prediction by ZEFSAII (Michael W. Deem and Ramdas Pophale) SiO2 
 PCOD8060299
Probable space group: P 2/M
;
_chemical_formula_sum "Si O2"
_cell_formula_units_Z 24
_cell_length_a 15.043687
_cell_length_b 9.386462
_cell_length_c 14.736161
_cell_angle_alpha 90.000000
_cell_angle_beta 139.557661
_cell_angle_gamma 90.000000
_cell_volume 1349.810283
_symmetry_space_group_name_H-M "P 2/M"
_symmetry_group_IT_number 10
_symmetry_cell_setting 'monoclinic'
loop_
_space_group_symop_operation_xyz
x,y,z
-x,y,-z
-x,-y,-z
x,-y,z
loop_
_atom_site_type_symbol
_atom_site_label
_atom_site_fract_x
_atom_site_fract_y
_atom_site_fract_z
Si Si1 0.387641 0.667779 0.157883
Si Si2 0.097707 0.668070 0.847483
Si Si3 0.615185 0.165024 0.661517
Si Si4 0.921745 0.166074 0.848638
Si Si5 0.418348 0.330533 0.850501
Si Si6 0.118126 0.669561 0.656860
O O1 0.393361 0.500000 0.178565
O O2 0.413566 0.744380 0.272100
O O3 0.507810 0.719659 0.183987
O O4 0.242474 0.713046 0.002879
O O5 0.073912 0.500000 0.836064
O O6 0.093517 0.721118 0.740439
O O7 0.976019 0.746240 0.805341
O O8 0.500000 0.207056 0.500000
O O9 0.762213 0.202793 0.733727
O O10 0.607999 0.000000 0.683116
O O11 0.948474 0.000000 0.851578
O O12 0.000000 0.216712 0.000000
O O13 0.419571 0.500000 0.857721
O O14 0.263253 0.271929 0.732529
O O15 0.500000 0.267637 0.000000
O O16 0.118550 0.500000 0.654728
O O17 0.000000 0.732078 0.500000
#
# Coordination Sequence:
#
# PCOD8060299 Si02
#       6
#     4   4   4   4   4   4
#     4  10  19  31  53  81 104 132 172 214 253 295
#     4  10  19  31  52  81 106 132 170 215 255 291
#     4  10  22  39  55  73 102 137 170 209 259 310
#     4  10  20  35  55  76  98 134 177 208 249 311
#     4   9  15  27  47  70  99 134 167 199 244 302
#     4   9  17  29  46  72 105 135 165 204 250 300
#
# _framework density 17.780276000000001
#
# number of rings (size 3 to 8) (size 9 to 14) (size 15 to 20)
#    0.000    2.333    3.333    0.000    0.000    2.667 
#    0.000    1.667    0.000    2.000    0.000    0.000 
#    0.000    0.000    0.000    0.000    0.000    0.000 
#
# Total GULP energy -297629.788092 kJ/mol
# GULP energy per Si atom -12401.241170 kJ/mol
# Density = 1.773981 g / cm^3
# Si number density = 17.780276 Si / 1000 Ang^3
#
#
#
# Elastic Constant Matrix: (Units=GPa)
#
#
# Indices 1 2 3 4 5 6 
#
# 1 174.9252 44.3288 91.6675 0.0000 -2.0893 0.0000
# 2 44.3288 25.6117 32.0310 0.0000 -4.8065 0.0000
# 3 91.6675 32.0310 158.7881 0.0000 2.7727 0.0000
# 4 0.0000 0.0000 0.0000 8.7510 0.0000 6.4217
# 5 -2.0893 -4.8065 2.7727 0.0000 32.2376 0.0000
# 6 0.0000 0.0000 0.0000 6.4217 0.0000 -3.3980
#
#
#
# Elastic Compliance Matrix: (Units=1/GPa)
#
#
# Indices 1 2 3 4 5 6 
#
# 1 0.011529 -0.015929 -0.003419 0.000000 -0.001334 0.000000
# 2 -0.015929 0.076784 -0.006485 0.000000 0.010974 0.000000
# 3 -0.003419 -0.006485 0.009615 0.000000 -0.002015 0.000000
# 4 0.000000 0.000000 0.000000 0.047876 0.000000 0.090479
# 5 -0.001334 0.010974 -0.002015 0.000000 0.032743 0.000000
# 6 0.000000 0.000000 0.000000 0.090479 0.000000 -0.123297
#
#
# Mechanical properties :
#
#
# Convention : Reuss Voigt Hill
#
# Bulk Modulus (GPa) = 21.61591 77.26442 49.44017
# Shear Modulus (GPa) = 40.87031 20.27129 30.57080
#
# Velocity S-wave (km/s) = 4.79961 3.38020 4.15102
# Velocity P-wave (km/s) = 6.54970 7.66706 7.13030
#
# Compressibility (1/GPa) = 0.04626223
#
# Stress axis : x y z
#
# Youngs Moduli (GPa) = 86.73564 13.02348 104.00408
#
# Poissons Ratio (x) = 0.20745 0.35562
# Poissons Ratio (y) = 1.38161 0.67447
# Poissons Ratio (z) = 0.29658 0.08446
#
# Static dielectric constant tensor:
#      x y z
#    x 3.422450 0.000000 0.095060 
#    y 0.000000 2.865130 0.000000 
#    z 0.095060 0.000000 3.450760 
# 
# 
# High freq. dielectric constant tensor:
#      x y z
#    x 1.703130 0.000000 0.003310 
#    y 0.000000 1.642930 0.000000 
#    z 0.003310 0.000000 1.692930 
# 
# From -- ./inp_files/32258.got.cif
#   From: 2010.06.25/outbox.cif.g09.slc.cpg/sg10_17_cif.got.tgz:32258.got - 2010.06.27 22:07:45.
