data_PCOD8060104
_publ_section_title
;
Structure prediction by ZEFSAII (Michael W. Deem and Ramdas Pophale) SiO2 
 PCOD8060104
Probable space group: P 2/M
;
_chemical_formula_sum "Si O2"
_cell_formula_units_Z 32
_cell_length_a 16.797703
_cell_length_b 9.097027
_cell_length_c 25.493951
_cell_angle_alpha 90.000000
_cell_angle_beta 154.466586
_cell_angle_gamma 90.000000
_cell_volume 1679.196345
_symmetry_space_group_name_H-M "P 2/M"
_symmetry_group_IT_number 10
_symmetry_cell_setting 'monoclinic'
loop_
_space_group_symop_operation_xyz
x,y,z
-x,y,-z
-x,-y,-z
x,-y,z
loop_
_atom_site_type_symbol
_atom_site_label
_atom_site_fract_x
_atom_site_fract_y
_atom_site_fract_z
Si Si1 0.690314 0.826901 0.399805
Si Si2 0.110255 0.830852 0.210864
Si Si3 0.245174 0.325333 0.973407
Si Si4 0.868957 0.334816 0.208536
Si Si5 0.908613 0.830974 0.333101
Si Si6 0.532689 0.168740 0.632564
Si Si7 0.406340 0.829522 0.772135
Si Si8 0.262268 0.667321 0.399282
O O1 0.533487 0.783867 0.348801
O O2 0.625639 0.765497 0.305145
O O3 0.889868 0.760862 0.534925
O O4 0.714998 0.000000 0.408265
O O5 0.244694 0.814834 0.239932
O O6 0.226410 0.770334 0.328602
O O7 0.921168 0.740833 0.090282
O O8 0.058505 0.000000 0.190254
O O9 0.231652 0.500000 0.969169
O O10 0.221313 0.272622 0.898789
O O11 0.438298 0.268516 0.108841
O O12 0.799087 0.500000 0.175971
O O13 0.809371 0.243113 0.223995
O O14 0.089872 0.326064 0.336098
O O15 0.783534 0.807939 0.309633
O O16 0.930583 0.000000 0.331063
O O17 0.441089 0.273911 0.535257
O O18 0.472445 0.000000 0.585839
O O19 0.468372 0.000000 0.808927
O O20 0.296329 0.500000 0.400678
#
# Coordination Sequence:
#
# PCOD8060104 Si02
#       8
#     4   4   4   4   4   4   4   4
#     4   9  18  35  57  82 113 142 176 224 273 320
#     4  10  20  33  53  80 108 140 182 226 268 319
#     4  10  22  40  57  76 108 148 186 223 270 324
#     4   9  19  34  52  77 109 144 178 218 269 323
#     4  10  19  33  58  86 110 138 176 224 274 323
#     4  10  19  32  53  81 109 142 181 222 270 320
#     4  10  21  37  58  82 106 141 186 228 271 320
#     4  10  19  31  49  77 114 150 179 214 267 325
#
# _framework density 19.056736000000001
#
# number of rings (size 3 to 8) (size 9 to 14) (size 15 to 20)
#    0.000    2.250    1.250    2.625    0.000    7.500 
#    0.000    4.375    0.000    5.250    0.000    0.000 
#    0.000    0.000    0.000    0.000    0.000    0.000 
#
# Total GULP energy -396770.746838 kJ/mol
# GULP energy per Si atom -12399.085839 kJ/mol
# Density = 1.901336 g / cm^3
# Si number density = 19.056736 Si / 1000 Ang^3
#
#
#
# Elastic Constant Matrix: (Units=GPa)
#
#
# Indices 1 2 3 4 5 6 
#
# 1 99.3090 33.7625 36.7045 0.0000 -0.6069 0.0000
# 2 33.7625 69.0871 31.7074 0.0000 -0.4727 0.0000
# 3 36.7045 31.7074 78.7737 0.0000 -12.3479 0.0000
# 4 0.0000 0.0000 0.0000 24.0341 0.0000 4.0560
# 5 -0.6069 -0.4727 -12.3479 0.0000 16.4453 0.0000
# 6 0.0000 0.0000 0.0000 4.0560 0.0000 12.0910
#
#
#
# Elastic Compliance Matrix: (Units=1/GPa)
#
#
# Indices 1 2 3 4 5 6 
#
# 1 0.013356 -0.004229 -0.005058 0.000000 -0.003427 0.000000
# 2 -0.004229 0.019544 -0.006611 0.000000 -0.004558 0.000000
# 3 -0.005058 -0.006611 0.020008 0.000000 0.014646 0.000000
# 4 0.000000 0.000000 0.000000 0.044104 0.000000 -0.014795
# 5 -0.003427 -0.004558 0.014646 0.000000 0.071548 0.000000
# 6 0.000000 0.000000 0.000000 -0.014795 0.000000 0.087669
#
#
# Mechanical properties :
#
#
# Convention : Reuss Voigt Hill
#
# Bulk Modulus (GPa) = 47.36523 50.16874 48.76699
# Shear Modulus (GPa) = 16.94558 20.18042 18.56300
#
# Velocity S-wave (km/s) = 2.98521 3.25770 3.12443
# Velocity P-wave (km/s) = 6.06554 6.36658 6.21788
#
# Compressibility (1/GPa) = 0.02111253
#
# Stress axis : x y z
#
# Youngs Moduli (GPa) = 74.87368 51.16679 49.97976
#
# Poissons Ratio (x) = 0.21638 0.25280
# Poissons Ratio (y) = 0.31664 0.33040
# Poissons Ratio (z) = 0.37871 0.33825
#
# Static dielectric constant tensor:
#      x y z
#    x 3.575290 0.000000 0.083450 
#    y 0.000000 3.361190 0.000000 
#    z 0.083450 0.000000 3.351380 
# 
# 
# High freq. dielectric constant tensor:
#      x y z
#    x 1.743340 0.000000 0.011980 
#    y 0.000000 1.726440 0.000000 
#    z 0.011980 0.000000 1.725690 
# 
# From -- ./inp_files/89577.got.cif
#   From: 2010.06.25/outbox.cif.g09.slc.cpg/sg10_45_cif.got.tgz:89577.got - 2010.06.27 22:07:45.
