data_PCOD8060065
_publ_section_title
;
Structure prediction by ZEFSAII (Michael W. Deem and Ramdas Pophale) SiO2 
 PCOD8060065
Probable space group: P 2/M
;
_chemical_formula_sum "Si O2"
_cell_formula_units_Z 26
_cell_length_a 20.723876
_cell_length_b 19.377949
_cell_length_c 17.631179
_cell_angle_alpha 90.000000
_cell_angle_beta 167.913147
_cell_angle_gamma 90.000000
_cell_volume 1482.602710
_symmetry_space_group_name_H-M "P 2/M"
_symmetry_group_IT_number 10
_symmetry_cell_setting 'monoclinic'
loop_
_space_group_symop_operation_xyz
x,y,z
-x,y,-z
-x,-y,-z
x,-y,z
loop_
_atom_site_type_symbol
_atom_site_label
_atom_site_fract_x
_atom_site_fract_y
_atom_site_fract_z
Si Si1 0.191060 0.924005 0.295434
Si Si2 0.475395 0.621674 0.283173
Si Si3 0.139220 0.421694 0.757503
Si Si4 0.921985 0.708073 0.704622
Si Si5 0.695990 0.839022 0.801300
Si Si6 0.352160 0.500000 0.411817
Si Si7 0.577766 0.665069 0.168758
O O1 0.468097 0.869228 0.603523
O O2 0.316618 0.000000 0.463443
O O3 0.000000 0.931349 0.000000
O O4 0.951523 0.897598 0.082420
O O5 0.728860 0.681299 0.555810
O O6 0.576582 0.569952 0.463510
O O7 0.413827 0.580317 0.135009
O O8 0.164410 0.651754 0.958872
O O9 0.082651 0.500000 0.665993
O O10 0.832809 0.392173 0.443254
O O11 0.264700 0.375887 0.831527
O O12 0.691791 0.717614 0.366605
O O13 0.114482 0.775186 0.948067
O O14 0.500000 0.819449 0.500000
O O15 0.500000 0.500000 0.500000
O O16 0.000000 0.500000 0.000000
O O17 0.500000 0.705512 0.000000
#
# Coordination Sequence:
#
# PCOD8060065 Si02
#       7
#     4   4   4   4   4   2   4
#     4   9  17  30  49  74 105 133 157 193 235 274
#     4  10  21  37  49  66  92 125 163 208 258 297
#     4  10  19  33  52  67  90 121 149 197 259 315
#     4  10  21  35  53  69  98 133 160 205 249 287
#     4  10  19  31  49  74 100 132 168 193 226 289
#     4  12  24  36  52  70  87 120 171 218 256 298
#     4  10  21  33  48  72  96 121 157 200 250 305
#
# _framework density 17.536728
#
# number of rings (size 3 to 8) (size 9 to 14) (size 15 to 20)
#    0.000    2.000    0.769    3.231    0.000    5.538 
#    0.000    0.000    0.000    0.000    0.000    0.000 
#    0.000    3.692    0.000    0.000    0.000    0.000 
#
# Total GULP energy -322190.268967 kJ/mol
# GULP energy per Si atom -12391.933422 kJ/mol
# Density = 1.749681 g / cm^3
# Si number density = 17.536728 Si / 1000 Ang^3
#
#
#
# Elastic Constant Matrix: (Units=GPa)
#
#
# Indices 1 2 3 4 5 6 
#
# 1 81.0593 20.1492 29.3602 0.0000 -3.9909 0.0000
# 2 20.1492 63.0359 25.7684 0.0000 -17.4837 0.0000
# 3 29.3602 25.7684 82.7528 0.0000 11.5882 0.0000
# 4 0.0000 0.0000 0.0000 27.8363 0.0000 21.1122
# 5 -3.9909 -17.4837 11.5882 0.0000 29.2019 0.0000
# 6 0.0000 0.0000 0.0000 21.1122 0.0000 11.0709
#
#
#
# Elastic Compliance Matrix: (Units=1/GPa)
#
#
# Indices 1 2 3 4 5 6 
#
# 1 0.014778 -0.001828 -0.005086 0.000000 0.002943 0.000000
# 2 -0.001828 0.025946 -0.010134 0.000000 0.019306 0.000000
# 3 -0.005086 -0.010134 0.019050 0.000000 -0.014322 0.000000
# 4 0.000000 0.000000 0.000000 -0.080486 0.000000 0.153486
# 5 0.002943 0.019306 -0.014322 0.000000 0.051889 0.000000
# 6 0.000000 0.000000 0.000000 0.153486 0.000000 -0.202370
#
#
# Mechanical properties :
#
#
# Convention : Reuss Voigt Hill
#
# Bulk Modulus (GPa) = 38.94528 41.93373 40.43951
# Shear Modulus (GPa) = -38.89934 23.72650 -7.58642
#
# Velocity S-wave (km/s) = -4.71485 3.68225 -2.08216
# Velocity P-wave (km/s) = 2.71729 6.48402 4.16286
#
# Compressibility (1/GPa) = 0.02567705
#
# Stress axis : x y z
#
# Youngs Moduli (GPa) = 67.66705 38.54192 52.49361
#
# Poissons Ratio (x) = 0.07047 0.26699
# Poissons Ratio (y) = 0.12371 0.53197
# Poissons Ratio (z) = 0.34416 0.39059
#
# Static dielectric constant tensor:
#      x y z
#    x 3.779520 0.000000 0.141330 
#    y 0.000000 3.082990 0.000000 
#    z 0.141330 0.000000 3.645270 
# 
# 
# High freq. dielectric constant tensor:
#      x y z
#    x 1.678450 0.000000 0.019340 
#    y 0.000000 1.641410 0.000000 
#    z 0.019340 0.000000 1.693410 
# 
# From -- ./inp_files/12871.got.cif
#   From: 2010.06.25/outbox.cif.g09.slc.cpg/sg10_7_cif.got.tgz:12871.got - 2010.06.27 22:07:45.
