data_PCOD8060260
_publ_section_title
;
Structure prediction by ZEFSAII (Michael W. Deem and Ramdas Pophale) SiO2 
 PCOD8060260
Probable space group: P 2/M
;
_chemical_formula_sum "Si O2"
_cell_formula_units_Z 28
_cell_length_a 26.127376
_cell_length_b 8.653805
_cell_length_c 22.575458
_cell_angle_alpha 90.000000
_cell_angle_beta 16.193889
_cell_angle_gamma 90.000000
_cell_volume 1423.542247
_symmetry_space_group_name_H-M "P 2/M"
_symmetry_group_IT_number 10
_symmetry_cell_setting 'monoclinic'
loop_
_space_group_symop_operation_xyz
x,y,z
-x,y,-z
-x,-y,-z
x,-y,z
loop_
_atom_site_type_symbol
_atom_site_label
_atom_site_fract_x
_atom_site_fract_y
_atom_site_fract_z
Si Si1 0.121824 0.316200 0.449209
Si Si2 0.350813 0.316585 0.303974
Si Si3 0.426625 0.679727 0.445547
Si Si4 0.792822 0.819041 0.072630
Si Si5 0.738892 0.316172 0.830343
Si Si6 0.797156 0.820009 0.204974
Si Si7 0.202442 0.818606 0.588507
O O1 0.125638 0.500000 0.446160
O O2 0.210516 0.249155 0.410690
O O3 0.238069 0.258496 0.263052
O O4 0.911702 0.257431 0.677379
O O5 0.354458 0.500000 0.297179
O O6 0.291896 0.266110 0.434003
O O7 0.552677 0.248501 0.065284
O O8 0.405566 0.500000 0.454848
O O9 0.640721 0.726008 0.204596
O O10 0.350044 0.719864 0.595602
O O11 0.312533 0.776465 0.524931
O O12 0.773820 0.777469 0.162629
O O13 0.763597 0.000000 0.094660
O O14 0.991855 0.764851 0.828811
O O15 0.733687 0.500000 0.836479
O O16 0.758328 0.000000 0.260444
O O17 0.000000 0.774043 0.000000
O O18 0.214223 0.000000 0.565760
#
# Coordination Sequence:
#
# PCOD8060260 Si02
#       7
#     4   4   4   4   4   4   4
#     4   8  14  26  47  76 109 142 176 220 273 333
#     4  10  19  31  51  80 109 139 181 234 285 324
#     4  12  25  39  60  90 120 146 182 240 299 340
#     4  10  22  41  64  84 110 153 198 233 273 339
#     4   8  14  26  47  77 110 141 175 218 275 335
#     4  10  19  38  65  89 115 152 192 228 274 339
#     4  11  24  43  60  78 110 157 203 235 275 340
#
# _framework density 19.669245
#
# number of rings (size 3 to 8) (size 9 to 14) (size 15 to 20)
#    0.000    2.143    1.429    3.429    0.000    6.571 
#    0.000    1.429    0.000    1.714    0.000    2.000 
#    0.000    0.000    0.000    0.000    0.000    0.000 
#
# Total GULP energy -347213.881110 kJ/mol
# GULP energy per Si atom -12400.495754 kJ/mol
# Density = 1.962448 g / cm^3
# Si number density = 19.669245 Si / 1000 Ang^3
#
#
#
# Elastic Constant Matrix: (Units=GPa)
#
#
# Indices 1 2 3 4 5 6 
#
# 1 51.3866 9.0724 55.4352 0.0000 7.4969 0.0000
# 2 9.0724 15.0369 15.4135 0.0000 -4.4653 0.0000
# 3 55.4352 15.4135 137.6685 0.0000 -6.1456 0.0000
# 4 0.0000 0.0000 0.0000 11.9795 0.0000 -10.8200
# 5 7.4969 -4.4653 -6.1456 0.0000 32.5621 0.0000
# 6 0.0000 0.0000 0.0000 -10.8200 0.0000 -0.9575
#
#
#
# Elastic Compliance Matrix: (Units=1/GPa)
#
#
# Indices 1 2 3 4 5 6 
#
# 1 0.040451 -0.012674 -0.015493 0.000000 -0.013975 0.000000
# 2 -0.012674 0.081676 -0.003440 0.000000 0.013469 0.000000
# 3 -0.015493 -0.003440 0.014145 0.000000 0.005765 0.000000
# 4 0.000000 0.000000 0.000000 0.007449 0.000000 -0.084174
# 5 -0.013975 0.013469 0.005765 0.000000 0.036863 0.000000
# 6 0.000000 0.000000 0.000000 -0.084174 0.000000 -0.093194
#
#
# Mechanical properties :
#
#
# Convention : Reuss Voigt Hill
#
# Bulk Modulus (GPa) = 13.68796 40.43714 27.06255
# Shear Modulus (GPa) = 28.57855 16.99487 22.78671
#
# Velocity S-wave (km/s) = 3.81590 2.94263 3.40736
# Velocity P-wave (km/s) = 5.13702 5.66998 5.41007
#
# Compressibility (1/GPa) = 0.07305691
#
# Stress axis : x y z
#
# Youngs Moduli (GPa) = 24.72142 12.24356 70.69662
#
# Poissons Ratio (x) = 0.15518 1.09532
# Poissons Ratio (y) = 0.31333 0.24317
# Poissons Ratio (z) = 0.38301 0.04211
#
# Static dielectric constant tensor:
#      x y z
#    x 3.678990 0.000000 -0.155180 
#    y 0.000000 3.124840 0.000000 
#    z -0.155180 0.000000 3.892060 
# 
# 
# High freq. dielectric constant tensor:
#      x y z
#    x 1.769840 0.000000 -0.009940 
#    y 0.000000 1.724190 0.000000 
#    z -0.009940 0.000000 1.780510 
# 
# From -- ./inp_files/86479.got.cif
#   From: 2010.06.25/outbox.cif.g09.slc.cpg/sg10_44_cif.got.tgz:86479.got - 2010.06.27 22:07:45.
