data_PCOD8060123
_publ_section_title
;
Structure prediction by ZEFSAII (Michael W. Deem and Ramdas Pophale) SiO2 
 PCOD8060123
Probable space group: P 2/M
;
_chemical_formula_sum "Si O2"
_cell_formula_units_Z 32
_cell_length_a 19.113366
_cell_length_b 8.875359
_cell_length_c 24.376960
_cell_angle_alpha 90.000000
_cell_angle_beta 156.293850
_cell_angle_gamma 90.000000
_cell_volume 1662.564334
_symmetry_space_group_name_H-M "P 2/M"
_symmetry_group_IT_number 10
_symmetry_cell_setting 'monoclinic'
loop_
_space_group_symop_operation_xyz
x,y,z
-x,y,-z
-x,-y,-z
x,-y,z
loop_
_atom_site_type_symbol
_atom_site_label
_atom_site_fract_x
_atom_site_fract_y
_atom_site_fract_z
Si Si1 0.857247 0.833420 0.352066
Si Si2 0.534877 0.172819 0.183067
Si Si3 0.350879 0.323927 0.541945
Si Si4 0.836460 0.832036 0.123377
Si Si5 0.379589 0.324162 0.175656
Si Si6 0.962422 0.825405 0.624432
Si Si7 0.325008 0.822200 0.404157
Si Si8 0.983126 0.325158 0.129155
O O1 0.691223 0.749286 0.260479
O O2 0.945248 0.752078 0.362826
O O3 0.000000 0.847647 0.500000
O O4 0.796641 0.000000 0.288776
O O5 0.502215 0.248792 0.218229
O O6 0.584382 0.000000 0.231499
O O7 0.369188 0.188122 0.025146
O O8 0.328050 0.500000 0.513884
O O9 0.539881 0.290926 0.706139
O O10 0.327401 0.238039 0.467957
O O11 0.207871 0.269257 0.482739
O O12 0.893250 0.808017 0.225697
O O13 0.927688 0.705920 0.151848
O O14 0.889582 0.000000 0.140076
O O15 0.380773 0.500000 0.163243
O O16 0.176513 0.268157 0.025116
O O17 0.907983 0.000000 0.575872
O O18 0.500000 0.768471 0.500000
O O19 0.165434 0.761994 0.251857
O O20 0.310332 0.000000 0.397169
O O21 0.020743 0.500000 0.146766
#
# Coordination Sequence:
#
# PCOD8060123 Si02
#       8
#     4   4   4   4   4   4   4   4
#     4   9  17  28  43  67 100 140 186 232 276 321
#     4   9  17  30  49  73 103 142 188 230 273 323
#     4  11  22  37  58  84 112 143 184 226 266 324
#     4   9  17  29  48  75 104 137 180 228 273 320
#     4   9  20  36  55  82 113 146 184 226 271 318
#     4  10  19  31  50  74 105 142 182 232 279 318
#     4  11  24  41  61  86 115 143 174 217 267 321
#     4  10  19  35  59  83 111 146 181 219 265 319
#
# _framework density 19.247375999999999
#
# number of rings (size 3 to 8) (size 9 to 14) (size 15 to 20)
#    0.000    2.250    1.250    1.875    0.000    4.000 
#    0.000    3.750    0.000    6.000    0.000    4.375 
#    0.000    0.000    0.000    0.000    0.000    0.000 
#
# Total GULP energy -396584.187180 kJ/mol
# GULP energy per Si atom -12393.255849 kJ/mol
# Density = 1.920357 g / cm^3
# Si number density = 19.247376 Si / 1000 Ang^3
#
#
#
# Elastic Constant Matrix: (Units=GPa)
#
#
# Indices 1 2 3 4 5 6 
#
# 1 46.8675 9.7674 35.7404 0.0000 12.7921 0.0000
# 2 9.7674 43.1637 26.7896 0.0000 3.7164 0.0000
# 3 35.7404 26.7896 118.1605 0.0000 11.2795 0.0000
# 4 0.0000 0.0000 0.0000 23.4849 0.0000 -3.4200
# 5 12.7921 3.7164 11.2795 0.0000 34.8805 0.0000
# 6 0.0000 0.0000 0.0000 -3.4200 0.0000 -0.8495
#
#
#
# Elastic Compliance Matrix: (Units=1/GPa)
#
#
# Indices 1 2 3 4 5 6 
#
# 1 0.029935 -0.001085 -0.008019 0.000000 -0.008270 0.000000
# 2 -0.001085 0.027030 -0.005740 0.000000 -0.000626 0.000000
# 3 -0.008019 -0.005740 0.012229 0.000000 -0.000402 0.000000
# 4 0.000000 0.000000 0.000000 0.026844 0.000000 -0.108065
# 5 -0.008270 -0.000626 -0.000402 0.000000 0.031899 0.000000
# 6 0.000000 0.000000 0.000000 -0.108065 0.000000 -0.742081
#
#
# Mechanical properties :
#
#
# Convention : Reuss Voigt Hill
#
# Bulk Modulus (GPa) = 25.31346 39.19850 32.25598
# Shear Modulus (GPa) = -8.75216 20.56278 5.90531
#
# Velocity S-wave (km/s) = -2.13473 3.27210 1.75350
# Velocity P-wave (km/s) = 2.66535 5.88943 4.57107
#
# Compressibility (1/GPa) = 0.03950468
#
# Stress axis : x y z
#
# Youngs Moduli (GPa) = 33.40535 36.99628 81.77611
#
# Poissons Ratio (x) = 0.04013 0.65579
# Poissons Ratio (y) = 0.03624 0.46943
# Poissons Ratio (z) = 0.26789 0.21237
#
# Static dielectric constant tensor:
#      x y z
#    x 3.383690 0.000000 0.078850 
#    y 0.000000 3.409520 0.000000 
#    z 0.078850 0.000000 3.922690 
# 
# 
# High freq. dielectric constant tensor:
#      x y z
#    x 1.728000 0.000000 -0.000600 
#    y 0.000000 1.725150 0.000000 
#    z -0.000600 0.000000 1.770500 
# 
# From -- ./inp_files/93719.got.cif
#   From: 2010.06.25/outbox.cif.g09.slc.cpg/sg10_47_cif.got.tgz:93719.got - 2010.06.27 22:07:45.
