data_PCOD8060826
_publ_section_title
;
Structure prediction by ZEFSAII (Michael W. Deem and Ramdas Pophale) SiO2 
 PCOD8060826
Probable space group: P 2/M
;
_chemical_formula_sum "Si O2"
_cell_formula_units_Z 28
_cell_length_a 16.752372
_cell_length_b 8.594385
_cell_length_c 15.066548
_cell_angle_alpha 90.000000
_cell_angle_beta 45.712517
_cell_angle_gamma 90.000000
_cell_volume 1552.830480
_symmetry_space_group_name_H-M "P 2/M"
_symmetry_group_IT_number 10
_symmetry_cell_setting 'monoclinic'
loop_
_space_group_symop_operation_xyz
x,y,z
-x,y,-z
-x,-y,-z
x,-y,z
loop_
_atom_site_type_symbol
_atom_site_label
_atom_site_fract_x
_atom_site_fract_y
_atom_site_fract_z
Si Si1 0.770655 0.815917 0.648528
Si Si2 0.295267 0.819391 0.994199
Si Si3 0.906154 0.681195 0.184723
Si Si4 0.527303 0.817041 0.882060
Si Si5 0.127849 0.681113 0.258755
Si Si6 0.860591 0.180538 0.041711
Si Si7 0.898844 0.818721 0.374276
O O1 0.644120 0.751236 0.754279
O O2 0.848707 0.729935 0.658642
O O3 0.814457 0.770030 0.517516
O O4 0.779673 0.000000 0.658181
O O5 0.426390 0.775254 0.893275
O O6 0.248370 0.783119 0.932615
O O7 0.278283 0.000000 0.033037
O O8 0.234916 0.717857 0.115655
O O9 0.890151 0.500000 0.182120
O O10 0.836906 0.769162 0.161308
O O11 0.858998 0.729249 0.317021
O O12 0.036682 0.723105 0.077988
O O13 0.541746 0.000000 0.880634
O O14 0.500000 0.745033 0.000000
O O15 0.098716 0.500000 0.276738
O O16 0.024508 0.777621 0.302130
O O17 0.893039 0.000000 0.012775
O O18 0.893358 0.000000 0.357797
#
# Coordination Sequence:
#
# PCOD8060826 Si02
#       7
#     4   4   4   4   4   4   4
#     4  10  21  37  56  76 103 142 182 219 260 312
#     4  10  19  33  56  80 107 139 174 216 262 311
#     4  11  21  33  52  77 108 139 171 216 268 318
#     4   9  16  31  57  81 102 133 177 223 262 302
#     4  12  23  33  50  77 111 143 175 214 261 315
#     4  10  19  32  53  79 107 139 175 214 259 316
#     4  11  22  36  54  76 105 141 181 218 261 317
#
# _framework density 18.031589
#
# number of rings (size 3 to 8) (size 9 to 14) (size 15 to 20)
#    0.000    1.571    2.857    4.714    0.000    3.429 
#    0.000    1.429    0.000    0.857    0.000    6.000 
#    0.000    0.000    0.000    0.000    0.000    0.000 
#
# Total GULP energy -347251.503607 kJ/mol
# GULP energy per Si atom -12401.839415 kJ/mol
# Density = 1.799055 g / cm^3
# Si number density = 18.031589 Si / 1000 Ang^3
#
#
#
# Elastic Constant Matrix: (Units=GPa)
#
#
# Indices 1 2 3 4 5 6 
#
# 1 111.7269 13.0343 37.0819 0.0000 20.5839 0.0000
# 2 13.0343 44.6970 11.3376 0.0000 9.6010 0.0000
# 3 37.0819 11.3376 89.0366 0.0000 16.8288 0.0000
# 4 0.0000 0.0000 0.0000 12.6217 0.0000 8.0462
# 5 20.5839 9.6010 16.8288 0.0000 26.7935 0.0000
# 6 0.0000 0.0000 0.0000 8.0462 0.0000 7.2941
#
#
#
# Elastic Compliance Matrix: (Units=1/GPa)
#
#
# Indices 1 2 3 4 5 6 
#
# 1 0.011353 -0.001117 -0.003419 0.000000 -0.006174 0.000000
# 2 -0.001117 0.024561 -0.001317 0.000000 -0.007115 0.000000
# 3 -0.003419 -0.001317 0.013886 0.000000 -0.005623 0.000000
# 4 0.000000 0.000000 0.000000 0.266969 0.000000 -0.294499
# 5 -0.006174 -0.007115 -0.005623 0.000000 0.048147 0.000000
# 6 0.000000 0.000000 0.000000 -0.294499 0.000000 0.461965
#
#
# Mechanical properties :
#
#
# Convention : Reuss Voigt Hill
#
# Bulk Modulus (GPa) = 26.25177 40.92979 33.59078
# Shear Modulus (GPa) = 5.87347 21.60897 13.74122
#
# Velocity S-wave (km/s) = 1.80676 3.46554 2.76354
# Velocity P-wave (km/s) = 4.35234 6.22587 5.37142
#
# Compressibility (1/GPa) = 0.03809267
#
# Stress axis : x y z
#
# Youngs Moduli (GPa) = 88.08254 40.71466 72.01585
#
# Poissons Ratio (x) = 0.04549 0.24623
# Poissons Ratio (y) = 0.09841 0.09487
# Poissons Ratio (z) = 0.30116 0.05364
#
# Static dielectric constant tensor:
#      x y z
#    x 3.498210 0.000000 0.113810 
#    y 0.000000 3.207270 0.000000 
#    z 0.113810 0.000000 3.345480 
# 
# 
# High freq. dielectric constant tensor:
#      x y z
#    x 1.700330 0.000000 0.013540 
#    y 0.000000 1.688600 0.000000 
#    z 0.013540 0.000000 1.678010 
# 
# From -- ./inp_files/68561.got.cif
#   From: 2010.06.25/outbox.cif.g09.slc.cpg/sg10_35_cif.got.tgz:68561.got - 2010.06.27 22:07:45.
