data_PCOD8060797
_publ_section_title
;
Structure prediction by ZEFSAII (Michael W. Deem and Ramdas Pophale) SiO2 
 PCOD8060797
Probable space group: P 2/M
;
_chemical_formula_sum "Si O2"
_cell_formula_units_Z 32
_cell_length_a 12.373147
_cell_length_b 8.966159
_cell_length_c 23.695894
_cell_angle_alpha 90.000000
_cell_angle_beta 133.856716
_cell_angle_gamma 90.000000
_cell_volume 1895.570696
_symmetry_space_group_name_H-M "P 2/M"
_symmetry_group_IT_number 10
_symmetry_cell_setting 'monoclinic'
loop_
_space_group_symop_operation_xyz
x,y,z
-x,y,-z
-x,-y,-z
x,-y,z
loop_
_atom_site_type_symbol
_atom_site_label
_atom_site_fract_x
_atom_site_fract_y
_atom_site_fract_z
Si Si1 0.300386 0.323649 0.575875
Si Si2 0.553506 0.324263 0.579736
Si Si3 0.942687 0.825660 0.584736
Si Si4 0.596200 0.324334 0.161176
Si Si5 0.826850 0.825380 0.161912
Si Si6 0.287460 0.824620 0.689375
Si Si7 0.143606 0.173930 0.321027
Si Si8 0.382137 0.164677 0.007836
O O1 0.291758 0.500000 0.580418
O O2 0.434515 0.273788 0.583326
O O3 0.143550 0.266810 0.494034
O O4 0.333247 0.246592 0.646860
O O5 0.500000 0.260226 0.500000
O O6 0.569692 0.500000 0.582830
O O7 0.714873 0.258148 0.653874
O O8 0.886859 0.773921 0.625955
O O9 0.116663 0.785910 0.642688
O O10 0.914078 0.000000 0.563852
O O11 0.603297 0.500000 0.170912
O O12 0.734018 0.270354 0.173005
O O13 0.604631 0.247360 0.224992
O O14 0.436319 0.280011 0.075103
O O15 0.001168 0.784729 0.230727
O O16 0.798595 0.000000 0.166144
O O17 0.775424 0.788462 0.078861
O O18 0.315524 0.000000 0.697391
O O19 0.177245 0.000000 0.331621
O O20 0.369051 0.000000 0.030501
O O21 0.500000 0.160850 0.000000
#
# Coordination Sequence:
#
# PCOD8060797 Si02
#       8
#     4   4   4   4   4   4   4   4
#     4  11  23  37  52  72 100 131 171 213 252 300
#     4  10  21  37  52  70  99 133 166 207 258 302
#     4  10  20  34  52  73  99 132 168 209 251 295
#     4  11  20  29  46  73 104 134 167 203 246 297
#     4   9  17  32  49  71 102 135 168 205 248 295
#     4  11  22  37  53  71 101 135 172 208 250 301
#     4  10  19  32  53  77  99 128 172 213 245 290
#     4   8  15  28  47  67  97 137 168 196 242 297
#
# _framework density 16.881460000000001
#
# number of rings (size 3 to 8) (size 9 to 14) (size 15 to 20)
#    0.000    2.000    2.500    3.000    0.000    6.500 
#    0.000    0.000    0.000    0.000    0.000    0.875 
#    0.000    7.000    0.000    0.000    0.000    0.000 
#
# Total GULP energy -396827.307867 kJ/mol
# GULP energy per Si atom -12400.853371 kJ/mol
# Density = 1.684304 g / cm^3
# Si number density = 16.881460 Si / 1000 Ang^3
#
#
#
# Elastic Constant Matrix: (Units=GPa)
#
#
# Indices 1 2 3 4 5 6 
#
# 1 59.3220 35.2138 42.0523 0.0000 -5.2738 0.0000
# 2 35.2138 69.2713 49.9988 0.0000 -8.0033 0.0000
# 3 42.0523 49.9988 140.6853 0.0000 -2.0820 0.0000
# 4 0.0000 0.0000 0.0000 16.7587 0.0000 -4.9444
# 5 -5.2738 -8.0033 -2.0820 0.0000 20.3422 0.0000
# 6 0.0000 0.0000 0.0000 -4.9444 0.0000 23.2292
#
#
#
# Elastic Compliance Matrix: (Units=1/GPa)
#
#
# Indices 1 2 3 4 5 6 
#
# 1 0.025901 -0.009854 -0.004204 0.000000 0.002408 0.000000
# 2 -0.009854 0.024197 -0.005559 0.000000 0.006396 0.000000
# 3 -0.004204 -0.005559 0.010308 0.000000 -0.002222 0.000000
# 4 0.000000 0.000000 0.000000 0.063669 0.000000 0.013552
# 5 0.002408 0.006396 -0.002222 0.000000 0.052072 0.000000
# 6 0.000000 0.000000 0.000000 0.013552 0.000000 0.045934
#
#
# Mechanical properties :
#
#
# Convention : Reuss Voigt Hill
#
# Bulk Modulus (GPa) = 47.23613 58.20096 52.71854
# Shear Modulus (GPa) = 18.63086 21.53360 20.08223
#
# Velocity S-wave (km/s) = 3.32569 3.57540 3.45280
# Velocity P-wave (km/s) = 6.54132 7.18302 6.86966
#
# Compressibility (1/GPa) = 0.02117024
#
# Stress axis : x y z
#
# Youngs Moduli (GPa) = 38.60874 41.32790 97.01493
#
# Poissons Ratio (x) = 0.40723 0.40789
# Poissons Ratio (y) = 0.38044 0.53934
# Poissons Ratio (z) = 0.16233 0.22976
#
# Static dielectric constant tensor:
#      x y z
#    x 2.913730 0.000000 0.054620 
#    y 0.000000 3.096790 0.000000 
#    z 0.054620 0.000000 3.515450 
# 
# 
# High freq. dielectric constant tensor:
#      x y z
#    x 1.611050 0.000000 0.004520 
#    y 0.000000 1.650940 0.000000 
#    z 0.004520 0.000000 1.661840 
# 
# From -- ./inp_files/52764.got.cif
#   From: 2010.06.25/outbox.cif.g09.slc.cpg/sg10_27_cif.got.tgz:52764.got - 2010.06.27 22:07:45.
