data_PCOD8060917
_publ_section_title
;
Structure prediction by ZEFSAII (Michael W. Deem and Ramdas Pophale) SiO2 
 PCOD8060917
Probable space group: P 2/M
;
_chemical_formula_sum "Si O2"
_cell_formula_units_Z 32
_cell_length_a 12.342777
_cell_length_b 9.317657
_cell_length_c 14.668832
_cell_angle_alpha 90.000000
_cell_angle_beta 91.052115
_cell_angle_gamma 90.000000
_cell_volume 1686.715793
_symmetry_space_group_name_H-M "P 2/M"
_symmetry_group_IT_number 10
_symmetry_cell_setting 'monoclinic'
loop_
_space_group_symop_operation_xyz
x,y,z
-x,y,-z
-x,-y,-z
x,-y,z
loop_
_atom_site_type_symbol
_atom_site_label
_atom_site_fract_x
_atom_site_fract_y
_atom_site_fract_z
Si Si1 0.305415 0.832120 0.662988
Si Si2 0.148502 0.835213 0.825069
Si Si3 0.491414 0.844949 0.226658
Si Si4 0.726023 0.839851 0.672993
Si Si5 0.098749 0.165098 0.179257
Si Si6 0.627515 0.329364 0.506178
Si Si7 0.420755 0.348981 0.077797
Si Si8 0.190392 0.327621 0.012727
O O1 0.221706 0.783989 0.740575
O O2 0.427333 0.791763 0.694718
O O3 0.296701 0.737054 0.572112
O O4 0.290524 0.000000 0.638417
O O5 0.024902 0.820687 0.790513
O O6 0.176441 0.000000 0.851113
O O7 0.166533 0.735817 0.912989
O O8 0.369142 0.851413 0.256326
O O9 0.497780 0.744473 0.141063
O O10 0.533187 0.000000 0.194536
O O11 0.829055 0.783243 0.733035
O O12 0.688131 0.726712 0.597202
O O13 0.748266 0.000000 0.631888
O O14 0.112052 0.262460 0.089022
O O15 0.127953 0.000000 0.155129
O O16 0.500000 0.280825 0.500000
O O17 0.635305 0.500000 0.503294
O O18 0.388874 0.500000 0.126587
O O19 0.310607 0.275051 0.042160
O O20 0.500000 0.389422 0.000000
O O21 0.177620 0.500000 0.008365
#
# Coordination Sequence:
#
# PCOD8060917 Si02
#       8
#     4   4   4   4   4   4   4   4
#     4  10  21  38  59  84 113 145 184 230 280 331
#     4  10  22  39  59  82 110 148 191 233 276 325
#     4  10  19  32  54  81 107 139 180 227 275 321
#     4  10  20  36  59  84 110 141 181 229 277 323
#     4  10  21  39  60  82 111 148 191 234 274 322
#     4  11  23  37  58  88 117 146 180 221 276 340
#     4  10  21  34  48  73 112 152 184 220 273 333
#     4  11  22  35  55  83 114 150 191 232 277 329
#
# _framework density 18.971779000000002
#
# number of rings (size 3 to 8) (size 9 to 14) (size 15 to 20)
#    0.000    1.750    2.500    1.875    0.000    5.250 
#    0.000    0.625    0.000    3.750    0.000    0.000 
#    0.000    0.000    0.000    0.000    0.000    0.000 
#
# Total GULP energy -396565.999151 kJ/mol
# GULP energy per Si atom -12392.687473 kJ/mol
# Density = 1.892860 g / cm^3
# Si number density = 18.971779 Si / 1000 Ang^3
#
#
#
# Elastic Constant Matrix: (Units=GPa)
#
#
# Indices 1 2 3 4 5 6 
#
# 1 63.8570 31.4891 28.3379 0.0000 -1.0936 0.0000
# 2 31.4891 83.8300 66.2660 0.0000 1.8777 0.0000
# 3 28.3379 66.2660 115.3691 0.0000 3.4591 0.0000
# 4 0.0000 0.0000 0.0000 47.3212 0.0000 12.3330
# 5 -1.0936 1.8777 3.4591 0.0000 24.5817 0.0000
# 6 0.0000 0.0000 0.0000 12.3330 0.0000 26.3704
#
#
#
# Elastic Compliance Matrix: (Units=1/GPa)
#
#
# Indices 1 2 3 4 5 6 
#
# 1 0.019346 -0.006426 -0.001106 0.000000 0.001507 0.000000
# 2 -0.006426 0.023984 -0.012186 0.000000 -0.000403 0.000000
# 3 -0.001106 -0.012186 0.015980 0.000000 -0.001367 0.000000
# 4 0.000000 0.000000 0.000000 0.024066 0.000000 -0.011255
# 5 0.001507 -0.000403 -0.001367 0.000000 0.040971 0.000000
# 6 0.000000 0.000000 0.000000 -0.011255 0.000000 0.043185
#
#
# Mechanical properties :
#
#
# Convention : Reuss Voigt Hill
#
# Bulk Modulus (GPa) = 50.31723 57.24912 53.78318
# Shear Modulus (GPa) = 23.40920 28.78554 26.09737
#
# Velocity S-wave (km/s) = 3.51650 3.89946 3.71292
# Velocity P-wave (km/s) = 6.56257 7.10745 6.84044
#
# Compressibility (1/GPa) = 0.01987391
#
# Stress axis : x y z
#
# Youngs Moduli (GPa) = 51.69159 41.69372 62.57969
#
# Poissons Ratio (x) = 0.26794 0.06920
# Poissons Ratio (y) = 0.33219 0.76257
# Poissons Ratio (z) = 0.05716 0.50806
#
# Static dielectric constant tensor:
#      x y z
#    x 3.559160 0.000000 0.065630 
#    y 0.000000 3.626440 0.000000 
#    z 0.065630 0.000000 3.323460 
# 
# 
# High freq. dielectric constant tensor:
#      x y z
#    x 1.737100 0.000000 0.006240 
#    y 0.000000 1.735540 0.000000 
#    z 0.006240 0.000000 1.728580 
# 
# From -- ./inp_files/49958.got.cif
#   From: 2010.06.25/outbox.cif.g09.slc.cpg/sg10_25_cif.got.tgz:49958.got - 2010.06.27 22:07:45.
