data_PCOD8060361
_publ_section_title
;
Structure prediction by ZEFSAII (Michael W. Deem and Ramdas Pophale) SiO2 
 PCOD8060361
Probable space group: P 2/M
;
_chemical_formula_sum "Si O2"
_cell_formula_units_Z 26
_cell_length_a 10.556096
_cell_length_b 12.135212
_cell_length_c 11.040229
_cell_angle_alpha 90.000000
_cell_angle_beta 69.848357
_cell_angle_gamma 90.000000
_cell_volume 1327.683364
_symmetry_space_group_name_H-M "P 2/M"
_symmetry_group_IT_number 10
_symmetry_cell_setting 'monoclinic'
loop_
_space_group_symop_operation_xyz
x,y,z
-x,y,-z
-x,-y,-z
x,-y,z
loop_
_atom_site_type_symbol
_atom_site_label
_atom_site_fract_x
_atom_site_fract_y
_atom_site_fract_z
Si Si1 0.633714 0.500000 0.799155
Si Si2 0.600602 0.303865 0.647833
Si Si3 0.772212 0.872359 0.702948
Si Si4 0.702461 0.292909 0.182491
Si Si5 0.793459 0.369620 0.390771
Si Si6 0.682139 0.500000 0.045224
Si Si7 0.000000 0.260367 0.500000
Si Si8 0.354875 0.126932 0.003213
O O1 0.674214 0.391172 0.712360
O O2 0.477162 0.500000 0.883201
O O3 0.721834 0.500000 0.891482
O O4 0.646637 0.181772 0.672745
O O5 0.441477 0.315298 0.708475
O O6 0.650565 0.333983 0.497091
O O7 0.753220 0.857274 0.853861
O O8 0.910731 0.816994 0.615565
O O9 0.773233 0.000000 0.666789
O O10 0.806015 0.297268 0.262034
O O11 0.746832 0.391473 0.080460
O O12 0.700756 0.183116 0.101354
O O13 0.795107 0.500000 0.360960
O O14 0.913425 0.338575 0.441689
O O15 0.376536 0.000000 0.961862
O O16 0.500000 0.177148 0.000000
#
# Coordination Sequence:
#
# PCOD8060361 Si02
#       8
#     2   4   4   4   4   2   2   4
#     4   9  16  27  45  77 116 149 190 216 275 365
#     4  10  19  31  55  87 120 157 186 237 299 363
#     4  10  20  38  63  89 117 155 202 247 290 346
#     4  11  20  33  54  89 128 150 190 240 305 362
#     4  11  22  39  58  83 115 162 207 253 300 351
#     4   9  18  25  45  77 118 157 176 229 289 348
#     4  10  24  42  64  82 108 163 217 256 290 344
#     4  10  20  36  61  90 125 161 191 234 297 365
#
# _framework density 19.582982000000001
#
# number of rings (size 3 to 8) (size 9 to 14) (size 15 to 20)
#    0.000    1.846    3.077    1.846    2.154    0.615 
#    0.000    4.615    0.000    7.385    0.000    0.000 
#    0.000    0.000    0.000    0.000    0.000    0.000 
#
# Total GULP energy -322314.732546 kJ/mol
# GULP energy per Si atom -12396.720483 kJ/mol
# Density = 1.953841 g / cm^3
# Si number density = 19.582982 Si / 1000 Ang^3
#
#
#
# Elastic Constant Matrix: (Units=GPa)
#
#
# Indices 1 2 3 4 5 6 
#
# 1 55.1879 23.7755 33.2836 0.0000 17.4658 0.0000
# 2 23.7755 105.5191 45.3966 0.0000 15.2087 0.0000
# 3 33.2836 45.3966 112.8569 0.0000 27.0916 0.0000
# 4 0.0000 0.0000 0.0000 30.3472 0.0000 2.3839
# 5 17.4658 15.2087 27.0916 0.0000 34.0278 0.0000
# 6 0.0000 0.0000 0.0000 2.3839 0.0000 16.4697
#
#
#
# Elastic Compliance Matrix: (Units=1/GPa)
#
#
# Indices 1 2 3 4 5 6 
#
# 1 0.024275 -0.002496 -0.004243 0.000000 -0.007966 0.000000
# 2 -0.002496 0.011806 -0.003775 0.000000 -0.000990 0.000000
# 3 -0.004243 -0.003775 0.013232 0.000000 -0.006669 0.000000
# 4 0.000000 0.000000 0.000000 0.033331 0.000000 -0.004824
# 5 -0.007966 -0.000990 -0.006669 0.000000 0.039229 0.000000
# 6 0.000000 0.000000 0.000000 -0.004824 0.000000 0.061416
#
#
# Mechanical properties :
#
#
# Convention : Reuss Voigt Hill
#
# Bulk Modulus (GPa) = 35.35469 53.16393 44.25931
# Shear Modulus (GPa) = 23.39228 27.57616 25.48422
#
# Velocity S-wave (km/s) = 3.45993 3.75663 3.61133
# Velocity P-wave (km/s) = 5.83562 6.78405 6.32763
#
# Compressibility (1/GPa) = 0.02828479
#
# Stress axis : x y z
#
# Youngs Moduli (GPa) = 41.19414 84.70081 75.57608
#
# Poissons Ratio (x) = 0.21142 0.32066
# Poissons Ratio (y) = 0.10283 0.28532
# Poissons Ratio (z) = 0.17478 0.31977
#
# Static dielectric constant tensor:
#      x y z
#    x 3.172290 0.000000 0.048380 
#    y 0.000000 3.548070 0.000000 
#    z 0.048380 0.000000 3.797340 
# 
# 
# High freq. dielectric constant tensor:
#      x y z
#    x 1.721240 0.000000 0.007140 
#    y 0.000000 1.763200 0.000000 
#    z 0.007140 0.000000 1.777060 
# 
# From -- ./inp_files/45986.got.cif
#   From: 2010.06.25/outbox.cif.g09.slc.cpg/sg10_23_cif.got.tgz:45986.got - 2010.06.27 22:07:45.
