data_PCOD8060873
_publ_section_title
;
Structure prediction by ZEFSAII (Michael W. Deem and Ramdas Pophale) SiO2 
 PCOD8060873
Probable space group: P 2/M
;
_chemical_formula_sum "Si O2"
_cell_formula_units_Z 30
_cell_length_a 5.134916
_cell_length_b 18.606830
_cell_length_c 15.875059
_cell_angle_alpha 90.000000
_cell_angle_beta 102.489233
_cell_angle_gamma 90.000000
_cell_volume 1480.882768
_symmetry_space_group_name_H-M "P 2/M"
_symmetry_group_IT_number 10
_symmetry_cell_setting 'monoclinic'
loop_
_space_group_symop_operation_xyz
x,y,z
-x,y,-z
-x,-y,-z
x,-y,z
loop_
_atom_site_type_symbol
_atom_site_label
_atom_site_fract_x
_atom_site_fract_y
_atom_site_fract_z
Si Si1 0.027869 0.197109 0.594375
Si Si2 0.878548 0.920734 0.266906
Si Si3 0.804482 0.232304 0.910580
Si Si4 0.306947 0.080365 0.157437
Si Si5 0.470642 0.711532 0.403669
Si Si6 0.500000 0.675013 0.000000
Si Si7 0.711647 0.415760 0.147275
Si Si8 0.242792 0.651580 0.223326
O O1 0.140252 0.135298 0.660399
O O2 0.241185 0.261693 0.607700
O O3 0.000000 0.163260 0.500000
O O4 0.740378 0.223394 0.605883
O O5 0.622693 0.908669 0.189506
O O6 0.151320 0.912055 0.234302
O O7 0.864478 0.000000 0.306036
O O8 0.791085 0.145646 0.908064
O O9 0.539082 0.271115 0.923837
O O10 0.851591 0.270004 0.822322
O O11 0.000000 0.255319 0.000000
O O12 0.250062 0.000000 0.114839
O O13 0.500000 0.676504 0.500000
O O14 0.366585 0.656941 0.325628
O O15 0.725228 0.621772 0.055135
O O16 0.692676 0.500000 0.133302
O O17 0.448397 0.389610 0.177961
O O18 0.978702 0.395982 0.216540
#
# Coordination Sequence:
#
# PCOD8060873 Si02
#       8
#     4   4   4   4   4   2   4   4
#     4  10  19  32  53  83 112 145 187 242 304 347
#     4  10  20  36  53  75 106 148 196 239 291 354
#     4  11  22  37  58  85 119 146 198 245 286 346
#     4  10  23  38  56  77 109 156 198 239 289 337
#     4  10  21  37  59  87 118 149 191 241 287 341
#     4  10  23  40  57  92 118 156 192 238 297 346
#     4  11  23  40  62  88 123 155 190 234 287 355
#     4  11  22  38  62  89 117 158 195 235 291 341
#
# _framework density 20.258187
#
# number of rings (size 3 to 8) (size 9 to 14) (size 15 to 20)
#    0.000    1.600    1.333    3.800    1.867    1.600 
#    0.000    2.333    0.000    7.200    0.000    0.000 
#    0.000    0.000    0.000    0.000    0.000    0.000 
#
# Total GULP energy -371698.548855 kJ/mol
# GULP energy per Si atom -12389.951628 kJ/mol
# Density = 2.021208 g / cm^3
# Si number density = 20.258187 Si / 1000 Ang^3
#
#
#
# Elastic Constant Matrix: (Units=GPa)
#
#
# Indices 1 2 3 4 5 6 
#
# 1 73.3988 19.9083 8.4869 0.0000 9.7833 0.0000
# 2 19.9083 126.9973 48.5396 0.0000 -3.9227 0.0000
# 3 8.4869 48.5396 100.1950 0.0000 6.2039 0.0000
# 4 0.0000 0.0000 0.0000 21.8242 0.0000 5.2085
# 5 9.7833 -3.9227 6.2039 0.0000 21.7130 0.0000
# 6 0.0000 0.0000 0.0000 5.2085 0.0000 23.5532
#
#
#
# Elastic Compliance Matrix: (Units=1/GPa)
#
#
# Indices 1 2 3 4 5 6 
#
# 1 0.015345 -0.002850 0.000551 0.000000 -0.007586 0.000000
# 2 -0.002850 0.010408 -0.005087 0.000000 0.004618 0.000000
# 3 0.000551 -0.005087 0.012695 0.000000 -0.004794 0.000000
# 4 0.000000 0.000000 0.000000 0.048374 0.000000 -0.010697
# 5 -0.007586 0.004618 -0.004794 0.000000 0.051678 0.000000
# 6 0.000000 0.000000 0.000000 -0.010697 0.000000 0.044823
#
#
# Mechanical properties :
#
#
# Convention : Reuss Voigt Hill
#
# Bulk Modulus (GPa) = 42.23801 50.49563 46.36682
# Shear Modulus (GPa) = 24.27357 28.32851 26.30104
#
# Velocity S-wave (km/s) = 3.46527 3.74354 3.60709
# Velocity P-wave (km/s) = 6.07503 6.60800 6.34711
#
# Compressibility (1/GPa) = 0.02367536
#
# Stress axis : x y z
#
# Youngs Moduli (GPa) = 65.16865 96.08201 78.77159
#
# Poissons Ratio (x) = 0.27387 -0.04339
# Poissons Ratio (y) = 0.18575 0.40068
# Poissons Ratio (z) = -0.03590 0.48873
#
# Static dielectric constant tensor:
#      x y z
#    x 3.780970 0.000000 0.028270 
#    y 0.000000 3.559380 0.000000 
#    z 0.028270 0.000000 3.701000 
# 
# 
# High freq. dielectric constant tensor:
#      x y z
#    x 1.801580 0.000000 0.007020 
#    y 0.000000 1.776590 0.000000 
#    z 0.007020 0.000000 1.781450 
# 
# From -- ./inp_files/59442.got.cif
#   From: 2010.06.25/outbox.cif.g09.slc.cpg/sg10_30_cif.got.tgz:59442.got - 2010.06.27 22:07:45.
