data_PCOD8060689
_publ_section_title
;
Structure prediction by ZEFSAII (Michael W. Deem and Ramdas Pophale) SiO2 
 PCOD8060689
Probable space group: P 2/M
;
_chemical_formula_sum "Si O2"
_cell_formula_units_Z 24
_cell_length_a 8.858189
_cell_length_b 18.687959
_cell_length_c 8.991284
_cell_angle_alpha 90.000000
_cell_angle_beta 61.018151
_cell_angle_gamma 90.000000
_cell_volume 1302.039093
_symmetry_space_group_name_H-M "P 2/M"
_symmetry_group_IT_number 10
_symmetry_cell_setting 'monoclinic'
loop_
_space_group_symop_operation_xyz
x,y,z
-x,y,-z
-x,-y,-z
x,-y,z
loop_
_atom_site_type_symbol
_atom_site_label
_atom_site_fract_x
_atom_site_fract_y
_atom_site_fract_z
Si Si1 0.169843 0.321699 0.520278
Si Si2 0.679198 0.335655 0.847003
Si Si3 0.682815 0.826248 0.491439
Si Si4 0.008173 0.415866 0.167219
Si Si5 0.003813 0.081024 0.675357
Si Si6 0.677743 0.829470 0.841425
O O1 0.317666 0.347333 0.333741
O O2 0.230030 0.250786 0.576601
O O3 0.000000 0.305801 0.500000
O O4 0.142473 0.380505 0.661136
O O5 0.811345 0.388821 0.859457
O O6 0.718911 0.252643 0.865663
O O7 0.500000 0.360237 0.000000
O O8 0.500000 0.833002 0.500000
O O9 0.816005 0.883692 0.357650
O O10 0.651603 0.839361 0.679363
O O11 0.990788 0.500000 0.195900
O O12 0.000000 0.392518 0.000000
O O13 0.000000 0.085006 0.500000
O O14 0.838710 0.123006 0.821293
O O15 0.996965 0.000000 0.737598
O O16 0.500000 0.856175 0.000000
#
# Coordination Sequence:
#
# PCOD8060689 Si02
#       6
#     4   4   4   4   4   4
#     4   9  18  34  54  72  97 134 173 207 248 306
#     4   9  18  33  53  75  99 129 168 211 249 298
#     4  10  19  32  52  77 102 130 169 214 255 296
#     4  10  21  35  51  74 103 132 164 205 253 302
#     4   9  17  31  51  73 102 140 173 202 246 305
#     4   9  18  34  53  76 101 130 172 212 249 297
#
# _framework density 18.432625999999999
#
# number of rings (size 3 to 8) (size 9 to 14) (size 15 to 20)
#    0.000    2.667    0.000    3.500    0.000    8.000 
#    0.000    0.833    0.000    3.500    0.000    0.000 
#    0.000    0.000    0.000    0.000    0.000    0.000 
#
# Total GULP energy -297521.300297 kJ/mol
# GULP energy per Si atom -12396.720846 kJ/mol
# Density = 1.839067 g / cm^3
# Si number density = 18.432626 Si / 1000 Ang^3
#
#
#
# Elastic Constant Matrix: (Units=GPa)
#
#
# Indices 1 2 3 4 5 6 
#
# 1 79.9182 42.2819 35.1242 0.0000 -10.8821 0.0000
# 2 42.2819 93.9336 59.0076 0.0000 -6.1962 0.0000
# 3 35.1242 59.0076 120.6005 0.0000 -26.5932 0.0000
# 4 0.0000 0.0000 0.0000 19.6849 0.0000 -0.3721
# 5 -10.8821 -6.1962 -26.5932 0.0000 29.4410 0.0000
# 6 0.0000 0.0000 0.0000 -0.3721 0.0000 9.6152
#
#
#
# Elastic Compliance Matrix: (Units=1/GPa)
#
#
# Indices 1 2 3 4 5 6 
#
# 1 0.017078 -0.007039 -0.000580 0.000000 0.004307 0.000000
# 2 -0.007039 0.018751 -0.008526 0.000000 -0.006357 0.000000
# 3 -0.000580 -0.008526 0.015221 0.000000 0.011740 0.000000
# 4 0.000000 0.000000 0.000000 0.050838 0.000000 0.001968
# 5 0.004307 -0.006357 0.011740 0.000000 0.044825 0.000000
# 6 0.000000 0.000000 0.000000 0.001968 0.000000 0.104078
#
#
# Mechanical properties :
#
#
# Convention : Reuss Voigt Hill
#
# Bulk Modulus (GPa) = 53.30494 63.03108 58.16801
# Shear Modulus (GPa) = 17.28103 22.28413 19.78258
#
# Velocity S-wave (km/s) = 3.06522 3.48077 3.27958
# Velocity P-wave (km/s) = 6.44275 7.10098 6.77986
#
# Compressibility (1/GPa) = 0.01875999
#
# Stress axis : x y z
#
# Youngs Moduli (GPa) = 58.55410 53.33109 65.69739
#
# Poissons Ratio (x) = 0.37538 0.03813
# Poissons Ratio (y) = 0.41214 0.56015
# Poissons Ratio (z) = 0.03398 0.45471
#
# Static dielectric constant tensor:
#      x y z
#    x 3.199030 0.000000 -0.234200 
#    y 0.000000 3.387240 0.000000 
#    z -0.234200 0.000000 3.634380 
# 
# 
# High freq. dielectric constant tensor:
#      x y z
#    x 1.694670 0.000000 -0.020740 
#    y 0.000000 1.710250 0.000000 
#    z -0.020740 0.000000 1.717160 
# 
# From -- ./inp_files/19921.got.cif
#   From: 2010.06.25/outbox.cif.g09.slc.cpg/sg10_10_cif.got.tgz:19921.got - 2010.06.27 22:07:45.
