data_PCOD8060593
_publ_section_title
;
Structure prediction by ZEFSAII (Michael W. Deem and Ramdas Pophale) SiO2 
 PCOD8060593
Probable space group: P 2/M
;
_chemical_formula_sum "Si O2"
_cell_formula_units_Z 20
_cell_length_a 12.184849
_cell_length_b 8.441545
_cell_length_c 12.215045
_cell_angle_alpha 90.000000
_cell_angle_beta 61.920824
_cell_angle_gamma 90.000000
_cell_volume 1108.542774
_symmetry_space_group_name_H-M "P 2/M"
_symmetry_group_IT_number 10
_symmetry_cell_setting 'monoclinic'
loop_
_space_group_symop_operation_xyz
x,y,z
-x,y,-z
-x,-y,-z
x,-y,z
loop_
_atom_site_type_symbol
_atom_site_label
_atom_site_fract_x
_atom_site_fract_y
_atom_site_fract_z
Si Si1 0.338493 0.183947 0.498489
Si Si2 0.186960 0.184357 0.905344
Si Si3 0.920033 0.686235 0.433599
Si Si4 0.585876 0.685221 0.308935
Si Si5 0.981824 0.684266 0.845095
O O1 0.210300 0.222517 0.498137
O O2 0.348438 0.284172 0.605248
O O3 0.451907 0.230312 0.365226
O O4 0.346213 0.000000 0.525411
O O5 0.328819 0.242844 0.827657
O O6 0.105265 0.280313 0.856281
O O7 0.175890 0.000000 0.884028
O O8 0.136150 0.219805 0.051228
O O9 0.892295 0.500000 0.446195
O O10 0.000000 0.739259 0.500000
O O11 0.996265 0.737456 0.289913
O O12 0.568021 0.500000 0.298956
O O13 0.950664 0.500000 0.867770
#
# Coordination Sequence:
#
# PCOD8060593 Si02
#       5
#     4   4   4   4   4
#     4  11  21  33  51  78 108 137 174 217 266 313
#     4  11  20  31  50  77 109 137 169 218 269 313
#     4  10  21  37  56  77 106 144 182 217 254 307
#     4  11  20  33  53  76 106 140 173 214 266 320
#     4  10  19  32  51  75 105 140 178 213 258 316
#
# _framework density 18.041703999999999
#
# number of rings (size 3 to 8) (size 9 to 14) (size 15 to 20)
#    0.000    1.400    2.000    8.400    0.000    1.200 
#    0.000    0.000    0.000    1.200    0.000    8.400 
#    0.000    0.000    0.000    0.000    0.000    0.000 
#
# Total GULP energy -248071.378972 kJ/mol
# GULP energy per Si atom -12403.568949 kJ/mol
# Density = 1.800064 g / cm^3
# Si number density = 18.041704 Si / 1000 Ang^3
#
#
#
# Elastic Constant Matrix: (Units=GPa)
#
#
# Indices 1 2 3 4 5 6 
#
# 1 94.6669 25.4232 62.2225 0.0000 -15.5420 0.0000
# 2 25.4232 58.9049 26.0764 0.0000 -10.1505 0.0000
# 3 62.2225 26.0764 127.5978 0.0000 -21.2525 0.0000
# 4 0.0000 0.0000 0.0000 16.8817 0.0000 -12.8184
# 5 -15.5420 -10.1505 -21.2525 0.0000 33.8343 0.0000
# 6 0.0000 0.0000 0.0000 -12.8184 0.0000 15.7670
#
#
#
# Elastic Compliance Matrix: (Units=1/GPa)
#
#
# Indices 1 2 3 4 5 6 
#
# 1 0.016441 -0.003671 -0.006916 0.000000 0.002107 0.000000
# 2 -0.003671 0.019881 -0.001742 0.000000 0.003184 0.000000
# 3 -0.006916 -0.001742 0.012229 0.000000 0.003982 0.000000
# 4 0.000000 0.000000 0.000000 0.154786 0.000000 0.125839
# 5 0.002107 0.003184 0.003982 0.000000 0.033980 0.000000
# 6 0.000000 0.000000 0.000000 0.125839 0.000000 0.165729
#
#
# Mechanical properties :
#
#
# Convention : Reuss Voigt Hill
#
# Bulk Modulus (GPa) = 41.85634 56.51264 49.18449
# Shear Modulus (GPa) = 11.47661 24.45977 17.96819
#
# Velocity S-wave (km/s) = 2.52487 3.68603 3.15925
# Velocity P-wave (km/s) = 5.63472 7.03612 6.37405
#
# Compressibility (1/GPa) = 0.02389124
#
# Stress axis : x y z
#
# Youngs Moduli (GPa) = 60.82350 50.29940 81.77218
#
# Poissons Ratio (x) = 0.18466 0.56556
# Poissons Ratio (y) = 0.22329 0.14249
# Poissons Ratio (z) = 0.42067 0.08765
#
# Static dielectric constant tensor:
#      x y z
#    x 3.133200 0.000000 -0.362090 
#    y 0.000000 3.341870 0.000000 
#    z -0.362090 0.000000 3.553600 
# 
# 
# High freq. dielectric constant tensor:
#      x y z
#    x 1.665030 0.000000 -0.037380 
#    y 0.000000 1.712280 0.000000 
#    z -0.037380 0.000000 1.694020 
# 
# From -- ./inp_files/44216.got.cif
#   From: 2010.06.25/outbox.cif.g09.slc.cpg/sg10_23_cif.got.tgz:44216.got - 2010.06.27 22:07:45.
