data_PCOD8060803
_publ_section_title
;
Structure prediction by ZEFSAII (Michael W. Deem and Ramdas Pophale) SiO2 
 PCOD8060803
Probable space group: P 2/M
;
_chemical_formula_sum "Si O2"
_cell_formula_units_Z 32
_cell_length_a 22.984534
_cell_length_b 9.158471
_cell_length_c 20.936222
_cell_angle_alpha 90.000000
_cell_angle_beta 156.026599
_cell_angle_gamma 90.000000
_cell_volume 1790.676649
_symmetry_space_group_name_H-M "P 2/M"
_symmetry_group_IT_number 10
_symmetry_cell_setting 'monoclinic'
loop_
_space_group_symop_operation_xyz
x,y,z
-x,y,-z
-x,-y,-z
x,-y,z
loop_
_atom_site_type_symbol
_atom_site_label
_atom_site_fract_x
_atom_site_fract_y
_atom_site_fract_z
Si Si1 0.420211 0.160683 0.986905
Si Si2 0.281941 0.331119 0.514807
Si Si3 0.160960 0.172448 0.648004
Si Si4 0.972594 0.665399 0.829065
Si Si5 0.772608 0.167079 0.866871
Si Si6 0.454282 0.167516 0.585688
Si Si7 0.668212 0.670455 0.289586
Si Si8 0.741406 0.668380 0.704626
O O1 0.257959 0.212687 0.807676
O O2 0.418736 0.000000 0.017804
O O3 0.500000 0.151231 0.000000
O O4 0.504902 0.272223 0.117343
O O5 0.319243 0.500000 0.538817
O O6 0.124821 0.294544 0.329768
O O7 0.401089 0.235957 0.598588
O O8 0.281943 0.293308 0.589127
O O9 0.218913 0.252322 0.643401
O O10 0.000000 0.225661 0.500000
O O11 0.168668 0.000000 0.642438
O O12 0.029786 0.500000 0.881430
O O13 0.881316 0.686117 0.801717
O O14 0.105631 0.775358 0.962928
O O15 0.624473 0.182823 0.755728
O O16 0.776341 0.263774 0.807544
O O17 0.802993 0.000000 0.878504
O O18 0.392143 0.249989 0.461636
O O19 0.404660 0.000000 0.532050
O O20 0.668355 0.500000 0.274621
O O21 0.698793 0.500000 0.670383
#
# Coordination Sequence:
#
# PCOD8060803 Si02
#       8
#     4   4   4   4   4   4   4   4
#     4   8  15  29  49  73 101 132 165 199 236 281
#     4   9  20  38  55  72  96 130 171 208 245 296
#     4   9  18  33  52  76 107 139 168 200 242 291
#     4   9  19  35  52  70  96 130 167 204 244 296
#     4  11  22  33  48  75 104 126 158 206 256 301
#     4  10  21  35  51  73 100 128 162 208 252 292
#     4  10  19  32  53  78 102 130 167 208 247 291
#     4  10  20  34  53  75  98 129 167 202 246 306
#
# _framework density 17.870339999999999
#
# number of rings (size 3 to 8) (size 9 to 14) (size 15 to 20)
#    0.000    2.500    0.000    3.750    0.000   11.000 
#    0.000    1.250    0.000    6.000    0.000    0.000 
#    0.000    0.000    0.000    0.000    0.000    0.000 
#
# Total GULP energy -396810.206160 kJ/mol
# GULP energy per Si atom -12400.318942 kJ/mol
# Density = 1.782967 g / cm^3
# Si number density = 17.870340 Si / 1000 Ang^3
#
#
#
# Elastic Constant Matrix: (Units=GPa)
#
#
# Indices 1 2 3 4 5 6 
#
# 1 71.0772 53.3566 63.6797 0.0000 -13.7526 0.0000
# 2 53.3566 113.3054 71.4292 0.0000 -4.3155 0.0000
# 3 63.6797 71.4292 141.1425 0.0000 2.0161 0.0000
# 4 0.0000 0.0000 0.0000 30.9755 0.0000 -0.9298
# 5 -13.7526 -4.3155 2.0161 0.0000 23.7347 0.0000
# 6 0.0000 0.0000 0.0000 -0.9298 0.0000 10.2914
#
#
#
# Elastic Compliance Matrix: (Units=1/GPa)
#
#
# Indices 1 2 3 4 5 6 
#
# 1 0.034373 -0.008069 -0.011703 0.000000 0.019444 0.000000
# 2 -0.008069 0.015060 -0.003958 0.000000 -0.001601 0.000000
# 3 -0.011703 -0.003958 0.014493 0.000000 -0.008732 0.000000
# 4 0.000000 0.000000 0.000000 0.032371 0.000000 0.002925
# 5 0.019444 -0.001601 -0.008732 0.000000 0.053849 0.000000
# 6 0.000000 0.000000 0.000000 0.002925 0.000000 0.097433
#
#
# Mechanical properties :
#
#
# Convention : Reuss Voigt Hill
#
# Bulk Modulus (GPa) = 60.72851 78.05070 69.38960
# Shear Modulus (GPa) = 16.63750 22.13762 19.38756
#
# Velocity S-wave (km/s) = 3.05456 3.52347 3.29736
# Velocity P-wave (km/s) = 6.81888 7.76685 7.30825
#
# Compressibility (1/GPa) = 0.01646673
#
# Stress axis : x y z
#
# Youngs Moduli (GPa) = 29.09279 66.40308 68.99995
#
# Poissons Ratio (x) = 0.53577 0.80747
# Poissons Ratio (y) = 0.23474 0.27311
# Poissons Ratio (z) = 0.34046 0.26283
#
# Static dielectric constant tensor:
#      x y z
#    x 2.992490 0.000000 -0.004460 
#    y 0.000000 3.417480 0.000000 
#    z -0.004460 0.000000 3.646190 
# 
# 
# High freq. dielectric constant tensor:
#      x y z
#    x 1.660320 0.000000 -0.001630 
#    y 0.000000 1.699320 0.000000 
#    z -0.001630 0.000000 1.700880 
# 
# From -- ./inp_files/91230.got.cif
#   From: 2010.06.25/outbox.cif.g09.slc.cpg/sg10_46_cif.got.tgz:91230.got - 2010.06.27 22:07:45.
