data_PCOD8060157
_publ_section_title
;
Structure prediction by ZEFSAII (Michael W. Deem and Ramdas Pophale) SiO2 
 PCOD8060157
Probable space group: P 2/M
;
_chemical_formula_sum "Si O2"
_cell_formula_units_Z 32
_cell_length_a 27.982261
_cell_length_b 9.109411
_cell_length_c 14.410924
_cell_angle_alpha 90.000000
_cell_angle_beta 149.870356
_cell_angle_gamma 90.000000
_cell_volume 1843.879587
_symmetry_space_group_name_H-M "P 2/M"
_symmetry_group_IT_number 10
_symmetry_cell_setting 'monoclinic'
loop_
_space_group_symop_operation_xyz
x,y,z
-x,y,-z
-x,-y,-z
x,-y,z
loop_
_atom_site_type_symbol
_atom_site_label
_atom_site_fract_x
_atom_site_fract_y
_atom_site_fract_z
Si Si1 0.947276 0.166181 0.634808
Si Si2 0.794536 0.834286 0.517633
Si Si3 0.772295 0.171252 0.688413
Si Si4 0.135691 0.671196 0.992050
Si Si5 0.667720 0.669519 0.773311
Si Si6 0.386830 0.328111 0.112279
Si Si7 0.576044 0.170640 0.455733
Si Si8 0.767625 0.673441 0.297633
O O1 0.905456 0.165822 0.670388
O O2 0.868196 0.249432 0.438232
O O3 0.961941 0.000000 0.623310
O O4 0.045791 0.251832 0.794225
O O5 0.786566 0.770822 0.607769
O O6 0.735219 0.732538 0.345459
O O7 0.752929 0.000000 0.444809
O O8 0.844597 0.261161 0.873906
O O9 0.664041 0.203246 0.535598
O O10 0.797903 0.000000 0.741008
O O11 0.114717 0.500000 0.968573
O O12 0.223789 0.703053 0.072058
O O13 0.642372 0.500000 0.714411
O O14 0.654681 0.716741 0.857480
O O15 0.594801 0.761589 0.588515
O O16 0.407527 0.500000 0.140825
O O17 0.484303 0.243740 0.255058
O O18 0.310917 0.278035 0.908320
O O19 0.557388 0.000000 0.437627
O O20 0.782252 0.500000 0.324801
#
# Coordination Sequence:
#
# PCOD8060157 Si02
#       8
#     4   4   4   4   4   4   4   4
#     4   9  18  33  52  71  98 133 164 197 244 292
#     4   8  17  33  52  70  96 133 165 196 242 292
#     4   9  18  34  51  71 102 134 162 195 242 297
#     4  10  19  31  50  76 102 128 162 203 242 285
#     4   9  19  35  52  72 101 134 163 194 241 298
#     4  10  20  35  54  72  96 133 167 198 245 297
#     4  10  20  32  51  78 103 127 160 204 245 285
#     4   9  18  33  52  73  95 124 167 212 241 276
#
# _framework density 17.354711999999999
#
# number of rings (size 3 to 8) (size 9 to 14) (size 15 to 20)
#    0.750    2.000    0.000    1.500    0.000    5.000 
#    0.000    3.750    0.000    7.500    0.000    0.000 
#    0.000    0.000    0.000    0.000    0.000    0.000 
#
# Total GULP energy -396688.051064 kJ/mol
# GULP energy per Si atom -12396.501596 kJ/mol
# Density = 1.731521 g / cm^3
# Si number density = 17.354712 Si / 1000 Ang^3
#
#
#
# Elastic Constant Matrix: (Units=GPa)
#
#
# Indices 1 2 3 4 5 6 
#
# 1 25.8173 11.4859 11.2256 0.0000 5.0418 0.0000
# 2 11.4859 77.7282 53.5929 0.0000 6.7153 0.0000
# 3 11.2256 53.5929 118.1572 0.0000 12.2727 0.0000
# 4 0.0000 0.0000 0.0000 22.3177 0.0000 6.1697
# 5 5.0418 6.7153 12.2727 0.0000 16.4813 0.0000
# 6 0.0000 0.0000 0.0000 6.1697 0.0000 22.9936
#
#
#
# Elastic Compliance Matrix: (Units=1/GPa)
#
#
# Indices 1 2 3 4 5 6 
#
# 1 0.043356 -0.004960 -0.000760 0.000000 -0.010676 0.000000
# 2 -0.004960 0.019318 -0.008270 0.000000 -0.000195 0.000000
# 3 -0.000760 -0.008270 0.012911 0.000000 -0.006012 0.000000
# 4 0.000000 0.000000 0.000000 0.048397 0.000000 -0.012986
# 5 -0.010676 -0.000195 -0.006012 0.000000 0.068497 0.000000
# 6 0.000000 0.000000 0.000000 -0.012986 0.000000 0.046975
#
#
# Mechanical properties :
#
#
# Convention : Reuss Voigt Hill
#
# Bulk Modulus (GPa) = 21.00715 41.59017 31.29866
# Shear Modulus (GPa) = 17.64894 22.05174 19.85034
#
# Velocity S-wave (km/s) = 3.19243 3.56848 3.38568
# Velocity P-wave (km/s) = 5.07146 6.40278 5.77561
#
# Compressibility (1/GPa) = 0.04760284
#
# Stress axis : x y z
#
# Youngs Moduli (GPa) = 23.06491 51.76651 77.45202
#
# Poissons Ratio (x) = 0.25676 0.05890
# Poissons Ratio (y) = 0.11440 0.64056
# Poissons Ratio (z) = 0.01754 0.42813
#
# Static dielectric constant tensor:
#      x y z
#    x 3.136700 0.000000 0.011630 
#    y 0.000000 3.241520 0.000000 
#    z 0.011630 0.000000 3.129060 
# 
# 
# High freq. dielectric constant tensor:
#      x y z
#    x 1.654980 0.000000 0.004290 
#    y 0.000000 1.676930 0.000000 
#    z 0.004290 0.000000 1.661430 
# 
# From -- ./inp_files/72560.got.cif
#   From: 2010.06.25/outbox.cif.g09.slc.cpg/sg10_37_cif.got.tgz:72560.got - 2010.06.27 22:07:45.
