data_PCOD8060544
_publ_section_title
;
Structure prediction by ZEFSAII (Michael W. Deem and Ramdas Pophale) SiO2 
 PCOD8060544
Probable space group: P 2/M
;
_chemical_formula_sum "Si O2"
_cell_formula_units_Z 26
_cell_length_a 13.300456
_cell_length_b 7.558890
_cell_length_c 24.074358
_cell_angle_alpha 90.000000
_cell_angle_beta 35.215623
_cell_angle_gamma 90.000000
_cell_volume 1395.710719
_symmetry_space_group_name_H-M "P 2/M"
_symmetry_group_IT_number 10
_symmetry_cell_setting 'monoclinic'
loop_
_space_group_symop_operation_xyz
x,y,z
-x,y,-z
-x,-y,-z
x,-y,z
loop_
_atom_site_type_symbol
_atom_site_label
_atom_site_fract_x
_atom_site_fract_y
_atom_site_fract_z
Si Si1 0.024573 0.199367 0.399733
Si Si2 0.503958 0.500000 0.245343
Si Si3 0.007399 0.790466 0.709785
Si Si4 0.541821 0.500000 0.350752
Si Si5 0.809396 0.500000 0.541711
Si Si6 0.625849 0.210501 0.896024
Si Si7 0.569388 0.801314 0.797408
Si Si8 0.355932 0.207111 0.611560
O O1 0.231608 0.202837 0.312344
O O2 0.969493 0.272450 0.363911
O O3 0.930840 0.326570 0.485974
O O4 0.954930 0.000000 0.441384
O O5 0.612076 0.500000 0.254698
O O6 0.545974 0.674160 0.189801
O O7 0.295939 0.500000 0.352735
O O8 0.168961 0.725414 0.673715
O O9 0.823106 0.717567 0.816974
O O10 0.000796 0.000000 0.711729
O O11 0.331079 0.500000 0.445364
O O12 0.606071 0.321075 0.351043
O O13 0.556751 0.267967 0.866565
O O14 0.627609 0.000000 0.898141
O O15 0.500000 0.291956 0.000000
O O16 0.494127 0.000000 0.826100
O O17 0.500000 0.246493 0.500000
O O18 0.355178 0.000000 0.628128
#
# Coordination Sequence:
#
# PCOD8060544 Si02
#       8
#     4   2   4   2   2   4   4   4
#     4   9  17  30  47  68  96 127 159 199 247 297
#     4  10  23  35  44  65  97 130 175 219 231 279
#     4   8  15  27  46  74 103 129 156 196 252 303
#     4  10  23  34  44  65  92 126 172 212 244 276
#     4  10  21  31  44  62  89 129 169 212 239 272
#     4   8  14  28  53  83 108 126 152 195 249 311
#     4   9  18  33  51  70  97 132 161 193 247 301
#     4  10  19  32  51  71  96 129 167 209 250 292
#
# _framework density 18.628502000000001
#
# number of rings (size 3 to 8) (size 9 to 14) (size 15 to 20)
#    0.462    2.462    0.000    3.462    0.000    4.923 
#    0.000    2.692    0.000    0.000    0.000    2.154 
#    0.000    6.154    0.000    0.000    0.000    0.000 
#
# Total GULP energy -322205.470534 kJ/mol
# GULP energy per Si atom -12392.518097 kJ/mol
# Density = 1.858610 g / cm^3
# Si number density = 18.628502 Si / 1000 Ang^3
#
#
#
# Elastic Constant Matrix: (Units=GPa)
#
#
# Indices 1 2 3 4 5 6 
#
# 1 114.9546 41.7243 28.7832 0.0000 8.7316 0.0000
# 2 41.7243 86.8591 19.6331 0.0000 8.5956 0.0000
# 3 28.7832 19.6331 77.0482 0.0000 10.4575 0.0000
# 4 0.0000 0.0000 0.0000 10.5922 0.0000 -1.3631
# 5 8.7316 8.5956 10.4575 0.0000 22.1239 0.0000
# 6 0.0000 0.0000 0.0000 -1.3631 0.0000 44.4814
#
#
#
# Elastic Compliance Matrix: (Units=1/GPa)
#
#
# Indices 1 2 3 4 5 6 
#
# 1 0.011175 -0.004602 -0.002828 0.000000 -0.001286 0.000000
# 2 -0.004602 0.014370 -0.001530 0.000000 -0.003044 0.000000
# 3 -0.002828 -0.001530 0.015166 0.000000 -0.005458 0.000000
# 4 0.000000 0.000000 0.000000 0.094783 0.000000 0.002905
# 5 -0.001286 -0.003044 -0.005458 0.000000 0.049470 0.000000
# 6 0.000000 0.000000 0.000000 0.002905 0.000000 0.022570
#
#
# Mechanical properties :
#
#
# Convention : Reuss Voigt Hill
#
# Bulk Modulus (GPa) = 43.87215 51.01590 47.44403
# Shear Modulus (GPa) = 21.45461 28.02092 24.73777
#
# Velocity S-wave (km/s) = 3.39737 3.88260 3.64806
# Velocity P-wave (km/s) = 6.24433 6.89528 6.57786
#
# Compressibility (1/GPa) = 0.02279350
#
# Stress axis : x y z
#
# Youngs Moduli (GPa) = 89.48533 69.58751 65.93792
#
# Poissons Ratio (x) = 0.32022 0.18644
# Poissons Ratio (y) = 0.41179 0.10086
# Poissons Ratio (z) = 0.25302 0.10644
#
# Static dielectric constant tensor:
#      x y z
#    x 3.402260 0.000000 -0.017220 
#    y 0.000000 3.312920 0.000000 
#    z -0.017220 0.000000 3.442950 
# 
# 
# High freq. dielectric constant tensor:
#      x y z
#    x 1.710920 0.000000 0.014530 
#    y 0.000000 1.722160 0.000000 
#    z 0.014530 0.000000 1.683680 
# 
# From -- ./inp_files/88515.got.cif
#   From: 2010.06.25/outbox.cif.g09.slc.cpg/sg10_45_cif.got.tgz:88515.got - 2010.06.27 22:07:45.
