data_PCOD8060436
_publ_section_title
;
Structure prediction by ZEFSAII (Michael W. Deem and Ramdas Pophale) SiO2 
 PCOD8060436
Probable space group: P 2/M
;
_chemical_formula_sum "Si O2"
_cell_formula_units_Z 18
_cell_length_a 16.170281
_cell_length_b 13.588329
_cell_length_c 5.174296
_cell_angle_alpha 90.000000
_cell_angle_beta 99.638406
_cell_angle_gamma 90.000000
_cell_volume 1120.884131
_symmetry_space_group_name_H-M "P 2/M"
_symmetry_group_IT_number 10
_symmetry_cell_setting 'monoclinic'
loop_
_space_group_symop_operation_xyz
x,y,z
-x,y,-z
-x,-y,-z
x,-y,z
loop_
_atom_site_type_symbol
_atom_site_label
_atom_site_fract_x
_atom_site_fract_y
_atom_site_fract_z
Si Si1 0.406364 0.883500 0.455983
Si Si2 0.694879 0.883755 0.093717
Si Si3 0.165968 0.729605 0.807240
Si Si4 0.000000 0.688238 0.500000
Si Si5 0.152345 0.612603 0.320358
O O1 0.500000 0.837914 0.500000
O O2 0.360434 0.850445 0.692133
O O3 0.413027 0.000000 0.443976
O O4 0.354100 0.845388 0.183652
O O5 0.785154 0.832167 0.152275
O O6 0.711518 0.000000 0.098101
O O7 0.201184 0.662029 0.589626
O O8 0.067249 0.754124 0.697171
O O9 0.177230 0.670017 0.076132
O O10 0.947945 0.619903 0.674080
O O11 0.179769 0.500000 0.303296
#
# Coordination Sequence:
#
# PCOD8060436 Si02
#       5
#     4   4   4   2   4
#     4   9  17  30  50  73  95 122 157 196 242 286
#     4  10  19  32  49  70 102 134 156 190 233 276
#     4  10  20  31  46  71  99 127 164 192 237 283
#     4   8  21  30  49  68  98 124 159 204 241 282
#     4  10  19  32  50  70  94 124 158 204 256 283
#
# _framework density 16.05875
#
# number of rings (size 3 to 8) (size 9 to 14) (size 15 to 20)
#    1.333    1.111    0.000    3.667    0.000    3.556 
#    0.000    0.556    0.000    1.333    0.000    0.000 
#    0.000   62.222    0.000    0.000    0.000    0.000 
#
# Total GULP energy -223024.258540 kJ/mol
# GULP energy per Si atom -12390.236586 kJ/mol
# Density = 1.602220 g / cm^3
# Si number density = 16.058750 Si / 1000 Ang^3
#
#
#
# Elastic Constant Matrix: (Units=GPa)
#
#
# Indices 1 2 3 4 5 6 
#
# 1 56.3342 45.2980 35.0847 0.0000 9.1918 0.0000
# 2 45.2980 63.8591 39.7865 0.0000 0.7027 0.0000
# 3 35.0847 39.7865 135.7428 0.0000 -6.4170 0.0000
# 4 0.0000 0.0000 0.0000 13.7214 0.0000 0.6807
# 5 9.1918 0.7027 -6.4170 0.0000 20.4246 0.0000
# 6 0.0000 0.0000 0.0000 0.6807 0.0000 7.6606
#
#
#
# Elastic Compliance Matrix: (Units=1/GPa)
#
#
# Indices 1 2 3 4 5 6 
#
# 1 0.050968 -0.033039 -0.004588 0.000000 -0.023242 0.000000
# 2 -0.033039 0.040698 -0.002794 0.000000 0.012591 0.000000
# 3 -0.004588 -0.002794 0.009617 0.000000 0.005182 0.000000
# 4 0.000000 0.000000 0.000000 0.073202 0.000000 -0.006504
# 5 -0.023242 0.012591 0.005182 0.000000 0.060616 0.000000
# 6 0.000000 0.000000 0.000000 -0.006504 0.000000 0.131116
#
#
# Mechanical properties :
#
#
# Convention : Reuss Voigt Hill
#
# Bulk Modulus (GPa) = 48.92501 55.14160 52.03330
# Shear Modulus (GPa) = 11.01636 17.41245 14.21440
#
# Velocity S-wave (km/s) = 2.62201 3.29644 2.97837
# Velocity P-wave (km/s) = 6.30071 6.99290 6.65581
#
# Compressibility (1/GPa) = 0.02043945
#
# Stress axis : x y z
#
# Youngs Moduli (GPa) = 19.62033 24.57143 103.98626
#
# Poissons Ratio (x) = 0.81182 0.47711
# Poissons Ratio (y) = 0.64824 0.29053
# Poissons Ratio (z) = 0.09002 0.06865
#
# Static dielectric constant tensor:
#      x y z
#    x 2.924660 0.000000 -0.023880 
#    y 0.000000 2.621160 0.000000 
#    z -0.023880 0.000000 3.266270 
# 
# 
# High freq. dielectric constant tensor:
#      x y z
#    x 1.599510 0.000000 -0.005700 
#    y 0.000000 1.571400 0.000000 
#    z -0.005700 0.000000 1.641150 
# 
# From -- ./inp_files/10718.got.cif
#   From: 2010.06.25/outbox.cif.g09.slc.cpg/sg10_6_cif.got.tgz:10718.got - 2010.06.27 22:07:45.
