data_PCOD8060124
_publ_section_title
;
Structure prediction by ZEFSAII (Michael W. Deem and Ramdas Pophale) SiO2 
 PCOD8060124
Probable space group: P 2/M
;
_chemical_formula_sum "Si O2"
_cell_formula_units_Z 24
_cell_length_a 18.276847
_cell_length_b 9.210890
_cell_length_c 24.751901
_cell_angle_alpha 90.000000
_cell_angle_beta 19.311575
_cell_angle_gamma 90.000000
_cell_volume 1378.009666
_symmetry_space_group_name_H-M "P 2/M"
_symmetry_group_IT_number 10
_symmetry_cell_setting 'monoclinic'
loop_
_space_group_symop_operation_xyz
x,y,z
-x,y,-z
-x,-y,-z
x,-y,z
loop_
_atom_site_type_symbol
_atom_site_label
_atom_site_fract_x
_atom_site_fract_y
_atom_site_fract_z
Si Si1 0.653865 0.340165 0.840725
Si Si2 0.997517 0.329749 0.320867
Si Si3 0.692544 0.829207 0.977662
Si Si4 0.776085 0.829702 0.042285
Si Si5 0.175570 0.840117 0.829859
Si Si6 0.511831 0.329242 0.317961
O O1 0.668641 0.500000 0.803291
O O2 0.893954 0.290243 0.696172
O O3 0.500000 0.347473 0.000000
O O4 0.551421 0.228061 0.869200
O O5 0.031150 0.500000 0.285466
O O6 0.743184 0.284855 0.500250
O O7 0.112856 0.242084 0.192506
O O8 0.699348 0.000000 0.963633
O O9 0.730651 0.784685 0.012807
O O10 0.608437 0.742305 0.196870
O O11 0.735650 0.000000 0.080987
O O12 0.033519 0.790143 0.876398
O O13 0.368969 0.727997 0.710447
O O14 0.280890 0.000000 0.747213
O O15 0.000000 0.847620 0.000000
O O16 0.547587 0.500000 0.289377
#
# Coordination Sequence:
#
# PCOD8060124 Si02
#       6
#     4   4   4   4   4   4
#     4   8  15  30  49  66  91 127 158 187 230 281
#     4   9  19  34  49  69  98 127 155 190 235 284
#     4  10  19  31  50  74  95 120 159 199 231 272
#     4   9  19  34  49  69  98 127 155 190 235 284
#     4   8  15  30  49  66  91 127 158 187 230 281
#     4  10  19  31  50  74  95 120 159 199 231 272
#
# _framework density 17.416423000000002
#
# number of rings (size 3 to 8) (size 9 to 14) (size 15 to 20)
#    0.000    3.000    0.000    3.000    0.000    8.667 
#    0.000    1.667    0.000   10.000    0.000    0.000 
#    0.000    0.000    0.000    0.000    0.000    0.000 
#
# Total GULP energy -297465.152766 kJ/mol
# GULP energy per Si atom -12394.381365 kJ/mol
# Density = 1.737678 g / cm^3
# Si number density = 17.416423 Si / 1000 Ang^3
#
#
#
# Elastic Constant Matrix: (Units=GPa)
#
#
# Indices 1 2 3 4 5 6 
#
# 1 78.2215 22.1377 5.5650 0.0000 -11.2456 0.0000
# 2 22.1377 58.7269 19.4211 0.0000 -2.2589 0.0000
# 3 5.5650 19.4211 45.5833 0.0000 -16.6480 0.0000
# 4 0.0000 0.0000 0.0000 14.5569 0.0000 -9.8116
# 5 -11.2456 -2.2589 -16.6480 0.0000 24.8287 0.0000
# 6 0.0000 0.0000 0.0000 -9.8116 0.0000 25.6985
#
#
#
# Elastic Compliance Matrix: (Units=1/GPa)
#
#
# Indices 1 2 3 4 5 6 
#
# 1 0.015860 -0.007137 0.004623 0.000000 0.009634 0.000000
# 2 -0.007137 0.023534 -0.012653 0.000000 -0.009575 0.000000
# 3 0.004623 -0.012653 0.035900 0.000000 0.025014 0.000000
# 4 0.000000 0.000000 0.000000 0.092500 0.000000 0.035316
# 5 0.009634 -0.009575 0.025014 0.000000 0.060541 0.000000
# 6 0.000000 0.000000 0.000000 0.035316 0.000000 0.052397
#
#
# Mechanical properties :
#
#
# Convention : Reuss Voigt Hill
#
# Bulk Modulus (GPa) = 22.24139 30.75325 26.49732
# Shear Modulus (GPa) = 15.33495 22.04400 18.68948
#
# Velocity S-wave (km/s) = 2.97052 3.56153 3.27937
# Velocity P-wave (km/s) = 4.95615 5.88291 5.43930
#
# Compressibility (1/GPa) = 0.04496122
#
# Stress axis : x y z
#
# Youngs Moduli (GPa) = 63.05084 42.49119 27.85516
#
# Poissons Ratio (x) = 0.30326 -0.12878
# Poissons Ratio (y) = 0.44999 0.35244
# Poissons Ratio (z) = -0.29149 0.53763
#
# Static dielectric constant tensor:
#      x y z
#    x 3.711070 0.000000 -0.517170 
#    y 0.000000 3.253750 0.000000 
#    z -0.517170 0.000000 3.124870 
# 
# 
# High freq. dielectric constant tensor:
#      x y z
#    x 1.677720 0.000000 -0.029950 
#    y 0.000000 1.674180 0.000000 
#    z -0.029950 0.000000 1.643620 
# 
# From -- ./inp_files/52468.got.cif
#   From: 2010.06.25/outbox.cif.g09.slc.cpg/sg10_27_cif.got.tgz:52468.got - 2010.06.27 22:07:45.
