data_PCOD8060183
_publ_section_title
;
Structure prediction by ZEFSAII (Michael W. Deem and Ramdas Pophale) SiO2 
 PCOD8060183
Probable space group: P 2/M
;
_chemical_formula_sum "Si O2"
_cell_formula_units_Z 16
_cell_length_a 4.984253
_cell_length_b 10.727602
_cell_length_c 13.708487
_cell_angle_alpha 90.000000
_cell_angle_beta 78.081222
_cell_angle_gamma 90.000000
_cell_volume 717.178159
_symmetry_space_group_name_H-M "P 2/M"
_symmetry_group_IT_number 10
_symmetry_cell_setting 'monoclinic'
loop_
_space_group_symop_operation_xyz
x,y,z
-x,y,-z
-x,-y,-z
x,-y,z
loop_
_atom_site_type_symbol
_atom_site_label
_atom_site_fract_x
_atom_site_fract_y
_atom_site_fract_z
Si Si1 0.371328 0.248496 0.116411
Si Si2 0.324176 0.856000 0.735544
Si Si3 0.789183 0.500000 0.927656
Si Si4 0.914735 0.858133 0.609024
Si Si5 0.794696 0.000000 0.928810
O O1 0.616729 0.234041 0.176148
O O2 0.193668 0.375693 0.141708
O O3 0.500000 0.248333 0.000000
O O4 0.171210 0.125318 0.140677
O O5 0.590954 0.849678 0.646403
O O6 0.075671 0.797838 0.689710
O O7 0.273064 0.000000 0.775978
O O8 0.500000 0.500000 0.000000
O O9 0.000000 0.500000 0.000000
O O10 0.000000 0.793363 0.500000
O O11 0.023341 0.000000 0.598234
O O12 0.500000 0.000000 0.000000
O O13 0.000000 0.000000 0.000000
#
# Coordination Sequence:
#
# PCOD8060183 Si02
#       5
#     4   4   2   4   2
#     4  10  21  37  53  79 110 145 178 220 259 315
#     4  10  19  31  50  78 104 137 174 212 263 317
#     4  10  22  38  54  72 103 148 189 218 254 306
#     4   9  18  32  50  74 106 136 170 217 266 313
#     4  10  20  32  50  72 101 138 171 210 260 298
#
# _framework density 22.309656
#
# number of rings (size 3 to 8) (size 9 to 14) (size 15 to 20)
#    0.000    2.250    1.250    1.500    0.000   11.000 
#    0.000    0.000    0.000    0.000    0.000    5.250 
#    0.000    0.000    0.000    0.000    0.000    0.000 
#
# Total GULP energy -198327.573348 kJ/mol
# GULP energy per Si atom -12395.473334 kJ/mol
# Density = 2.225888 g / cm^3
# Si number density = 22.309656 Si / 1000 Ang^3
#
#
#
# Elastic Constant Matrix: (Units=GPa)
#
#
# Indices 1 2 3 4 5 6 
#
# 1 61.2130 15.7332 0.7273 0.0000 35.2518 0.0000
# 2 15.7332 153.1457 24.4645 0.0000 21.0083 0.0000
# 3 0.7273 24.4645 114.7683 0.0000 24.8665 0.0000
# 4 0.0000 0.0000 0.0000 9.9599 0.0000 8.2219
# 5 35.2518 21.0083 24.8665 0.0000 43.2338 0.0000
# 6 0.0000 0.0000 0.0000 8.2219 0.0000 20.7490
#
#
#
# Elastic Compliance Matrix: (Units=1/GPa)
#
#
# Indices 1 2 3 4 5 6 
#
# 1 0.034893 -0.000250 0.006820 0.000000 -0.032253 0.000000
# 2 -0.000250 0.007073 -0.000920 0.000000 -0.002704 0.000000
# 3 0.006820 -0.000920 0.011394 0.000000 -0.011667 0.000000
# 4 0.000000 0.000000 0.000000 0.149211 0.000000 -0.059125
# 5 -0.032253 -0.002704 -0.011667 0.000000 0.057452 0.000000
# 6 0.000000 0.000000 0.000000 -0.059125 0.000000 0.071624
#
#
# Mechanical properties :
#
#
# Convention : Reuss Voigt Hill
#
# Bulk Modulus (GPa) = 15.46533 45.66412 30.56473
# Shear Modulus (GPa) = 14.62410 34.00200 24.31305
#
# Velocity S-wave (km/s) = 2.56306 3.90820 3.30479
# Velocity P-wave (km/s) = 3.96311 6.39360 5.31904
#
# Compressibility (1/GPa) = 0.06466075
#
# Stress axis : x y z
#
# Youngs Moduli (GPa) = 28.65871 141.37571 87.76499
#
# Poissons Ratio (x) = 0.03533 -0.59857
# Poissons Ratio (y) = 0.00716 0.08077
# Poissons Ratio (z) = -0.19546 0.13011
#
# Static dielectric constant tensor:
#      x y z
#    x 4.198170 0.000000 0.199860 
#    y 0.000000 2.243110 0.000000 
#    z 0.199860 0.000000 4.121760 
# 
# 
# High freq. dielectric constant tensor:
#      x y z
#    x 1.898380 0.000000 0.008320 
#    y 0.000000 1.820980 0.000000 
#    z 0.008320 0.000000 1.878850 
# 
# From -- ./inp_files/6240.got.cif
#   From: 2010.06.25/outbox.cif.g09.slc.cpg/sg10_4_cif.got.tgz:6240.got - 2010.06.27 22:07:45.
