data_PCOD8060302
_publ_section_title
;
Structure prediction by ZEFSAII (Michael W. Deem and Ramdas Pophale) SiO2 
 PCOD8060302
Probable space group: P 2/M
;
_chemical_formula_sum "Si O2"
_cell_formula_units_Z 32
_cell_length_a 12.076810
_cell_length_b 9.387891
_cell_length_c 28.571148
_cell_angle_alpha 90.000000
_cell_angle_beta 145.574702
_cell_angle_gamma 90.000000
_cell_volume 1831.264035
_symmetry_space_group_name_H-M "P 2/M"
_symmetry_group_IT_number 10
_symmetry_cell_setting 'monoclinic'
loop_
_space_group_symop_operation_xyz
x,y,z
-x,y,-z
-x,-y,-z
x,-y,z
loop_
_atom_site_type_symbol
_atom_site_label
_atom_site_fract_x
_atom_site_fract_y
_atom_site_fract_z
Si Si1 0.473719 0.667428 0.877505
Si Si2 0.083036 0.163586 0.749679
Si Si3 0.030011 0.837420 0.627420
Si Si4 0.804167 0.836035 0.460278
Si Si5 0.084528 0.837099 0.211784
Si Si6 0.560063 0.665754 0.705044
Si Si7 0.589272 0.662546 0.248345
Si Si8 0.667043 0.164921 0.021594
O O1 0.470938 0.500000 0.886832
O O2 0.514470 0.702178 0.836972
O O3 0.645255 0.740961 0.967175
O O4 0.266554 0.733218 0.820562
O O5 0.976696 0.195659 0.662987
O O6 0.927534 0.191154 0.736651
O O7 0.159050 0.000000 0.778909
O O8 0.845003 0.804781 0.529612
O O9 0.215909 0.750732 0.674632
O O10 0.094164 0.000000 0.643456
O O11 0.629196 0.735104 0.384299
O O12 0.000000 0.798779 0.500000
O O13 0.742706 0.000000 0.430614
O O14 0.243449 0.733269 0.245934
O O15 0.144982 0.000000 0.222717
O O16 0.876365 0.800726 0.116524
O O17 0.558131 0.500000 0.691678
O O18 0.559662 0.690857 0.760963
O O19 0.658668 0.500000 0.271203
O O20 0.645705 0.000000 0.000554
O O21 0.500000 0.210142 0.000000
#
# Coordination Sequence:
#
# PCOD8060302 Si02
#       8
#     4   4   4   4   4   4   4   4
#     4  10  19  31  52  81 108 135 171 218 263 308
#     4   9  17  33  54  77 105 140 175 213 264 314
#     4   9  17  30  54  82 105 132 173 220 263 309
#     4  10  19  33  54  83 110 134 174 225 265 307
#     4  10  21  37  56  76 105 141 176 218 264 311
#     4  11  23  37  54  76 107 146 181 214 261 320
#     4   9  19  34  50  74 108 141 173 212 262 312
#     4  10  19  35  56  80 107 137 175 219 265 311
#
# _framework density 17.474269
#
# number of rings (size 3 to 8) (size 9 to 14) (size 15 to 20)
#    0.000    2.250    2.500    0.750    0.000    3.000 
#    0.000    1.250    0.000    7.500    0.000    0.000 
#    0.000    0.000    0.000    0.000    0.000    0.000 
#
# Total GULP energy -396779.833481 kJ/mol
# GULP energy per Si atom -12399.369796 kJ/mol
# Density = 1.743450 g / cm^3
# Si number density = 17.474269 Si / 1000 Ang^3
#
#
#
# Elastic Constant Matrix: (Units=GPa)
#
#
# Indices 1 2 3 4 5 6 
#
# 1 117.9156 64.3543 67.4764 0.0000 -5.3745 0.0000
# 2 64.3543 89.4452 60.3827 0.0000 -1.3697 0.0000
# 3 67.4764 60.3827 100.9861 0.0000 -5.7278 0.0000
# 4 0.0000 0.0000 0.0000 -66.0459 0.0000 -36.8872
# 5 -5.3745 -1.3697 -5.7278 0.0000 27.1602 0.0000
# 6 0.0000 0.0000 0.0000 -36.8872 0.0000 13.3462
#
#
#
# Elastic Compliance Matrix: (Units=1/GPa)
#
#
# Indices 1 2 3 4 5 6 
#
# 1 0.016182 -0.007341 -0.006338 0.000000 0.001495 0.000000
# 2 -0.007341 0.022133 -0.008449 0.000000 -0.002118 0.000000
# 3 -0.006338 -0.008449 0.019325 0.000000 0.002395 0.000000
# 4 0.000000 0.000000 0.000000 -0.005952 0.000000 -0.016452
# 5 0.001495 -0.002118 0.002395 0.000000 0.037513 0.000000
# 6 0.000000 0.000000 0.000000 -0.016452 0.000000 0.029457
#
#
# Mechanical properties :
#
#
# Convention : Reuss Voigt Hill
#
# Bulk Modulus (GPa) = 74.71775 76.97485 75.84630
# Shear Modulus (GPa) = 29.87272 2.63433 16.25353
#
# Velocity S-wave (km/s) = 4.13913 1.22915 3.05313
# Velocity P-wave (km/s) = 8.10523 6.79415 7.47847
#
# Compressibility (1/GPa) = 0.01338370
#
# Stress axis : x y z
#
# Youngs Moduli (GPa) = 61.79541 45.18086 51.74547
#
# Poissons Ratio (x) = 0.33168 0.32798
# Poissons Ratio (y) = 0.45365 0.43720
# Poissons Ratio (z) = 0.39168 0.38174
#
# Static dielectric constant tensor:
#      x y z
#    x 3.408630 0.000000 -0.361400 
#    y 0.000000 3.290410 0.000000 
#    z -0.361400 0.000000 3.261420 
# 
# 
# High freq. dielectric constant tensor:
#      x y z
#    x 1.671110 0.000000 -0.027760 
#    y 0.000000 1.678110 0.000000 
#    z -0.027760 0.000000 1.662690 
# 
# From -- ./inp_files/55319.got.cif
#   From: 2010.06.25/outbox.cif.g09.slc.cpg/sg10_28_cif.got.tgz:55319.got - 2010.06.27 22:07:45.
