data_PCOD8060036
_publ_section_title
;
Structure prediction by ZEFSAII (Michael W. Deem and Ramdas Pophale) SiO2 
 PCOD8060036
Probable space group: P 2/M
;
_chemical_formula_sum "Si O2"
_cell_formula_units_Z 28
_cell_length_a 10.375070
_cell_length_b 7.901263
_cell_length_c 29.988521
_cell_angle_alpha 90.000000
_cell_angle_beta 143.692105
_cell_angle_gamma 90.000000
_cell_volume 1455.644857
_symmetry_space_group_name_H-M "P 2/M"
_symmetry_group_IT_number 10
_symmetry_cell_setting 'monoclinic'
loop_
_space_group_symop_operation_xyz
x,y,z
-x,y,-z
-x,-y,-z
x,-y,z
loop_
_atom_site_type_symbol
_atom_site_label
_atom_site_fract_x
_atom_site_fract_y
_atom_site_fract_z
Si Si1 0.144427 0.693231 0.437675
Si Si2 0.183570 0.187241 0.588173
Si Si3 0.365713 0.309216 0.006979
Si Si4 0.899759 0.000000 0.041145
Si Si5 0.396495 0.696252 0.835045
Si Si6 0.923017 0.693221 0.678398
Si Si7 0.332778 0.000000 0.117955
Si Si8 0.498409 0.194628 0.603829
O O1 0.221028 0.500000 0.456623
O O2 0.125390 0.778951 0.383293
O O3 0.331133 0.791799 0.516137
O O4 0.907723 0.702922 0.396134
O O5 0.392654 0.268276 0.620522
O O6 0.000000 0.171422 0.500000
O O7 0.240722 0.000000 0.622279
O O8 0.266725 0.500000 0.981010
O O9 0.172719 0.171410 0.953724
O O10 0.500000 0.279371 0.000000
O O11 0.530662 0.280866 0.093778
O O12 0.161908 0.000000 0.111175
O O13 0.796928 0.000000 0.963981
O O14 0.431196 0.500000 0.829185
O O15 0.145697 0.758251 0.762736
O O16 0.528406 0.826083 0.840112
O O17 0.960286 0.500000 0.677093
O O18 0.724593 0.712720 0.657334
O O19 0.552567 0.000000 0.626239
#
# Coordination Sequence:
#
# PCOD8060036 Si02
#       8
#     4   4   4   2   4   4   2   4
#     4  10  19  31  49  72  96 126 168 212 257 305
#     4   8  16  31  47  66  93 120 153 201 253 302
#     4   9  17  31  55  82 107 138 173 208 254 302
#     4   9  17  30  52  82 109 129 165 216 247 290
#     4   9  19  35  52  73 105 139 169 210 256 303
#     4  10  21  34  49  70  99 133 169 210 254 303
#     4   9  18  32  52  78 103 134 173 201 248 313
#     4  10  20  32  49  73  97 125 167 215 257 302
#
# _framework density 19.23546
#
# number of rings (size 3 to 8) (size 9 to 14) (size 15 to 20)
#    0.000    2.714    0.000    2.357    1.000    6.571 
#    0.000    2.857    3.143    0.000    0.000    0.000 
#    0.000    0.000    0.000    0.000    0.000    0.000 
#
# Total GULP energy -346965.534689 kJ/mol
# GULP energy per Si atom -12391.626239 kJ/mol
# Density = 1.919168 g / cm^3
# Si number density = 19.235460 Si / 1000 Ang^3
#
#
#
# Elastic Constant Matrix: (Units=GPa)
#
#
# Indices 1 2 3 4 5 6 
#
# 1 128.1009 43.6077 40.2846 0.0000 31.7838 0.0000
# 2 43.6077 82.9103 23.8606 0.0000 12.5723 0.0000
# 3 40.2846 23.8606 54.4833 0.0000 23.3014 0.0000
# 4 0.0000 0.0000 0.0000 20.3828 0.0000 3.7822
# 5 31.7838 12.5723 23.3014 0.0000 25.0439 0.0000
# 6 0.0000 0.0000 0.0000 3.7822 0.0000 29.7450
#
#
#
# Elastic Compliance Matrix: (Units=1/GPa)
#
#
# Indices 1 2 3 4 5 6 
#
# 1 0.013074 -0.004295 -0.002677 0.000000 -0.011946 0.000000
# 2 -0.004295 0.015282 -0.004264 0.000000 0.001746 0.000000
# 3 -0.002677 -0.004264 0.032940 0.000000 -0.025110 0.000000
# 4 0.000000 0.000000 0.000000 0.050247 0.000000 -0.006389
# 5 -0.011946 0.001746 -0.025110 0.000000 0.077578 0.000000
# 6 0.000000 0.000000 0.000000 -0.006389 0.000000 0.034432
#
#
# Mechanical properties :
#
#
# Convention : Reuss Voigt Hill
#
# Bulk Modulus (GPa) = 25.75643 53.44447 39.60045
# Shear Modulus (GPa) = 19.30755 25.55043 22.42899
#
# Velocity S-wave (km/s) = 3.17164 3.64854 3.41841
# Velocity P-wave (km/s) = 5.17991 6.75232 6.01769
#
# Compressibility (1/GPa) = 0.03882525
#
# Stress axis : x y z
#
# Youngs Moduli (GPa) = 76.48664 65.43447 30.35795
#
# Poissons Ratio (x) = 0.28102 0.08127
# Poissons Ratio (y) = 0.32848 0.12945
# Poissons Ratio (z) = 0.20476 0.27902
#
# Static dielectric constant tensor:
#      x y z
#    x 3.823450 0.000000 0.131940 
#    y 0.000000 3.548120 0.000000 
#    z 0.131940 0.000000 3.303710 
# 
# 
# High freq. dielectric constant tensor:
#      x y z
#    x 1.751530 0.000000 0.009400 
#    y 0.000000 1.748690 0.000000 
#    z 0.009400 0.000000 1.706120 
# 
# From -- ./inp_files/92124.got.cif
#   From: 2010.06.25/outbox.cif.g09.slc.cpg/sg10_47_cif.got.tgz:92124.got - 2010.06.27 22:07:45.
