data_PCOD8060484
_publ_section_title
;
Structure prediction by ZEFSAII (Michael W. Deem and Ramdas Pophale) SiO2 
 PCOD8060484
Probable space group: P 2/M
;
_chemical_formula_sum "Si O2"
_cell_formula_units_Z 32
_cell_length_a 26.368706
_cell_length_b 8.929670
_cell_length_c 13.880592
_cell_angle_alpha 90.000000
_cell_angle_beta 146.929129
_cell_angle_gamma 90.000000
_cell_volume 1783.475169
_symmetry_space_group_name_H-M "P 2/M"
_symmetry_group_IT_number 10
_symmetry_cell_setting 'monoclinic'
loop_
_space_group_symop_operation_xyz
x,y,z
-x,y,-z
-x,-y,-z
x,-y,z
loop_
_atom_site_type_symbol
_atom_site_label
_atom_site_fract_x
_atom_site_fract_y
_atom_site_fract_z
Si Si1 0.112166 0.678656 0.766778
Si Si2 0.619178 0.827519 0.512802
Si Si3 0.282433 0.825330 0.130479
Si Si4 0.054867 0.665378 0.988413
Si Si5 0.891331 0.173077 0.640124
Si Si6 0.087503 0.824259 0.536941
Si Si7 0.451281 0.668506 0.319648
Si Si8 0.787180 0.174874 0.659816
O O1 0.102416 0.500000 0.752214
O O2 0.142730 0.736643 0.708776
O O3 0.015067 0.756086 0.637452
O O4 0.188132 0.731693 0.965258
O O5 0.682062 0.790595 0.705847
O O6 0.524945 0.731187 0.359023
O O7 0.679713 0.788444 0.513578
O O8 0.588973 0.000000 0.467212
O O9 0.359119 0.769829 0.175059
O O10 0.263272 0.000000 0.082771
O O11 0.077229 0.500000 0.984546
O O12 0.990705 0.746866 0.808422
O O13 0.150968 0.750343 0.158590
O O14 0.000000 0.659090 0.000000
O O15 0.857346 0.200298 0.476427
O O16 0.814442 0.232040 0.595306
O O17 0.910344 0.000000 0.690576
O O18 0.080449 0.000000 0.550662
O O19 0.500000 0.674911 0.500000
O O20 0.423430 0.500000 0.246609
O O21 0.805558 0.000000 0.698810
#
# Coordination Sequence:
#
# PCOD8060484 Si02
#       8
#     4   4   4   4   4   4   4   4
#     4  11  22  35  50  71  95 121 156 201 246 286
#     4   9  18  30  47  70  98 129 159 191 228 274
#     4  10  19  32  50  71  96 127 161 193 230 281
#     4   9  17  27  39  59  88 120 155 193 230 269
#     4   9  18  31  48  65  88 123 160 196 234 275
#     4  10  20  35  52  69  92 124 161 201 242 282
#     4   9  17  30  47  69  97 126 156 192 234 278
#     4   9  17  30  45  66  93 124 161 194 226 274
#
# _framework density 17.942499000000002
#
# number of rings (size 3 to 8) (size 9 to 14) (size 15 to 20)
#    0.000    2.500    0.000    3.375    1.750    5.000 
#    0.000    0.000    0.000    0.000    0.000    0.875 
#    0.000    7.000    0.000    0.000    0.000    0.000 
#
# Total GULP energy -396654.418197 kJ/mol
# GULP energy per Si atom -12395.450569 kJ/mol
# Density = 1.790166 g / cm^3
# Si number density = 17.942499 Si / 1000 Ang^3
#
#
#
# Elastic Constant Matrix: (Units=GPa)
#
#
# Indices 1 2 3 4 5 6 
#
# 1 76.0809 17.9018 4.3853 0.0000 1.4754 0.0000
# 2 17.9018 75.3738 11.5467 0.0000 3.1536 0.0000
# 3 4.3853 11.5467 25.1237 0.0000 3.8642 0.0000
# 4 0.0000 0.0000 0.0000 22.6345 0.0000 0.9261
# 5 1.4754 3.1536 3.8642 0.0000 21.8003 0.0000
# 6 0.0000 0.0000 0.0000 0.9261 0.0000 14.3948
#
#
#
# Elastic Compliance Matrix: (Units=1/GPa)
#
#
# Indices 1 2 3 4 5 6 
#
# 1 0.013947 -0.003156 -0.000934 0.000000 -0.000322 0.000000
# 2 -0.003156 0.015004 -0.006213 0.000000 -0.000856 0.000000
# 3 -0.000934 -0.006213 0.043870 0.000000 -0.006814 0.000000
# 4 0.000000 0.000000 0.000000 0.044297 0.000000 -0.002850
# 5 -0.000322 -0.000856 -0.006814 0.000000 0.047224 0.000000
# 6 0.000000 0.000000 0.000000 -0.002850 0.000000 0.069653
#
#
# Mechanical properties :
#
#
# Convention : Reuss Voigt Hill
#
# Bulk Modulus (GPa) = 19.15221 27.13845 23.14533
# Shear Modulus (GPa) = 18.38190 21.28223 19.83206
#
# Velocity S-wave (km/s) = 3.20424 3.44777 3.32823
# Velocity P-wave (km/s) = 4.93831 5.56844 5.26281
#
# Compressibility (1/GPa) = 0.05221328
#
# Stress axis : x y z
#
# Youngs Moduli (GPa) = 71.70230 66.64721 22.79468
#
# Poissons Ratio (x) = 0.21032 0.02130
# Poissons Ratio (y) = 0.22628 0.14163
# Poissons Ratio (z) = 0.06701 0.41411
#
# Static dielectric constant tensor:
#      x y z
#    x 3.546850 0.000000 0.046910 
#    y 0.000000 3.444610 0.000000 
#    z 0.046910 0.000000 3.037770 
# 
# 
# High freq. dielectric constant tensor:
#      x y z
#    x 1.692370 0.000000 0.010580 
#    y 0.000000 1.702370 0.000000 
#    z 0.010580 0.000000 1.647470 
# 
# From -- ./inp_files/72243.got.cif
#   From: 2010.06.25/outbox.cif.g09.slc.cpg/sg10_37_cif.got.tgz:72243.got - 2010.06.27 22:07:45.
