data_PCOD8060674
_publ_section_title
;
Structure prediction by ZEFSAII (Michael W. Deem and Ramdas Pophale) SiO2 
 PCOD8060674
Probable space group: P 2/M
;
_chemical_formula_sum "Si O2"
_cell_formula_units_Z 32
_cell_length_a 27.343058
_cell_length_b 9.131624
_cell_length_c 21.887623
_cell_angle_alpha 90.000000
_cell_angle_beta 18.551153
_cell_angle_gamma 90.000000
_cell_volume 1738.710374
_symmetry_space_group_name_H-M "P 2/M"
_symmetry_group_IT_number 10
_symmetry_cell_setting 'monoclinic'
loop_
_space_group_symop_operation_xyz
x,y,z
-x,y,-z
-x,-y,-z
x,-y,z
loop_
_atom_site_type_symbol
_atom_site_label
_atom_site_fract_x
_atom_site_fract_y
_atom_site_fract_z
Si Si1 0.239073 0.670478 0.373900
Si Si2 0.577062 0.170825 0.667492
Si Si3 0.345776 0.834545 0.643588
Si Si4 0.192699 0.669057 0.926797
Si Si5 0.866510 0.330508 0.366704
Si Si6 0.144534 0.828293 0.368709
Si Si7 0.470298 0.830837 0.928120
Si Si8 0.491866 0.671133 0.650121
O O1 0.255926 0.500000 0.340416
O O2 0.148660 0.702683 0.543549
O O3 0.139206 0.744330 0.439124
O O4 0.409818 0.738300 0.173865
O O5 0.749887 0.231716 0.466302
O O6 0.487799 0.203990 0.835897
O O7 0.484272 0.255291 0.725252
O O8 0.582683 0.000000 0.645366
O O9 0.500000 0.829402 0.500000
O O10 0.210173 0.762200 0.844059
O O11 0.370726 0.743196 0.552053
O O12 0.299222 0.000000 0.681793
O O13 0.194592 0.500000 0.905252
O O14 0.328334 0.703586 0.813343
O O15 0.036276 0.714725 0.145177
O O16 0.830345 0.500000 0.395654
O O17 0.000000 0.775325 0.500000
O O18 0.134848 0.000000 0.393803
O O19 0.298808 0.786041 0.149672
O O20 0.505077 0.000000 0.901017
O O21 0.526431 0.500000 0.615229
#
# Coordination Sequence:
#
# PCOD8060674 Si02
#       8
#     4   4   4   4   4   4   4   4
#     4  10  20  34  54  78 102 132 170 209 250 299
#     4  10  20  34  52  75 102 132 169 211 252 296
#     4   9  17  30  49  74 103 133 167 208 250 294
#     4   9  18  33  53  75 100 133 170 206 249 303
#     4   9  19  36  54  74 103 135 167 206 253 303
#     4  10  21  36  53  75 104 136 169 207 252 300
#     4   9  19  36  55  73  98 135 173 207 248 301
#     4  10  19  32  52  76 102 134 169 205 250 303
#
# _framework density 18.404446
#
# number of rings (size 3 to 8) (size 9 to 14) (size 15 to 20)
#    0.000    2.500    0.000    1.875    0.000    6.750 
#    0.000    0.625    0.000    3.750    0.000    0.000 
#    0.000    0.000    0.000    0.000    0.000    0.000 
#
# Total GULP energy -396915.501017 kJ/mol
# GULP energy per Si atom -12403.609407 kJ/mol
# Density = 1.836256 g / cm^3
# Si number density = 18.404446 Si / 1000 Ang^3
#
#
#
# Elastic Constant Matrix: (Units=GPa)
#
#
# Indices 1 2 3 4 5 6 
#
# 1 56.2675 25.8317 11.2637 0.0000 -0.0694 0.0000
# 2 25.8317 73.7372 25.5526 0.0000 0.6171 0.0000
# 3 11.2637 25.5526 97.3711 0.0000 0.4961 0.0000
# 4 0.0000 0.0000 0.0000 23.9598 0.0000 3.3070
# 5 -0.0694 0.6171 0.4961 0.0000 18.8881 0.0000
# 6 0.0000 0.0000 0.0000 3.3070 0.0000 38.1377
#
#
#
# Elastic Compliance Matrix: (Units=1/GPa)
#
#
# Indices 1 2 3 4 5 6 
#
# 1 0.021207 -0.007240 -0.000555 0.000000 0.000329 0.000000
# 2 -0.007240 0.017393 -0.003724 0.000000 -0.000497 0.000000
# 3 -0.000555 -0.003724 0.011312 0.000000 -0.000177 0.000000
# 4 0.000000 0.000000 0.000000 0.042242 0.000000 -0.003663
# 5 0.000329 -0.000497 -0.000177 0.000000 0.052965 0.000000
# 6 0.000000 0.000000 0.000000 -0.003663 0.000000 0.026538
#
#
# Mechanical properties :
#
#
# Convention : Reuss Voigt Hill
#
# Bulk Modulus (GPa) = 37.21013 39.18575 38.19794
# Shear Modulus (GPa) = 24.55133 27.17897 25.86515
#
# Velocity S-wave (km/s) = 3.65634 3.84703 3.75290
# Velocity P-wave (km/s) = 6.17147 6.40863 6.29117
#
# Compressibility (1/GPa) = 0.02687440
#
# Stress axis : x y z
#
# Youngs Moduli (GPa) = 47.15319 57.49543 88.39833
#
# Poissons Ratio (x) = 0.41626 0.04906
# Poissons Ratio (y) = 0.34138 0.32922
# Poissons Ratio (z) = 0.02617 0.21413
#
# Static dielectric constant tensor:
#      x y z
#    x 3.337460 0.000000 0.125020 
#    y 0.000000 3.439480 0.000000 
#    z 0.125020 0.000000 3.373210 
# 
# 
# High freq. dielectric constant tensor:
#      x y z
#    x 1.708970 0.000000 0.013600 
#    y 0.000000 1.718920 0.000000 
#    z 0.013600 0.000000 1.707690 
# 
# From -- ./inp_files/86765.got.cif
#   From: 2010.06.25/outbox.cif.g09.slc.cpg/sg10_44_cif.got.tgz:86765.got - 2010.06.27 22:07:45.
