data_PCOD8060701
_publ_section_title
;
Structure prediction by ZEFSAII (Michael W. Deem and Ramdas Pophale) SiO2 
 PCOD8060701
Probable space group: P 2/M
;
_chemical_formula_sum "Si O2"
_cell_formula_units_Z 28
_cell_length_a 14.447442
_cell_length_b 9.434023
_cell_length_c 21.396852
_cell_angle_alpha 90.000000
_cell_angle_beta 30.593030
_cell_angle_gamma 90.000000
_cell_volume 1484.231161
_symmetry_space_group_name_H-M "P 2/M"
_symmetry_group_IT_number 10
_symmetry_cell_setting 'monoclinic'
loop_
_space_group_symop_operation_xyz
x,y,z
-x,y,-z
-x,-y,-z
x,-y,z
loop_
_atom_site_type_symbol
_atom_site_label
_atom_site_fract_x
_atom_site_fract_y
_atom_site_fract_z
Si Si1 0.750325 0.334768 0.609643
Si Si2 0.921188 0.332917 0.112692
Si Si3 0.708341 0.164631 0.876809
Si Si4 0.878674 0.667982 0.664972
Si Si5 0.975256 0.835651 0.830911
Si Si6 0.332961 0.838451 0.551034
Si Si7 0.491399 0.665893 0.655781
O O1 0.787651 0.500000 0.592460
O O2 0.750406 0.280725 0.681278
O O3 0.558522 0.299791 0.687529
O O4 0.918646 0.277596 0.470185
O O5 0.935469 0.500000 0.116007
O O6 0.712840 0.278745 0.235136
O O7 0.037729 0.254422 0.098008
O O8 0.000000 0.290314 0.000000
O O9 0.816855 0.253641 0.762994
O O10 0.795780 0.192358 0.894143
O O11 0.723671 0.000000 0.849649
O O12 0.500000 0.215282 0.000000
O O13 0.867134 0.500000 0.684200
O O14 0.150939 0.783783 0.690157
O O15 0.995963 0.000000 0.837151
O O16 0.500000 0.819904 0.500000
O O17 0.367000 0.742227 0.471520
O O18 0.310202 0.000000 0.541926
O O19 0.502873 0.500000 0.635123
#
# Coordination Sequence:
#
# PCOD8060701 Si02
#       7
#     4   4   4   4   4   4   4
#     4   8  16  31  52  79 108 135 166 213 265 308
#     4  10  22  37  52  75 107 139 173 215 256 300
#     4  10  22  38  54  75 106 139 174 216 259 303
#     4   9  17  33  56  79 104 135 173 214 259 310
#     4  10  21  38  57  76 103 140 173 211 263 310
#     4  10  19  32  52  78 107 133 167 216 260 302
#     4  10  19  32  52  77 106 140 174 208 256 312
#
# _framework density 18.864986999999999
#
# number of rings (size 3 to 8) (size 9 to 14) (size 15 to 20)
#    0.000    2.429    1.429    1.714    0.000    3.143 
#    0.000    3.571    0.000    0.000    0.000    0.000 
#    0.000    0.000    0.000    0.000    0.000    0.000 
#
# Total GULP energy -347148.708913 kJ/mol
# GULP energy per Si atom -12398.168175 kJ/mol
# Density = 1.882205 g / cm^3
# Si number density = 18.864987 Si / 1000 Ang^3
#
#
#
# Elastic Constant Matrix: (Units=GPa)
#
#
# Indices 1 2 3 4 5 6 
#
# 1 125.1800 41.1782 48.2582 0.0000 3.4529 0.0000
# 2 41.1782 42.6054 29.8767 0.0000 10.4628 0.0000
# 3 48.2582 29.8767 77.6013 0.0000 6.0663 0.0000
# 4 0.0000 0.0000 0.0000 -17.5992 0.0000 -33.5849
# 5 3.4529 10.4628 6.0663 0.0000 32.4690 0.0000
# 6 0.0000 0.0000 0.0000 -33.5849 0.0000 -14.0552
#
#
#
# Elastic Compliance Matrix: (Units=1/GPa)
#
#
# Indices 1 2 3 4 5 6 
#
# 1 0.012911 -0.010084 -0.004357 0.000000 0.002691 0.000000
# 2 -0.010084 0.042313 -0.009172 0.000000 -0.010849 0.000000
# 3 -0.004357 -0.009172 0.019139 0.000000 -0.000157 0.000000
# 4 0.000000 0.000000 0.000000 0.015961 0.000000 -0.038139
# 5 0.002691 -0.010849 -0.000157 0.000000 0.034038 0.000000
# 6 0.000000 0.000000 0.000000 -0.038139 0.000000 0.019986
#
#
# Mechanical properties :
#
#
# Convention : Reuss Voigt Hill
#
# Bulk Modulus (GPa) = 36.84831 53.77922 45.31376
# Shear Modulus (GPa) = 24.92276 8.56782 16.74529
#
# Velocity S-wave (km/s) = 3.63865 2.13343 2.98256
# Velocity P-wave (km/s) = 6.10148 5.88541 5.99442
#
# Compressibility (1/GPa) = 0.02713829
#
# Stress axis : x y z
#
# Youngs Moduli (GPa) = 77.45261 23.63327 52.24854
#
# Poissons Ratio (x) = 0.23832 0.22765
# Poissons Ratio (y) = 0.78103 0.47920
# Poissons Ratio (z) = 0.33746 0.21676
#
# Static dielectric constant tensor:
#      x y z
#    x 3.703940 0.000000 -0.098240 
#    y 0.000000 3.203290 0.000000 
#    z -0.098240 0.000000 3.354570 
# 
# 
# High freq. dielectric constant tensor:
#      x y z
#    x 1.749880 0.000000 -0.004170 
#    y 0.000000 1.708230 0.000000 
#    z -0.004170 0.000000 1.721530 
# 
# From -- ./inp_files/49358.got.cif
#   From: 2010.06.25/outbox.cif.g09.slc.cpg/sg10_25_cif.got.tgz:49358.got - 2010.06.27 22:07:45.
