data_PCOD8060010
_publ_section_title
;
Structure prediction by ZEFSAII (Michael W. Deem and Ramdas Pophale) SiO2 
 PCOD8060010
Probable space group: P 2/M
;
_chemical_formula_sum "Si O2"
_cell_formula_units_Z 28
_cell_length_a 15.483987
_cell_length_b 9.263170
_cell_length_c 17.946645
_cell_angle_alpha 90.000000
_cell_angle_beta 142.083228
_cell_angle_gamma 90.000000
_cell_volume 1581.827103
_symmetry_space_group_name_H-M "P 2/M"
_symmetry_group_IT_number 10
_symmetry_cell_setting 'monoclinic'
loop_
_space_group_symop_operation_xyz
x,y,z
-x,y,-z
-x,-y,-z
x,-y,z
loop_
_atom_site_type_symbol
_atom_site_label
_atom_site_fract_x
_atom_site_fract_y
_atom_site_fract_z
Si Si1 0.355395 0.168579 0.107863
Si Si2 0.641071 0.171698 0.058167
Si Si3 0.140898 0.830346 0.679396
Si Si4 0.164218 0.169970 0.116222
Si Si5 0.582376 0.337782 0.343248
Si Si6 0.829996 0.168418 0.466351
Si Si7 0.599479 0.335730 0.634596
O O1 0.229069 0.207315 0.078964
O O2 0.496041 0.252169 0.222904
O O3 0.389941 0.000000 0.135489
O O4 0.323378 0.218986 0.001956
O O5 0.765768 0.238318 0.192269
O O6 0.636643 0.000000 0.060455
O O7 0.500000 0.234759 0.000000
O O8 0.212627 0.800386 0.648421
O O9 0.985409 0.766597 0.582253
O O10 0.124236 0.000000 0.677525
O O11 0.257376 0.246986 0.245585
O O12 0.171301 0.000000 0.138301
O O13 0.000000 0.221224 0.000000
O O14 0.605601 0.500000 0.331147
O O15 0.731073 0.258331 0.454150
O O16 0.504045 0.332634 0.367228
O O17 0.818078 0.000000 0.478361
O O18 0.500000 0.271823 0.500000
O O19 0.646088 0.500000 0.646906
#
# Coordination Sequence:
#
# PCOD8060010 Si02
#       7
#     4   4   4   4   4   4   4
#     4   9  17  30  49  69  93 125 159 192 231 284
#     4   9  15  24  43  70  93 117 154 195 228 263
#     4   8  15  27  44  68  96 122 156 196 227 269
#     4   9  18  33  51  75 105 131 158 200 255 307
#     4  10  19  31  49  70  93 120 155 198 240 281
#     4   9  16  29  48  68  92 124 158 192 231 278
#     4   9  19  36  54  72  96 128 170 211 244 292
#
# _framework density 17.701051
#
# number of rings (size 3 to 8) (size 9 to 14) (size 15 to 20)
#    0.000    3.000    0.000    2.143    0.000    3.429 
#    2.571    1.429    0.000    4.714    0.000    0.000 
#    0.000    0.000    0.000    0.000    0.000    0.000 
#
# Total GULP energy -346897.737197 kJ/mol
# GULP energy per Si atom -12389.204900 kJ/mol
# Density = 1.766076 g / cm^3
# Si number density = 17.701051 Si / 1000 Ang^3
#
#
#
# Elastic Constant Matrix: (Units=GPa)
#
#
# Indices 1 2 3 4 5 6 
#
# 1 66.3292 26.4446 49.0308 0.0000 11.8839 0.0000
# 2 26.4446 45.2004 34.4735 0.0000 7.0128 0.0000
# 3 49.0308 34.4735 137.5856 0.0000 -2.8589 0.0000
# 4 0.0000 0.0000 0.0000 12.9773 0.0000 -0.3974
# 5 11.8839 7.0128 -2.8589 0.0000 31.8805 0.0000
# 6 0.0000 0.0000 0.0000 -0.3974 0.0000 17.2162
#
#
#
# Elastic Compliance Matrix: (Units=1/GPa)
#
#
# Indices 1 2 3 4 5 6 
#
# 1 0.024925 -0.007923 -0.007067 0.000000 -0.008182 0.000000
# 2 -0.007923 0.031349 -0.005123 0.000000 -0.004402 0.000000
# 3 -0.007067 -0.005123 0.011169 0.000000 0.004763 0.000000
# 4 0.000000 0.000000 0.000000 0.077112 0.000000 0.001780
# 5 -0.008182 -0.004402 0.004763 0.000000 0.035813 0.000000
# 6 0.000000 0.000000 0.000000 0.001780 0.000000 0.058126
#
#
# Mechanical properties :
#
#
# Convention : Reuss Voigt Hill
#
# Bulk Modulus (GPa) = 36.74126 52.11256 44.42691
# Shear Modulus (GPa) = 17.37359 21.69255 19.53307
#
# Velocity S-wave (km/s) = 3.13629 3.50451 3.32550
# Velocity P-wave (km/s) = 5.82380 6.77346 6.31650
#
# Compressibility (1/GPa) = 0.02721735
#
# Stress axis : x y z
#
# Youngs Moduli (GPa) = 40.11993 31.89887 89.53107
#
# Poissons Ratio (x) = 0.25273 0.63275
# Poissons Ratio (y) = 0.31787 0.45865
# Poissons Ratio (z) = 0.28354 0.16341
#
# Static dielectric constant tensor:
#      x y z
#    x 3.262900 0.000000 0.023140 
#    y 0.000000 3.099320 0.000000 
#    z 0.023140 0.000000 3.706660 
# 
# 
# High freq. dielectric constant tensor:
#      x y z
#    x 1.682880 0.000000 0.005510 
#    y 0.000000 1.646500 0.000000 
#    z 0.005510 0.000000 1.688410 
# 
# From -- ./inp_files/77781.got.cif
#   From: 2010.06.25/outbox.cif.g09.slc.cpg/sg10_39_cif.got.tgz:77781.got - 2010.06.27 22:07:45.
