data_PCOD8060201
_publ_section_title
;
Structure prediction by ZEFSAII (Michael W. Deem and Ramdas Pophale) SiO2 
 PCOD8060201
Probable space group: P 2/M
;
_chemical_formula_sum "Si O2"
_cell_formula_units_Z 28
_cell_length_a 11.849990
_cell_length_b 9.311501
_cell_length_c 14.945005
_cell_angle_alpha 90.000000
_cell_angle_beta 60.781099
_cell_angle_gamma 90.000000
_cell_volume 1439.226411
_symmetry_space_group_name_H-M "P 2/M"
_symmetry_group_IT_number 10
_symmetry_cell_setting 'monoclinic'
loop_
_space_group_symop_operation_xyz
x,y,z
-x,y,-z
-x,-y,-z
x,-y,z
loop_
_atom_site_type_symbol
_atom_site_label
_atom_site_fract_x
_atom_site_fract_y
_atom_site_fract_z
Si Si1 0.879114 0.330936 0.483824
Si Si2 0.240590 0.335364 0.195943
Si Si3 0.634619 0.156732 0.995542
Si Si4 0.991459 0.830128 0.286440
Si Si5 0.616359 0.336542 0.682728
Si Si6 0.371098 0.166563 0.797025
Si Si7 0.083422 0.169727 0.883538
O O1 0.883671 0.500000 0.461761
O O2 0.880730 0.242591 0.390012
O O3 0.744557 0.285079 0.581624
O O4 0.000000 0.287430 0.500000
O O5 0.193939 0.500000 0.208160
O O6 0.356801 0.318542 0.221561
O O7 0.123364 0.236306 0.273852
O O8 0.283142 0.281828 0.081909
O O9 0.612515 0.198988 0.105317
O O10 0.706720 0.000000 0.961426
O O11 0.500000 0.140904 0.000000
O O12 0.979440 0.786764 0.186614
O O13 0.987737 0.000000 0.301199
O O14 0.585069 0.500000 0.670779
O O15 0.490115 0.246365 0.701860
O O16 0.230596 0.229269 0.824481
O O17 0.383152 0.000000 0.767504
O O18 0.091028 0.000000 0.892926
O O19 0.000000 0.232924 0.000000
#
# Coordination Sequence:
#
# PCOD8060201 Si02
#       7
#     4   4   4   4   4   4   4
#     4  10  20  39  60  81 115 156 191 230 289 351
#     4  11  21  34  53  79 114 154 187 223 285 350
#     4  10  19  31  50  81 112 141 184 234 282 335
#     4  11  22  36  59  88 113 143 195 247 284 332
#     4  10  21  36  55  80 113 149 185 228 282 347
#     4  10  20  36  58  81 113 152 188 235 291 342
#     4   9  19  38  61  83 113 154 192 231 286 343
#
# _framework density 19.454893999999999
#
# number of rings (size 3 to 8) (size 9 to 14) (size 15 to 20)
#    0.000    1.857    2.857    1.714    0.000    4.571 
#    0.000    2.143    0.000    7.286    0.000    0.000 
#    0.000    0.000    0.000    0.000    0.000    0.000 
#
# Total GULP energy -347101.799773 kJ/mol
# GULP energy per Si atom -12396.492849 kJ/mol
# Density = 1.941061 g / cm^3
# Si number density = 19.454894 Si / 1000 Ang^3
#
#
#
# Elastic Constant Matrix: (Units=GPa)
#
#
# Indices 1 2 3 4 5 6 
#
# 1 89.5759 33.8768 33.2452 0.0000 -23.3905 0.0000
# 2 33.8768 70.3077 50.7111 0.0000 -9.7284 0.0000
# 3 33.2452 50.7111 103.2187 0.0000 -16.7957 0.0000
# 4 0.0000 0.0000 0.0000 39.9611 0.0000 -3.5473
# 5 -23.3905 -9.7284 -16.7957 0.0000 36.5723 0.0000
# 6 0.0000 0.0000 0.0000 -3.5473 0.0000 25.0899
#
#
#
# Elastic Compliance Matrix: (Units=1/GPa)
#
#
# Indices 1 2 3 4 5 6 
#
# 1 0.015843 -0.005858 -0.000897 0.000000 0.008163 0.000000
# 2 -0.005858 0.024227 -0.010350 0.000000 -0.002055 0.000000
# 3 -0.000897 -0.010350 0.015694 0.000000 0.003880 0.000000
# 4 0.000000 0.000000 0.000000 0.025342 0.000000 0.003583
# 5 0.008163 -0.002055 0.003880 0.000000 0.033799 0.000000
# 6 0.000000 0.000000 0.000000 0.003583 0.000000 0.040363
#
#
# Mechanical properties :
#
#
# Convention : Reuss Voigt Hill
#
# Bulk Modulus (GPa) = 46.39476 55.41872 50.90674
# Shear Modulus (GPa) = 25.42428 30.00927 27.71677
#
# Velocity S-wave (km/s) = 3.61894 3.93173 3.77857
# Velocity P-wave (km/s) = 6.43128 7.01135 6.72757
#
# Compressibility (1/GPa) = 0.02155416
#
# Stress axis : x y z
#
# Youngs Moduli (GPa) = 63.11778 41.27698 63.72062
#
# Poissons Ratio (x) = 0.24178 0.05715
# Poissons Ratio (y) = 0.36972 0.65953
# Poissons Ratio (z) = 0.05661 0.42723
#
# Static dielectric constant tensor:
#      x y z
#    x 3.537660 0.000000 -0.084210 
#    y 0.000000 3.416460 0.000000 
#    z -0.084210 0.000000 3.705670 
# 
# 
# High freq. dielectric constant tensor:
#      x y z
#    x 1.747390 0.000000 -0.012920 
#    y 0.000000 1.737750 0.000000 
#    z -0.012920 0.000000 1.757250 
# 
# From -- ./inp_files/50098.got.cif
#   From: 2010.06.25/outbox.cif.g09.slc.cpg/sg10_26_cif.got.tgz:50098.got - 2010.06.27 22:07:45.
