data_PCOD8060423
_publ_section_title
;
Structure prediction by ZEFSAII (Michael W. Deem and Ramdas Pophale) SiO2 
 PCOD8060423
Probable space group: P 2/M
;
_chemical_formula_sum "Si O2"
_cell_formula_units_Z 28
_cell_length_a 21.469185
_cell_length_b 17.532837
_cell_length_c 18.851199
_cell_angle_alpha 90.000000
_cell_angle_beta 167.732609
_cell_angle_gamma 90.000000
_cell_volume 1507.693634
_symmetry_space_group_name_H-M "P 2/M"
_symmetry_group_IT_number 10
_symmetry_cell_setting 'monoclinic'
loop_
_space_group_symop_operation_xyz
x,y,z
-x,y,-z
-x,-y,-z
x,-y,z
loop_
_atom_site_type_symbol
_atom_site_label
_atom_site_fract_x
_atom_site_fract_y
_atom_site_fract_z
Si Si1 0.125443 0.288199 0.956114
Si Si2 0.877523 0.178078 0.286959
Si Si3 0.749098 0.133649 0.834767
Si Si4 0.159670 0.585660 0.107748
Si Si5 0.502467 0.240476 0.759349
Si Si6 0.377178 0.917678 0.786230
Si Si7 0.616232 0.085162 0.444218
O O1 0.809278 0.276342 0.568095
O O2 0.206782 0.223784 0.104095
O O3 0.105866 0.367371 0.976172
O O4 0.366994 0.286307 0.162657
O O5 0.000000 0.206400 0.500000
O O6 0.124409 0.145971 0.508477
O O7 0.719767 0.247552 0.069210
O O8 0.643901 0.110682 0.035406
O O9 0.500000 0.119452 0.500000
O O10 0.641250 0.091197 0.785027
O O11 0.064107 0.098762 0.163656
O O12 0.500000 0.584995 0.500000
O O13 0.038956 0.500000 0.960235
O O14 0.000000 0.620895 0.000000
O O15 0.447855 0.149963 0.685364
O O16 0.264466 0.000000 0.631420
O O17 0.500000 0.931431 0.000000
O O18 0.605086 0.000000 0.398441
#
# Coordination Sequence:
#
# PCOD8060423 Si02
#       7
#     4   4   4   4   4   4   4
#     4  10  20  35  52  72 104 134 161 195 239 298
#     4  10  19  32  49  68  92 122 165 217 258 303
#     4  10  20  32  48  66  85 119 162 199 239 283
#     4  10  20  34  56  86 114 138 164 195 232 280
#     4  10  21  35  49  69  96 132 169 204 254 305
#     4   9  17  28  43  65  90 117 154 205 266 320
#     4  10  21  33  44  62  88 119 158 207 254 287
#
# _framework density 18.571411000000001
#
# number of rings (size 3 to 8) (size 9 to 14) (size 15 to 20)
#    0.000    2.143    0.000    3.429    0.000    6.857 
#    0.000    0.000    0.000    0.000    0.000    0.000 
#    0.000    3.429    0.000    0.000    0.000    0.000 
#
# Total GULP energy -347062.521532 kJ/mol
# GULP energy per Si atom -12395.090055 kJ/mol
# Density = 1.852914 g / cm^3
# Si number density = 18.571411 Si / 1000 Ang^3
#
#
#
# Elastic Constant Matrix: (Units=GPa)
#
#
# Indices 1 2 3 4 5 6 
#
# 1 44.3783 22.2204 22.8548 0.0000 -5.8637 0.0000
# 2 22.2204 59.9700 16.2056 0.0000 -6.8047 0.0000
# 3 22.8548 16.2056 87.9242 0.0000 1.4376 0.0000
# 4 0.0000 0.0000 0.0000 18.3317 0.0000 1.6868
# 5 -5.8637 -6.8047 1.4376 0.0000 35.8611 0.0000
# 6 0.0000 0.0000 0.0000 1.6868 0.0000 23.0962
#
#
#
# Elastic Compliance Matrix: (Units=1/GPa)
#
#
# Indices 1 2 3 4 5 6 
#
# 1 0.030971 -0.009348 -0.006386 0.000000 0.003546 0.000000
# 2 -0.009348 0.020811 -0.001446 0.000000 0.002478 0.000000
# 3 -0.006386 -0.001446 0.013330 0.000000 -0.001853 0.000000
# 4 0.000000 0.000000 0.000000 0.054919 0.000000 -0.004011
# 5 0.003546 0.002478 -0.001853 0.000000 0.029010 0.000000
# 6 0.000000 0.000000 0.000000 -0.004011 0.000000 0.043590
#
#
# Mechanical properties :
#
#
# Convention : Reuss Voigt Hill
#
# Bulk Modulus (GPa) = 32.51756 34.98157 33.74956
# Shear Modulus (GPa) = 21.07558 24.19058 22.63308
#
# Velocity S-wave (km/s) = 3.37239 3.61303 3.49478
# Velocity P-wave (km/s) = 5.71940 6.02349 5.87341
#
# Compressibility (1/GPa) = 0.03075262
#
# Stress axis : x y z
#
# Youngs Moduli (GPa) = 32.28815 48.05246 75.01767
#
# Poissons Ratio (x) = 0.44917 0.47904
# Poissons Ratio (y) = 0.30182 0.10851
# Poissons Ratio (z) = 0.20618 0.06950
#
# Static dielectric constant tensor:
#      x y z
#    x 2.955650 0.000000 0.099370 
#    y 0.000000 3.239270 0.000000 
#    z 0.099370 0.000000 3.609590 
# 
# 
# High freq. dielectric constant tensor:
#      x y z
#    x 1.714830 0.000000 0.018480 
#    y 0.000000 1.670280 0.000000 
#    z 0.018480 0.000000 1.736810 
# 
# From -- ./inp_files/86635.got.cif
#   From: 2010.06.25/outbox.cif.g09.slc.cpg/sg10_44_cif.got.tgz:86635.got - 2010.06.27 22:07:45.
