data_PCOD8060807
_publ_section_title
;
Structure prediction by ZEFSAII (Michael W. Deem and Ramdas Pophale) SiO2 
 PCOD8060807
Probable space group: P 2/M
;
_chemical_formula_sum "Si O2"
_cell_formula_units_Z 32
_cell_length_a 27.885585
_cell_length_b 9.150634
_cell_length_c 22.215420
_cell_angle_alpha 90.000000
_cell_angle_beta 18.050262
_cell_angle_gamma 90.000000
_cell_volume 1756.461458
_symmetry_space_group_name_H-M "P 2/M"
_symmetry_group_IT_number 10
_symmetry_cell_setting 'monoclinic'
loop_
_space_group_symop_operation_xyz
x,y,z
-x,y,-z
-x,-y,-z
x,-y,z
loop_
_atom_site_type_symbol
_atom_site_label
_atom_site_fract_x
_atom_site_fract_y
_atom_site_fract_z
Si Si1 0.246183 0.831134 0.358980
Si Si2 0.639394 0.330629 0.599639
Si Si3 0.331240 0.834887 0.672771
Si Si4 0.209178 0.670911 0.926713
Si Si5 0.916968 0.169226 0.320700
Si Si6 0.151167 0.670811 0.355460
Si Si7 0.479748 0.668673 0.912421
Si Si8 0.540546 0.331704 0.585548
O O1 0.140554 0.805572 0.543128
O O2 0.156503 0.756868 0.411365
O O3 0.414650 0.760146 0.167705
O O4 0.272148 0.000000 0.313673
O O5 0.688307 0.500000 0.543644
O O6 0.792574 0.233540 0.422527
O O7 0.518621 0.292598 0.796883
O O8 0.557732 0.289513 0.634689
O O9 0.500000 0.829711 0.500000
O O10 0.214900 0.743406 0.853694
O O11 0.338993 0.762817 0.597498
O O12 0.269365 0.000000 0.740780
O O13 0.177304 0.500000 0.956687
O O14 0.365283 0.703062 0.776821
O O15 0.075706 0.743847 0.125119
O O16 0.943254 0.000000 0.274326
O O17 0.141226 0.500000 0.382338
O O18 0.000000 0.723961 0.500000
O O19 0.301064 0.708461 0.136263
O O20 0.513571 0.500000 0.886235
O O21 0.580624 0.500000 0.525317
#
# Coordination Sequence:
#
# PCOD8060807 Si02
#       8
#     4   4   4   4   4   4   4   4
#     4  10  21  36  54  75 101 136 174 210 251 303
#     4   9  18  34  54  75 101 133 169 210 255 302
#     4   9  17  30  49  73 103 138 172 207 250 302
#     4  10  19  32  53  78 103 134 171 212 257 303
#     4  10  21  36  52  74 104 135 170 211 254 303
#     4  10  21  35  53  79 108 135 167 211 257 300
#     4   9  18  34  55  76 100 134 173 209 249 301
#     4   9  18  32  52  78 104 131 168 212 255 303
#
# _framework density 18.218447000000001
#
# number of rings (size 3 to 8) (size 9 to 14) (size 15 to 20)
#    0.000    2.500    0.000    1.875    0.000    7.250 
#    0.000    3.125    0.000    6.750    0.000    0.000 
#    0.000    0.000    0.000    0.000    0.000    0.000 
#
# Total GULP energy -396900.854120 kJ/mol
# GULP energy per Si atom -12403.151691 kJ/mol
# Density = 1.817698 g / cm^3
# Si number density = 18.218447 Si / 1000 Ang^3
#
#
#
# Elastic Constant Matrix: (Units=GPa)
#
#
# Indices 1 2 3 4 5 6 
#
# 1 127.9981 62.6120 58.6611 0.0000 -1.1698 0.0000
# 2 62.6120 105.7709 60.5973 0.0000 -0.9379 0.0000
# 3 58.6611 60.5973 94.5082 0.0000 -4.4960 0.0000
# 4 0.0000 0.0000 0.0000 25.0926 0.0000 7.5028
# 5 -1.1698 -0.9379 -4.4960 0.0000 18.6349 0.0000
# 6 0.0000 0.0000 0.0000 7.5028 0.0000 24.7280
#
#
#
# Elastic Compliance Matrix: (Units=1/GPa)
#
#
# Indices 1 2 3 4 5 6 
#
# 1 0.012165 -0.004527 -0.004676 0.000000 -0.000592 0.000000
# 2 -0.004527 0.016675 -0.007946 0.000000 -0.001362 0.000000
# 3 -0.004676 -0.007946 0.018761 0.000000 0.003833 0.000000
# 4 0.000000 0.000000 0.000000 0.043829 0.000000 -0.013298
# 5 -0.000592 -0.001362 0.003833 0.000000 0.054482 0.000000
# 6 0.000000 0.000000 0.000000 -0.013298 0.000000 0.044475
#
#
# Mechanical properties :
#
#
# Convention : Reuss Voigt Hill
#
# Bulk Modulus (GPa) = 75.18139 76.89089 76.03614
# Shear Modulus (GPa) = 21.82273 23.45155 22.63714
#
# Velocity S-wave (km/s) = 3.46473 3.59171 3.52879
# Velocity P-wave (km/s) = 7.57377 7.71343 7.64392
#
# Compressibility (1/GPa) = 0.01330116
#
# Stress axis : x y z
#
# Youngs Moduli (GPa) = 82.20425 59.97032 53.30250
#
# Poissons Ratio (x) = 0.27151 0.24924
# Poissons Ratio (y) = 0.37217 0.42356
# Poissons Ratio (z) = 0.38438 0.47654
#
# Static dielectric constant tensor:
#      x y z
#    x 3.322290 0.000000 0.123340 
#    y 0.000000 3.444280 0.000000 
#    z 0.123340 0.000000 3.344390 
# 
# 
# High freq. dielectric constant tensor:
#      x y z
#    x 1.698980 0.000000 0.013480 
#    y 0.000000 1.710800 0.000000 
#    z 0.013480 0.000000 1.702280 
# 
# From -- ./inp_files/86767.got.cif
#   From: 2010.06.25/outbox.cif.g09.slc.cpg/sg10_44_cif.got.tgz:86767.got - 2010.06.27 22:07:45.
