data_PCOD8060371
_publ_section_title
;
Structure prediction by ZEFSAII (Michael W. Deem and Ramdas Pophale) SiO2 
 PCOD8060371
Probable space group: P 2/M
;
_chemical_formula_sum "Si O2"
_cell_formula_units_Z 24
_cell_length_a 21.771673
_cell_length_b 13.585160
_cell_length_c 21.917328
_cell_angle_alpha 90.000000
_cell_angle_beta 166.620931
_cell_angle_gamma 90.000000
_cell_volume 1500.007673
_symmetry_space_group_name_H-M "P 2/M"
_symmetry_group_IT_number 10
_symmetry_cell_setting 'monoclinic'
loop_
_space_group_symop_operation_xyz
x,y,z
-x,y,-z
-x,-y,-z
x,-y,z
loop_
_atom_site_type_symbol
_atom_site_label
_atom_site_fract_x
_atom_site_fract_y
_atom_site_fract_z
Si Si1 0.719919 0.500000 0.262871
Si Si2 0.068133 0.116538 0.318648
Si Si3 0.618899 0.116240 0.793738
Si Si4 0.435144 0.708042 0.865967
Si Si5 0.221530 0.000000 0.764353
Si Si6 0.949724 0.191404 0.334221
Si Si7 0.726882 0.117512 0.763750
O O1 0.674045 0.599246 0.257694
O O2 0.000000 0.500000 0.500000
O O3 0.500000 0.500000 0.000000
O O4 0.327275 0.148424 0.531855
O O5 0.070150 0.173793 0.384158
O O6 0.060061 0.000000 0.323352
O O7 0.823018 0.154827 0.041635
O O8 0.683993 0.161225 0.790121
O O9 0.645289 0.000000 0.814571
O O10 0.195698 0.780963 0.615945
O O11 0.500000 0.721536 0.000000
O O12 0.714804 0.727232 0.102050
O O13 0.000000 0.000000 0.500000
O O14 0.197701 0.094761 0.783925
O O15 0.500000 0.000000 0.000000
O O16 0.500000 0.157747 0.500000
O O17 0.723921 0.000000 0.763006
O O18 0.000000 0.157422 0.000000
#
# Coordination Sequence:
#
# PCOD8060371 Si02
#       7
#     2   4   4   4   2   4   4
#     4  10  20  36  56  74  90 108 134 180 236 292
#     4  10  19  32  43  58  84 117 156 184 213 254
#     4   9  17  27  42  56  77 113 148 186 225 256
#     4  11  22  36  54  71  90 110 143 185 240 285
#     4  12  24  34  46  64  90 118 146 184 230 268
#     4  12  22  35  49  68  91 120 151 188 221 275
#     4   9  15  23  36  56  78  99 135 187 235 261
#
# _framework density 15.999919
#
# number of rings (size 3 to 8) (size 9 to 14) (size 15 to 20)
#    0.000    1.667    0.833    7.000    0.000    4.000 
#    0.000    0.000    0.000    0.000    0.000    0.000 
#    0.000    0.000    0.000    0.000    0.000    0.000 
#
# Total GULP energy -297565.199359 kJ/mol
# GULP energy per Si atom -12398.549973 kJ/mol
# Density = 1.596350 g / cm^3
# Si number density = 15.999919 Si / 1000 Ang^3
#
#
#
# Elastic Constant Matrix: (Units=GPa)
#
#
# Indices 1 2 3 4 5 6 
#
# 1 104.0850 29.9481 34.4121 0.0000 3.5958 0.0000
# 2 29.9481 46.6983 22.3085 0.0000 0.8901 0.0000
# 3 34.4121 22.3085 116.8616 0.0000 2.1725 0.0000
# 4 0.0000 0.0000 0.0000 14.8886 0.0000 3.1685
# 5 3.5958 0.8901 2.1725 0.0000 26.8208 0.0000
# 6 0.0000 0.0000 0.0000 3.1685 0.0000 6.4355
#
#
#
# Elastic Compliance Matrix: (Units=1/GPa)
#
#
# Indices 1 2 3 4 5 6 
#
# 1 0.012376 -0.006804 -0.002322 0.000000 -0.001245 0.000000
# 2 -0.006804 0.027308 -0.003214 0.000000 0.000266 0.000000
# 3 -0.002322 -0.003214 0.009862 0.000000 -0.000381 0.000000
# 4 0.000000 0.000000 0.000000 0.075026 0.000000 -0.036939
# 5 -0.001245 0.000266 -0.000381 0.000000 0.037473 0.000000
# 6 0.000000 0.000000 0.000000 -0.036939 0.000000 0.173574
#
#
# Mechanical properties :
#
#
# Convention : Reuss Voigt Hill
#
# Bulk Modulus (GPa) = 40.21798 48.99802 44.60800
# Shear Modulus (GPa) = 13.56527 21.69407 17.62967
#
# Velocity S-wave (km/s) = 2.91492 3.68623 3.32303
# Velocity P-wave (km/s) = 6.04317 6.98628 6.53177
#
# Compressibility (1/GPa) = 0.02486450
#
# Stress axis : x y z
#
# Youngs Moduli (GPa) = 80.80172 36.61951 101.40232
#
# Poissons Ratio (x) = 0.24915 0.23550
# Poissons Ratio (y) = 0.54975 0.32595
# Poissons Ratio (z) = 0.18765 0.11771
#
# Static dielectric constant tensor:
#      x y z
#    x 3.083730 0.000000 0.038560 
#    y 0.000000 4.380730 0.000000 
#    z 0.038560 0.000000 3.241840 
# 
# 
# High freq. dielectric constant tensor:
#      x y z
#    x 1.609750 0.000000 0.006010 
#    y 0.000000 1.550670 0.000000 
#    z 0.006010 0.000000 1.642950 
# 
# From -- ./inp_files/81029.got.cif
#   From: 2010.06.25/outbox.cif.g09.slc.cpg/sg10_41_cif.got.tgz:81029.got - 2010.06.27 22:07:45.
