data_PCOD8060359
_publ_section_title
;
Structure prediction by ZEFSAII (Michael W. Deem and Ramdas Pophale) SiO2 
 PCOD8060359
Probable space group: P 2/M
;
_chemical_formula_sum "Si O2"
_cell_formula_units_Z 32
_cell_length_a 14.152269
_cell_length_b 19.184854
_cell_length_c 9.566677
_cell_angle_alpha 90.000000
_cell_angle_beta 42.300062
_cell_angle_gamma 90.000000
_cell_volume 1748.112347
_symmetry_space_group_name_H-M "P 2/M"
_symmetry_group_IT_number 10
_symmetry_cell_setting 'monoclinic'
loop_
_space_group_symop_operation_xyz
x,y,z
-x,y,-z
-x,-y,-z
x,-y,z
loop_
_atom_site_type_symbol
_atom_site_label
_atom_site_fract_x
_atom_site_fract_y
_atom_site_fract_z
Si Si1 0.846924 0.819901 0.404744
Si Si2 0.470055 0.676859 0.885124
Si Si3 0.019915 0.577847 0.813488
Si Si4 0.828789 0.170126 0.933157
Si Si5 0.748371 0.680123 0.404655
Si Si6 0.166590 0.077847 0.813510
Si Si7 0.644778 0.176776 0.885193
Si Si8 0.237967 0.329839 0.933337
O O1 0.843363 0.750011 0.313306
O O2 0.786607 0.884198 0.380074
O O3 0.746421 0.810060 0.644899
O O4 0.005505 0.836148 0.280093
O O5 0.608685 0.689926 0.644786
O O6 0.359484 0.639745 0.902472
O O7 0.500000 0.635596 0.000000
O O8 0.404998 0.750075 0.999773
O O9 0.022171 0.500000 0.746956
O O10 0.166679 0.615819 0.619965
O O11 0.000000 0.575294 0.000000
O O12 0.894664 0.622347 0.883617
O O13 0.738128 0.139677 0.902330
O O14 0.778326 0.122364 0.116323
O O15 0.794967 0.249993 0.999794
O O16 0.714486 0.663921 0.279925
O O17 0.230863 0.000000 0.747022
O O18 0.000000 0.075292 0.000000
O O19 0.500000 0.135477 0.000000
#
# Coordination Sequence:
#
# PCOD8060359 Si02
#       8
#     4   4   4   4   4   4   4   4
#     4  11  18  32  54  83 106 138 180 226 266 320
#     4  10  20  34  49  79 110 141 182 226 268 303
#     4   9  19  34  55  83 115 139 172 225 279 323
#     4  10  19  31  55  82 105 137 180 226 268 317
#     4  11  18  32  54  83 106 138 180 226 266 320
#     4   9  19  34  55  83 115 139 172 225 279 323
#     4  10  20  34  49  79 110 141 182 226 268 303
#     4  10  19  31  55  82 105 137 180 226 268 317
#
# _framework density 18.305458999999999
#
# number of rings (size 3 to 8) (size 9 to 14) (size 15 to 20)
#    0.000    2.000    5.000    0.750    0.000    0.000 
#    0.000    2.500    0.000   10.500    0.000    0.000 
#    0.000    0.000    0.000    0.000    0.000    0.000 
#
# Total GULP energy -396573.639260 kJ/mol
# GULP energy per Si atom -12392.926227 kJ/mol
# Density = 1.826379 g / cm^3
# Si number density = 18.305459 Si / 1000 Ang^3
#
#
#
# Elastic Constant Matrix: (Units=GPa)
#
#
# Indices 1 2 3 4 5 6 
#
# 1 167.7504 41.1714 50.5211 0.0000 3.6931 0.0000
# 2 41.1714 106.1874 23.2800 0.0000 0.8087 0.0000
# 3 50.5211 23.2800 103.0059 0.0000 -0.7317 0.0000
# 4 0.0000 0.0000 0.0000 9.6637 0.0000 -0.4483
# 5 3.6931 0.8087 -0.7317 0.0000 19.7909 0.0000
# 6 0.0000 0.0000 0.0000 -0.4483 0.0000 0.2426
#
#
#
# Elastic Compliance Matrix: (Units=1/GPa)
#
#
# Indices 1 2 3 4 5 6 
#
# 1 0.007492 -0.002195 -0.003188 0.000000 -0.001426 0.000000
# 2 -0.002195 0.010556 -0.001310 0.000000 -0.000070 0.000000
# 3 -0.003188 -0.001310 0.011576 0.000000 0.001076 0.000000
# 4 0.000000 0.000000 0.000000 0.113185 0.000000 0.209191
# 5 -0.001426 -0.000070 0.001076 0.000000 0.050837 0.000000
# 6 0.000000 0.000000 0.000000 0.209191 0.000000 4.508972
#
#
# Mechanical properties :
#
#
# Convention : Reuss Voigt Hill
#
# Bulk Modulus (GPa) = 61.58688 67.43207 64.50947
# Shear Modulus (GPa) = 1.05900 23.40420 12.23160
#
# Velocity S-wave (km/s) = 0.76143 3.57954 2.58775
# Velocity P-wave (km/s) = 5.87282 7.34856 6.65174
#
# Compressibility (1/GPa) = 0.01623722
#
# Stress axis : x y z
#
# Youngs Moduli (GPa) = 133.48333 94.73329 86.38798
#
# Poissons Ratio (x) = 0.20792 0.27545
# Poissons Ratio (y) = 0.29297 0.11315
# Poissons Ratio (z) = 0.42561 0.12408
#
# Static dielectric constant tensor:
#      x y z
#    x 4.271830 0.000000 0.052020 
#    y 0.000000 3.322890 0.000000 
#    z 0.052020 0.000000 3.179440 
# 
# 
# High freq. dielectric constant tensor:
#      x y z
#    x 1.723170 0.000000 0.001080 
#    y 0.000000 1.672550 0.000000 
#    z 0.001080 0.000000 1.700580 
# 
# From -- ./inp_files/30295.got.cif
#   From: 2010.06.25/outbox.cif.g09.slc.cpg/sg10_16_cif.got.tgz:30295.got - 2010.06.27 22:07:45.
