data_PCOD8060658
_publ_section_title
;
Structure prediction by ZEFSAII (Michael W. Deem and Ramdas Pophale) SiO2 
 PCOD8060658
Probable space group: P 2/M
;
_chemical_formula_sum "Si O2"
_cell_formula_units_Z 24
_cell_length_a 21.762635
_cell_length_b 9.169143
_cell_length_c 9.505649
_cell_angle_alpha 90.000000
_cell_angle_beta 135.079488
_cell_angle_gamma 90.000000
_cell_volume 1339.379522
_symmetry_space_group_name_H-M "P 2/M"
_symmetry_group_IT_number 10
_symmetry_cell_setting 'monoclinic'
loop_
_space_group_symop_operation_xyz
x,y,z
-x,y,-z
-x,-y,-z
x,-y,z
loop_
_atom_site_type_symbol
_atom_site_label
_atom_site_fract_x
_atom_site_fract_y
_atom_site_fract_z
Si Si1 0.777653 0.333224 0.389922
Si Si2 0.718965 0.168505 0.553761
Si Si3 0.366709 0.328939 0.069614
Si Si4 0.760872 0.170711 0.938564
Si Si5 0.523550 0.829416 0.198182
Si Si6 0.899665 0.670406 0.339151
O O1 0.780632 0.500000 0.440098
O O2 0.780239 0.242217 0.536958
O O3 0.861178 0.292257 0.430434
O O4 0.690554 0.297649 0.161531
O O5 0.760542 0.199600 0.772026
O O6 0.620445 0.228348 0.386726
O O7 0.716623 0.000000 0.511881
O O8 0.374023 0.500000 0.113355
O O9 0.322170 0.251439 0.130143
O O10 0.461432 0.260849 0.201104
O O11 0.754938 0.000000 0.965067
O O12 0.850921 0.235864 0.142098
O O13 0.512648 0.000000 0.214855
O O14 0.500000 0.793955 0.000000
O O15 0.884839 0.500000 0.280772
O O16 0.000000 0.714845 0.500000
#
# Coordination Sequence:
#
# PCOD8060658 Si02
#       6
#     4   4   4   4   4   4
#     4   9  18  32  53  78 102 134 173 213 259 312
#     4  10  21  35  51  76 108 142 176 218 265 309
#     4  10  20  34  52  76 105 140 183 224 263 307
#     4  10  21  36  54  77 108 140 174 215 264 316
#     4  10  19  32  52  75 103 142 186 223 261 304
#     4   9  19  38  61  83 106 133 170 214 260 317
#
# _framework density 17.918744
#
# number of rings (size 3 to 8) (size 9 to 14) (size 15 to 20)
#    0.000    2.333    1.667    2.000    0.000    6.000 
#    0.000    4.167    0.000    5.000    0.000    0.000 
#    0.000    0.000    0.000    0.000    0.000    0.000 
#
# Total GULP energy -297666.272900 kJ/mol
# GULP energy per Si atom -12402.761371 kJ/mol
# Density = 1.787796 g / cm^3
# Si number density = 17.918744 Si / 1000 Ang^3
#
#
#
# Elastic Constant Matrix: (Units=GPa)
#
#
# Indices 1 2 3 4 5 6 
#
# 1 133.3368 59.5564 66.2467 0.0000 4.9033 0.0000
# 2 59.5564 77.8287 48.9967 0.0000 -9.0682 0.0000
# 3 66.2467 48.9967 83.8086 0.0000 -2.5710 0.0000
# 4 0.0000 0.0000 0.0000 21.2291 0.0000 -3.4472
# 5 4.9033 -9.0682 -2.5710 0.0000 26.7633 0.0000
# 6 0.0000 0.0000 0.0000 -3.4472 0.0000 31.3925
#
#
#
# Elastic Compliance Matrix: (Units=1/GPa)
#
#
# Indices 1 2 3 4 5 6 
#
# 1 0.014679 -0.007113 -0.007624 0.000000 -0.005832 0.000000
# 2 -0.007113 0.024705 -0.008550 0.000000 0.008853 0.000000
# 3 -0.007624 -0.008550 0.022978 0.000000 0.000707 0.000000
# 4 0.000000 0.000000 0.000000 0.047960 0.000000 0.005266
# 5 -0.005832 0.008853 0.000707 0.000000 0.041500 0.000000
# 6 0.000000 0.000000 0.000000 0.005266 0.000000 0.032433
#
#
# Mechanical properties :
#
#
# Convention : Reuss Voigt Hill
#
# Bulk Modulus (GPa) = 63.32901 71.61931 67.47416
# Shear Modulus (GPa) = 21.17823 23.88860 22.53342
#
# Velocity S-wave (km/s) = 3.44161 3.65521 3.55002
# Velocity P-wave (km/s) = 7.15625 7.60722 7.38518
#
# Compressibility (1/GPa) = 0.01579055
#
# Stress axis : x y z
#
# Youngs Moduli (GPa) = 68.12476 40.47706 43.51984
#
# Poissons Ratio (x) = 0.28790 0.33178
# Poissons Ratio (y) = 0.48455 0.37207
# Poissons Ratio (z) = 0.51936 0.34606
#
# Static dielectric constant tensor:
#      x y z
#    x 3.305230 0.000000 0.024170 
#    y 0.000000 3.285170 0.000000 
#    z 0.024170 0.000000 3.133720 
# 
# 
# High freq. dielectric constant tensor:
#      x y z
#    x 1.695790 0.000000 -0.003670 
#    y 0.000000 1.695420 0.000000 
#    z -0.003670 0.000000 1.675980 
# 
# From -- ./inp_files/27197.got.cif
#   From: 2010.06.25/outbox.cif.g09.slc.cpg/sg10_14_cif.got.tgz:27197.got - 2010.06.27 22:07:45.
