data_PCOD8060787
_publ_section_title
;
Structure prediction by ZEFSAII (Michael W. Deem and Ramdas Pophale) SiO2 
 PCOD8060787
Probable space group: P 2/M
;
_chemical_formula_sum "Si O2"
_cell_formula_units_Z 32
_cell_length_a 14.876648
_cell_length_b 9.076910
_cell_length_c 14.109465
_cell_angle_alpha 90.000000
_cell_angle_beta 75.277504
_cell_angle_gamma 90.000000
_cell_volume 1842.704101
_symmetry_space_group_name_H-M "P 2/M"
_symmetry_group_IT_number 10
_symmetry_cell_setting 'monoclinic'
loop_
_space_group_symop_operation_xyz
x,y,z
-x,y,-z
-x,-y,-z
x,-y,z
loop_
_atom_site_type_symbol
_atom_site_label
_atom_site_fract_x
_atom_site_fract_y
_atom_site_fract_z
Si Si1 0.233155 0.174582 0.641615
Si Si2 0.338700 0.330093 0.774754
Si Si3 0.936730 0.671539 0.223275
Si Si4 0.450564 0.328205 0.265129
Si Si5 0.292488 0.165693 0.227591
Si Si6 0.125195 0.174525 0.144281
Si Si7 0.165387 0.666963 0.943732
Si Si8 0.676185 0.165678 0.575451
O O1 0.310323 0.225570 0.696010
O O2 0.135400 0.253348 0.685977
O O3 0.266976 0.227346 0.528930
O O4 0.219387 0.000000 0.652034
O O5 0.331438 0.500000 0.742655
O O6 0.442014 0.288108 0.780126
O O7 0.270911 0.304513 0.882034
O O8 0.943094 0.500000 0.246551
O O9 0.904569 0.695831 0.123959
O O10 0.035532 0.747331 0.211949
O O11 0.433228 0.500000 0.270688
O O12 0.388891 0.258919 0.195668
O O13 0.415821 0.262784 0.376124
O O14 0.212714 0.232331 0.182171
O O15 0.258649 0.168519 0.347244
O O16 0.315260 0.000000 0.188488
O O17 0.112571 0.000000 0.155573
O O18 0.140470 0.218221 0.031554
O O19 0.153178 0.500000 0.985004
O O20 0.642316 0.000000 0.562105
#
# Coordination Sequence:
#
# PCOD8060787 Si02
#       8
#     4   4   4   4   4   4   4   4
#     4  10  19  32  53  77 101 134 171 204 244 297
#     4   9  19  34  50  74 108 137 162 203 256 298
#     4  10  21  36  53  75 106 135 159 201 256 301
#     4   9  17  31  53  75  98 133 174 207 242 293
#     4   8  18  36  51  69 101 134 165 209 254 290
#     4  11  21  34  55  77  97 129 171 210 250 297
#     4   9  19  35  52  72 103 136 161 197 253 304
#     4   8  17  34  51  70 103 137 165 204 252 292
#
# _framework density 17.365781999999999
#
# number of rings (size 3 to 8) (size 9 to 14) (size 15 to 20)
#    0.750    2.000    0.000    2.250    0.000    7.500 
#    0.000    3.750    0.000    7.500    0.000    0.000 
#    0.000    0.000    0.000    0.000    0.000    0.000 
#
# Total GULP energy -396623.589997 kJ/mol
# GULP energy per Si atom -12394.487187 kJ/mol
# Density = 1.732626 g / cm^3
# Si number density = 17.365782 Si / 1000 Ang^3
#
#
#
# Elastic Constant Matrix: (Units=GPa)
#
#
# Indices 1 2 3 4 5 6 
#
# 1 104.3757 41.2755 19.5939 0.0000 -9.1134 0.0000
# 2 41.2755 71.5424 16.2131 0.0000 -6.5288 0.0000
# 3 19.5939 16.2131 25.7696 0.0000 -8.1581 0.0000
# 4 0.0000 0.0000 0.0000 23.0131 0.0000 -2.5411
# 5 -9.1134 -6.5288 -8.1581 0.0000 17.3032 0.0000
# 6 0.0000 0.0000 0.0000 -2.5411 0.0000 29.2222
#
#
#
# Elastic Compliance Matrix: (Units=1/GPa)
#
#
# Indices 1 2 3 4 5 6 
#
# 1 0.013250 -0.006207 -0.005527 0.000000 0.002031 0.000000
# 2 -0.006207 0.019245 -0.007199 0.000000 0.000598 0.000000
# 3 -0.005527 -0.007199 0.053783 0.000000 0.019730 0.000000
# 4 0.000000 0.000000 0.000000 0.043875 0.000000 0.003815
# 5 0.002031 0.000598 0.019730 0.000000 0.068391 0.000000
# 6 0.000000 0.000000 0.000000 0.003815 0.000000 0.034552
#
#
# Mechanical properties :
#
#
# Convention : Reuss Voigt Hill
#
# Bulk Modulus (GPa) = 20.65580 39.53917 30.09749
# Shear Modulus (GPa) = 17.41563 22.21472 19.81517
#
# Velocity S-wave (km/s) = 3.17025 3.58050 3.38160
# Velocity P-wave (km/s) = 5.03200 6.31753 5.71105
#
# Compressibility (1/GPa) = 0.04841255
#
# Stress axis : x y z
#
# Youngs Moduli (GPa) = 75.47156 51.96246 18.59316
#
# Poissons Ratio (x) = 0.32251 0.10276
# Poissons Ratio (y) = 0.46842 0.13386
# Poissons Ratio (z) = 0.41711 0.37410
#
# Static dielectric constant tensor:
#      x y z
#    x 3.247110 0.000000 -0.063670 
#    y 0.000000 3.232270 0.000000 
#    z -0.063670 0.000000 3.070170 
# 
# 
# High freq. dielectric constant tensor:
#      x y z
#    x 1.665770 0.000000 -0.008260 
#    y 0.000000 1.677390 0.000000 
#    z -0.008260 0.000000 1.651120 
# 
# From -- ./inp_files/66022.got.cif
#   From: 2010.06.25/outbox.cif.g09.slc.cpg/sg10_34_cif.got.tgz:66022.got - 2010.06.27 22:07:45.
