data_PCOD8060756
_publ_section_title
;
Structure prediction by ZEFSAII (Michael W. Deem and Ramdas Pophale) SiO2 
 PCOD8060756
Probable space group: P 2/M
;
_chemical_formula_sum "Si O2"
_cell_formula_units_Z 28
_cell_length_a 29.737644
_cell_length_b 8.898999
_cell_length_c 10.155552
_cell_angle_alpha 90.000000
_cell_angle_beta 33.813172
_cell_angle_gamma 90.000000
_cell_volume 1495.567409
_symmetry_space_group_name_H-M "P 2/M"
_symmetry_group_IT_number 10
_symmetry_cell_setting 'monoclinic'
loop_
_space_group_symop_operation_xyz
x,y,z
-x,y,-z
-x,-y,-z
x,-y,z
loop_
_atom_site_type_symbol
_atom_site_label
_atom_site_fract_x
_atom_site_fract_y
_atom_site_fract_z
Si Si1 0.806549 0.825295 0.962048
Si Si2 0.087551 0.827546 0.045881
Si Si3 0.485993 0.334348 0.879276
Si Si4 0.169707 0.676276 0.603177
Si Si5 0.901520 0.826790 0.472012
Si Si6 0.337786 0.677298 0.558078
Si Si7 0.327465 0.176945 0.300521
O O1 0.843804 0.778904 0.731967
O O2 0.784024 0.000000 0.020952
O O3 0.870873 0.784716 0.918086
O O4 0.724925 0.729721 0.178740
O O5 0.121713 0.720189 0.850718
O O6 0.105802 0.000000 0.961799
O O7 0.992911 0.799768 0.295330
O O8 0.462822 0.500000 0.882090
O O9 0.571861 0.279630 0.609953
O O10 0.500000 0.342546 0.000000
O O11 0.412856 0.221549 0.025276
O O12 0.184931 0.500000 0.565917
O O13 0.116474 0.722266 0.607951
O O14 0.255885 0.759375 0.384537
O O15 0.887814 0.000000 0.465494
O O16 0.332090 0.500000 0.546421
O O17 0.316702 0.758882 0.473029
O O18 0.321339 0.000000 0.322911
#
# Coordination Sequence:
#
# PCOD8060756 Si02
#       7
#     4   4   4   4   4   4   4
#     4  10  20  35  58  84 111 146 186 227 271 325
#     4  10  20  37  60  83 108 142 185 232 277 325
#     4   8  16  30  48  75 111 144 174 215 270 324
#     4  12  24  37  55  80 112 148 185 228 278 329
#     4  10  22  39  57  80 111 147 187 229 275 326
#     4  10  19  32  52  80 114 147 177 218 271 325
#     4  11  20  32  53  80 108 141 183 228 273 319
#
# _framework density 18.721990999999999
#
# number of rings (size 3 to 8) (size 9 to 14) (size 15 to 20)
#    0.000    1.857    1.429    4.714    0.000    7.714 
#    0.000    0.000    0.000    3.429    0.000    6.000 
#    0.000    0.000    0.000    0.000    0.000    0.000 
#
# Total GULP energy -347246.693422 kJ/mol
# GULP energy per Si atom -12401.667622 kJ/mol
# Density = 1.867938 g / cm^3
# Si number density = 18.721991 Si / 1000 Ang^3
#
#
#
# Elastic Constant Matrix: (Units=GPa)
#
#
# Indices 1 2 3 4 5 6 
#
# 1 32.6212 23.0192 27.3529 0.0000 -1.1643 0.0000
# 2 23.0192 100.8161 46.6271 0.0000 -5.7160 0.0000
# 3 27.3529 46.6271 87.8785 0.0000 -26.1946 0.0000
# 4 0.0000 0.0000 0.0000 25.8219 0.0000 -9.7147
# 5 -1.1643 -5.7160 -26.1946 0.0000 28.1868 0.0000
# 6 0.0000 0.0000 0.0000 -9.7147 0.0000 14.4498
#
#
#
# Elastic Compliance Matrix: (Units=1/GPa)
#
#
# Indices 1 2 3 4 5 6 
#
# 1 0.047027 -0.003682 -0.017050 0.000000 -0.014650 0.000000
# 2 -0.003682 0.014026 -0.007598 0.000000 -0.004369 0.000000
# 3 -0.017050 -0.007598 0.027730 0.000000 0.023525 0.000000
# 4 0.000000 0.000000 0.000000 0.051839 0.000000 0.034851
# 5 -0.014650 -0.004369 0.023525 0.000000 0.055849 0.000000
# 6 0.000000 0.000000 0.000000 0.034851 0.000000 0.092636
#
#
# Mechanical properties :
#
#
# Convention : Reuss Voigt Hill
#
# Bulk Modulus (GPa) = 31.13169 46.14600 38.63885
# Shear Modulus (GPa) = 14.02615 21.97949 18.00282
#
# Velocity S-wave (km/s) = 2.74009 3.43008 3.10431
# Velocity P-wave (km/s) = 5.16481 6.35521 5.79068
#
# Compressibility (1/GPa) = 0.03212161
#
# Stress axis : x y z
#
# Youngs Moduli (GPa) = 21.26421 71.29460 36.06166
#
# Poissons Ratio (x) = 0.26254 0.61487
# Poissons Ratio (y) = 0.07831 0.27400
# Poissons Ratio (z) = 0.36256 0.54171
#
# Static dielectric constant tensor:
#      x y z
#    x 3.321370 0.000000 -0.344810 
#    y 0.000000 3.409750 0.000000 
#    z -0.344810 0.000000 3.669270 
# 
# 
# High freq. dielectric constant tensor:
#      x y z
#    x 1.704900 0.000000 -0.027100 
#    y 0.000000 1.724560 0.000000 
#    z -0.027100 0.000000 1.731120 
# 
# From -- ./inp_files/37070.got.cif
#   From: 2010.06.25/outbox.cif.g09.slc.cpg/sg10_19_cif.got.tgz:37070.got - 2010.06.27 22:07:45.
