data_PCOD8060654
_publ_section_title
;
Structure prediction by ZEFSAII (Michael W. Deem and Ramdas Pophale) SiO2 
 PCOD8060654
Probable space group: P 2/M
;
_chemical_formula_sum "Si O2"
_cell_formula_units_Z 28
_cell_length_a 29.551288
_cell_length_b 9.620383
_cell_length_c 8.659165
_cell_angle_alpha 90.000000
_cell_angle_beta 36.543982
_cell_angle_gamma 90.000000
_cell_volume 1465.826477
_symmetry_space_group_name_H-M "P 2/M"
_symmetry_group_IT_number 10
_symmetry_cell_setting 'monoclinic'
loop_
_space_group_symop_operation_xyz
x,y,z
-x,y,-z
-x,-y,-z
x,-y,z
loop_
_atom_site_type_symbol
_atom_site_label
_atom_site_fract_x
_atom_site_fract_y
_atom_site_fract_z
Si Si1 0.473091 0.151747 0.747786
Si Si2 0.605202 0.341486 0.458368
Si Si3 0.216398 0.348413 0.599123
Si Si4 0.084251 0.660608 0.738845
Si Si5 0.268488 0.162977 0.728289
Si Si6 0.816115 0.846986 0.736473
Si Si7 0.322431 0.736779 0.053584
O O1 0.500000 0.141024 0.500000
O O2 0.521970 0.270868 0.698737
O O3 0.485027 0.000000 0.794418
O O4 0.383787 0.186503 0.993818
O O5 0.599643 0.500000 0.533828
O O6 0.657980 0.251046 0.425370
O O7 0.635808 0.346629 0.198412
O O8 0.216078 0.500000 0.683441
O O9 0.133018 0.315050 0.760102
O O10 0.237731 0.222650 0.652128
O O11 0.274981 0.363543 0.295546
O O12 0.081413 0.500000 0.698903
O O13 0.121486 0.738522 0.491690
O O14 0.000000 0.719355 0.000000
O O15 0.289783 0.000000 0.652869
O O16 0.201721 0.184725 0.035876
O O17 0.736558 0.844723 0.860851
O O18 0.850971 0.000000 0.621155
#
# Coordination Sequence:
#
# PCOD8060654 Si02
#       7
#     4   4   4   4   4   4   4
#     4   9  17  29  47  72 102 135 170 211 259 308
#     4  10  19  32  52  75 101 134 172 216 261 303
#     4  10  20  34  54  78 103 132 168 209 251 299
#     4   9  19  36  57  82 109 134 163 202 249 301
#     4  10  21  36  52  73 104 138 173 210 251 303
#     4   9  18  33  54  78 102 134 174 211 248 295
#     4   9  18  31  52  77 102 130 171 216 259 305
#
# _framework density 19.101852000000001
#
# number of rings (size 3 to 8) (size 9 to 14) (size 15 to 20)
#    0.000    2.571    0.000    1.714    0.000   13.714 
#    0.000    1.429    0.000    7.714    0.000    0.000 
#    0.000    0.000    0.000    0.000    0.000    0.000 
#
# Total GULP energy -347087.572628 kJ/mol
# GULP energy per Si atom -12395.984737 kJ/mol
# Density = 1.905838 g / cm^3
# Si number density = 19.101852 Si / 1000 Ang^3
#
#
#
# Elastic Constant Matrix: (Units=GPa)
#
#
# Indices 1 2 3 4 5 6 
#
# 1 82.4331 44.9709 39.5725 0.0000 -10.8968 0.0000
# 2 44.9709 121.5216 27.5841 0.0000 -6.8787 0.0000
# 3 39.5725 27.5841 70.9352 0.0000 -22.0598 0.0000
# 4 0.0000 0.0000 0.0000 19.7846 0.0000 -2.5806
# 5 -10.8968 -6.8787 -22.0598 0.0000 29.4052 0.0000
# 6 0.0000 0.0000 0.0000 -2.5806 0.0000 23.7642
#
#
#
# Elastic Compliance Matrix: (Units=1/GPa)
#
#
# Indices 1 2 3 4 5 6 
#
# 1 0.019078 -0.005081 -0.008919 0.000000 -0.000810 0.000000
# 2 -0.005081 0.010390 -0.001350 0.000000 -0.000465 0.000000
# 3 -0.008919 -0.001350 0.024093 0.000000 0.014453 0.000000
# 4 0.000000 0.000000 0.000000 0.051271 0.000000 0.005568
# 5 -0.000810 -0.000465 0.014453 0.000000 0.044442 0.000000
# 6 0.000000 0.000000 0.000000 0.005568 0.000000 0.042685
#
#
# Mechanical properties :
#
#
# Convention : Reuss Voigt Hill
#
# Bulk Modulus (GPa) = 43.74558 55.46054 49.60306
# Shear Modulus (GPa) = 21.71301 25.44163 23.57732
#
# Velocity S-wave (km/s) = 3.37515 3.65347 3.51706
# Velocity P-wave (km/s) = 6.17574 6.84794 6.52051
#
# Compressibility (1/GPa) = 0.02285945
#
# Stress axis : x y z
#
# Youngs Moduli (GPa) = 52.41769 96.25072 41.50646
#
# Poissons Ratio (x) = 0.48908 0.37018
# Poissons Ratio (y) = 0.26635 0.05604
# Poissons Ratio (z) = 0.46749 0.12995
#
# Static dielectric constant tensor:
#      x y z
#    x 3.367280 0.000000 -0.174350 
#    y 0.000000 3.487720 0.000000 
#    z -0.174350 0.000000 3.413540 
# 
# 
# High freq. dielectric constant tensor:
#      x y z
#    x 1.723630 0.000000 -0.009160 
#    y 0.000000 1.748110 0.000000 
#    z -0.009160 0.000000 1.725050 
# 
# From -- ./inp_files/37936.got.cif
#   From: 2010.06.25/outbox.cif.g09.slc.cpg/sg10_19_cif.got.tgz:37936.got - 2010.06.27 22:07:45.
