data_PCOD8060121
_publ_section_title
;
Structure prediction by ZEFSAII (Michael W. Deem and Ramdas Pophale) SiO2 
 PCOD8060121
Probable space group: P 2/M
;
_chemical_formula_sum "Si O2"
_cell_formula_units_Z 32
_cell_length_a 20.151772
_cell_length_b 9.255527
_cell_length_c 26.032751
_cell_angle_alpha 90.000000
_cell_angle_beta 21.372606
_cell_angle_gamma 90.000000
_cell_volume 1769.499620
_symmetry_space_group_name_H-M "P 2/M"
_symmetry_group_IT_number 10
_symmetry_cell_setting 'monoclinic'
loop_
_space_group_symop_operation_xyz
x,y,z
-x,y,-z
-x,-y,-z
x,-y,z
loop_
_atom_site_type_symbol
_atom_site_label
_atom_site_fract_x
_atom_site_fract_y
_atom_site_fract_z
Si Si1 0.701267 0.331145 0.337740
Si Si2 0.033471 0.170795 0.143341
Si Si3 0.917497 0.172356 0.679556
Si Si4 0.792284 0.330919 0.156856
Si Si5 0.628780 0.827699 0.805238
Si Si6 0.704725 0.171902 0.637045
Si Si7 0.344418 0.170697 0.839732
Si Si8 0.221134 0.828087 0.111887
O O1 0.500000 0.286900 0.500000
O O2 0.738912 0.500000 0.318173
O O3 0.726172 0.285494 0.260798
O O4 0.840985 0.245806 0.272819
O O5 0.108890 0.226885 0.143578
O O6 0.004908 0.000000 0.164274
O O7 0.174981 0.217531 0.997239
O O8 0.764181 0.232144 0.751228
O O9 0.875373 0.230248 0.767027
O O10 0.113802 0.232846 0.520825
O O11 0.916922 0.000000 0.679002
O O12 0.768726 0.500000 0.163503
O O13 0.667737 0.245725 0.206583
O O14 0.000000 0.281774 0.000000
O O15 0.696918 0.770206 0.700958
O O16 0.626817 0.000000 0.807054
O O17 0.426680 0.767371 0.961724
O O18 0.528987 0.227559 0.732950
O O19 0.705899 0.000000 0.636746
O O20 0.348702 0.000000 0.828661
O O21 0.228216 0.000000 0.106352
#
# Coordination Sequence:
#
# PCOD8060121 Si02
#       8
#     4   4   4   4   4   4   4   4
#     4  10  22  39  56  75 100 127 157 199 248 292
#     4  10  19  32  51  73 101 133 162 199 245 292
#     4   9  16  23  36  59  89 125 162 198 235 281
#     4  10  20  35  55  76  96 123 161 203 240 283
#     4   9  14  23  38  56  85 126 164 194 232 284
#     4   9  16  26  38  59  91 124 158 196 240 282
#     4  10  19  31  50  74 101 132 163 201 246 290
#     4   9  16  26  39  60  91 125 159 195 238 283
#
# _framework density 18.084208
#
# number of rings (size 3 to 8) (size 9 to 14) (size 15 to 20)
#    0.000    2.500    2.500    0.750    0.000    5.000 
#    0.000    1.250    0.000    0.000    0.000    0.000 
#    0.000    6.000    0.000    0.000    0.000    0.000 
#
# Total GULP energy -396815.979054 kJ/mol
# GULP energy per Si atom -12400.499345 kJ/mol
# Density = 1.804305 g / cm^3
# Si number density = 18.084208 Si / 1000 Ang^3
#
#
#
# Elastic Constant Matrix: (Units=GPa)
#
#
# Indices 1 2 3 4 5 6 
#
# 1 159.4445 27.0368 82.9501 0.0000 -5.2888 0.0000
# 2 27.0368 13.8674 21.9448 0.0000 -4.5860 0.0000
# 3 82.9501 21.9448 161.5213 0.0000 1.0393 0.0000
# 4 0.0000 0.0000 0.0000 7.1436 0.0000 4.2795
# 5 -5.2888 -4.5860 1.0393 0.0000 36.9468 0.0000
# 6 0.0000 0.0000 0.0000 4.2795 0.0000 0.5905
#
#
#
# Elastic Compliance Matrix: (Units=1/GPa)
#
#
# Indices 1 2 3 4 5 6 
#
# 1 0.010641 -0.015548 -0.003350 0.000000 -0.000312 0.000000
# 2 -0.015548 0.119984 -0.008400 0.000000 0.012904 0.000000
# 3 -0.003350 -0.008400 0.009064 0.000000 -0.001777 0.000000
# 4 0.000000 0.000000 0.000000 -0.041896 0.000000 0.303609
# 5 -0.000312 0.012904 -0.001777 0.000000 0.028673 0.000000
# 6 0.000000 0.000000 0.000000 0.303609 0.000000 -0.506806
#
#
# Mechanical properties :
#
#
# Convention : Reuss Voigt Hill
#
# Bulk Modulus (GPa) = 11.75174 66.52184 39.13679
# Shear Modulus (GPa) = -16.81353 22.46295 2.82471
#
# Velocity S-wave (km/s) = -3.05246 3.52821 1.25115
# Velocity P-wave (km/s) = 2.43124 7.31177 4.87602
#
# Compressibility (1/GPa) = 0.08509381
#
# Stress axis : x y z
#
# Youngs Moduli (GPa) = 93.97838 8.33443 110.32219
#
# Poissons Ratio (x) = 0.12958 0.36961
# Poissons Ratio (y) = 1.46113 0.92670
# Poissons Ratio (z) = 0.31485 0.07001
#
# Static dielectric constant tensor:
#      x y z
#    x 3.504410 0.000000 0.041920 
#    y 0.000000 2.692010 0.000000 
#    z 0.041920 0.000000 3.518030 
# 
# 
# High freq. dielectric constant tensor:
#      x y z
#    x 1.717040 0.000000 0.000070 
#    y 0.000000 1.631630 0.000000 
#    z 0.000070 0.000000 1.710460 
# 
# From -- ./inp_files/34844.got.cif
#   From: 2010.06.25/outbox.cif.g09.slc.cpg/sg10_18_cif.got.tgz:34844.got - 2010.06.27 22:07:45.
