data_PCOD8060268
_publ_section_title
;
Structure prediction by ZEFSAII (Michael W. Deem and Ramdas Pophale) SiO2 
 PCOD8060268
Probable space group: P 2/M
;
_chemical_formula_sum "Si O2"
_cell_formula_units_Z 32
_cell_length_a 16.462038
_cell_length_b 9.177694
_cell_length_c 24.575127
_cell_angle_alpha 90.000000
_cell_angle_beta 154.284282
_cell_angle_gamma 90.000000
_cell_volume 1611.049415
_symmetry_space_group_name_H-M "P 2/M"
_symmetry_group_IT_number 10
_symmetry_cell_setting 'monoclinic'
loop_
_space_group_symop_operation_xyz
x,y,z
-x,y,-z
-x,-y,-z
x,-y,z
loop_
_atom_site_type_symbol
_atom_site_label
_atom_site_fract_x
_atom_site_fract_y
_atom_site_fract_z
Si Si1 0.251397 0.335068 0.612970
Si Si2 0.732564 0.669283 0.988075
Si Si3 0.338421 0.663944 0.175605
Si Si4 0.003115 0.166490 0.620312
Si Si5 0.849503 0.330157 0.733130
Si Si6 0.660097 0.167839 0.717947
Si Si7 0.755283 0.833837 0.569957
Si Si8 0.624710 0.167392 0.207520
O O1 0.203477 0.500000 0.601688
O O2 0.437396 0.331795 0.688988
O O3 0.275705 0.237074 0.680495
O O4 0.081425 0.272619 0.475690
O O5 0.676583 0.500000 0.954308
O O6 0.740187 0.722349 0.929705
O O7 0.571549 0.753643 0.924380
O O8 0.928662 0.700061 0.135397
O O9 0.265443 0.500000 0.142594
O O10 0.266843 0.766899 0.180869
O O11 0.229445 0.182632 0.754904
O O12 0.927540 0.208700 0.634423
O O13 0.942778 0.000000 0.570664
O O14 0.805002 0.500000 0.711736
O O15 0.762281 0.250170 0.731459
O O16 0.756164 0.271483 0.622054
O O17 0.437467 0.188812 0.578670
O O18 0.718259 0.000000 0.750777
O O19 0.773574 0.000000 0.601691
O O20 0.580169 0.000000 0.193412
#
# Coordination Sequence:
#
# PCOD8060268 Si02
#       8
#     4   4   4   4   4   4   4   4
#     4  10  19  31  51  81 118 154 186 226 278 333
#     4   9  21  41  59  80 114 152 189 233 282 331
#     4   9  18  34  56  82 113 148 184 226 278 334
#     4  10  20  35  54  81 115 150 187 231 281 332
#     4  11  24  41  61  82 109 148 192 237 284 337
#     4  11  22  37  60  87 115 146 182 230 286 337
#     4  10  22  40  59  82 116 149 185 234 283 333
#     4  10  20  33  55  83 112 149 190 230 277 333
#
# _framework density 19.862831
#
# number of rings (size 3 to 8) (size 9 to 14) (size 15 to 20)
#    0.000    2.000    1.250    3.000    0.000    9.000 
#    0.000    3.125    0.000    3.750    0.000    0.000 
#    0.000    0.000    0.000    0.000    0.000    0.000 
#
# Total GULP energy -396845.276454 kJ/mol
# GULP energy per Si atom -12401.414889 kJ/mol
# Density = 1.981762 g / cm^3
# Si number density = 19.862831 Si / 1000 Ang^3
#
#
#
# Elastic Constant Matrix: (Units=GPa)
#
#
# Indices 1 2 3 4 5 6 
#
# 1 31.1743 16.3492 -10.4388 0.0000 22.0784 0.0000
# 2 16.3492 89.4646 17.1925 0.0000 11.7650 0.0000
# 3 -10.4388 17.1925 29.9992 0.0000 2.9508 0.0000
# 4 0.0000 0.0000 0.0000 26.4832 0.0000 -0.1892
# 5 22.0784 11.7650 2.9508 0.0000 20.4431 0.0000
# 6 0.0000 0.0000 0.0000 -0.1892 0.0000 27.3225
#
#
#
# Elastic Compliance Matrix: (Units=1/GPa)
#
#
# Indices 1 2 3 4 5 6 
#
# 1 -1.972648 0.285198 -1.058308 0.000000 2.119068 0.000000
# 2 0.285198 -0.027824 0.145981 0.000000 -0.313070 0.000000
# 3 -1.058308 0.145981 -0.530277 0.000000 1.135492 0.000000
# 4 0.000000 0.000000 0.000000 0.037762 0.000000 0.000261
# 5 2.119068 -0.313070 1.135492 0.000000 -2.223384 0.000000
# 6 0.000000 0.000000 0.000000 0.000261 0.000000 0.036602
#
#
# Mechanical properties :
#
#
# Convention : Reuss Voigt Hill
#
# Bulk Modulus (GPa) = -0.26420 21.87153 10.80366
# Shear Modulus (GPa) = -1.06674 23.35214 11.14270
#
# Velocity S-wave (km/s) = -0.73363 3.43252 2.37108
# Velocity P-wave (km/s) = 0.92246 5.17154 3.59819
#
# Compressibility (1/GPa) = -3.78500584
#
# Stress axis : x y z
#
# Youngs Moduli (GPa) = -0.50693 -35.94042 -1.88581
#
# Poissons Ratio (x) = 10.25015 -1.99576
# Poissons Ratio (y) = 0.14458 0.27529
# Poissons Ratio (z) = -0.53649 5.24662
#
# Static dielectric constant tensor:
#      x y z
#    x 3.574980 0.000000 0.211640 
#    y 0.000000 3.689570 0.000000 
#    z 0.211640 0.000000 3.513090 
# 
# 
# High freq. dielectric constant tensor:
#      x y z
#    x 1.770100 0.000000 0.016680 
#    y 0.000000 1.780060 0.000000 
#    z 0.016680 0.000000 1.759450 
# 
# From -- ./inp_files/89642.got.cif
#   From: 2010.06.25/outbox.cif.g09.slc.cpg/sg10_45_cif.got.tgz:89642.got - 2010.06.27 22:07:45.
