data_PCOD8060710
_publ_section_title
;
Structure prediction by ZEFSAII (Michael W. Deem and Ramdas Pophale) SiO2 
 PCOD8060710
Probable space group: P 2/M
;
_chemical_formula_sum "Si O2"
_cell_formula_units_Z 28
_cell_length_a 9.734554
_cell_length_b 9.459169
_cell_length_c 27.688231
_cell_angle_alpha 90.000000
_cell_angle_beta 37.939712
_cell_angle_gamma 90.000000
_cell_volume 1567.547448
_symmetry_space_group_name_H-M "P 2/M"
_symmetry_group_IT_number 10
_symmetry_cell_setting 'monoclinic'
loop_
_space_group_symop_operation_xyz
x,y,z
-x,y,-z
-x,-y,-z
x,-y,z
loop_
_atom_site_type_symbol
_atom_site_label
_atom_site_fract_x
_atom_site_fract_y
_atom_site_fract_z
Si Si1 0.637726 0.835717 0.509789
Si Si2 0.195166 0.660935 0.800111
Si Si3 0.759372 0.156297 0.042977
Si Si4 0.278006 0.663683 0.039403
Si Si5 0.454607 0.837261 0.801688
Si Si6 0.576432 0.667146 0.622561
Si Si7 0.152624 0.836775 0.375449
O O1 0.500000 0.793346 0.500000
O O2 0.555792 0.737191 0.575968
O O3 0.900162 0.805117 0.429480
O O4 0.595290 0.000000 0.534408
O O5 0.242234 0.500000 0.801720
O O6 0.267050 0.753106 0.825285
O O7 0.335502 0.698762 0.713421
O O8 0.930404 0.688283 0.866121
O O9 0.568600 0.199478 0.135250
O O10 0.704647 0.000000 0.037616
O O11 0.764437 0.269979 0.000258
O O12 0.000000 0.155423 0.000000
O O13 0.318097 0.500000 0.018399
O O14 0.500000 0.733715 0.000000
O O15 0.700120 0.800551 0.712786
O O16 0.396154 0.000000 0.809343
O O17 0.627212 0.500000 0.604231
O O18 0.773028 0.739517 0.599896
O O19 0.182604 0.000000 0.383254
#
# Coordination Sequence:
#
# PCOD8060710 Si02
#       7
#     4   4   4   4   4   4   4
#     4  10  21  37  54  75 105 137 170 205 247 304
#     4   9  18  33  52  74 102 133 169 210 250 297
#     4  10  19  32  52  78 105 131 166 212 258 299
#     4  10  21  36  52  72 102 140 177 208 246 301
#     4   9  17  31  52  77 103 130 166 212 256 296
#     4  10  20  34  55  80 103 130 168 213 257 299
#     4   9  18  34  56  77 101 135 172 208 248 299
#
# _framework density 17.862297000000002
#
# number of rings (size 3 to 8) (size 9 to 14) (size 15 to 20)
#    0.000    2.429    1.429    0.857    0.000    4.286 
#    2.571    0.000    0.000    0.000    0.000    0.000 
#    0.000    0.000    0.000    0.000    0.000    0.000 
#
# Total GULP energy -347100.369071 kJ/mol
# GULP energy per Si atom -12396.441753 kJ/mol
# Density = 1.782164 g / cm^3
# Si number density = 17.862297 Si / 1000 Ang^3
#
#
#
# Elastic Constant Matrix: (Units=GPa)
#
#
# Indices 1 2 3 4 5 6 
#
# 1 99.3867 45.5877 63.2790 0.0000 -5.3564 0.0000
# 2 45.5877 63.1586 49.3878 0.0000 0.6903 0.0000
# 3 63.2790 49.3878 116.4121 0.0000 -2.2817 0.0000
# 4 0.0000 0.0000 0.0000 23.4132 0.0000 -9.1758
# 5 -5.3564 0.6903 -2.2817 0.0000 25.4647 0.0000
# 6 0.0000 0.0000 0.0000 -9.1758 0.0000 -11.6252
#
#
#
# Elastic Compliance Matrix: (Units=1/GPa)
#
#
# Indices 1 2 3 4 5 6 
#
# 1 0.017941 -0.008102 -0.006248 0.000000 0.003434 0.000000
# 2 -0.008102 0.027413 -0.007287 0.000000 -0.003100 0.000000
# 3 -0.006248 -0.007287 0.015082 0.000000 0.000235 0.000000
# 4 0.000000 0.000000 0.000000 0.032620 0.000000 -0.025747
# 5 0.003434 -0.003100 0.000235 0.000000 0.040097 0.000000
# 6 0.000000 0.000000 0.000000 -0.025747 0.000000 -0.065698
#
#
# Mechanical properties :
#
#
# Convention : Reuss Voigt Hill
#
# Bulk Modulus (GPa) = 58.26300 66.16294 62.21297
# Shear Modulus (GPa) = 42.93695 15.49739 29.21717
#
# Velocity S-wave (km/s) = 4.90815 2.94871 4.04875
# Velocity P-wave (km/s) = 8.05038 6.97955 7.53401
#
# Compressibility (1/GPa) = 0.01716355
#
# Stress axis : x y z
#
# Youngs Moduli (GPa) = 55.73873 36.47934 66.30257
#
# Poissons Ratio (x) = 0.29554 0.41425
# Poissons Ratio (y) = 0.45157 0.48313
# Poissons Ratio (z) = 0.34825 0.26582
#
# Static dielectric constant tensor:
#      x y z
#    x 3.230090 0.000000 -0.112200 
#    y 0.000000 3.357700 0.000000 
#    z -0.112200 0.000000 3.755270 
# 
# 
# High freq. dielectric constant tensor:
#      x y z
#    x 1.660620 0.000000 -0.002310 
#    y 0.000000 1.692280 0.000000 
#    z -0.002310 0.000000 1.710700 
# 
# From -- ./inp_files/37114.got.cif
#   From: 2010.06.25/outbox.cif.g09.slc.cpg/sg10_19_cif.got.tgz:37114.got - 2010.06.27 22:07:45.
