data_PCOD8060193
_publ_section_title
;
Structure prediction by ZEFSAII (Michael W. Deem and Ramdas Pophale) SiO2 
 PCOD8060193
Probable space group: P 2/M
;
_chemical_formula_sum "Si O2"
_cell_formula_units_Z 32
_cell_length_a 30.319290
_cell_length_b 8.902208
_cell_length_c 11.084916
_cell_angle_alpha 90.000000
_cell_angle_beta 32.823753
_cell_angle_gamma 90.000000
_cell_volume 1621.787080
_symmetry_space_group_name_H-M "P 2/M"
_symmetry_group_IT_number 10
_symmetry_cell_setting 'monoclinic'
loop_
_space_group_symop_operation_xyz
x,y,z
-x,y,-z
-x,-y,-z
x,-y,z
loop_
_atom_site_type_symbol
_atom_site_label
_atom_site_fract_x
_atom_site_fract_y
_atom_site_fract_z
Si Si1 0.659051 0.327471 0.940453
Si Si2 0.193991 0.321657 0.824967
Si Si3 0.195077 0.323167 0.553818
Si Si4 0.960719 0.822180 0.717589
Si Si5 0.240691 0.831089 0.102430
Si Si6 0.096206 0.677153 0.552548
Si Si7 0.673379 0.830581 0.342060
Si Si8 0.518126 0.672468 0.594538
O O1 0.679932 0.500000 0.925497
O O2 0.714313 0.275483 0.699964
O O3 0.680896 0.226001 0.005021
O O4 0.563086 0.308660 0.136826
O O5 0.187127 0.500000 0.848958
O O6 0.178311 0.258442 0.725264
O O7 0.285593 0.271455 0.649099
O O8 0.128854 0.247304 0.064575
O O9 0.190815 0.500000 0.572531
O O10 0.126732 0.268610 0.614973
O O11 0.000000 0.771226 0.500000
O O12 0.013320 0.760958 0.709077
O O13 0.954434 0.000000 0.739219
O O14 0.164664 0.721571 0.298116
O O15 0.217191 0.000000 0.196813
O O16 0.262629 0.827132 0.913130
O O17 0.080773 0.500000 0.583827
O O18 0.586077 0.769557 0.503502
O O19 0.661224 0.000000 0.417381
O O20 0.500000 0.728831 0.500000
O O21 0.547353 0.500000 0.522512
#
# Coordination Sequence:
#
# PCOD8060193 Si02
#       8
#     4   4   4   4   4   4   4   4
#     4   9  17  33  56  81 112 144 181 230 278 328
#     4  11  23  40  61  81 107 147 194 234 273 328
#     4   8  18  37  59  83 110 145 188 235 280 321
#     4  11  24  41  59  84 120 150 178 223 282 338
#     4  10  19  31  50  79 114 148 181 222 279 338
#     4  10  20  36  60  86 112 145 188 232 275 326
#     4  11  23  36  52  78 116 153 185 227 287 341
#     4  10  19  32  55  87 115 143 187 235 277 330
#
# _framework density 19.73132
#
# number of rings (size 3 to 8) (size 9 to 14) (size 15 to 20)
#    0.000    2.000    1.250    3.375    0.000    6.750 
#    0.000    9.375    0.000    3.750    0.000    0.000 
#    0.000    0.000    0.000    0.000    0.000    0.000 
#
# Total GULP energy -396751.284159 kJ/mol
# GULP energy per Si atom -12398.477630 kJ/mol
# Density = 1.968641 g / cm^3
# Si number density = 19.731320 Si / 1000 Ang^3
#
#
#
# Elastic Constant Matrix: (Units=GPa)
#
#
# Indices 1 2 3 4 5 6 
#
# 1 109.1423 42.7645 46.2694 0.0000 -10.4623 0.0000
# 2 42.7645 76.6237 30.3673 0.0000 -3.5478 0.0000
# 3 46.2694 30.3673 79.3137 0.0000 -9.9021 0.0000
# 4 0.0000 0.0000 0.0000 23.7370 0.0000 -9.3949
# 5 -10.4623 -3.5478 -9.9021 0.0000 31.8959 0.0000
# 6 0.0000 0.0000 0.0000 -9.3949 0.0000 16.9028
#
#
#
# Elastic Compliance Matrix: (Units=1/GPa)
#
#
# Indices 1 2 3 4 5 6 
#
# 1 0.013937 -0.005379 -0.005800 0.000000 0.002173 0.000000
# 2 -0.005379 0.017462 -0.003668 0.000000 -0.000961 0.000000
# 3 -0.005800 -0.003668 0.017797 0.000000 0.003215 0.000000
# 4 0.000000 0.000000 0.000000 0.054010 0.000000 0.030019
# 5 0.002173 -0.000961 0.003215 0.000000 0.032956 0.000000
# 6 0.000000 0.000000 0.000000 0.030019 0.000000 0.075847
#
#
# Mechanical properties :
#
#
# Convention : Reuss Voigt Hill
#
# Bulk Modulus (GPa) = 51.27382 55.98689 53.63035
# Shear Modulus (GPa) = 20.14482 24.21905 22.18193
#
# Velocity S-wave (km/s) = 3.19871 3.50729 3.35655
# Velocity P-wave (km/s) = 6.29958 6.69609 6.50086
#
# Compressibility (1/GPa) = 0.01950313
#
# Stress axis : x y z
#
# Youngs Moduli (GPa) = 71.75126 57.26685 56.18887
#
# Poissons Ratio (x) = 0.30806 0.32587
# Poissons Ratio (y) = 0.38597 0.20608
# Poissons Ratio (z) = 0.41613 0.21003
#
# Static dielectric constant tensor:
#      x y z
#    x 3.702860 0.000000 0.037640 
#    y 0.000000 3.534240 0.000000 
#    z 0.037640 0.000000 3.634730 
# 
# 
# High freq. dielectric constant tensor:
#      x y z
#    x 1.760300 0.000000 -0.011930 
#    y 0.000000 1.760520 0.000000 
#    z -0.011930 0.000000 1.765670 
# 
# From -- ./inp_files/58107.got.cif
#   From: 2010.06.25/outbox.cif.g09.slc.cpg/sg10_30_cif.got.tgz:58107.got - 2010.06.27 22:07:45.
