data_PCOD8060723
_publ_section_title
;
Structure prediction by ZEFSAII (Michael W. Deem and Ramdas Pophale) SiO2 
 PCOD8060723
Probable space group: P 2/M
;
_chemical_formula_sum "Si O2"
_cell_formula_units_Z 32
_cell_length_a 12.965590
_cell_length_b 9.315332
_cell_length_c 32.875484
_cell_angle_alpha 90.000000
_cell_angle_beta 154.993059
_cell_angle_gamma 90.000000
_cell_volume 1678.509662
_symmetry_space_group_name_H-M "P 2/M"
_symmetry_group_IT_number 10
_symmetry_cell_setting 'monoclinic'
loop_
_space_group_symop_operation_xyz
x,y,z
-x,y,-z
-x,-y,-z
x,-y,z
loop_
_atom_site_type_symbol
_atom_site_label
_atom_site_fract_x
_atom_site_fract_y
_atom_site_fract_z
Si Si1 0.863066 0.331740 0.212139
Si Si2 0.973374 0.837214 0.394209
Si Si3 0.771568 0.331522 0.584957
Si Si4 0.947579 0.339285 0.871601
Si Si5 0.652743 0.839351 0.407176
Si Si6 0.752671 0.344202 0.713198
Si Si7 0.493472 0.168965 0.262335
Si Si8 0.431870 0.829220 0.022237
O O1 0.789846 0.500000 0.185714
O O2 0.623734 0.233531 0.123563
O O3 0.028909 0.290994 0.309807
O O4 0.012051 0.284031 0.225512
O O5 0.129824 0.737071 0.421068
O O6 0.076200 0.827170 0.477449
O O7 0.686923 0.793583 0.295444
O O8 0.996640 0.000000 0.386447
O O9 0.500000 0.274229 0.500000
O O10 0.757345 0.500000 0.572788
O O11 0.014860 0.500000 0.912177
O O12 0.805473 0.356837 0.779207
O O13 0.757477 0.258388 0.834082
O O14 0.180638 0.241173 0.946853
O O15 0.480141 0.754548 0.377010
O O16 0.628588 0.783621 0.352494
O O17 0.553483 0.000000 0.372683
O O18 0.690046 0.500000 0.671666
O O19 0.430818 0.000000 0.239634
O O20 0.413963 0.000000 0.020339
O O21 0.500000 0.785885 0.000000
#
# Coordination Sequence:
#
# PCOD8060723 Si02
#       8
#     4   4   4   4   4   4   4   4
#     4  10  20  35  54  76 106 146 185 223 269 317
#     4  10  20  34  53  76 104 141 182 227 274 320
#     4  10  22  39  58  79 108 147 187 228 271 314
#     4  10  19  32  52  78 108 141 175 214 264 322
#     4   9  17  29  48  74 104 139 178 218 266 321
#     4   9  17  29  47  72 103 138 174 214 261 315
#     4   9  18  33  52  75 107 142 178 222 273 326
#     4  11  22  34  53  82 114 145 177 218 271 327
#
# _framework density 19.064532
#
# number of rings (size 3 to 8) (size 9 to 14) (size 15 to 20)
#    0.000    2.250    1.250    1.875    0.000    5.750 
#    0.000    0.000    0.000    4.500    0.000    5.250 
#    0.000    0.000    0.000    0.000    0.000    0.000 
#
# Total GULP energy -396523.026770 kJ/mol
# GULP energy per Si atom -12391.344587 kJ/mol
# Density = 1.902114 g / cm^3
# Si number density = 19.064532 Si / 1000 Ang^3
#
#
#
# Elastic Constant Matrix: (Units=GPa)
#
#
# Indices 1 2 3 4 5 6 
#
# 1 84.7790 42.0281 38.3954 0.0000 28.4601 0.0000
# 2 42.0281 75.7604 47.5825 0.0000 18.5314 0.0000
# 3 38.3954 47.5825 94.8987 0.0000 21.8893 0.0000
# 4 0.0000 0.0000 0.0000 29.3669 0.0000 7.3054
# 5 28.4601 18.5314 21.8893 0.0000 33.3845 0.0000
# 6 0.0000 0.0000 0.0000 7.3054 0.0000 24.5514
#
#
#
# Elastic Compliance Matrix: (Units=1/GPa)
#
#
# Indices 1 2 3 4 5 6 
#
# 1 0.020199 -0.007105 -0.001823 0.000000 -0.012080 0.000000
# 2 -0.007105 0.022545 -0.008176 0.000000 -0.001096 0.000000
# 3 -0.001823 -0.008176 0.016459 0.000000 -0.004698 0.000000
# 4 0.000000 0.000000 0.000000 0.036774 0.000000 -0.010942
# 5 -0.012080 -0.001096 -0.004698 0.000000 0.043941 0.000000
# 6 0.000000 0.000000 0.000000 -0.010942 0.000000 0.043987
#
#
# Mechanical properties :
#
#
# Convention : Reuss Voigt Hill
#
# Bulk Modulus (GPa) = 40.01299 56.82779 48.42039
# Shear Modulus (GPa) = 22.08054 25.95605 24.01830
#
# Velocity S-wave (km/s) = 3.40693 3.69383 3.55328
# Velocity P-wave (km/s) = 6.04235 6.93292 6.50290
#
# Compressibility (1/GPa) = 0.02499189
#
# Stress axis : x y z
#
# Youngs Moduli (GPa) = 49.50856 44.35667 60.75831
#
# Poissons Ratio (x) = 0.31516 0.11078
# Poissons Ratio (y) = 0.35177 0.49678
# Poissons Ratio (z) = 0.09027 0.36268
#
# Static dielectric constant tensor:
#      x y z
#    x 3.330840 0.000000 0.213020 
#    y 0.000000 3.615550 0.000000 
#    z 0.213020 0.000000 3.437150 
# 
# 
# High freq. dielectric constant tensor:
#      x y z
#    x 1.723070 0.000000 0.024680 
#    y 0.000000 1.736900 0.000000 
#    z 0.024680 0.000000 1.729830 
# 
# From -- ./inp_files/95077.got.cif
#   From: 2010.06.25/outbox.cif.g09.slc.cpg/sg10_48_cif.got.tgz:95077.got - 2010.06.27 22:07:45.
