data_PCOD8060298
_publ_section_title
;
Structure prediction by ZEFSAII (Michael W. Deem and Ramdas Pophale) SiO2 
 PCOD8060298
Probable space group: P 2/M
;
_chemical_formula_sum "Si O2"
_cell_formula_units_Z 32
_cell_length_a 24.755289
_cell_length_b 9.171699
_cell_length_c 14.940661
_cell_angle_alpha 90.000000
_cell_angle_beta 28.053968
_cell_angle_gamma 90.000000
_cell_volume 1595.384519
_symmetry_space_group_name_H-M "P 2/M"
_symmetry_group_IT_number 10
_symmetry_cell_setting 'monoclinic'
loop_
_space_group_symop_operation_xyz
x,y,z
-x,y,-z
-x,-y,-z
x,-y,z
loop_
_atom_site_type_symbol
_atom_site_label
_atom_site_fract_x
_atom_site_fract_y
_atom_site_fract_z
Si Si1 0.481045 0.833157 0.313297
Si Si2 0.816324 0.828462 0.487389
Si Si3 0.027019 0.173721 0.059229
Si Si4 0.118693 0.672327 0.437914
Si Si5 0.562461 0.172223 0.819864
Si Si6 0.865715 0.328198 0.781997
Si Si7 0.281452 0.166357 0.731235
Si Si8 0.353988 0.673000 0.793517
O O1 0.492748 0.774390 0.193750
O O2 0.347495 0.825579 0.539625
O O3 0.552511 0.731593 0.274702
O O4 0.524948 0.000000 0.256161
O O5 0.807729 0.755599 0.596689
O O6 0.696337 0.784454 0.617252
O O7 0.925532 0.767496 0.272111
O O8 0.827845 0.000000 0.482542
O O9 0.028644 0.000000 0.054435
O O10 0.152355 0.230826 0.908243
O O11 0.000000 0.235164 0.000000
O O12 0.129100 0.500000 0.438092
O O13 0.165712 0.723037 0.272444
O O14 0.987763 0.730725 0.637274
O O15 0.549866 0.000000 0.843461
O O16 0.500000 0.240237 0.000000
O O17 0.875965 0.500000 0.762520
O O18 0.769664 0.274894 0.990229
O O19 0.359740 0.258209 0.686460
O O20 0.275341 0.000000 0.774595
O O21 0.368198 0.500000 0.765618
#
# Coordination Sequence:
#
# PCOD8060298 Si02
#       8
#     4   4   4   4   4   4   4   4
#     4  10  21  37  56  76 103 143 184 218 259 320
#     4  10  19  31  52  81 105 128 169 217 260 306
#     4   9  17  31  54  81 108 138 173 218 266 310
#     4   9  17  33  54  72  99 138 173 208 255 312
#     4   9  19  35  54  77 107 140 173 214 267 320
#     4   8  17  33  51  72 100 138 177 207 250 316
#     4  10  20  35  55  80 109 141 179 218 262 319
#     4  11  22  35  54  79 108 141 179 223 269 311
#
# _framework density 20.057859000000001
#
# number of rings (size 3 to 8) (size 9 to 14) (size 15 to 20)
#    0.000    2.500    0.000    3.000    1.750    5.000 
#    0.000    3.125    0.000    3.750    0.000    0.000 
#    0.000    0.000    0.000    0.000    0.000    0.000 
#
# Total GULP energy -396641.552462 kJ/mol
# GULP energy per Si atom -12395.048514 kJ/mol
# Density = 2.001221 g / cm^3
# Si number density = 20.057859 Si / 1000 Ang^3
#
#
#
# Elastic Constant Matrix: (Units=GPa)
#
#
# Indices 1 2 3 4 5 6 
#
# 1 142.6307 32.7826 36.2842 0.0000 5.1265 0.0000
# 2 32.7826 37.9776 23.1966 0.0000 -2.2111 0.0000
# 3 36.2842 23.1966 71.4364 0.0000 10.1990 0.0000
# 4 0.0000 0.0000 0.0000 14.9614 0.0000 5.2163
# 5 5.1265 -2.2111 10.1990 0.0000 31.2241 0.0000
# 6 0.0000 0.0000 0.0000 5.2163 0.0000 12.0722
#
#
#
# Elastic Compliance Matrix: (Units=1/GPa)
#
#
# Indices 1 2 3 4 5 6 
#
# 1 0.009155 -0.006532 -0.002359 0.000000 -0.001195 0.000000
# 2 -0.006532 0.038650 -0.010255 0.000000 0.007159 0.000000
# 3 -0.002359 -0.010255 0.019483 0.000000 -0.006703 0.000000
# 4 0.000000 0.000000 0.000000 0.078694 0.000000 -0.034003
# 5 -0.001195 0.007159 -0.006703 0.000000 0.034919 0.000000
# 6 0.000000 0.000000 0.000000 -0.034003 0.000000 0.097527
#
#
# Mechanical properties :
#
#
# Convention : Reuss Voigt Hill
#
# Bulk Modulus (GPa) = 34.48473 48.50795 41.49634
# Shear Modulus (GPa) = 15.31928 22.30363 18.81145
#
# Velocity S-wave (km/s) = 2.76661 3.33823 3.06577
# Velocity P-wave (km/s) = 5.23789 6.25259 5.76760
#
# Compressibility (1/GPa) = 0.02899834
#
# Stress axis : x y z
#
# Youngs Moduli (GPa) = 109.22505 25.87308 51.32603
#
# Poissons Ratio (x) = 0.16900 0.12105
# Poissons Ratio (y) = 0.71346 0.52633
# Poissons Ratio (z) = 0.25761 0.26532
#
# Static dielectric constant tensor:
#      x y z
#    x 3.683680 0.000000 0.050040 
#    y 0.000000 3.107440 0.000000 
#    z 0.050040 0.000000 4.282550 
# 
# 
# High freq. dielectric constant tensor:
#      x y z
#    x 1.791370 0.000000 0.004990 
#    y 0.000000 1.730380 0.000000 
#    z 0.004990 0.000000 1.795710 
# 
# From -- ./inp_files/71538.got.cif
#   From: 2010.06.25/outbox.cif.g09.slc.cpg/sg10_36_cif.got.tgz:71538.got - 2010.06.27 22:07:45.
