data_PCOD8060400
_publ_section_title
;
Structure prediction by ZEFSAII (Michael W. Deem and Ramdas Pophale) SiO2 
 PCOD8060400
Probable space group: P 2/M
;
_chemical_formula_sum "Si O2"
_cell_formula_units_Z 32
_cell_length_a 11.757765
_cell_length_b 9.347428
_cell_length_c 25.231503
_cell_angle_alpha 90.000000
_cell_angle_beta 45.782799
_cell_angle_gamma 90.000000
_cell_volume 1987.459118
_symmetry_space_group_name_H-M "P 2/M"
_symmetry_group_IT_number 10
_symmetry_cell_setting 'monoclinic'
loop_
_space_group_symop_operation_xyz
x,y,z
-x,y,-z
-x,-y,-z
x,-y,z
loop_
_atom_site_type_symbol
_atom_site_label
_atom_site_fract_x
_atom_site_fract_y
_atom_site_fract_z
Si Si1 0.098270 0.832337 0.416134
Si Si2 0.558216 0.164038 0.924896
Si Si3 0.370565 0.340146 0.290914
Si Si4 0.985742 0.663900 0.880517
Si Si5 0.238463 0.165028 0.969637
Si Si6 0.929726 0.658814 0.671308
Si Si7 0.283962 0.665480 0.851271
Si Si8 0.128570 0.333303 0.195804
O O1 0.274163 0.760750 0.363882
O O2 0.004089 0.767531 0.395278
O O3 0.000000 0.792831 0.500000
O O4 0.118161 0.000000 0.401762
O O5 0.421627 0.180867 0.925733
O O6 0.707667 0.250567 0.856882
O O7 0.609828 0.000000 0.915535
O O8 0.500000 0.226766 0.000000
O O9 0.390091 0.500000 0.308831
O O10 0.263414 0.346157 0.272311
O O11 0.543392 0.274994 0.221762
O O12 0.931635 0.500000 0.907665
O O13 0.977279 0.704595 0.821070
O O14 0.166874 0.685818 0.839639
O O15 0.869171 0.766857 0.950003
O O16 0.210503 0.245311 0.923469
O O17 0.189263 0.000000 0.979086
O O18 0.001029 0.500000 0.637887
O O19 0.967133 0.709811 0.719283
O O20 0.296511 0.500000 0.864779
O O21 0.169841 0.500000 0.184541
#
# Coordination Sequence:
#
# PCOD8060400 Si02
#       8
#     4   4   4   4   4   4   4   4
#     4   9  17  29  47  74 103 123 143 175 217 270
#     4  10  20  33  46  63  89 119 152 194 244 286
#     4   8  16  30  48  69  94 122 150 181 224 273
#     4  10  21  34  49  66  88 123 162 202 241 275
#     4  11  22  34  48  66  89 120 160 204 246 285
#     4   8  16  29  46  69  95 120 146 179 220 271
#     4  10  20  35  50  66  91 122 160 200 237 277
#     4  10  19  32  48  68  90 117 156 194 231 279
#
# _framework density 16.100960000000001
#
# number of rings (size 3 to 8) (size 9 to 14) (size 15 to 20)
#    0.750    1.750    1.250    1.500    0.000    6.250 
#    0.000    0.000    0.000    0.000    0.000    0.875 
#    0.000    7.000    0.000    0.000    0.000    0.000 
#
# Total GULP energy -396576.006805 kJ/mol
# GULP energy per Si atom -12393.000213 kJ/mol
# Density = 1.606431 g / cm^3
# Si number density = 16.100960 Si / 1000 Ang^3
#
#
#
# Elastic Constant Matrix: (Units=GPa)
#
#
# Indices 1 2 3 4 5 6 
#
# 1 68.0948 29.3479 37.2764 0.0000 16.1776 0.0000
# 2 29.3479 70.5556 53.5682 0.0000 13.1410 0.0000
# 3 37.2764 53.5682 102.0121 0.0000 24.1766 0.0000
# 4 0.0000 0.0000 0.0000 15.0835 0.0000 1.6684
# 5 16.1776 13.1410 24.1766 0.0000 18.7361 0.0000
# 6 0.0000 0.0000 0.0000 1.6684 0.0000 14.7075
#
#
#
# Elastic Compliance Matrix: (Units=1/GPa)
#
#
# Indices 1 2 3 4 5 6 
#
# 1 0.020751 -0.004659 -0.002397 0.000000 -0.011556 0.000000
# 2 -0.004659 0.024625 -0.011652 0.000000 0.001787 0.000000
# 3 -0.002397 -0.011652 0.020701 0.000000 -0.016469 0.000000
# 4 0.000000 0.000000 0.000000 0.067140 0.000000 -0.007616
# 5 -0.011556 0.001787 -0.016469 0.000000 0.083349 0.000000
# 6 0.000000 0.000000 0.000000 -0.007616 0.000000 0.068856
#
#
# Mechanical properties :
#
#
# Convention : Reuss Voigt Hill
#
# Bulk Modulus (GPa) = 34.89202 53.44971 44.17087
# Shear Modulus (GPa) = 15.04248 17.73677 16.38963
#
# Velocity S-wave (km/s) = 3.05988 3.32263 3.19396
# Velocity P-wave (km/s) = 5.84822 6.92737 6.41055
#
# Compressibility (1/GPa) = 0.02865985
#
# Stress axis : x y z
#
# Youngs Moduli (GPa) = 48.18990 40.60928 48.30791
#
# Poissons Ratio (x) = 0.18920 0.11581
# Poissons Ratio (y) = 0.22452 0.56288
# Poissons Ratio (z) = 0.11553 0.47318
#
# Static dielectric constant tensor:
#      x y z
#    x 3.020440 0.000000 0.160370 
#    y 0.000000 3.062640 0.000000 
#    z 0.160370 0.000000 2.846760 
# 
# 
# High freq. dielectric constant tensor:
#      x y z
#    x 1.602340 0.000000 0.014760 
#    y 0.000000 1.622100 0.000000 
#    z 0.014760 0.000000 1.593710 
# 
# From -- ./inp_files/88518.got.cif
#   From: 2010.06.25/outbox.cif.g09.slc.cpg/sg10_45_cif.got.tgz:88518.got - 2010.06.27 22:07:45.
