data_PCOD8060048
_publ_section_title
;
Structure prediction by ZEFSAII (Michael W. Deem and Ramdas Pophale) SiO2 
 PCOD8060048
Probable space group: P 2/M
;
_chemical_formula_sum "Si O2"
_cell_formula_units_Z 32
_cell_length_a 12.105706
_cell_length_b 8.764492
_cell_length_c 32.804147
_cell_angle_alpha 90.000000
_cell_angle_beta 151.135364
_cell_angle_gamma 90.000000
_cell_volume 1680.198725
_symmetry_space_group_name_H-M "P 2/M"
_symmetry_group_IT_number 10
_symmetry_cell_setting 'monoclinic'
loop_
_space_group_symop_operation_xyz
x,y,z
-x,y,-z
-x,-y,-z
x,-y,z
loop_
_atom_site_type_symbol
_atom_site_label
_atom_site_fract_x
_atom_site_fract_y
_atom_site_fract_z
Si Si1 0.874458 0.820839 0.998599
Si Si2 0.740934 0.331184 0.837139
Si Si3 0.055669 0.181827 0.579525
Si Si4 0.724897 0.681392 0.273373
Si Si5 0.364436 0.181574 0.838812
Si Si6 0.181347 0.668918 0.228530
Si Si7 0.332799 0.681495 0.596101
Si Si8 0.283950 0.820399 0.903909
O O1 0.032833 0.773293 0.087340
O O2 0.854709 0.000000 0.989842
O O3 0.622277 0.753727 0.920739
O O4 0.000000 0.749972 0.000000
O O5 0.795696 0.500000 0.871542
O O6 0.527353 0.263150 0.793469
O O7 0.687945 0.335700 0.772423
O O8 0.093936 0.240102 0.637984
O O9 0.248148 0.248232 0.611592
O O10 0.806749 0.242336 0.485807
O O11 0.062542 0.000000 0.580232
O O12 0.750377 0.500000 0.284236
O O13 0.772416 0.739214 0.242546
O O14 0.276233 0.236711 0.854515
O O15 0.347315 0.000000 0.828171
O O16 0.093165 0.500000 0.212117
O O17 0.398020 0.720253 0.326305
O O18 0.962274 0.778390 0.157197
O O19 0.292231 0.500000 0.584244
O O20 0.313571 0.000000 0.914220
O O21 0.500000 0.751796 0.000000
#
# Coordination Sequence:
#
# PCOD8060048 Si02
#       8
#     4   4   4   4   4   4   4   4
#     4  10  19  31  49  73 102 139 177 220 273 328
#     4  10  20  33  49  75 108 142 180 224 273 326
#     4  11  21  33  53  85 119 150 186 227 278 341
#     4  11  21  35  54  78 112 150 183 221 280 340
#     4  10  21  37  54  78 110 143 187 234 281 335
#     4  10  21  37  57  81 110 145 190 236 276 326
#     4  10  19  35  56  81 117 154 186 229 282 335
#     4  10  22  40  60  81 111 151 192 237 284 331
#
# _framework density 19.045365
#
# number of rings (size 3 to 8) (size 9 to 14) (size 15 to 20)
#    0.000    1.750    2.500    3.375    0.000    4.500 
#    0.000    0.000    0.000    0.750    0.000    5.250 
#    0.000    0.000    0.000    0.000    0.000    0.000 
#
# Total GULP energy -396620.867160 kJ/mol
# GULP energy per Si atom -12394.402099 kJ/mol
# Density = 1.900202 g / cm^3
# Si number density = 19.045365 Si / 1000 Ang^3
#
#
#
# Elastic Constant Matrix: (Units=GPa)
#
#
# Indices 1 2 3 4 5 6 
#
# 1 78.3463 26.4608 43.8549 0.0000 -11.2654 0.0000
# 2 26.4608 64.8690 37.9562 0.0000 -8.4387 0.0000
# 3 43.8549 37.9562 130.1536 0.0000 -9.6647 0.0000
# 4 0.0000 0.0000 0.0000 30.2798 0.0000 -3.7249
# 5 -11.2654 -8.4387 -9.6647 0.0000 31.5819 0.0000
# 6 0.0000 0.0000 0.0000 -3.7249 0.0000 20.1526
#
#
#
# Elastic Compliance Matrix: (Units=1/GPa)
#
#
# Indices 1 2 3 4 5 6 
#
# 1 0.017046 -0.003945 -0.004318 0.000000 0.003705 0.000000
# 2 -0.003945 0.019861 -0.004270 0.000000 0.002593 0.000000
# 3 -0.004318 -0.004270 0.010421 0.000000 0.000508 0.000000
# 4 0.000000 0.000000 0.000000 0.033794 0.000000 0.006246
# 5 0.003705 0.002593 0.000508 0.000000 0.033833 0.000000
# 6 0.000000 0.000000 0.000000 0.006246 0.000000 0.050776
#
#
# Mechanical properties :
#
#
# Convention : Reuss Voigt Hill
#
# Bulk Modulus (GPa) = 44.91987 54.43476 49.67731
# Shear Modulus (GPa) = 25.22482 27.40933 26.31708
#
# Velocity S-wave (km/s) = 3.64326 3.79774 3.72130
# Velocity P-wave (km/s) = 6.42921 6.91911 6.67866
#
# Compressibility (1/GPa) = 0.02226186
#
# Stress axis : x y z
#
# Youngs Moduli (GPa) = 58.66505 50.35086 95.95812
#
# Poissons Ratio (x) = 0.19862 0.41436
# Poissons Ratio (y) = 0.23141 0.40976
# Poissons Ratio (z) = 0.25332 0.21501
#
# Static dielectric constant tensor:
#      x y z
#    x 3.340960 0.000000 -0.152780 
#    y 0.000000 3.328080 0.000000 
#    z -0.152780 0.000000 3.656340 
# 
# 
# High freq. dielectric constant tensor:
#      x y z
#    x 1.710340 0.000000 -0.010690 
#    y 0.000000 1.733930 0.000000 
#    z -0.010690 0.000000 1.748410 
# 
# From -- ./inp_files/95049.got.cif
#   From: 2010.06.25/outbox.cif.g09.slc.cpg/sg10_48_cif.got.tgz:95049.got - 2010.06.27 22:07:45.
