data_PCOD8060007
_publ_section_title
;
Structure prediction by ZEFSAII (Michael W. Deem and Ramdas Pophale) SiO2 
 PCOD8060007
Probable space group: P 2/M
;
_chemical_formula_sum "Si O2"
_cell_formula_units_Z 32
_cell_length_a 9.511534
_cell_length_b 8.987069
_cell_length_c 23.311731
_cell_angle_alpha 90.000000
_cell_angle_beta 114.699689
_cell_angle_gamma 90.000000
_cell_volume 1810.393947
_symmetry_space_group_name_H-M "P 2/M"
_symmetry_group_IT_number 10
_symmetry_cell_setting 'monoclinic'
loop_
_space_group_symop_operation_xyz
x,y,z
-x,y,-z
-x,-y,-z
x,-y,z
loop_
_atom_site_type_symbol
_atom_site_label
_atom_site_fract_x
_atom_site_fract_y
_atom_site_fract_z
Si Si1 0.471236 0.668260 0.062372
Si Si2 0.217638 0.176085 0.876084
Si Si3 0.308429 0.171650 0.361583
Si Si4 0.213681 0.675460 0.458581
Si Si5 0.840815 0.175422 0.003557
Si Si6 0.993318 0.174763 0.260297
Si Si7 0.085880 0.826636 0.628318
Si Si8 0.651127 0.829888 0.410311
O O1 0.466172 0.500000 0.084934
O O2 0.617354 0.754520 0.114088
O O3 0.500000 0.672478 0.000000
O O4 0.308371 0.746522 0.051059
O O5 0.156262 0.220907 0.928794
O O6 0.092254 0.243266 0.809662
O O7 0.237651 0.000000 0.875447
O O8 0.304924 0.266346 0.418866
O O9 0.474246 0.195739 0.360742
O O10 0.174474 0.222649 0.294071
O O11 0.279441 0.000000 0.373835
O O12 0.204449 0.500000 0.454670
O O13 0.306109 0.722736 0.530612
O O14 0.040998 0.740897 0.431008
O O15 0.820016 0.000000 0.991949
O O16 0.000000 0.229288 0.000000
O O17 0.913016 0.229393 0.305728
O O18 0.976885 0.000000 0.251146
O O19 0.251826 0.790934 0.629718
O O20 0.043323 0.000000 0.618379
O O21 0.679310 0.000000 0.434952
#
# Coordination Sequence:
#
# PCOD8060007 Si02
#       8
#     4   4   4   4   4   4   4   4
#     4   9  17  29  46  69  95 124 158 191 223 264
#     4   9  16  29  50  71  93 123 157 192 229 271
#     4   9  18  33  50  67  90 119 152 189 230 279
#     4  11  21  31  46  69  94 121 153 188 230 280
#     4   9  17  29  46  72 103 129 153 187 233 276
#     4   8  15  30  50  69  89 118 156 193 228 271
#     4   9  18  33  50  68  91 118 152 193 234 278
#     4  10  19  31  49  70  91 118 150 189 237 282
#
# _framework density 17.675711
#
# number of rings (size 3 to 8) (size 9 to 14) (size 15 to 20)
#    0.000    2.750    0.000    3.000    0.000    5.750 
#    0.000    3.750    0.000    6.000    0.000    3.500 
#    0.000    0.000    0.000    0.000    0.000    0.000 
#
# Total GULP energy -396664.590251 kJ/mol
# GULP energy per Si atom -12395.768445 kJ/mol
# Density = 1.763548 g / cm^3
# Si number density = 17.675711 Si / 1000 Ang^3
#
#
#
# Elastic Constant Matrix: (Units=GPa)
#
#
# Indices 1 2 3 4 5 6 
#
# 1 160.8625 37.4756 58.8172 0.0000 22.5368 0.0000
# 2 37.4756 59.0056 27.1951 0.0000 8.3848 0.0000
# 3 58.8172 27.1951 107.5631 0.0000 22.0408 0.0000
# 4 0.0000 0.0000 0.0000 5.4413 0.0000 1.0374
# 5 22.5368 8.3848 22.0408 0.0000 14.9369 0.0000
# 6 0.0000 0.0000 0.0000 1.0374 0.0000 9.9125
#
#
#
# Elastic Compliance Matrix: (Units=1/GPa)
#
#
# Indices 1 2 3 4 5 6 
#
# 1 0.009047 -0.003483 -0.002394 0.000000 -0.008162 0.000000
# 2 -0.003483 0.020807 -0.002924 0.000000 -0.002111 0.000000
# 3 -0.002394 -0.002924 0.014719 0.000000 -0.016467 0.000000
# 4 0.000000 0.000000 0.000000 0.187522 0.000000 -0.019625
# 5 -0.008162 -0.002111 -0.016467 0.000000 0.104746 0.000000
# 6 0.000000 0.000000 0.000000 -0.019625 0.000000 0.102937
#
#
# Mechanical properties :
#
#
# Convention : Reuss Voigt Hill
#
# Bulk Modulus (GPa) = 37.07452 63.82301 50.44877
# Shear Modulus (GPa) = 10.72113 19.65436 15.18775
#
# Velocity S-wave (km/s) = 2.46549 3.33820 2.93447
# Velocity P-wave (km/s) = 5.39678 7.14452 6.33125
#
# Compressibility (1/GPa) = 0.02697270
#
# Stress axis : x y z
#
# Youngs Moduli (GPa) = 110.53875 48.06104 67.93854
#
# Poissons Ratio (x) = 0.16737 0.16263
# Poissons Ratio (y) = 0.38495 0.19863
# Poissons Ratio (z) = 0.26461 0.14051
#
# Static dielectric constant tensor:
#      x y z
#    x 3.449630 0.000000 0.146170 
#    y 0.000000 3.104770 0.000000 
#    z 0.146170 0.000000 3.296800 
# 
# 
# High freq. dielectric constant tensor:
#      x y z
#    x 1.688710 0.000000 0.015520 
#    y 0.000000 1.662830 0.000000 
#    z 0.015520 0.000000 1.661560 
# 
# From -- ./inp_files/36598.got.cif
#   From: 2010.06.25/outbox.cif.g09.slc.cpg/sg10_19_cif.got.tgz:36598.got - 2010.06.27 22:07:45.
