data_PCOD8060772
_publ_section_title
;
Structure prediction by ZEFSAII (Michael W. Deem and Ramdas Pophale) SiO2 
 PCOD8060772
Probable space group: P 2/M
;
_chemical_formula_sum "Si O2"
_cell_formula_units_Z 24
_cell_length_a 14.810719
_cell_length_b 9.153514
_cell_length_c 29.719429
_cell_angle_alpha 90.000000
_cell_angle_beta 160.075768
_cell_angle_gamma 90.000000
_cell_volume 1373.014033
_symmetry_space_group_name_H-M "P 2/M"
_symmetry_group_IT_number 10
_symmetry_cell_setting 'monoclinic'
loop_
_space_group_symop_operation_xyz
x,y,z
-x,y,-z
-x,-y,-z
x,-y,z
loop_
_atom_site_type_symbol
_atom_site_label
_atom_site_fract_x
_atom_site_fract_y
_atom_site_fract_z
Si Si1 0.658252 0.326421 0.618341
Si Si2 0.409353 0.171420 0.322972
Si Si3 0.287815 0.667980 0.119167
Si Si4 0.289142 0.171007 0.623830
Si Si5 0.884794 0.666902 0.057622
Si Si6 0.750835 0.669263 0.092763
O O1 0.500000 0.276240 0.500000
O O2 0.647484 0.500000 0.620075
O O3 0.523345 0.253304 0.598842
O O4 0.962683 0.269374 0.756981
O O5 0.638669 0.207473 0.394145
O O6 0.135828 0.227016 0.173190
O O7 0.386435 0.000000 0.321816
O O8 0.330487 0.500000 0.152553
O O9 0.509509 0.761035 0.246717
O O10 0.307505 0.693626 0.074686
O O11 0.000000 0.721833 0.000000
O O12 0.000000 0.234632 0.500000
O O13 0.299759 0.000000 0.637431
O O14 0.992807 0.500000 0.108313
O O15 0.714036 0.696883 0.022385
O O16 0.748459 0.500000 0.104350
O O17 0.500000 0.746502 0.000000
#
# Coordination Sequence:
#
# PCOD8060772 Si02
#       6
#     4   4   4   4   4   4
#     4   9  18  33  52  74  98 128 165 205 249 299
#     4  10  19  32  53  75  97 132 174 209 248 297
#     4  10  19  32  53  79 103 128 167 216 258 301
#     4  10  22  38  52  71 104 142 176 210 254 307
#     4   9  17  31  51  75 102 129 163 207 253 299
#     4   8  14  27  48  70  95 125 155 192 240 293
#
# _framework density 17.479793999999998
#
# number of rings (size 3 to 8) (size 9 to 14) (size 15 to 20)
#    0.000    2.667    1.667    1.500    0.000    2.333 
#    3.000    0.000    0.000    8.000    0.000    0.000 
#    0.000    0.000    0.000    0.000    0.000    0.000 
#
# Total GULP energy -297519.074297 kJ/mol
# GULP energy per Si atom -12396.628096 kJ/mol
# Density = 1.744001 g / cm^3
# Si number density = 17.479794 Si / 1000 Ang^3
#
#
#
# Elastic Constant Matrix: (Units=GPa)
#
#
# Indices 1 2 3 4 5 6 
#
# 1 150.9229 43.1479 89.1602 0.0000 0.5233 0.0000
# 2 43.1479 39.3123 32.2731 0.0000 -0.4692 0.0000
# 3 89.1602 32.2731 118.7208 0.0000 -4.5323 0.0000
# 4 0.0000 0.0000 0.0000 22.0326 0.0000 -2.8972
# 5 0.5233 -0.4692 -4.5323 0.0000 33.8405 0.0000
# 6 0.0000 0.0000 0.0000 -2.8972 0.0000 48.9477
#
#
#
# Elastic Compliance Matrix: (Units=1/GPa)
#
#
# Indices 1 2 3 4 5 6 
#
# 1 0.013909 -0.008577 -0.008168 0.000000 -0.001428 0.000000
# 2 -0.008577 0.038052 -0.003898 0.000000 0.000138 0.000000
# 3 -0.008168 -0.003898 0.015700 0.000000 0.002175 0.000000
# 4 0.000000 0.000000 0.000000 0.045743 0.000000 0.002708
# 5 -0.001428 0.000138 0.002175 0.000000 0.029866 0.000000
# 6 0.000000 0.000000 0.000000 0.002708 0.000000 0.020590
#
#
# Mechanical properties :
#
#
# Convention : Reuss Voigt Hill
#
# Bulk Modulus (GPa) = 37.91414 70.90206 54.40810
# Shear Modulus (GPa) = 23.37127 30.58914 26.98021
#
# Velocity S-wave (km/s) = 3.66053 4.18780 3.93301
# Velocity P-wave (km/s) = 6.29312 8.00212 7.19852
#
# Compressibility (1/GPa) = 0.02637538
#
# Stress axis : x y z
#
# Youngs Moduli (GPa) = 71.89839 26.27959 63.69337
#
# Poissons Ratio (x) = 0.22540 0.52027
# Poissons Ratio (y) = 0.61666 0.24825
# Poissons Ratio (z) = 0.58729 0.10243
#
# Static dielectric constant tensor:
#      x y z
#    x 3.558010 0.000000 0.047170 
#    y 0.000000 3.042610 0.000000 
#    z 0.047170 0.000000 3.258570 
# 
# 
# High freq. dielectric constant tensor:
#      x y z
#    x 1.688460 0.000000 -0.006730 
#    y 0.000000 1.653090 0.000000 
#    z -0.006730 0.000000 1.658840 
# 
# From -- ./inp_files/80125.got.cif
#   From: 2010.06.25/outbox.cif.g09.slc.cpg/sg10_41_cif.got.tgz:80125.got - 2010.06.27 22:07:45.
