data_PCOD8060601
_publ_section_title
;
Structure prediction by ZEFSAII (Michael W. Deem and Ramdas Pophale) SiO2 
 PCOD8060601
Probable space group: P 2/M
;
_chemical_formula_sum "Si O2"
_cell_formula_units_Z 30
_cell_length_a 5.102420
_cell_length_b 12.956938
_cell_length_c 26.349069
_cell_angle_alpha 90.000000
_cell_angle_beta 74.043985
_cell_angle_gamma 90.000000
_cell_volume 1674.869443
_symmetry_space_group_name_H-M "P 2/M"
_symmetry_group_IT_number 10
_symmetry_cell_setting 'monoclinic'
loop_
_space_group_symop_operation_xyz
x,y,z
-x,y,-z
-x,-y,-z
x,-y,z
loop_
_atom_site_type_symbol
_atom_site_label
_atom_site_fract_x
_atom_site_fract_y
_atom_site_fract_z
Si Si1 0.369750 0.193939 0.561738
Si Si2 0.208322 0.883296 0.382046
Si Si3 0.493084 0.618956 0.801303
Si Si4 0.311933 0.383487 0.631967
Si Si5 0.802439 0.223728 0.963047
Si Si6 0.266094 0.306459 0.311791
Si Si7 0.894731 0.618995 0.869088
Si Si8 0.199058 0.000000 0.035999
O O1 0.500000 0.188436 0.500000
O O2 0.544021 0.127182 0.591906
O O3 0.358069 0.312691 0.580250
O O4 0.067996 0.147507 0.574318
O O5 0.255181 0.812381 0.330217
O O6 0.194442 0.000000 0.363033
O O7 0.547277 0.500000 0.783456
O O8 0.600783 0.691392 0.750664
O O9 0.648273 0.647114 0.844776
O O10 0.175572 0.641919 0.825243
O O11 0.297715 0.500000 0.612793
O O12 0.559993 0.373364 0.657902
O O13 0.035835 0.353164 0.675813
O O14 0.872660 0.311886 0.919733
O O15 0.843399 0.110328 0.933140
O O16 0.500000 0.238262 0.000000
O O17 0.000000 0.236134 0.000000
O O18 0.881509 0.500000 0.887277
O O19 0.500000 0.000000 0.000000
O O20 0.000000 0.000000 0.000000
#
# Coordination Sequence:
#
# PCOD8060601 Si02
#       8
#     4   4   4   4   4   4   4   2
#     4  10  21  34  50  76 103 132 168 204 250 304
#     4  10  21  36  54  74  99 132 169 213 253 295
#     4  10  19  33  52  73 101 132 162 204 249 294
#     4  10  19  32  51  76 101 128 166 207 250 304
#     4  10  19  33  53  74 101 135 170 208 243 290
#     4  10  20  34  54  75  98 129 171 212 249 303
#     4  10  21  33  49  76 106 134 165 202 251 300
#     4   8  16  30  50  72  90 124 168 202 238 272
#
# _framework density 17.911845
#
# number of rings (size 3 to 8) (size 9 to 14) (size 15 to 20)
#    0.000    2.133    0.000    3.600    0.000    3.467 
#    0.000    0.000    2.933    4.800    0.000    0.000 
#    0.000    0.000    0.000    0.000    0.000    0.000 
#
# Total GULP energy -371992.110881 kJ/mol
# GULP energy per Si atom -12399.737029 kJ/mol
# Density = 1.787108 g / cm^3
# Si number density = 17.911845 Si / 1000 Ang^3
#
#
#
# Elastic Constant Matrix: (Units=GPa)
#
#
# Indices 1 2 3 4 5 6 
#
# 1 76.2795 16.4336 5.3597 0.0000 -3.1483 0.0000
# 2 16.4336 134.8185 55.9876 0.0000 -0.7676 0.0000
# 3 5.3597 55.9876 80.1002 0.0000 -6.9303 0.0000
# 4 0.0000 0.0000 0.0000 14.1584 0.0000 0.3476
# 5 -3.1483 -0.7676 -6.9303 0.0000 17.8301 0.0000
# 6 0.0000 0.0000 0.0000 0.3476 0.0000 16.3203
#
#
#
# Elastic Compliance Matrix: (Units=1/GPa)
#
#
# Indices 1 2 3 4 5 6 
#
# 1 0.013582 -0.001910 0.000649 0.000000 0.002568 0.000000
# 2 -0.001910 0.010826 -0.007687 0.000000 -0.002859 0.000000
# 3 0.000649 -0.007687 0.018414 0.000000 0.006941 0.000000
# 4 0.000000 0.000000 0.000000 0.070667 0.000000 -0.001505
# 5 0.002568 -0.002859 0.006941 0.000000 0.059113 0.000000
# 6 0.000000 0.000000 0.000000 -0.001505 0.000000 0.061305
#
#
# Mechanical properties :
#
#
# Convention : Reuss Voigt Hill
#
# Bulk Modulus (GPa) = 40.11975 49.64001 44.87988
# Shear Modulus (GPa) = 19.22248 23.88957 21.55602
#
# Velocity S-wave (km/s) = 3.27948 3.65599 3.47284
# Velocity P-wave (km/s) = 6.06524 6.75243 6.41804
#
# Compressibility (1/GPa) = 0.02492538
#
# Stress axis : x y z
#
# Youngs Moduli (GPa) = 73.62884 92.36963 54.30580
#
# Poissons Ratio (x) = 0.17645 -0.03522
# Poissons Ratio (y) = 0.14065 0.41743
# Poissons Ratio (z) = -0.04776 0.71001
#
# Static dielectric constant tensor:
#      x y z
#    x 3.615240 0.000000 -0.035490 
#    y 0.000000 3.554870 0.000000 
#    z -0.035490 0.000000 2.970080 
# 
# 
# High freq. dielectric constant tensor:
#      x y z
#    x 1.721660 0.000000 -0.002650 
#    y 0.000000 1.694290 0.000000 
#    z -0.002650 0.000000 1.663660 
# 
# From -- ./inp_files/13210.got.cif
#   From: 2010.06.25/outbox.cif.g09.slc.cpg/sg10_7_cif.got.tgz:13210.got - 2010.06.27 22:07:45.
