data_PCOD8060310
_publ_section_title
;
Structure prediction by ZEFSAII (Michael W. Deem and Ramdas Pophale) SiO2 
 PCOD8060310
Probable space group: P 2/M
;
_chemical_formula_sum "Si O2"
_cell_formula_units_Z 28
_cell_length_a 13.781325
_cell_length_b 13.564929
_cell_length_c 7.906184
_cell_angle_alpha 90.000000
_cell_angle_beta 78.522127
_cell_angle_gamma 90.000000
_cell_volume 1448.445681
_symmetry_space_group_name_H-M "P 2/M"
_symmetry_group_IT_number 10
_symmetry_cell_setting 'monoclinic'
loop_
_space_group_symop_operation_xyz
x,y,z
-x,y,-z
-x,-y,-z
x,-y,z
loop_
_atom_site_type_symbol
_atom_site_label
_atom_site_fract_x
_atom_site_fract_y
_atom_site_fract_z
Si Si1 0.903352 0.252784 0.462658
Si Si2 0.267305 0.893801 0.892535
Si Si3 0.244108 0.114337 0.283872
Si Si4 0.384037 0.713132 0.235387
Si Si5 0.384327 0.295963 0.846893
Si Si6 0.941873 0.889523 0.179637
Si Si7 0.271367 0.614169 0.577643
O O1 0.841256 0.180677 0.605731
O O2 0.967599 0.181348 0.321935
O O3 0.832394 0.327593 0.387360
O O4 0.000000 0.312199 0.500000
O O5 0.349485 0.814380 0.819525
O O6 0.176822 0.884207 0.795700
O O7 0.319821 0.000000 0.852857
O O8 0.219841 0.885915 0.094563
O O9 0.348521 0.173144 0.274642
O O10 0.250039 0.000000 0.350558
O O11 0.499782 0.703617 0.228372
O O12 0.332744 0.642138 0.388840
O O13 0.359224 0.676481 0.051419
O O14 0.330195 0.367552 0.732711
O O15 0.978925 0.000000 0.205879
O O16 0.000000 0.846989 0.000000
O O17 0.246054 0.500000 0.576684
#
# Coordination Sequence:
#
# PCOD8060310 Si02
#       7
#     4   4   4   4   4   4   4
#     4  11  22  37  57  80 109 149 189 240 287 336
#     4   9  17  31  52  80 116 153 187 223 267 330
#     4   9  18  33  54  84 119 154 188 223 271 333
#     4   9  21  36  60  90 117 150 189 234 279 339
#     4  10  19  38  60  86 119 152 189 230 286 341
#     4  10  19  31  52  82 112 146 184 222 268 331
#     4  11  24  42  62  82 110 147 192 247 300 345
#
# _framework density 19.331067000000001
#
# number of rings (size 3 to 8) (size 9 to 14) (size 15 to 20)
#    0.000    2.143    1.429    1.714    0.000    4.857 
#    0.000    4.286    0.000    3.000    0.000    0.000 
#    0.000    0.000    0.000    0.000    0.000    0.000 
#
# Total GULP energy -346943.403756 kJ/mol
# GULP energy per Si atom -12390.835848 kJ/mol
# Density = 1.928707 g / cm^3
# Si number density = 19.331067 Si / 1000 Ang^3
#
#
#
# Elastic Constant Matrix: (Units=GPa)
#
#
# Indices 1 2 3 4 5 6 
#
# 1 106.2070 31.3030 29.8979 0.0000 4.7358 0.0000
# 2 31.3030 94.4784 29.3133 0.0000 2.7370 0.0000
# 3 29.8979 29.3133 74.4888 0.0000 -2.0556 0.0000
# 4 0.0000 0.0000 0.0000 23.5378 0.0000 3.0025
# 5 4.7358 2.7370 -2.0556 0.0000 24.3557 0.0000
# 6 0.0000 0.0000 0.0000 3.0025 0.0000 9.7204
#
#
#
# Elastic Compliance Matrix: (Units=1/GPa)
#
#
# Indices 1 2 3 4 5 6 
#
# 1 0.011277 -0.002562 -0.003579 0.000000 -0.002207 0.000000
# 2 -0.002562 0.012714 -0.004010 0.000000 -0.001269 0.000000
# 3 -0.003579 -0.004010 0.016509 0.000000 0.002540 0.000000
# 4 0.000000 0.000000 0.000000 0.044227 0.000000 -0.013661
# 5 -0.002207 -0.001269 0.002540 0.000000 0.041844 0.000000
# 6 0.000000 0.000000 0.000000 -0.013661 0.000000 0.107096
#
#
# Mechanical properties :
#
#
# Convention : Reuss Voigt Hill
#
# Bulk Modulus (GPa) = 49.50857 50.68917 50.09887
# Shear Modulus (GPa) = 19.17894 23.83345 21.50620
#
# Velocity S-wave (km/s) = 3.15323 3.51509 3.33906
# Velocity P-wave (km/s) = 6.23888 6.53858 6.39049
#
# Compressibility (1/GPa) = 0.02019852
#
# Stress axis : x y z
#
# Youngs Moduli (GPa) = 88.67983 78.65221 60.57122
#
# Poissons Ratio (x) = 0.20150 0.21678
# Poissons Ratio (y) = 0.22719 0.24290
# Poissons Ratio (z) = 0.31737 0.31541
#
# Static dielectric constant tensor:
#      x y z
#    x 3.563100 0.000000 0.147450 
#    y 0.000000 3.415660 0.000000 
#    z 0.147450 0.000000 3.654820 
# 
# 
# High freq. dielectric constant tensor:
#      x y z
#    x 1.755670 0.000000 0.004350 
#    y 0.000000 1.730890 0.000000 
#    z 0.004350 0.000000 1.758180 
# 
# From -- ./inp_files/28208.got.cif
#   From: 2010.06.25/outbox.cif.g09.slc.cpg/sg10_15_cif.got.tgz:28208.got - 2010.06.27 22:07:45.
