data_PCOD8060113
_publ_section_title
;
Structure prediction by ZEFSAII (Michael W. Deem and Ramdas Pophale) SiO2 
 PCOD8060113
Probable space group: P 2/M
;
_chemical_formula_sum "Si O2"
_cell_formula_units_Z 32
_cell_length_a 30.047385
_cell_length_b 9.214504
_cell_length_c 20.852053
_cell_angle_alpha 90.000000
_cell_angle_beta 161.237553
_cell_angle_gamma 90.000000
_cell_volume 1856.968337
_symmetry_space_group_name_H-M "P 2/M"
_symmetry_group_IT_number 10
_symmetry_cell_setting 'monoclinic'
loop_
_space_group_symop_operation_xyz
x,y,z
-x,y,-z
-x,-y,-z
x,-y,z
loop_
_atom_site_type_symbol
_atom_site_label
_atom_site_fract_x
_atom_site_fract_y
_atom_site_fract_z
Si Si1 0.130939 0.332601 0.506611
Si Si2 0.570167 0.327378 0.279854
Si Si3 0.540915 0.330223 0.737051
Si Si4 0.865303 0.332049 0.637689
Si Si5 0.588032 0.673755 0.059694
Si Si6 0.580627 0.165970 0.547721
Si Si7 0.863896 0.166582 0.997040
Si Si8 0.167654 0.670474 0.916892
O O1 0.132496 0.500000 0.525668
O O2 0.163127 0.305992 0.475959
O O3 0.254846 0.262968 0.717900
O O4 0.976426 0.272729 0.311981
O O5 0.562176 0.500000 0.266442
O O6 0.511174 0.266633 0.266300
O O7 0.729457 0.277514 0.490094
O O8 0.476975 0.264102 0.094686
O O9 0.510672 0.500000 0.690930
O O10 0.457263 0.256840 0.566092
O O11 0.705067 0.297812 0.956681
O O12 0.896751 0.500000 0.694848
O O13 0.997047 0.239785 0.840869
O O14 0.587381 0.500000 0.058468
O O15 0.500000 0.730308 0.000000
O O16 0.500000 0.227393 0.500000
O O17 0.534861 0.000000 0.473987
O O18 0.745396 0.179608 0.781740
O O19 0.806969 0.246078 0.982451
O O20 0.894998 0.000000 0.056669
O O21 0.154260 0.500000 0.915468
#
# Coordination Sequence:
#
# PCOD8060113 Si02
#       8
#     4   4   4   4   4   4   4   4
#     4   8  13  22  40  67  94 123 159 196 232 274
#     4   9  17  29  45  70 103 134 162 195 236 286
#     4  10  20  32  48  72 102 131 160 196 241 290
#     4   9  16  29  48  70  99 128 157 195 240 284
#     4   9  13  21  41  69  97 128 165 198 232 276
#     4  10  20  35  52  71  94 122 162 205 241 285
#     4  10  19  31  50  73  94 117 156 205 245 283
#     4   9  17  29  45  69 100 128 156 194 241 286
#
# _framework density 17.232388
#
# number of rings (size 3 to 8) (size 9 to 14) (size 15 to 20)
#    0.000    2.750    2.500    1.125    0.000    1.250 
#    0.000    1.875    0.000    7.500    0.000   10.500 
#    0.000    5.000    0.000    0.000    0.000    0.000 
#
# Total GULP energy -396617.914921 kJ/mol
# GULP energy per Si atom -12394.309841 kJ/mol
# Density = 1.719317 g / cm^3
# Si number density = 17.232388 Si / 1000 Ang^3
#
#
#
# Elastic Constant Matrix: (Units=GPa)
#
#
# Indices 1 2 3 4 5 6 
#
# 1 106.2552 30.3268 63.1192 0.0000 6.8383 0.0000
# 2 30.3268 36.8701 37.4002 0.0000 3.3885 0.0000
# 3 63.1192 37.4002 135.3056 0.0000 10.3937 0.0000
# 4 0.0000 0.0000 0.0000 6.2793 0.0000 7.5962
# 5 6.8383 3.3885 10.3937 0.0000 28.0709 0.0000
# 6 0.0000 0.0000 0.0000 7.5962 0.0000 5.6622
#
#
#
# Elastic Compliance Matrix: (Units=1/GPa)
#
#
# Indices 1 2 3 4 5 6 
#
# 1 0.014195 -0.006873 -0.004652 0.000000 -0.000906 0.000000
# 2 -0.006873 0.041032 -0.008114 0.000000 -0.000274 0.000000
# 3 -0.004652 -0.008114 0.011982 0.000000 -0.002324 0.000000
# 4 0.000000 0.000000 0.000000 -0.255654 0.000000 0.342977
# 5 -0.000906 -0.000274 -0.002324 0.000000 0.036738 0.000000
# 6 0.000000 0.000000 0.000000 0.342977 0.000000 -0.283516
#
#
# Mechanical properties :
#
#
# Convention : Reuss Voigt Hill
#
# Bulk Modulus (GPa) = 35.80476 60.01371 47.90923
# Shear Modulus (GPa) = -12.93218 17.84147 2.45464
#
# Velocity S-wave (km/s) = -2.74242 3.22117 1.19479
# Velocity P-wave (km/s) = 3.28555 6.98114 5.45578
#
# Compressibility (1/GPa) = 0.02792925
#
# Stress axis : x y z
#
# Youngs Moduli (GPa) = 70.44711 24.37126 83.45540
#
# Poissons Ratio (x) = 0.16751 0.38827
# Poissons Ratio (y) = 0.48420 0.67719
# Poissons Ratio (z) = 0.32775 0.19776
#
# Static dielectric constant tensor:
#      x y z
#    x 3.185730 0.000000 0.165250 
#    y 0.000000 2.835840 0.000000 
#    z 0.165250 0.000000 3.587090 
# 
# 
# High freq. dielectric constant tensor:
#      x y z
#    x 1.638660 0.000000 0.012370 
#    y 0.000000 1.620230 0.000000 
#    z 0.012370 0.000000 1.685530 
# 
# From -- ./inp_files/87217.got.cif
#   From: 2010.06.25/outbox.cif.g09.slc.cpg/sg10_44_cif.got.tgz:87217.got - 2010.06.27 22:07:45.
