data_PCOD8060856
_publ_section_title
;
Structure prediction by ZEFSAII (Michael W. Deem and Ramdas Pophale) SiO2 
 PCOD8060856
Probable space group: P 2/M
;
_chemical_formula_sum "Si O2"
_cell_formula_units_Z 24
_cell_length_a 24.882938
_cell_length_b 8.981996
_cell_length_c 17.304886
_cell_angle_alpha 90.000000
_cell_angle_beta 160.351738
_cell_angle_gamma 90.000000
_cell_volume 1300.466172
_symmetry_space_group_name_H-M "P 2/M"
_symmetry_group_IT_number 10
_symmetry_cell_setting 'monoclinic'
loop_
_space_group_symop_operation_xyz
x,y,z
-x,y,-z
-x,-y,-z
x,-y,z
loop_
_atom_site_type_symbol
_atom_site_label
_atom_site_fract_x
_atom_site_fract_y
_atom_site_fract_z
Si Si1 0.042169 0.672434 0.837164
Si Si2 0.895112 0.176644 0.785734
Si Si3 0.768415 0.175606 0.171854
Si Si4 0.458546 0.173756 0.663858
Si Si5 0.958206 0.673900 0.553469
Si Si6 0.395173 0.667895 0.282358
O O1 0.046330 0.500000 0.867123
O O2 0.964201 0.765323 0.799403
O O3 0.940800 0.697596 0.621554
O O4 0.220776 0.733830 0.064895
O O5 0.714917 0.240119 0.549815
O O6 0.897490 0.000000 0.785809
O O7 0.000000 0.235388 0.000000
O O8 0.806504 0.248846 0.306586
O O9 0.879560 0.249623 0.257054
O O10 0.802892 0.000000 0.221111
O O11 0.584225 0.210725 0.902220
O O12 0.516982 0.237482 0.662623
O O13 0.442592 0.000000 0.629168
O O14 0.964705 0.500000 0.540988
O O15 0.500000 0.674869 0.500000
O O16 0.375763 0.500000 0.224812
#
# Coordination Sequence:
#
# PCOD8060856 Si02
#       6
#     4   4   4   4   4   4
#     4  10  21  36  54  81 110 140 181 223 269 325
#     4  10  22  39  57  78 108 147 186 223 269 323
#     4  10  19  32  53  81 110 140 178 220 270 325
#     4  10  21  36  54  80 110 141 181 225 270 323
#     4  10  19  33  54  80 111 141 175 221 271 321
#     4  10  20  34  54  80 108 138 178 227 274 321
#
# _framework density 18.454920000000001
#
# number of rings (size 3 to 8) (size 9 to 14) (size 15 to 20)
#    0.000    2.000    1.667    3.000    0.000    4.000 
#    0.000    0.833    0.000    5.000    0.000    0.000 
#    0.000    0.000    0.000    0.000    0.000    0.000 
#
# Total GULP energy -297622.521463 kJ/mol
# GULP energy per Si atom -12400.938394 kJ/mol
# Density = 1.841292 g / cm^3
# Si number density = 18.454920 Si / 1000 Ang^3
#
#
#
# Elastic Constant Matrix: (Units=GPa)
#
#
# Indices 1 2 3 4 5 6 
#
# 1 120.2830 31.0034 69.6084 0.0000 -0.4943 0.0000
# 2 31.0034 52.2866 44.2288 0.0000 -6.7565 0.0000
# 3 69.6084 44.2288 150.5255 0.0000 2.1491 0.0000
# 4 0.0000 0.0000 0.0000 19.0253 0.0000 -2.2171
# 5 -0.4943 -6.7565 2.1491 0.0000 29.5651 0.0000
# 6 0.0000 0.0000 0.0000 -2.2171 0.0000 35.1236
#
#
#
# Elastic Compliance Matrix: (Units=1/GPa)
#
#
# Indices 1 2 3 4 5 6 
#
# 1 0.011730 -0.003189 -0.004484 0.000000 -0.000207 0.000000
# 2 -0.003189 0.027574 -0.006724 0.000000 0.006737 0.000000
# 3 -0.004484 -0.006724 0.010727 0.000000 -0.002391 0.000000
# 4 0.000000 0.000000 0.000000 0.052951 0.000000 0.003343
# 5 -0.000207 0.006737 -0.002391 0.000000 0.035534 0.000000
# 6 0.000000 0.000000 0.000000 0.003343 0.000000 0.028682
#
#
# Mechanical properties :
#
#
# Convention : Reuss Voigt Hill
#
# Bulk Modulus (GPa) = 47.08683 68.08626 57.58654
# Shear Modulus (GPa) = 24.62198 28.62642 26.62420
#
# Velocity S-wave (km/s) = 3.65659 3.94274 3.80236
# Velocity P-wave (km/s) = 6.58767 7.59607 7.10977
#
# Compressibility (1/GPa) = 0.02123736
#
# Stress axis : x y z
#
# Youngs Moduli (GPa) = 85.25184 36.26587 93.22297
#
# Poissons Ratio (x) = 0.11564 0.41806
# Poissons Ratio (y) = 0.27183 0.62681
# Poissons Ratio (z) = 0.38231 0.24384
#
# Static dielectric constant tensor:
#      x y z
#    x 3.268420 0.000000 -0.165070 
#    y 0.000000 3.491830 0.000000 
#    z -0.165070 0.000000 3.831080 
# 
# 
# High freq. dielectric constant tensor:
#      x y z
#    x 1.708550 0.000000 -0.017270 
#    y 0.000000 1.714510 0.000000 
#    z -0.017270 0.000000 1.724720 
# 
# From -- ./inp_files/66333.got.cif
#   From: 2010.06.25/outbox.cif.g09.slc.cpg/sg10_34_cif.got.tgz:66333.got - 2010.06.27 22:07:45.
