data_PCOD8060458
_publ_section_title
;
Structure prediction by ZEFSAII (Michael W. Deem and Ramdas Pophale) SiO2 
 PCOD8060458
Probable space group: P 2/M
;
_chemical_formula_sum "Si O2"
_cell_formula_units_Z 32
_cell_length_a 9.928287
_cell_length_b 19.977182
_cell_length_c 12.018143
_cell_angle_alpha 90.000000
_cell_angle_beta 54.424691
_cell_angle_gamma 90.000000
_cell_volume 1938.760721
_symmetry_space_group_name_H-M "P 2/M"
_symmetry_group_IT_number 10
_symmetry_cell_setting 'monoclinic'
loop_
_space_group_symop_operation_xyz
x,y,z
-x,y,-z
-x,-y,-z
x,-y,z
loop_
_atom_site_type_symbol
_atom_site_label
_atom_site_fract_x
_atom_site_fract_y
_atom_site_fract_z
Si Si1 0.516551 0.183923 0.171686
Si Si2 0.967728 0.422067 0.141387
Si Si3 0.725947 0.925443 0.164757
Si Si4 0.502896 0.665286 0.816198
Si Si5 0.585279 0.577695 0.346181
Si Si6 0.970270 0.925707 0.839415
Si Si7 0.767217 0.815269 0.847915
Si Si8 0.771580 0.664897 0.866817
O O1 0.577754 0.129221 0.232726
O O2 0.513322 0.258905 0.222466
O O3 0.330151 0.169367 0.219719
O O4 0.639115 0.177605 0.009543
O O5 0.014289 0.500000 0.126984
O O6 0.779043 0.407285 0.262358
O O7 0.074495 0.383773 0.183741
O O8 0.000000 0.395856 0.000000
O O9 0.839521 0.911957 0.218166
O O10 0.647116 0.000000 0.207800
O O11 0.847950 0.920393 0.002151
O O12 0.497825 0.615742 0.715871
O O13 0.674269 0.649847 0.798850
O O14 0.351021 0.653501 0.971666
O O15 0.500000 0.602774 0.500000
O O16 0.550750 0.500000 0.341462
O O17 0.916577 0.868578 0.778455
O O18 0.954884 0.000000 0.793821
O O19 0.840652 0.740471 0.821817
#
# Coordination Sequence:
#
# PCOD8060458 Si02
#       8
#     4   4   4   4   4   4   4   4
#     4   8  14  23  35  52  77 107 143 184 221 266
#     4  10  19  32  49  72  96 117 152 195 228 271
#     4   8  13  20  29  45  71 105 145 183 218 260
#     4   9  17  30  47  67  93 122 153 191 236 279
#     4  10  21  36  51  69  96 126 154 188 234 283
#     4   8  13  20  28  42  70 108 147 180 214 264
#     4   8  14  23  33  52  79 107 142 183 225 264
#     4   9  17  29  46  70  94 117 153 197 234 275
#
# _framework density 16.505389999999998
#
# number of rings (size 3 to 8) (size 9 to 14) (size 15 to 20)
#    0.000    3.250    1.250    2.250    0.000    2.000 
#    2.250    4.375    0.000    2.250    0.000    0.000 
#    0.000    0.500    0.000    0.250    0.000   23.125 
#
# Total GULP energy -396525.722862 kJ/mol
# GULP energy per Si atom -12391.428839 kJ/mol
# Density = 1.646782 g / cm^3
# Si number density = 16.505390 Si / 1000 Ang^3
#
#
#
# Elastic Constant Matrix: (Units=GPa)
#
#
# Indices 1 2 3 4 5 6 
#
# 1 117.8457 86.0813 31.4077 0.0000 8.0327 0.0000
# 2 86.0813 107.3813 30.6791 0.0000 8.4983 0.0000
# 3 31.4077 30.6791 45.0643 0.0000 2.6355 0.0000
# 4 0.0000 0.0000 0.0000 6.3004 0.0000 1.4658
# 5 8.0327 8.4983 2.6355 0.0000 11.5587 0.0000
# 6 0.0000 0.0000 0.0000 1.4658 0.0000 39.9323
#
#
#
# Elastic Compliance Matrix: (Units=1/GPa)
#
#
# Indices 1 2 3 4 5 6 
#
# 1 0.021083 -0.015593 -0.003945 0.000000 -0.002288 0.000000
# 2 -0.015593 0.023646 -0.004913 0.000000 -0.005429 0.000000
# 3 -0.003945 -0.004913 0.028290 0.000000 -0.000097 0.000000
# 4 0.000000 0.000000 0.000000 0.160088 0.000000 -0.005876
# 5 -0.002288 -0.005429 -0.000097 0.000000 0.092118 0.000000
# 6 0.000000 0.000000 0.000000 -0.005876 0.000000 0.025258
#
#
# Mechanical properties :
#
#
# Convention : Reuss Voigt Hill
#
# Bulk Modulus (GPa) = 41.46247 62.95863 52.21055
# Shear Modulus (GPa) = 12.27229 19.69983 15.98606
#
# Velocity S-wave (km/s) = 2.72974 3.45851 3.11551
# Velocity P-wave (km/s) = 5.92540 7.36040 6.68154
#
# Compressibility (1/GPa) = 0.02411819
#
# Stress axis : x y z
#
# Youngs Moduli (GPa) = 47.43200 42.29104 35.34840
#
# Poissons Ratio (x) = 0.65944 0.13943
# Poissons Ratio (y) = 0.73960 0.17365
# Poissons Ratio (z) = 0.18710 0.20776
#
# Static dielectric constant tensor:
#      x y z
#    x 3.415770 0.000000 0.022520 
#    y 0.000000 3.305300 0.000000 
#    z 0.022520 0.000000 2.509610 
# 
# 
# High freq. dielectric constant tensor:
#      x y z
#    x 1.643960 0.000000 0.001440 
#    y 0.000000 1.642930 0.000000 
#    z 0.001440 0.000000 1.560320 
# 
# From -- ./inp_files/43526.got.cif
#   From: 2010.06.25/outbox.cif.g09.slc.cpg/sg10_22_cif.got.tgz:43526.got - 2010.06.27 22:07:45.
