data_PCOD8060990
_publ_section_title
;
Structure prediction by ZEFSAII (Michael W. Deem and Ramdas Pophale) SiO2 
 PCOD8060990
Probable space group: P 2/M
;
_chemical_formula_sum "Si O2"
_cell_formula_units_Z 28
_cell_length_a 11.629047
_cell_length_b 9.657273
_cell_length_c 15.472878
_cell_angle_alpha 90.000000
_cell_angle_beta 123.046329
_cell_angle_gamma 90.000000
_cell_volume 1456.575112
_symmetry_space_group_name_H-M "P 2/M"
_symmetry_group_IT_number 10
_symmetry_cell_setting 'monoclinic'
loop_
_space_group_symop_operation_xyz
x,y,z
-x,y,-z
-x,-y,-z
x,-y,z
loop_
_atom_site_type_symbol
_atom_site_label
_atom_site_fract_x
_atom_site_fract_y
_atom_site_fract_z
Si Si1 0.653823 0.337970 0.729201
Si Si2 0.424611 0.157126 0.700663
Si Si3 0.394513 0.160760 0.883150
Si Si4 0.840770 0.340382 0.148738
Si Si5 0.133993 0.159917 0.504663
Si Si6 0.859307 0.340575 0.661496
Si Si7 0.148319 0.662864 0.042268
O O1 0.622490 0.500000 0.726542
O O2 0.510120 0.256866 0.672353
O O3 0.732991 0.306996 0.673025
O O4 0.741901 0.277357 0.845344
O O5 0.458477 0.188332 0.814978
O O6 0.263505 0.182693 0.619922
O O7 0.464040 0.000000 0.693286
O O8 0.253667 0.245987 0.830059
O O9 0.358022 0.000000 0.881141
O O10 0.500000 0.212279 0.000000
O O11 0.807196 0.500000 0.154873
O O12 0.999787 0.307845 0.230940
O O13 0.805228 0.302606 0.035445
O O14 0.156688 0.245599 0.427644
O O15 0.000000 0.215089 0.500000
O O16 0.114674 0.000000 0.470766
O O17 0.855371 0.500000 0.630475
O O18 0.136645 0.500000 0.054149
O O19 0.000000 0.730853 0.000000
#
# Coordination Sequence:
#
# PCOD8060990 Si02
#       7
#     4   4   4   4   4   4   4
#     4  10  20  35  57  84 114 147 182 221 271 329
#     4  10  22  39  57  79 110 146 183 226 274 327
#     4  10  21  37  56  79 111 147 181 224 277 326
#     4  10  19  32  55  84 111 142 183 227 271 324
#     4  10  22  41  62  80 103 143 190 228 271 329
#     4  10  21  36  56  85 114 140 178 230 279 320
#     4   9  15  29  53  79 111 148 180 213 260 320
#
# _framework density 19.223175999999999
#
# number of rings (size 3 to 8) (size 9 to 14) (size 15 to 20)
#    0.000    2.143    1.429    1.714    0.000    4.571 
#    0.000    2.857    0.000    0.857    0.000    0.000 
#    0.000    0.000    0.000    0.000    0.000    0.000 
#
# Total GULP energy -347268.420182 kJ/mol
# GULP energy per Si atom -12402.443578 kJ/mol
# Density = 1.917942 g / cm^3
# Si number density = 19.223176 Si / 1000 Ang^3
#
#
#
# Elastic Constant Matrix: (Units=GPa)
#
#
# Indices 1 2 3 4 5 6 
#
# 1 133.9135 62.9694 37.8393 0.0000 2.7651 0.0000
# 2 62.9694 64.4199 39.3524 0.0000 -4.8527 0.0000
# 3 37.8393 39.3524 95.2729 0.0000 -9.6652 0.0000
# 4 0.0000 0.0000 0.0000 28.6841 0.0000 -1.5508
# 5 2.7651 -4.8527 -9.6652 0.0000 24.6180 0.0000
# 6 0.0000 0.0000 0.0000 -1.5508 0.0000 32.3010
#
#
#
# Elastic Compliance Matrix: (Units=1/GPa)
#
#
# Indices 1 2 3 4 5 6 
#
# 1 0.014284 -0.014120 -0.000298 0.000000 -0.004505 0.000000
# 2 -0.014120 0.034733 -0.008210 0.000000 0.005209 0.000000
# 3 -0.000298 -0.008210 0.014419 0.000000 0.004076 0.000000
# 4 0.000000 0.000000 0.000000 0.034953 0.000000 0.001678
# 5 -0.004505 0.005209 0.004076 0.000000 0.043754 0.000000
# 6 0.000000 0.000000 0.000000 0.001678 0.000000 0.031039
#
#
# Mechanical properties :
#
#
# Convention : Reuss Voigt Hill
#
# Bulk Modulus (GPa) = 55.00404 63.76984 59.38694
# Shear Modulus (GPa) = 22.27186 27.35029 24.81108
#
# Velocity S-wave (km/s) = 3.40751 3.77606 3.59651
# Velocity P-wave (km/s) = 6.64507 7.22890 6.94312
#
# Compressibility (1/GPa) = 0.01818048
#
# Stress axis : x y z
#
# Youngs Moduli (GPa) = 70.00711 28.79127 69.35217
#
# Poissons Ratio (x) = 0.40653 0.02067
# Poissons Ratio (y) = 0.98849 0.56937
# Poissons Ratio (z) = 0.02086 0.23637
#
# Static dielectric constant tensor:
#      x y z
#    x 3.453680 0.000000 0.037830 
#    y 0.000000 3.285010 0.000000 
#    z 0.037830 0.000000 3.577360 
# 
# 
# High freq. dielectric constant tensor:
#      x y z
#    x 1.753160 0.000000 0.000820 
#    y 0.000000 1.724820 0.000000 
#    z 0.000820 0.000000 1.751960 
# 
# From -- ./inp_files/28670.got.cif
#   From: 2010.06.25/outbox.cif.g09.slc.cpg/sg10_15_cif.got.tgz:28670.got - 2010.06.27 22:07:45.
