data_PCOD8060677
_publ_section_title
;
Structure prediction by ZEFSAII (Michael W. Deem and Ramdas Pophale) SiO2 
 PCOD8060677
Probable space group: P 2/M
;
_chemical_formula_sum "Si O2"
_cell_formula_units_Z 32
_cell_length_a 14.701212
_cell_length_b 8.856392
_cell_length_c 25.878261
_cell_angle_alpha 90.000000
_cell_angle_beta 148.561073
_cell_angle_gamma 90.000000
_cell_volume 1757.412988
_symmetry_space_group_name_H-M "P 2/M"
_symmetry_group_IT_number 10
_symmetry_cell_setting 'monoclinic'
loop_
_space_group_symop_operation_xyz
x,y,z
-x,y,-z
-x,-y,-z
x,-y,z
loop_
_atom_site_type_symbol
_atom_site_label
_atom_site_fract_x
_atom_site_fract_y
_atom_site_fract_z
Si Si1 0.098241 0.323662 0.668874
Si Si2 0.651077 0.177263 0.283171
Si Si3 0.100683 0.824300 0.340919
Si Si4 0.052909 0.678962 0.101083
Si Si5 0.762395 0.676288 0.439479
Si Si6 0.175545 0.175674 0.261862
Si Si7 0.253569 0.179247 0.108319
Si Si8 0.430221 0.174764 0.566544
O O1 0.132197 0.500000 0.687560
O O2 0.273393 0.243707 0.733576
O O3 0.051693 0.266311 0.703714
O O4 0.941238 0.279586 0.554420
O O5 0.761397 0.243106 0.384022
O O6 0.450147 0.225049 0.190408
O O7 0.673849 0.000000 0.293867
O O8 0.093456 0.781569 0.277248
O O9 0.290835 0.779497 0.455175
O O10 0.065844 0.000000 0.332704
O O11 0.056457 0.500000 0.095029
O O12 0.079425 0.721158 0.173496
O O13 0.206387 0.755327 0.141821
O O14 0.867270 0.744078 0.993337
O O15 0.745993 0.500000 0.421666
O O16 0.600950 0.730843 0.396327
O O17 0.380281 0.213792 0.363505
O O18 0.145998 0.000000 0.234218
O O19 0.224582 0.000000 0.094456
O O20 0.413464 0.000000 0.573554
#
# Coordination Sequence:
#
# PCOD8060677 Si02
#       8
#     4   4   4   4   4   4   4   4
#     4  10  21  35  50  71 103 139 171 208 253 297
#     4  11  22  34  53  77  98 129 172 212 251 298
#     4   9  18  33  52  73 100 136 177 215 247 288
#     4  11  22  35  54  80 107 134 164 200 248 305
#     4  10  20  32  47  72 106 140 170 203 249 300
#     4  10  19  32  52  76 103 136 172 210 252 295
#     4  10  21  38  57  77 103 132 164 205 253 302
#     4   9  17  30  49  74 103 136 174 211 247 291
#
# _framework density 18.208583000000001
#
# number of rings (size 3 to 8) (size 9 to 14) (size 15 to 20)
#    0.000    2.000    0.000    4.875    0.000   10.500 
#    0.000    0.000    0.000    4.500    0.000    5.250 
#    0.000    0.000    0.000    0.000    0.000    0.000 
#
# Total GULP energy -396923.674285 kJ/mol
# GULP energy per Si atom -12403.864821 kJ/mol
# Density = 1.816714 g / cm^3
# Si number density = 18.208583 Si / 1000 Ang^3
#
#
#
# Elastic Constant Matrix: (Units=GPa)
#
#
# Indices 1 2 3 4 5 6 
#
# 1 134.5874 50.9359 53.7899 0.0000 4.2442 0.0000
# 2 50.9359 76.8585 38.5591 0.0000 5.0450 0.0000
# 3 53.7899 38.5591 62.0748 0.0000 -1.5557 0.0000
# 4 0.0000 0.0000 0.0000 20.0927 0.0000 -6.1346
# 5 4.2442 5.0450 -1.5557 0.0000 28.6515 0.0000
# 6 0.0000 0.0000 0.0000 -6.1346 0.0000 15.9434
#
#
#
# Elastic Compliance Matrix: (Units=1/GPa)
#
#
# Indices 1 2 3 4 5 6 
#
# 1 0.012239 -0.003874 -0.008238 0.000000 -0.001578 0.000000
# 2 -0.003874 0.020590 -0.009522 0.000000 -0.003569 0.000000
# 3 -0.008238 -0.009522 0.029276 0.000000 0.004487 0.000000
# 4 0.000000 0.000000 0.000000 0.056394 0.000000 0.021699
# 5 -0.001578 -0.003569 0.004487 0.000000 0.036008 0.000000
# 6 0.000000 0.000000 0.000000 0.021699 0.000000 0.071071
#
#
# Mechanical properties :
#
#
# Convention : Reuss Voigt Hill
#
# Bulk Modulus (GPa) = 53.09265 62.23229 57.66247
# Shear Modulus (GPa) = 18.17358 21.61991 19.89675
#
# Velocity S-wave (km/s) = 3.16266 3.44953 3.30921
# Velocity P-wave (km/s) = 6.52364 7.07936 6.80717
#
# Compressibility (1/GPa) = 0.01883500
#
# Stress axis : x y z
#
# Youngs Moduli (GPa) = 81.70845 48.56763 34.15819
#
# Poissons Ratio (x) = 0.18816 0.28140
# Poissons Ratio (y) = 0.31656 0.32526
# Poissons Ratio (z) = 0.67313 0.46247
#
# Static dielectric constant tensor:
#      x y z
#    x 3.454600 0.000000 0.025580 
#    y 0.000000 3.353190 0.000000 
#    z 0.025580 0.000000 3.198480 
# 
# 
# High freq. dielectric constant tensor:
#      x y z
#    x 1.708500 0.000000 0.002380 
#    y 0.000000 1.710220 0.000000 
#    z 0.002380 0.000000 1.681460 
# 
# From -- ./inp_files/66543.got.cif
#   From: 2010.06.25/outbox.cif.g09.slc.cpg/sg10_34_cif.got.tgz:66543.got - 2010.06.27 22:07:45.
