data_PCOD8060498
_publ_section_title
;
Structure prediction by ZEFSAII (Michael W. Deem and Ramdas Pophale) SiO2 
 PCOD8060498
Probable space group: P 2/M
;
_chemical_formula_sum "Si O2"
_cell_formula_units_Z 32
_cell_length_a 24.138737
_cell_length_b 9.282041
_cell_length_c 11.655243
_cell_angle_alpha 90.000000
_cell_angle_beta 137.542876
_cell_angle_gamma 90.000000
_cell_volume 1762.819184
_symmetry_space_group_name_H-M "P 2/M"
_symmetry_group_IT_number 10
_symmetry_cell_setting 'monoclinic'
loop_
_space_group_symop_operation_xyz
x,y,z
-x,y,-z
-x,-y,-z
x,-y,z
loop_
_atom_site_type_symbol
_atom_site_label
_atom_site_fract_x
_atom_site_fract_y
_atom_site_fract_z
Si Si1 0.319915 0.169015 0.298780
Si Si2 0.474663 0.337589 0.592833
Si Si3 0.153751 0.670014 0.423092
Si Si4 0.969623 0.335622 0.175254
Si Si5 0.372439 0.165646 0.123665
Si Si6 0.222628 0.831894 0.736024
Si Si7 0.915526 0.162928 0.304642
Si Si8 0.179429 0.664513 0.203982
O O1 0.391487 0.247091 0.480741
O O2 0.327620 0.202816 0.175210
O O3 0.233538 0.230113 0.209220
O O4 0.324817 0.000000 0.331457
O O5 0.500000 0.337259 0.500000
O O6 0.461269 0.500000 0.617938
O O7 0.547543 0.262941 0.775842
O O8 0.156464 0.500000 0.447085
O O9 0.214663 0.746532 0.605154
O O10 0.186023 0.710477 0.346426
O O11 0.060565 0.728943 0.295275
O O12 0.977602 0.500000 0.226968
O O13 0.919452 0.253636 0.195853
O O14 0.916204 0.321402 0.977852
O O15 0.400837 0.000000 0.169287
O O16 0.311774 0.197271 0.925669
O O17 0.154841 0.772560 0.721246
O O18 0.207682 0.000000 0.688788
O O19 0.000000 0.171951 0.500000
O O20 0.892815 0.000000 0.235260
O O21 0.209359 0.500000 0.231559
#
# Coordination Sequence:
#
# PCOD8060498 Si02
#       8
#     4   4   4   4   4   4   4   4
#     4  10  19  33  54  79 106 135 168 204 249 305
#     4   9  17  30  51  79 109 136 163 199 248 302
#     4  10  21  36  52  70  97 135 177 217 258 301
#     4  10  20  34  53  74  98 131 174 218 259 305
#     4   9  18  32  51  77 108 137 166 202 249 304
#     4  10  20  34  51  73 103 138 172 209 254 302
#     4  10  19  32  50  72 102 135 166 206 256 303
#     4  10  21  36  52  72 100 134 172 217 261 299
#
# _framework density 18.152740999999999
#
# number of rings (size 3 to 8) (size 9 to 14) (size 15 to 20)
#    0.000    2.250    1.250    1.875    0.000    6.750 
#    0.000    0.000    0.000    3.000    0.000    5.250 
#    0.000    0.000    0.000    0.000    0.000    0.000 
#
# Total GULP energy -396861.478728 kJ/mol
# GULP energy per Si atom -12401.921210 kJ/mol
# Density = 1.811142 g / cm^3
# Si number density = 18.152741 Si / 1000 Ang^3
#
#
#
# Elastic Constant Matrix: (Units=GPa)
#
#
# Indices 1 2 3 4 5 6 
#
# 1 44.5584 29.1517 32.3788 0.0000 -6.6866 0.0000
# 2 29.1517 74.7541 45.6866 0.0000 -3.2367 0.0000
# 3 32.3788 45.6866 107.0669 0.0000 -2.7476 0.0000
# 4 0.0000 0.0000 0.0000 29.7869 0.0000 1.9278
# 5 -6.6866 -3.2367 -2.7476 0.0000 26.8995 0.0000
# 6 0.0000 0.0000 0.0000 1.9278 0.0000 25.3055
#
#
#
# Elastic Compliance Matrix: (Units=1/GPa)
#
#
# Indices 1 2 3 4 5 6 
#
# 1 0.033936 -0.009167 -0.006179 0.000000 0.006701 0.000000
# 2 -0.009167 0.020625 -0.006039 0.000000 -0.000414 0.000000
# 3 -0.006179 -0.006039 0.013764 0.000000 -0.000857 0.000000
# 4 0.000000 0.000000 0.000000 0.033738 0.000000 -0.002570
# 5 0.006701 -0.000414 -0.000857 0.000000 0.038704 0.000000
# 6 0.000000 0.000000 0.000000 -0.002570 0.000000 0.039713
#
#
# Mechanical properties :
#
#
# Convention : Reuss Voigt Hill
#
# Bulk Modulus (GPa) = 39.13376 48.97929 44.05653
# Shear Modulus (GPa) = 21.57328 24.34255 22.95791
#
# Velocity S-wave (km/s) = 3.45110 3.66592 3.56013
# Velocity P-wave (km/s) = 6.12250 6.70514 6.42043
#
# Compressibility (1/GPa) = 0.02555338
#
# Stress axis : x y z
#
# Youngs Moduli (GPa) = 29.46749 48.48443 72.65553
#
# Poissons Ratio (x) = 0.44448 0.44893
# Poissons Ratio (y) = 0.27014 0.43878
# Poissons Ratio (z) = 0.18208 0.29281
#
# Static dielectric constant tensor:
#      x y z
#    x 3.098380 0.000000 0.079770 
#    y 0.000000 3.345720 0.000000 
#    z 0.079770 0.000000 3.369470 
# 
# 
# High freq. dielectric constant tensor:
#      x y z
#    x 1.675880 0.000000 0.009150 
#    y 0.000000 1.700560 0.000000 
#    z 0.009150 0.000000 1.706960 
# 
# From -- ./inp_files/55202.got.cif
#   From: 2010.06.25/outbox.cif.g09.slc.cpg/sg10_28_cif.got.tgz:55202.got - 2010.06.27 22:07:45.
