data_PCOD8060876
_publ_section_title
;
Structure prediction by ZEFSAII (Michael W. Deem and Ramdas Pophale) SiO2 
 PCOD8060876
Probable space group: P 2/M
;
_chemical_formula_sum "Si O2"
_cell_formula_units_Z 30
_cell_length_a 28.911826
_cell_length_b 10.945656
_cell_length_c 24.109996
_cell_angle_alpha 90.000000
_cell_angle_beta 167.893158
_cell_angle_gamma 90.000000
_cell_volume 1600.243367
_symmetry_space_group_name_H-M "P 2/M"
_symmetry_group_IT_number 10
_symmetry_cell_setting 'monoclinic'
loop_
_space_group_symop_operation_xyz
x,y,z
-x,y,-z
-x,-y,-z
x,-y,z
loop_
_atom_site_type_symbol
_atom_site_label
_atom_site_fract_x
_atom_site_fract_y
_atom_site_fract_z
Si Si1 0.765180 0.635050 0.208469
Si Si2 0.285791 0.861799 0.023515
Si Si3 0.500000 0.700778 0.000000
Si Si4 0.797201 0.864818 0.419248
Si Si5 0.553717 0.215994 0.238952
Si Si6 0.353735 0.360525 0.185545
Si Si7 0.092393 0.641419 0.276719
Si Si8 0.156539 0.639376 0.229619
O O1 0.815013 0.500000 0.244215
O O2 0.602623 0.622156 0.070788
O O3 0.000000 0.697758 0.500000
O O4 0.648829 0.705471 0.022199
O O5 0.454183 0.870193 0.169637
O O6 0.359870 0.749352 0.148748
O O7 0.284576 0.000000 0.049251
O O8 0.044232 0.822529 0.720865
O O9 0.699844 0.780891 0.257476
O O10 0.654128 0.864558 0.307658
O O11 0.795557 0.000000 0.392568
O O12 0.748860 0.298952 0.491967
O O13 0.329117 0.500000 0.130929
O O14 0.589791 0.352241 0.493050
O O15 0.161372 0.336790 0.004058
O O16 0.157265 0.500000 0.351954
O O17 0.126631 0.699971 0.255629
O O18 0.076410 0.500000 0.141550
O O19 0.000000 0.704633 0.000000
#
# Coordination Sequence:
#
# PCOD8060876 Si02
#       8
#     4   4   2   4   4   4   4   4
#     4  10  21  35  51  75 107 142 183 229 282 334
#     4  11  22  36  55  83 113 145 186 232 282 334
#     4  10  20  36  54  72 100 140 182 226 284 340
#     4  10  21  36  53  76 104 137 183 234 281 333
#     4  11  20  34  55  77 106 144 187 230 278 333
#     4  10  20  35  56  84 113 146 184 225 276 331
#     4  10  19  32  53  83 114 143 183 227 275 328
#     4   9  18  33  55  84 118 149 180 223 274 329
#
# _framework density 18.747149
#
# number of rings (size 3 to 8) (size 9 to 14) (size 15 to 20)
#    0.000    1.867    2.667    2.000    0.000    1.067 
#    0.000    3.333    0.000    6.800    0.000    0.933 
#    0.000    0.000    0.000    0.000    0.000    0.000 
#
# Total GULP energy -371826.385169 kJ/mol
# GULP energy per Si atom -12394.212839 kJ/mol
# Density = 1.870448 g / cm^3
# Si number density = 18.747149 Si / 1000 Ang^3
#
#
#
# Elastic Constant Matrix: (Units=GPa)
#
#
# Indices 1 2 3 4 5 6 
#
# 1 58.1853 10.4718 28.3677 0.0000 2.1754 0.0000
# 2 10.4718 69.1126 33.6009 0.0000 -10.2940 0.0000
# 3 28.3677 33.6009 130.4838 0.0000 -2.1502 0.0000
# 4 0.0000 0.0000 0.0000 12.0738 0.0000 -1.3563
# 5 2.1754 -10.2940 -2.1502 0.0000 33.9905 0.0000
# 6 0.0000 0.0000 0.0000 -1.3563 0.0000 1.4710
#
#
#
# Elastic Compliance Matrix: (Units=1/GPa)
#
#
# Indices 1 2 3 4 5 6 
#
# 1 0.019400 -0.001320 -0.003909 0.000000 -0.001889 0.000000
# 2 -0.001320 0.017431 -0.004118 0.000000 0.005103 0.000000
# 3 -0.003909 -0.004118 0.009567 0.000000 -0.000392 0.000000
# 4 0.000000 0.000000 0.000000 0.092394 0.000000 0.085190
# 5 -0.001889 0.005103 -0.000392 0.000000 0.031062 0.000000
# 6 0.000000 0.000000 0.000000 0.085190 0.000000 0.758352
#
#
# Mechanical properties :
#
#
# Convention : Reuss Voigt Hill
#
# Bulk Modulus (GPa) = 36.09409 44.74028 40.41718
# Shear Modulus (GPa) = 5.22938 21.86315 13.54627
#
# Velocity S-wave (km/s) = 1.67197 3.41869 2.69100
# Velocity P-wave (km/s) = 4.79815 6.28492 5.59117
#
# Compressibility (1/GPa) = 0.02770537
#
# Stress axis : x y z
#
# Youngs Moduli (GPa) = 51.54520 57.36860 104.52119
#
# Poissons Ratio (x) = 0.07575 0.40856
# Poissons Ratio (y) = 0.06806 0.43037
# Poissons Ratio (z) = 0.20148 0.23622
#
# Static dielectric constant tensor:
#      x y z
#    x 3.438210 0.000000 0.064110 
#    y 0.000000 3.183710 0.000000 
#    z 0.064110 0.000000 3.594090 
# 
# 
# High freq. dielectric constant tensor:
#      x y z
#    x 1.720170 0.000000 0.016040 
#    y 0.000000 1.702980 0.000000 
#    z 0.016040 0.000000 1.740800 
# 
# From -- ./inp_files/91481.got.cif
#   From: 2010.06.25/outbox.cif.g09.slc.cpg/sg10_46_cif.got.tgz:91481.got - 2010.06.27 22:07:45.
