data_PCOD8060136
_publ_section_title
;
Structure prediction by ZEFSAII (Michael W. Deem and Ramdas Pophale) SiO2 
 PCOD8060136
Probable space group: P 2/M
;
_chemical_formula_sum "Si O2"
_cell_formula_units_Z 32
_cell_length_a 31.023191
_cell_length_b 9.473880
_cell_length_c 13.229975
_cell_angle_alpha 90.000000
_cell_angle_beta 26.313041
_cell_angle_gamma 90.000000
_cell_volume 1723.641058
_symmetry_space_group_name_H-M "P 2/M"
_symmetry_group_IT_number 10
_symmetry_cell_setting 'monoclinic'
loop_
_space_group_symop_operation_xyz
x,y,z
-x,y,-z
-x,-y,-z
x,-y,z
loop_
_atom_site_type_symbol
_atom_site_label
_atom_site_fract_x
_atom_site_fract_y
_atom_site_fract_z
Si Si1 0.654490 0.653437 0.376173
Si Si2 0.544475 0.342030 0.304822
Si Si3 0.918868 0.163418 0.865423
Si Si4 0.862619 0.839493 0.604080
Si Si5 0.671422 0.837272 0.899929
Si Si6 0.829022 0.663711 0.874205
Si Si7 0.737886 0.164796 0.367728
Si Si8 0.604143 0.831986 0.824235
O O1 0.687134 0.500000 0.351279
O O2 0.540681 0.651706 0.597466
O O3 0.670750 0.776229 0.420810
O O4 0.716142 0.680937 0.144013
O O5 0.500000 0.275406 0.500000
O O6 0.585956 0.500000 0.238875
O O7 0.628545 0.243738 0.086081
O O8 0.896738 0.259400 0.814703
O O9 0.029683 0.189176 0.666321
O O10 0.900120 0.000000 0.875112
O O11 0.850131 0.205428 0.106267
O O12 0.788012 0.817627 0.667178
O O13 0.841066 0.733924 0.740419
O O14 0.854595 0.000000 0.662210
O O15 0.630359 0.773388 0.880893
O O16 0.641041 0.000000 0.971920
O O17 0.860535 0.500000 0.801315
O O18 0.694445 0.222319 0.564798
O O19 0.721971 0.000000 0.399764
O O20 0.601005 0.000000 0.834557
O O21 0.500000 0.775095 0.000000
#
# Coordination Sequence:
#
# PCOD8060136 Si02
#       8
#     4   4   4   4   4   4   4   4
#     4   9  18  31  47  70  99 126 155 198 247 290
#     4  10  20  34  50  69  98 133 162 193 239 291
#     4   9  18  32  49  71 100 132 165 202 244 287
#     4  10  20  33  47  67 100 135 164 202 248 288
#     4  10  21  35  51  73  99 129 167 205 243 292
#     4  10  19  31  50  75 100 130 168 203 238 288
#     4   9  17  31  52  73  93 123 162 199 240 291
#     4   9  17  31  52  76  99 122 155 205 254 290
#
# _framework density 18.565349999999999
#
# number of rings (size 3 to 8) (size 9 to 14) (size 15 to 20)
#    0.000    2.500    0.000    2.250    0.000    5.750 
#    0.000    1.250    0.000    6.000    0.000    0.000 
#    0.000    6.000    0.000    0.000    0.000    0.000 
#
# Total GULP energy -396592.846837 kJ/mol
# GULP energy per Si atom -12393.526464 kJ/mol
# Density = 1.852309 g / cm^3
# Si number density = 18.565350 Si / 1000 Ang^3
#
#
#
# Elastic Constant Matrix: (Units=GPa)
#
#
# Indices 1 2 3 4 5 6 
#
# 1 89.6386 27.6748 56.4018 0.0000 0.2263 0.0000
# 2 27.6748 42.9868 36.7118 0.0000 1.1634 0.0000
# 3 56.4018 36.7118 105.5600 0.0000 5.2503 0.0000
# 4 0.0000 0.0000 0.0000 13.6712 0.0000 -2.3274
# 5 0.2263 1.1634 5.2503 0.0000 32.5886 0.0000
# 6 0.0000 0.0000 0.0000 -2.3274 0.0000 12.2508
#
#
#
# Elastic Compliance Matrix: (Units=1/GPa)
#
#
# Indices 1 2 3 4 5 6 
#
# 1 0.017490 -0.004636 -0.007798 0.000000 0.001300 0.000000
# 2 -0.004636 0.034335 -0.009481 0.000000 0.000334 0.000000
# 3 -0.007798 -0.009481 0.017054 0.000000 -0.002355 0.000000
# 4 0.000000 0.000000 0.000000 0.075591 0.000000 0.014361
# 5 0.001300 0.000334 -0.002355 0.000000 0.031044 0.000000
# 6 0.000000 0.000000 0.000000 0.014361 0.000000 0.084356
#
#
# Mechanical properties :
#
#
# Convention : Reuss Voigt Hill
#
# Bulk Modulus (GPa) = 39.91874 53.30692 46.61283
# Shear Modulus (GPa) = 16.02310 19.52859 17.77585
#
# Velocity S-wave (km/s) = 2.94098 3.24679 3.09767
# Velocity P-wave (km/s) = 5.75160 6.54454 6.16084
#
# Compressibility (1/GPa) = 0.02505089
#
# Stress axis : x y z
#
# Youngs Moduli (GPa) = 57.17461 29.12451 58.63748
#
# Poissons Ratio (x) = 0.13502 0.45723
# Poissons Ratio (y) = 0.26507 0.55592
# Poissons Ratio (z) = 0.44582 0.27612
#
# Static dielectric constant tensor:
#      x y z
#    x 3.327200 0.000000 -0.065720 
#    y 0.000000 3.353780 0.000000 
#    z -0.065720 0.000000 3.672310 
# 
# 
# High freq. dielectric constant tensor:
#      x y z
#    x 1.700460 0.000000 -0.010050 
#    y 0.000000 1.703920 0.000000 
#    z -0.010050 0.000000 1.727530 
# 
# From -- ./inp_files/58198.got.cif
#   From: 2010.06.25/outbox.cif.g09.slc.cpg/sg10_30_cif.got.tgz:58198.got - 2010.06.27 22:07:45.
