data_PCOD8060059
_publ_section_title
;
Structure prediction by ZEFSAII (Michael W. Deem and Ramdas Pophale) SiO2 
 PCOD8060059
Probable space group: P 2/M
;
_chemical_formula_sum "Si O2"
_cell_formula_units_Z 32
_cell_length_a 22.637632
_cell_length_b 9.664833
_cell_length_c 15.505560
_cell_angle_alpha 90.000000
_cell_angle_beta 31.872241
_cell_angle_gamma 90.000000
_cell_volume 1791.302373
_symmetry_space_group_name_H-M "P 2/M"
_symmetry_group_IT_number 10
_symmetry_cell_setting 'monoclinic'
loop_
_space_group_symop_operation_xyz
x,y,z
-x,y,-z
-x,-y,-z
x,-y,z
loop_
_atom_site_type_symbol
_atom_site_label
_atom_site_fract_x
_atom_site_fract_y
_atom_site_fract_z
Si Si1 0.778661 0.163009 0.976481
Si Si2 0.375604 0.163714 0.335153
Si Si3 0.263487 0.657525 0.618881
Si Si4 0.031591 0.158091 0.660246
Si Si5 0.632867 0.836631 0.998916
Si Si6 0.258520 0.839449 0.307405
Si Si7 0.960003 0.655165 0.193889
Si Si8 0.213010 0.340415 0.869064
O O1 0.698283 0.220494 0.001300
O O2 0.745567 0.242515 0.104979
O O3 0.763318 0.000000 0.012240
O O4 0.905828 0.199142 0.788591
O O5 0.333293 0.238501 0.473643
O O6 0.504335 0.205309 0.163425
O O7 0.310395 0.221029 0.331818
O O8 0.359614 0.000000 0.368101
O O9 0.301028 0.500000 0.552182
O O10 0.130129 0.673415 0.769955
O O11 0.283876 0.692492 0.694660
O O12 0.123486 0.183016 0.470825
O O13 0.076203 0.244449 0.684968
O O14 0.034338 0.000000 0.687112
O O15 0.650104 0.000000 0.975138
O O16 0.686322 0.770107 0.845640
O O17 0.290512 0.000000 0.267318
O O18 0.957814 0.500000 0.233892
O O19 0.083577 0.691733 0.007250
O O20 0.229368 0.500000 0.876421
#
# Coordination Sequence:
#
# PCOD8060059 Si02
#       8
#     4   4   4   4   4   4   4   4
#     4   9  18  32  49  71 100 128 160 199 237 277
#     4  10  19  32  51  73  98 126 161 201 238 280
#     4  10  19  31  49  73  99 126 158 197 242 288
#     4   9  16  27  46  74 102 124 151 195 242 280
#     4   9  18  32  50  71  95 130 167 197 233 282
#     4   9  16  28  49  75  99 123 157 198 241 286
#     4   9  16  28  47  70  98 128 156 188 234 292
#     4   9  18  32  50  71  96 129 163 192 233 291
#
# _framework density 17.864097000000001
#
# number of rings (size 3 to 8) (size 9 to 14) (size 15 to 20)
#    0.000    2.750    1.250    0.750    0.000    4.000 
#    0.000    3.750    0.000   11.250    0.000    3.500 
#    0.000    0.000    0.000    0.000    0.000    0.000 
#
# Total GULP energy -396623.067711 kJ/mol
# GULP energy per Si atom -12394.470866 kJ/mol
# Density = 1.782344 g / cm^3
# Si number density = 17.864097 Si / 1000 Ang^3
#
#
#
# Elastic Constant Matrix: (Units=GPa)
#
#
# Indices 1 2 3 4 5 6 
#
# 1 96.9688 29.3777 49.5951 0.0000 11.9813 0.0000
# 2 29.3777 41.0219 34.6587 0.0000 11.2442 0.0000
# 3 49.5951 34.6587 92.4382 0.0000 23.6550 0.0000
# 4 0.0000 0.0000 0.0000 7.6905 0.0000 -10.6395
# 5 11.9813 11.2442 23.6550 0.0000 25.2681 0.0000
# 6 0.0000 0.0000 0.0000 -10.6395 0.0000 3.5997
#
#
#
# Elastic Compliance Matrix: (Units=1/GPa)
#
#
# Indices 1 2 3 4 5 6 
#
# 1 0.015135 -0.005932 -0.006227 0.000000 0.001293 0.000000
# 2 -0.005932 0.038383 -0.009938 0.000000 -0.004963 0.000000
# 3 -0.006227 -0.009938 0.021038 0.000000 -0.012320 0.000000
# 4 0.000000 0.000000 0.000000 -0.042094 0.000000 -0.124416
# 5 0.001293 -0.004963 -0.012320 0.000000 0.052705 0.000000
# 6 0.000000 0.000000 0.000000 -0.124416 0.000000 -0.089931
#
#
# Mechanical properties :
#
#
# Convention : Reuss Voigt Hill
#
# Bulk Modulus (GPa) = 32.93721 50.85467 41.89594
# Shear Modulus (GPa) = 100.91003 15.09815 58.00409
#
# Velocity S-wave (km/s) = 7.52398 2.91033 5.70440
# Velocity P-wave (km/s) = 9.69319 6.31052 8.17865
#
# Compressibility (1/GPa) = 0.03036080
#
# Stress axis : x y z
#
# Youngs Moduli (GPa) = 66.07301 26.05341 47.53383
#
# Poissons Ratio (x) = 0.15455 0.29598
# Poissons Ratio (y) = 0.39196 0.47240
# Poissons Ratio (z) = 0.41142 0.25893
#
# Static dielectric constant tensor:
#      x y z
#    x 3.327530 0.000000 0.046250 
#    y 0.000000 3.044960 0.000000 
#    z 0.046250 0.000000 3.359930 
# 
# 
# High freq. dielectric constant tensor:
#      x y z
#    x 1.681950 0.000000 0.001560 
#    y 0.000000 1.657300 0.000000 
#    z 0.001560 0.000000 1.692710 
# 
# From -- ./inp_files/50708.got.cif
#   From: 2010.06.25/outbox.cif.g09.slc.cpg/sg10_26_cif.got.tgz:50708.got - 2010.06.27 22:07:45.
