data_PCOD8060795
_publ_section_title
;
Structure prediction by ZEFSAII (Michael W. Deem and Ramdas Pophale) SiO2 
 PCOD8060795
Probable space group: P 2/M
;
_chemical_formula_sum "Si O2"
_cell_formula_units_Z 28
_cell_length_a 9.955253
_cell_length_b 9.222921
_cell_length_c 26.187928
_cell_angle_alpha 90.000000
_cell_angle_beta 139.844979
_cell_angle_gamma 90.000000
_cell_volume 1550.550598
_symmetry_space_group_name_H-M "P 2/M"
_symmetry_group_IT_number 10
_symmetry_cell_setting 'monoclinic'
loop_
_space_group_symop_operation_xyz
x,y,z
-x,y,-z
-x,-y,-z
x,-y,z
loop_
_atom_site_type_symbol
_atom_site_label
_atom_site_fract_x
_atom_site_fract_y
_atom_site_fract_z
Si Si1 0.836210 0.340769 0.497942
Si Si2 0.280455 0.668300 0.911619
Si Si3 0.123815 0.831225 0.176594
Si Si4 0.500704 0.326749 0.673412
Si Si5 0.213066 0.832094 0.086190
Si Si6 0.382952 0.669115 0.827106
Si Si7 0.181390 0.672360 0.666432
O O1 0.768555 0.500000 0.497026
O O2 0.626060 0.267857 0.413775
O O3 0.000000 0.355796 0.500000
O O4 0.959959 0.260873 0.580756
O O5 0.232376 0.500000 0.908329
O O6 0.278747 0.702718 0.850925
O O7 0.105917 0.765245 0.887294
O O8 0.500000 0.712851 0.000000
O O9 0.275535 0.750732 0.260769
O O10 0.213112 0.803428 0.146368
O O11 0.112748 0.000000 0.186983
O O12 0.530460 0.500000 0.680057
O O13 0.373935 0.278196 0.687042
O O14 0.397620 0.747671 0.112591
O O15 0.242439 0.000000 0.081539
O O16 0.000000 0.772951 0.000000
O O17 0.428715 0.500000 0.833175
O O18 0.225254 0.724826 0.736912
O O19 0.160381 0.500000 0.656542
#
# Coordination Sequence:
#
# PCOD8060795 Si02
#       7
#     4   4   4   4   4   4   4
#     4   7  11  20  40  71 101 127 154 190 242 295
#     4  10  22  38  53  72  99 131 169 209 249 296
#     4  11  22  34  51  74 101 133 168 204 244 295
#     4   9  15  27  49  74 101 130 159 198 247 292
#     4  10  21  35  50  71  99 129 162 203 249 296
#     4  10  19  32  53  77  98 125 163 208 251 291
#     4   8  13  24  45  75 103 124 156 201 247 292
#
# _framework density 18.058102000000002
#
# number of rings (size 3 to 8) (size 9 to 14) (size 15 to 20)
#    0.000    2.714    1.429    3.000    0.000    1.714 
#    0.000    0.000    0.000    5.571    0.000    6.000 
#    0.000    0.000    0.000    0.000    0.000    0.000 
#
# Total GULP energy -346973.835968 kJ/mol
# GULP energy per Si atom -12391.922713 kJ/mol
# Density = 1.801700 g / cm^3
# Si number density = 18.058102 Si / 1000 Ang^3
#
#
#
# Elastic Constant Matrix: (Units=GPa)
#
#
# Indices 1 2 3 4 5 6 
#
# 1 25.0755 17.3645 7.6357 0.0000 0.6647 0.0000
# 2 17.3645 43.5778 28.0714 0.0000 7.4317 0.0000
# 3 7.6357 28.0714 132.3241 0.0000 -4.7738 0.0000
# 4 0.0000 0.0000 0.0000 3.9393 0.0000 -3.1008
# 5 0.6647 7.4317 -4.7738 0.0000 26.7333 0.0000
# 6 0.0000 0.0000 0.0000 -3.1008 0.0000 13.7800
#
#
#
# Elastic Compliance Matrix: (Units=1/GPa)
#
#
# Indices 1 2 3 4 5 6 
#
# 1 0.056264 -0.024874 0.002244 0.000000 0.005917 0.000000
# 2 -0.024874 0.039619 -0.007392 0.000000 -0.011715 0.000000
# 3 0.002244 -0.007392 0.009127 0.000000 0.003629 0.000000
# 4 0.000000 0.000000 0.000000 0.308495 0.000000 0.069419
# 5 0.005917 -0.011715 0.003629 0.000000 0.041164 0.000000
# 6 0.000000 0.000000 0.000000 0.069419 0.000000 0.088190
#
#
# Mechanical properties :
#
#
# Convention : Reuss Voigt Hill
#
# Bulk Modulus (GPa) = 22.23951 34.12448 28.18199
# Shear Modulus (GPa) = 8.09203 18.75090 13.42146
#
# Velocity S-wave (km/s) = 2.11916 3.22586 2.72920
# Velocity P-wave (km/s) = 4.28136 5.72826 5.05683
#
# Compressibility (1/GPa) = 0.04496502
#
# Stress axis : x y z
#
# Youngs Moduli (GPa) = 17.77321 25.24064 109.56722
#
# Poissons Ratio (x) = 0.62783 -0.24582
# Poissons Ratio (y) = 0.44209 0.80993
# Poissons Ratio (z) = -0.03987 0.18658
#
# Static dielectric constant tensor:
#      x y z
#    x 3.010850 0.000000 -0.196390 
#    y 0.000000 2.957180 0.000000 
#    z -0.196390 0.000000 3.861970 
# 
# 
# High freq. dielectric constant tensor:
#      x y z
#    x 1.661990 0.000000 -0.008080 
#    y 0.000000 1.658920 0.000000 
#    z -0.008080 0.000000 1.727860 
# 
# From -- ./inp_files/36964.got.cif
#   From: 2010.06.25/outbox.cif.g09.slc.cpg/sg10_19_cif.got.tgz:36964.got - 2010.06.27 22:07:45.
