data_PCOD8060907
_publ_section_title
;
Structure prediction by ZEFSAII (Michael W. Deem and Ramdas Pophale) SiO2 
 PCOD8060907
Probable space group: P 2/M
;
_chemical_formula_sum "Si O2"
_cell_formula_units_Z 24
_cell_length_a 12.653224
_cell_length_b 9.155001
_cell_length_c 11.612756
_cell_angle_alpha 90.000000
_cell_angle_beta 89.457677
_cell_angle_gamma 90.000000
_cell_volume 1345.164627
_symmetry_space_group_name_H-M "P 2/M"
_symmetry_group_IT_number 10
_symmetry_cell_setting 'monoclinic'
loop_
_space_group_symop_operation_xyz
x,y,z
-x,y,-z
-x,-y,-z
x,-y,z
loop_
_atom_site_type_symbol
_atom_site_label
_atom_site_fract_x
_atom_site_fract_y
_atom_site_fract_z
Si Si1 0.709476 0.828337 0.742515
Si Si2 0.107815 0.672644 0.142990
Si Si3 0.379297 0.170987 0.504775
Si Si4 0.680674 0.672781 0.271049
Si Si5 0.871449 0.327587 0.115731
Si Si6 0.474640 0.669722 0.131543
O O1 0.823663 0.757709 0.763460
O O2 0.676103 0.787872 0.613850
O O3 0.626292 0.763307 0.833108
O O4 0.715260 0.000000 0.761526
O O5 0.125740 0.500000 0.156346
O O6 0.985565 0.715402 0.166099
O O7 0.141133 0.728231 0.015202
O O8 0.500000 0.226538 0.500000
O O9 0.315619 0.254665 0.604139
O O10 0.375230 0.000000 0.531734
O O11 0.689923 0.500000 0.285241
O O12 0.779036 0.737102 0.196857
O O13 0.573429 0.717882 0.207972
O O14 0.861302 0.500000 0.110627
O O15 0.447195 0.500000 0.148843
O O16 0.500000 0.705335 0.000000
#
# Coordination Sequence:
#
# PCOD8060907 Si02
#       6
#     4   4   4   4   4   4
#     4  11  22  35  52  75 105 139 178 218 257 306
#     4   9  17  34  59  80 106 140 172 208 260 316
#     4  10  21  38  53  68 101 147 182 212 260 311
#     4  10  19  32  54  81 104 129 175 222 256 305
#     4   8  16  33  57  83 107 136 169 210 264 316
#     4  10  20  33  52  79 108 134 164 210 265 318
#
# _framework density 17.841683
#
# number of rings (size 3 to 8) (size 9 to 14) (size 15 to 20)
#    0.000    2.333    1.667    2.500    0.000    4.667 
#    0.000    5.833    0.000    5.000    0.000    0.000 
#    0.000    0.000    0.000    0.000    0.000    0.000 
#
# Total GULP energy -297639.336353 kJ/mol
# GULP energy per Si atom -12401.639015 kJ/mol
# Density = 1.780107 g / cm^3
# Si number density = 17.841683 Si / 1000 Ang^3
#
#
#
# Elastic Constant Matrix: (Units=GPa)
#
#
# Indices 1 2 3 4 5 6 
#
# 1 93.6765 24.9647 39.5965 0.0000 12.7552 0.0000
# 2 24.9647 37.4066 31.5700 0.0000 10.1473 0.0000
# 3 39.5965 31.5700 89.8323 0.0000 11.6784 0.0000
# 4 0.0000 0.0000 0.0000 18.8782 0.0000 9.1305
# 5 12.7552 10.1473 11.6784 0.0000 33.4840 0.0000
# 6 0.0000 0.0000 0.0000 9.1305 0.0000 15.4076
#
#
#
# Elastic Compliance Matrix: (Units=1/GPa)
#
#
# Indices 1 2 3 4 5 6 
#
# 1 0.014136 -0.005398 -0.004029 0.000000 -0.002344 0.000000
# 2 -0.005398 0.041792 -0.011448 0.000000 -0.006616 0.000000
# 3 -0.004029 -0.011448 0.017054 0.000000 -0.000944 0.000000
# 4 0.000000 0.000000 0.000000 0.074253 0.000000 -0.044002
# 5 -0.002344 -0.006616 -0.000944 0.000000 0.033092 0.000000
# 6 0.000000 0.000000 0.000000 -0.044002 0.000000 0.090979
#
#
# Mechanical properties :
#
#
# Convention : Reuss Voigt Hill
#
# Bulk Modulus (GPa) = 32.01832 45.90863 38.96348
# Shear Modulus (GPa) = 15.45762 21.87290 18.66526
#
# Velocity S-wave (km/s) = 2.94662 3.50515 3.23795
# Velocity P-wave (km/s) = 5.43705 6.49372 5.98874
#
# Compressibility (1/GPa) = 0.03123212
#
# Stress axis : x y z
#
# Youngs Moduli (GPa) = 70.74255 23.92806 58.63852
#
# Poissons Ratio (x) = 0.12916 0.23626
# Poissons Ratio (y) = 0.38185 0.67128
# Poissons Ratio (z) = 0.28503 0.27392
#
# Static dielectric constant tensor:
#      x y z
#    x 3.494260 0.000000 -0.047430 
#    y 0.000000 3.041190 0.000000 
#    z -0.047430 0.000000 3.345450 
# 
# 
# High freq. dielectric constant tensor:
#      x y z
#    x 1.696210 0.000000 0.003720 
#    y 0.000000 1.666960 0.000000 
#    z 0.003720 0.000000 1.690530 
# 
# From -- ./inp_files/45119.got.cif
#   From: 2010.06.25/outbox.cif.g09.slc.cpg/sg10_23_cif.got.tgz:45119.got - 2010.06.27 22:07:45.
