data_PCOD8060090
_publ_section_title
;
Structure prediction by ZEFSAII (Michael W. Deem and Ramdas Pophale) SiO2 
 PCOD8060090
Probable space group: P 2/M
;
_chemical_formula_sum "Si O2"
_cell_formula_units_Z 32
_cell_length_a 20.635549
_cell_length_b 14.477789
_cell_length_c 8.877078
_cell_angle_alpha 90.000000
_cell_angle_beta 36.674207
_cell_angle_gamma 90.000000
_cell_volume 1583.998453
_symmetry_space_group_name_H-M "P 2/M"
_symmetry_group_IT_number 10
_symmetry_cell_setting 'monoclinic'
loop_
_space_group_symop_operation_xyz
x,y,z
-x,y,-z
-x,-y,-z
x,-y,z
loop_
_atom_site_type_symbol
_atom_site_label
_atom_site_fract_x
_atom_site_fract_y
_atom_site_fract_z
Si Si1 0.230317 0.605429 0.522530
Si Si2 0.487797 0.781782 0.697413
Si Si3 0.391043 0.104236 0.299080
Si Si4 0.951760 0.601075 0.913223
Si Si5 0.396508 0.604305 0.479925
Si Si6 0.726551 0.212098 0.724717
Si Si7 0.083096 0.260534 0.472617
Si Si8 0.217473 0.600027 0.032613
O O1 0.243587 0.500000 0.439538
O O2 0.315146 0.625177 0.496184
O O3 0.258865 0.678463 0.338921
O O4 0.103522 0.620952 0.817632
O O5 0.500000 0.803180 0.500000
O O6 0.584180 0.841981 0.593180
O O7 0.503568 0.674715 0.714091
O O8 0.369290 0.808623 0.978622
O O9 0.293419 0.153746 0.389867
O O10 0.354372 0.000000 0.403951
O O11 0.500000 0.106450 0.000000
O O12 0.010670 0.500000 0.802502
O O13 0.849866 0.593346 0.994395
O O14 0.026680 0.682534 0.711019
O O15 0.441630 0.500000 0.386714
O O16 0.339178 0.623053 0.749260
O O17 0.841891 0.181491 0.588510
O O18 0.172443 0.324345 0.227327
O O19 0.000000 0.221838 0.500000
O O20 0.213723 0.500000 0.121023
#
# Coordination Sequence:
#
# PCOD8060090 Si02
#       8
#     4   4   4   4   4   4   4   4
#     4   9  18  32  51  77 111 151 196 236 271 319
#     4  11  22  36  58  87 116 147 182 228 270 332
#     4   9  20  41  65  87 112 139 173 225 287 343
#     4   8  15  28  46  69 103 148 197 242 275 305
#     4   9  17  31  49  74 116 159 189 221 266 324
#     4  11  22  36  56  84 113 147 189 226 277 331
#     4  10  19  31  49  75 110 149 193 236 278 322
#     4   8  14  26  45  69 104 152 195 229 268 314
#
# _framework density 20.20204
#
# number of rings (size 3 to 8) (size 9 to 14) (size 15 to 20)
#    0.000    2.625    1.250    2.625    0.000    4.000 
#    0.000    2.500    0.000    0.375    0.000    1.750 
#    0.000    0.000    0.000    0.000    0.000    0.000 
#
# Total GULP energy -396530.244500 kJ/mol
# GULP energy per Si atom -12391.570141 kJ/mol
# Density = 2.015606 g / cm^3
# Si number density = 20.202040 Si / 1000 Ang^3
#
#
#
# Elastic Constant Matrix: (Units=GPa)
#
#
# Indices 1 2 3 4 5 6 
#
# 1 136.7649 49.4773 34.4787 0.0000 -1.5378 0.0000
# 2 49.4773 77.1524 17.6745 0.0000 -2.5176 0.0000
# 3 34.4787 17.6745 50.9583 0.0000 5.6433 0.0000
# 4 0.0000 0.0000 0.0000 5.4277 0.0000 0.5972
# 5 -1.5378 -2.5176 5.6433 0.0000 29.8831 0.0000
# 6 0.0000 0.0000 0.0000 0.5972 0.0000 12.0212
#
#
#
# Elastic Compliance Matrix: (Units=1/GPa)
#
#
# Indices 1 2 3 4 5 6 
#
# 1 0.010717 -0.005592 -0.005434 0.000000 0.001107 0.000000
# 2 -0.005592 0.017135 -0.002336 0.000000 0.001597 0.000000
# 3 -0.005434 -0.002336 0.024680 0.000000 -0.005137 0.000000
# 4 0.000000 0.000000 0.000000 0.185254 0.000000 -0.009203
# 5 0.001107 0.001597 -0.005137 0.000000 0.034625 0.000000
# 6 0.000000 0.000000 0.000000 -0.009203 0.000000 0.083644
#
#
# Mechanical properties :
#
#
# Convention : Reuss Voigt Hill
#
# Bulk Modulus (GPa) = 38.74962 52.01516 45.38239
# Shear Modulus (GPa) = 12.77520 20.34939 16.56229
#
# Velocity S-wave (km/s) = 2.51743 3.17723 2.86638
# Velocity P-wave (km/s) = 5.26048 6.26603 5.78514
#
# Compressibility (1/GPa) = 0.02580671
#
# Stress axis : x y z
#
# Youngs Moduli (GPa) = 93.30764 58.36105 40.51842
#
# Poissons Ratio (x) = 0.32634 0.22019
# Poissons Ratio (y) = 0.52176 0.09467
# Poissons Ratio (z) = 0.50707 0.13636
#
# Static dielectric constant tensor:
#      x y z
#    x 4.088310 0.000000 0.015360 
#    y 0.000000 3.345230 0.000000 
#    z 0.015360 0.000000 3.598220 
# 
# 
# High freq. dielectric constant tensor:
#      x y z
#    x 1.819110 0.000000 0.001700 
#    y 0.000000 1.729760 0.000000 
#    z 0.001700 0.000000 1.773240 
# 
# From -- ./inp_files/35094.got.cif
#   From: 2010.06.25/outbox.cif.g09.slc.cpg/sg10_18_cif.got.tgz:35094.got - 2010.06.27 22:07:45.
