data_PCOD8060398
_publ_section_title
;
Structure prediction by ZEFSAII (Michael W. Deem and Ramdas Pophale) SiO2 
 PCOD8060398
Probable space group: P 2/M
;
_chemical_formula_sum "Si O2"
_cell_formula_units_Z 28
_cell_length_a 16.693187
_cell_length_b 9.165161
_cell_length_c 20.740487
_cell_angle_alpha 90.000000
_cell_angle_beta 34.267085
_cell_angle_gamma 90.000000
_cell_volume 1786.678191
_symmetry_space_group_name_H-M "P 2/M"
_symmetry_group_IT_number 10
_symmetry_cell_setting 'monoclinic'
loop_
_space_group_symop_operation_xyz
x,y,z
-x,y,-z
-x,-y,-z
x,-y,z
loop_
_atom_site_type_symbol
_atom_site_label
_atom_site_fract_x
_atom_site_fract_y
_atom_site_fract_z
Si Si1 0.138140 0.668642 0.368244
Si Si2 0.130863 0.173447 0.239172
Si Si3 0.560998 0.667582 0.773444
Si Si4 0.579257 0.671762 0.512380
Si Si5 0.604926 0.670703 0.987658
Si Si6 0.824585 0.163860 0.398622
Si Si7 0.444307 0.836241 0.349794
O O1 0.131046 0.500000 0.351031
O O2 0.152852 0.767214 0.295942
O O3 0.273761 0.697180 0.322807
O O4 0.000000 0.715520 0.500000
O O5 0.250765 0.237437 0.112527
O O6 0.979239 0.227401 0.312322
O O7 0.139943 0.000000 0.235002
O O8 0.535720 0.500000 0.772165
O O9 0.509434 0.763342 0.747725
O O10 0.468236 0.712777 0.896654
O O11 0.500000 0.716743 0.500000
O O12 0.583636 0.500000 0.519875
O O13 0.742104 0.733795 0.401474
O O14 0.495141 0.745399 0.628813
O O15 0.641000 0.500000 0.958828
O O16 0.500000 0.717147 0.000000
O O17 0.728546 0.162240 0.528039
O O18 0.836779 0.000000 0.362169
O O19 0.506627 0.000000 0.310075
#
# Coordination Sequence:
#
# PCOD8060398 Si02
#       7
#     4   4   4   4   4   4   4
#     4  10  20  32  48  68  91 126 166 201 247 294
#     4  11  21  33  48  69  96 126 166 209 244 284
#     4  10  19  32  48  67  93 126 168 211 243 282
#     4   9  17  30  51  78 103 127 157 190 229 287
#     4  10  20  36  51  64  89 128 174 215 249 286
#     4   8  18  32  46  70 102 130 155 190 239 289
#     4   9  18  31  48  71 103 130 154 189 239 294
#
# _framework density 15.671540999999999
#
# number of rings (size 3 to 8) (size 9 to 14) (size 15 to 20)
#    0.857    1.571    1.429    1.714    0.000    4.000 
#    0.000    0.000    0.000    0.000    0.000    1.000 
#    0.000    8.000    0.000    0.000    0.000    0.000 
#
# Total GULP energy -347054.497906 kJ/mol
# GULP energy per Si atom -12394.803497 kJ/mol
# Density = 1.563587 g / cm^3
# Si number density = 15.671541 Si / 1000 Ang^3
#
#
#
# Elastic Constant Matrix: (Units=GPa)
#
#
# Indices 1 2 3 4 5 6 
#
# 1 83.2342 46.8907 33.7667 0.0000 23.4470 0.0000
# 2 46.8907 74.5130 34.2439 0.0000 15.0092 0.0000
# 3 33.7667 34.2439 79.7318 0.0000 14.9743 0.0000
# 4 0.0000 0.0000 0.0000 24.5397 0.0000 -0.1430
# 5 23.4470 15.0092 14.9743 0.0000 17.4426 0.0000
# 6 0.0000 0.0000 0.0000 -0.1430 0.0000 21.2064
#
#
#
# Elastic Compliance Matrix: (Units=1/GPa)
#
#
# Indices 1 2 3 4 5 6 
#
# 1 0.025121 -0.010254 -0.001848 0.000000 -0.023358 0.000000
# 2 -0.010254 0.022442 -0.005076 0.000000 -0.001169 0.000000
# 3 -0.001848 -0.005076 0.016951 0.000000 -0.007700 0.000000
# 4 0.000000 0.000000 0.000000 0.040752 0.000000 0.000275
# 5 -0.023358 -0.001169 -0.007700 0.000000 0.096347 0.000000
# 6 0.000000 0.000000 0.000000 0.000275 0.000000 0.047157
#
#
# Mechanical properties :
#
#
# Convention : Reuss Voigt Hill
#
# Bulk Modulus (GPa) = 33.15968 51.92018 42.53993
# Shear Modulus (GPa) = 17.05450 20.80958 18.93204
#
# Velocity S-wave (km/s) = 3.30244 3.64793 3.47947
# Velocity P-wave (km/s) = 5.97884 7.13760 6.58376
#
# Compressibility (1/GPa) = 0.03015711
#
# Stress axis : x y z
#
# Youngs Moduli (GPa) = 39.80799 44.55991 58.99360
#
# Poissons Ratio (x) = 0.45692 0.10901
# Poissons Ratio (y) = 0.40819 0.29947
# Poissons Ratio (z) = 0.07356 0.22620
#
# Static dielectric constant tensor:
#      x y z
#    x 2.780150 0.000000 -0.031850 
#    y 0.000000 2.982250 0.000000 
#    z -0.031850 0.000000 2.907470 
# 
# 
# High freq. dielectric constant tensor:
#      x y z
#    x 1.578430 0.000000 0.004330 
#    y 0.000000 1.609180 0.000000 
#    z 0.004330 0.000000 1.584990 
# 
# From -- ./inp_files/77733.got.cif
#   From: 2010.06.25/outbox.cif.g09.slc.cpg/sg10_39_cif.got.tgz:77733.got - 2010.06.27 22:07:45.
