data_PCOD8060926
_publ_section_title
;
Structure prediction by ZEFSAII (Michael W. Deem and Ramdas Pophale) SiO2 
 PCOD8060926
Probable space group: P 2/M
;
_chemical_formula_sum "Si O2"
_cell_formula_units_Z 32
_cell_length_a 21.859677
_cell_length_b 8.846599
_cell_length_c 28.289510
_cell_angle_alpha 90.000000
_cell_angle_beta 161.301101
_cell_angle_gamma 90.000000
_cell_volume 1753.888443
_symmetry_space_group_name_H-M "P 2/M"
_symmetry_group_IT_number 10
_symmetry_cell_setting 'monoclinic'
loop_
_space_group_symop_operation_xyz
x,y,z
-x,y,-z
-x,-y,-z
x,-y,z
loop_
_atom_site_type_symbol
_atom_site_label
_atom_site_fract_x
_atom_site_fract_y
_atom_site_fract_z
Si Si1 0.555528 0.173960 0.593497
Si Si2 0.715678 0.322946 0.171672
Si Si3 0.851959 0.171750 0.675541
Si Si4 0.207938 0.176784 0.672180
Si Si5 0.161722 0.824263 0.828876
Si Si6 0.433970 0.679730 0.102905
Si Si7 0.881079 0.677970 0.057306
Si Si8 0.938842 0.679053 0.904846
O O1 0.500000 0.223195 0.500000
O O2 0.373306 0.203316 0.494130
O O3 0.723822 0.275854 0.736172
O O4 0.621219 0.000000 0.642471
O O5 0.756484 0.500000 0.199424
O O6 0.764483 0.263953 0.258950
O O7 0.852846 0.237824 0.234928
O O8 0.500000 0.282854 0.000000
O O9 0.954114 0.202680 0.700253
O O10 0.937953 0.275674 0.779189
O O11 0.887412 0.000000 0.718096
O O12 0.360654 0.239658 0.745886
O O13 0.000000 0.212472 0.500000
O O14 0.240591 0.000000 0.704275
O O15 0.219854 0.000000 0.871917
O O16 0.322001 0.729719 0.973937
O O17 0.460335 0.500000 0.120820
O O18 0.316117 0.736195 0.063087
O O19 0.874724 0.500000 0.052326
O O20 0.914579 0.739499 0.028494
O O21 0.947858 0.500000 0.913449
O O22 0.000000 0.749491 0.000000
#
# Coordination Sequence:
#
# PCOD8060926 Si02
#       8
#     4   4   4   4   4   4   4   4
#     4  10  19  33  54  79 108 138 176 225 271 319
#     4  11  22  36  57  84 112 142 179 222 270 322
#     4   9  18  32  51  79 110 140 176 224 275 320
#     4  11  24  40  58  82 111 145 184 224 271 325
#     4  10  19  32  54  81 111 144 180 225 274 321
#     4  10  19  33  54  80 108 140 181 226 273 325
#     4   9  18  32  52  77 106 140 179 223 268 320
#     4  10  21  36  53  77 110 146 184 224 268 321
#
# _framework density 18.245173999999999
#
# number of rings (size 3 to 8) (size 9 to 14) (size 15 to 20)
#    0.000    2.000    2.500    1.500    0.000    3.500 
#    0.000    1.250    0.000    3.000    0.000    0.000 
#    0.000    0.000    0.000    0.000    0.000    0.000 
#
# Total GULP energy -396773.337788 kJ/mol
# GULP energy per Si atom -12399.166806 kJ/mol
# Density = 1.820365 g / cm^3
# Si number density = 18.245174 Si / 1000 Ang^3
#
#
#
# Elastic Constant Matrix: (Units=GPa)
#
#
# Indices 1 2 3 4 5 6 
#
# 1 143.7371 29.9738 59.5565 0.0000 11.0938 0.0000
# 2 29.9738 34.8152 22.0994 0.0000 4.6982 0.0000
# 3 59.5565 22.0994 90.1102 0.0000 11.0761 0.0000
# 4 0.0000 0.0000 0.0000 25.0959 0.0000 4.5423
# 5 11.0938 4.6982 11.0761 0.0000 29.4159 0.0000
# 6 0.0000 0.0000 0.0000 4.5423 0.0000 22.8429
#
#
#
# Elastic Compliance Matrix: (Units=1/GPa)
#
#
# Indices 1 2 3 4 5 6 
#
# 1 0.010409 -0.005373 -0.005436 0.000000 -0.001020 0.000000
# 2 -0.005373 0.036955 -0.005280 0.000000 -0.001888 0.000000
# 3 -0.005436 -0.005280 0.016388 0.000000 -0.003277 0.000000
# 4 0.000000 0.000000 0.000000 0.041335 0.000000 -0.008219
# 5 -0.001020 -0.001888 -0.003277 0.000000 0.035916 0.000000
# 6 0.000000 0.000000 0.000000 -0.008219 0.000000 0.045412
#
#
# Mechanical properties :
#
#
# Convention : Reuss Voigt Hill
#
# Bulk Modulus (GPa) = 31.67196 54.65801 43.16499
# Shear Modulus (GPa) = 21.82284 25.93978 23.88131
#
# Velocity S-wave (km/s) = 3.46220 3.77468 3.62181
# Velocity P-wave (km/s) = 5.77748 7.00144 6.41870
#
# Compressibility (1/GPa) = 0.03157367
#
# Stress axis : x y z
#
# Youngs Moduli (GPa) = 96.07201 27.05986 61.01887
#
# Poissons Ratio (x) = 0.14539 0.33172
# Poissons Ratio (y) = 0.51618 0.32218
# Poissons Ratio (z) = 0.52229 0.14288
#
# Static dielectric constant tensor:
#      x y z
#    x 3.881200 0.000000 0.291100 
#    y 0.000000 3.349460 0.000000 
#    z 0.291100 0.000000 3.233920 
# 
# 
# High freq. dielectric constant tensor:
#      x y z
#    x 1.719430 0.000000 0.023270 
#    y 0.000000 1.709120 0.000000 
#    z 0.023270 0.000000 1.680360 
# 
# From -- ./inp_files/93793.got.cif
#   From: 2010.06.25/outbox.cif.g09.slc.cpg/sg10_47_cif.got.tgz:93793.got - 2010.06.27 22:07:45.
