data_PCOD8060411
_publ_section_title
;
Structure prediction by ZEFSAII (Michael W. Deem and Ramdas Pophale) SiO2 
 PCOD8060411
Probable space group: P 2/M
;
_chemical_formula_sum "Si O2"
_cell_formula_units_Z 32
_cell_length_a 8.940709
_cell_length_b 13.256214
_cell_length_c 18.420274
_cell_angle_alpha 90.000000
_cell_angle_beta 132.894211
_cell_angle_gamma 90.000000
_cell_volume 1599.415817
_symmetry_space_group_name_H-M "P 2/M"
_symmetry_group_IT_number 10
_symmetry_cell_setting 'monoclinic'
loop_
_space_group_symop_operation_xyz
x,y,z
-x,y,-z
-x,-y,-z
x,-y,z
loop_
_atom_site_type_symbol
_atom_site_label
_atom_site_fract_x
_atom_site_fract_y
_atom_site_fract_z
Si Si1 0.815442 0.619615 0.724917
Si Si2 0.078709 0.753420 0.728203
Si Si3 0.167430 0.117100 0.617072
Si Si4 0.912212 0.617892 0.046391
Si Si5 0.566750 0.241130 0.724294
Si Si6 0.518381 0.295985 0.862306
Si Si7 0.955360 0.114959 0.821041
Si Si8 0.623931 0.887576 0.971980
O O1 0.785416 0.500000 0.708383
O O2 0.600844 0.677043 0.670289
O O3 0.904258 0.666513 0.679313
O O4 0.970220 0.655318 0.842277
O O5 0.079188 0.814068 0.653005
O O6 0.284109 0.686255 0.806886
O O7 0.041569 0.837278 0.776222
O O8 0.365954 0.172953 0.649552
O O9 0.000000 0.116775 0.500000
O O10 0.213781 0.000000 0.655322
O O11 0.939892 0.500000 0.053726
O O12 0.670513 0.645432 0.967525
O O13 0.000000 0.664911 0.000000
O O14 0.558565 0.317025 0.790978
O O15 0.756829 0.165505 0.789195
O O16 0.555483 0.175316 0.879691
O O17 0.902287 0.000000 0.785191
O O18 0.133501 0.122807 0.939636
O O19 0.550673 0.000000 0.932327
O O20 0.500000 0.844411 0.000000
#
# Coordination Sequence:
#
# PCOD8060411 Si02
#       8
#     4   4   4   4   4   4   4   4
#     4  10  21  38  57  83 119 157 197 240 279 323
#     4  10  21  35  57  82 109 150 188 232 288 342
#     4  10  22  42  66  91 116 139 174 232 298 364
#     4  10  20  33  52  77 110 153 200 243 281 312
#     4  10  21  35  57  83 108 148 188 232 288 342
#     4  11  20  31  50  73 108 147 194 237 275 321
#     4  10  19  32  48  73 110 146 187 229 272 331
#     4  10  20  30  43  67 105 153 193 227 267 317
#
# _framework density 20.007304999999999
#
# number of rings (size 3 to 8) (size 9 to 14) (size 15 to 20)
#    0.000    1.875    2.500    2.250    0.000    3.000 
#    0.000    6.875    0.000    9.000    0.000    0.000 
#    0.000    0.000    0.000    0.000    0.000    0.000 
#
# Total GULP energy -396504.495585 kJ/mol
# GULP energy per Si atom -12390.765487 kJ/mol
# Density = 1.996177 g / cm^3
# Si number density = 20.007305 Si / 1000 Ang^3
#
#
#
# Elastic Constant Matrix: (Units=GPa)
#
#
# Indices 1 2 3 4 5 6 
#
# 1 115.2124 51.2348 21.2850 0.0000 16.6202 0.0000
# 2 51.2348 93.5829 15.6124 0.0000 7.5005 0.0000
# 3 21.2850 15.6124 39.8925 0.0000 6.9634 0.0000
# 4 0.0000 0.0000 0.0000 23.3012 0.0000 1.3685
# 5 16.6202 7.5005 6.9634 0.0000 19.8684 0.0000
# 6 0.0000 0.0000 0.0000 1.3685 0.0000 28.3554
#
#
#
# Elastic Compliance Matrix: (Units=1/GPa)
#
#
# Indices 1 2 3 4 5 6 
#
# 1 0.013030 -0.005983 -0.003305 0.000000 -0.007483 0.000000
# 2 -0.005983 0.014341 -0.002502 0.000000 0.000468 0.000000
# 3 -0.003305 -0.002502 0.028932 0.000000 -0.006431 0.000000
# 4 0.000000 0.000000 0.000000 0.043038 0.000000 -0.002077
# 5 -0.007483 0.000468 -0.006431 0.000000 0.058668 0.000000
# 6 0.000000 0.000000 0.000000 -0.002077 0.000000 0.035367
#
#
# Mechanical properties :
#
#
# Convention : Reuss Voigt Hill
#
# Bulk Modulus (GPa) = 30.55798 47.21692 38.88745
# Shear Modulus (GPa) = 21.94288 25.00870 23.47579
#
# Velocity S-wave (km/s) = 3.31530 3.53934 3.42915
# Velocity P-wave (km/s) = 5.47372 6.35245 5.92938
#
# Compressibility (1/GPa) = 0.03272467
#
# Stress axis : x y z
#
# Youngs Moduli (GPa) = 76.74519 69.73004 34.56330
#
# Poissons Ratio (x) = 0.41717 0.11422
# Poissons Ratio (y) = 0.45914 0.08648
# Poissons Ratio (z) = 0.25363 0.17447
#
# Static dielectric constant tensor:
#      x y z
#    x 3.900730 0.000000 0.145370 
#    y 0.000000 3.709800 0.000000 
#    z 0.145370 0.000000 3.247460 
# 
# 
# High freq. dielectric constant tensor:
#      x y z
#    x 1.792810 0.000000 0.015180 
#    y 0.000000 1.785830 0.000000 
#    z 0.015180 0.000000 1.732400 
# 
# From -- ./inp_files/82854.got.cif
#   From: 2010.06.25/outbox.cif.g09.slc.cpg/sg10_42_cif.got.tgz:82854.got - 2010.06.27 22:07:45.
