data_PCOD8060196
_publ_section_title
;
Structure prediction by ZEFSAII (Michael W. Deem and Ramdas Pophale) SiO2 
 PCOD8060196
Probable space group: P 2/M
;
_chemical_formula_sum "Si O2"
_cell_formula_units_Z 28
_cell_length_a 17.719695
_cell_length_b 11.440066
_cell_length_c 23.686102
_cell_angle_alpha 90.000000
_cell_angle_beta 160.986241
_cell_angle_gamma 90.000000
_cell_volume 1564.310827
_symmetry_space_group_name_H-M "P 2/M"
_symmetry_group_IT_number 10
_symmetry_cell_setting 'monoclinic'
loop_
_space_group_symop_operation_xyz
x,y,z
-x,y,-z
-x,-y,-z
x,-y,z
loop_
_atom_site_type_symbol
_atom_site_label
_atom_site_fract_x
_atom_site_fract_y
_atom_site_fract_z
Si Si1 0.255154 0.866734 0.168022
Si Si2 0.477979 0.228179 0.044961
Si Si3 0.754369 0.000000 0.253547
Si Si4 0.625422 0.777584 0.352481
Si Si5 0.734798 0.000000 0.371938
Si Si6 0.590245 0.131098 0.507334
Si Si7 0.261874 0.637353 0.673533
Si Si8 0.963245 0.858773 0.686025
O O1 0.386005 0.775876 0.218675
O O2 0.380231 0.867707 0.315835
O O3 0.253148 0.000000 0.141903
O O4 0.000000 0.818527 0.000000
O O5 0.634963 0.114578 0.144840
O O6 0.568626 0.305800 0.160557
O O7 0.500000 0.296246 0.000000
O O8 0.219084 0.188723 0.876284
O O9 0.756771 0.000000 0.321592
O O10 0.019929 0.000000 0.421352
O O11 0.663354 0.666554 0.338235
O O12 0.846084 0.796083 0.549208
O O13 0.592761 0.886110 0.287474
O O14 0.500000 0.198933 0.500000
O O15 0.819397 0.183957 0.639661
O O16 0.657617 0.000000 0.573149
O O17 0.277997 0.500000 0.692892
O O18 0.000000 0.683041 0.500000
O O19 0.952264 0.000000 0.671705
#
# Coordination Sequence:
#
# PCOD8060196 Si02
#       8
#     4   4   2   4   2   4   4   4
#     4   9  17  29  48  79 113 144 174 207 259 327
#     4  12  23  34  51  80 109 138 172 219 269 329
#     4  11  21  30  48  78 112 137 171 214 271 335
#     4  11  19  35  56  79 109 145 180 221 270 322
#     4  11  18  30  51  76 106 142 172 215 269 327
#     4   8  15  28  42  64 103 148 172 194 238 307
#     4  11  25  43  58  73 100 144 195 236 271 310
#     4  10  19  31  50  80 114 140 168 209 270 333
#
# _framework density 17.899256000000001
#
# number of rings (size 3 to 8) (size 9 to 14) (size 15 to 20)
#    0.000    1.714    3.571    3.643    0.000    1.429 
#    0.000    2.143    0.000    0.429    0.000    0.000 
#    0.000    5.143    0.000    0.000    0.000    0.000 
#
# Total GULP energy -346994.406739 kJ/mol
# GULP energy per Si atom -12392.657384 kJ/mol
# Density = 1.785852 g / cm^3
# Si number density = 17.899256 Si / 1000 Ang^3
#
#
#
# Elastic Constant Matrix: (Units=GPa)
#
#
# Indices 1 2 3 4 5 6 
#
# 1 133.9897 26.1425 52.6572 0.0000 2.9832 0.0000
# 2 26.1425 44.5085 24.8257 0.0000 -2.9057 0.0000
# 3 52.6572 24.8257 110.3234 0.0000 12.7059 0.0000
# 4 0.0000 0.0000 0.0000 14.4274 0.0000 0.5599
# 5 2.9832 -2.9057 12.7059 0.0000 24.4355 0.0000
# 6 0.0000 0.0000 0.0000 0.5599 0.0000 13.1724
#
#
#
# Elastic Compliance Matrix: (Units=1/GPa)
#
#
# Indices 1 2 3 4 5 6 
#
# 1 0.009656 -0.003483 -0.003873 0.000000 0.000421 0.000000
# 2 -0.003483 0.027941 -0.005379 0.000000 0.006545 0.000000
# 3 -0.003873 -0.005379 0.012916 0.000000 -0.006883 0.000000
# 4 0.000000 0.000000 0.000000 0.069427 0.000000 -0.002951
# 5 0.000421 0.006545 -0.006883 0.000000 0.045230 0.000000
# 6 0.000000 0.000000 0.000000 -0.002951 0.000000 0.076042
#
#
# Mechanical properties :
#
#
# Convention : Reuss Voigt Hill
#
# Bulk Modulus (GPa) = 39.93282 55.11915 47.52598
# Shear Modulus (GPa) = 18.17989 22.75347 20.46668
#
# Velocity S-wave (km/s) = 3.19043 3.56925 3.38514
# Velocity P-wave (km/s) = 5.99416 6.91716 6.47213
#
# Compressibility (1/GPa) = 0.02504206
#
# Stress axis : x y z
#
# Youngs Moduli (GPa) = 103.56558 35.78977 77.42362
#
# Poissons Ratio (x) = 0.12467 0.29988
# Poissons Ratio (y) = 0.36077 0.41642
# Poissons Ratio (z) = 0.40114 0.19250
#
# Static dielectric constant tensor:
#      x y z
#    x 3.659550 0.000000 0.066160 
#    y 0.000000 2.829440 0.000000 
#    z 0.066160 0.000000 3.423130 
# 
# 
# High freq. dielectric constant tensor:
#      x y z
#    x 1.715830 0.000000 0.000510 
#    y 0.000000 1.625960 0.000000 
#    z 0.000510 0.000000 1.697330 
# 
# From -- ./inp_files/90175.got.cif
#   From: 2010.06.25/outbox.cif.g09.slc.cpg/sg10_46_cif.got.tgz:90175.got - 2010.06.27 22:07:45.
