data_PCOD8060111
_publ_section_title
;
Structure prediction by ZEFSAII (Michael W. Deem and Ramdas Pophale) SiO2 
 PCOD8060111
Probable space group: P 2/M
;
_chemical_formula_sum "Si O2"
_cell_formula_units_Z 32
_cell_length_a 10.325299
_cell_length_b 9.005726
_cell_length_c 23.462337
_cell_angle_alpha 90.000000
_cell_angle_beta 124.137872
_cell_angle_gamma 90.000000
_cell_volume 1805.760382
_symmetry_space_group_name_H-M "P 2/M"
_symmetry_group_IT_number 10
_symmetry_cell_setting 'monoclinic'
loop_
_space_group_symop_operation_xyz
x,y,z
-x,y,-z
-x,-y,-z
x,-y,z
loop_
_atom_site_type_symbol
_atom_site_label
_atom_site_fract_x
_atom_site_fract_y
_atom_site_fract_z
Si Si1 0.323520 0.176316 0.461499
Si Si2 0.039539 0.675468 0.921407
Si Si3 0.860217 0.675143 0.176804
Si Si4 0.750790 0.675730 0.922349
Si Si5 0.581939 0.826191 0.170297
Si Si6 0.173373 0.826267 0.538892
Si Si7 0.215920 0.828717 0.673757
Si Si8 0.941852 0.673691 0.665967
O O1 0.500000 0.232263 0.500000
O O2 0.264289 0.241590 0.507533
O O3 0.223103 0.245446 0.385053
O O4 0.311950 0.000000 0.454028
O O5 0.034272 0.500000 0.917362
O O6 0.080457 0.739545 0.869149
O O7 0.868739 0.728805 0.901101
O O8 0.173776 0.724014 0.998812
O O9 0.827452 0.500000 0.166472
O O10 0.697305 0.753217 0.152613
O O11 0.995044 0.714462 0.255570
O O12 0.721623 0.500000 0.912568
O O13 0.588997 0.759522 0.876375
O O14 0.641566 0.790492 0.248995
O O15 0.575742 0.000000 0.156302
O O16 0.266596 0.794682 0.621044
O O17 0.000000 0.756215 0.500000
O O18 0.158345 0.000000 0.523741
O O19 0.065520 0.729632 0.649968
O O20 0.164197 0.000000 0.667884
O O21 0.918091 0.500000 0.652690
#
# Coordination Sequence:
#
# PCOD8060111 Si02
#       8
#     4   4   4   4   4   4   4   4
#     4  10  20  34  51  71  95 127 165 201 237 286
#     4   8  16  33  56  76  94 128 175 208 236 288
#     4   9  18  34  54  74  97 131 171 204 241 294
#     4   9  17  33  56  76  97 128 167 209 246 287
#     4  10  20  32  48  75 108 134 159 201 252 295
#     4   9  15  28  53  73  87 119 166 205 233 270
#     4   9  17  32  52  70  94 129 167 199 235 287
#     4  10  19  31  50  73 100 128 156 198 250 290
#
# _framework density 17.721066
#
# number of rings (size 3 to 8) (size 9 to 14) (size 15 to 20)
#    0.000    2.750    1.250    1.500    0.000    1.750 
#    2.250    6.250    0.000    0.000    0.000    0.000 
#    0.000    0.000    0.000    0.000    0.000    0.000 
#
# Total GULP energy -396691.575237 kJ/mol
# GULP energy per Si atom -12396.611726 kJ/mol
# Density = 1.768073 g / cm^3
# Si number density = 17.721066 Si / 1000 Ang^3
#
#
#
# Elastic Constant Matrix: (Units=GPa)
#
#
# Indices 1 2 3 4 5 6 
#
# 1 150.6403 39.3039 95.5679 0.0000 4.9093 0.0000
# 2 39.3039 40.3948 35.6841 0.0000 8.1331 0.0000
# 3 95.5679 35.6841 125.1881 0.0000 4.4049 0.0000
# 4 0.0000 0.0000 0.0000 26.6639 0.0000 5.8198
# 5 4.9093 8.1331 4.4049 0.0000 36.3265 0.0000
# 6 0.0000 0.0000 0.0000 5.8198 0.0000 17.2736
#
#
#
# Elastic Compliance Matrix: (Units=1/GPa)
#
#
# Indices 1 2 3 4 5 6 
#
# 1 0.013731 -0.005589 -0.008906 0.000000 0.000475 0.000000
# 2 -0.005589 0.036858 -0.006002 0.000000 -0.006769 0.000000
# 3 -0.008906 -0.006002 0.016478 0.000000 0.000549 0.000000
# 4 0.000000 0.000000 0.000000 0.040481 0.000000 -0.013639
# 5 0.000475 -0.006769 0.000549 0.000000 0.028913 0.000000
# 6 0.000000 0.000000 0.000000 -0.013639 0.000000 0.062487
#
#
# Mechanical properties :
#
#
# Convention : Reuss Voigt Hill
#
# Bulk Modulus (GPa) = 38.35122 73.03720 55.69421
# Shear Modulus (GPa) = 20.11012 25.76397 22.93704
#
# Velocity S-wave (km/s) = 3.37236 3.81709 3.60159
# Velocity P-wave (km/s) = 6.07061 7.79303 6.98511
#
# Compressibility (1/GPa) = 0.02607479
#
# Stress axis : x y z
#
# Youngs Moduli (GPa) = 72.82828 27.13118 60.68668
#
# Poissons Ratio (x) = 0.15162 0.54047
# Poissons Ratio (y) = 0.40701 0.36422
# Poissons Ratio (z) = 0.64860 0.16283
#
# Static dielectric constant tensor:
#      x y z
#    x 3.435830 0.000000 -0.208760 
#    y 0.000000 3.023500 0.000000 
#    z -0.208760 0.000000 3.520080 
# 
# 
# High freq. dielectric constant tensor:
#      x y z
#    x 1.677140 0.000000 -0.003940 
#    y 0.000000 1.658160 0.000000 
#    z -0.003940 0.000000 1.694220 
# 
# From -- ./inp_files/88564.got.cif
#   From: 2010.06.25/outbox.cif.g09.slc.cpg/sg10_45_cif.got.tgz:88564.got - 2010.06.27 22:07:45.
