data_PCOD8060213
_publ_section_title
;
Structure prediction by ZEFSAII (Michael W. Deem and Ramdas Pophale) SiO2 
 PCOD8060213
Probable space group: P 2/M
;
_chemical_formula_sum "Si O2"
_cell_formula_units_Z 28
_cell_length_a 31.317308
_cell_length_b 8.650223
_cell_length_c 31.317303
_cell_angle_alpha 90.000000
_cell_angle_beta 9.537120
_cell_angle_gamma 90.000000
_cell_volume 1405.669890
_symmetry_space_group_name_H-M "P 2/M"
_symmetry_group_IT_number 10
_symmetry_cell_setting 'monoclinic'
loop_
_space_group_symop_operation_xyz
x,y,z
-x,y,-z
-x,-y,-z
x,-y,z
loop_
_atom_site_type_symbol
_atom_site_label
_atom_site_fract_x
_atom_site_fract_y
_atom_site_fract_z
Si Si1 0.048013 0.317818 0.548046
Si Si2 0.237906 0.184102 0.737907
Si Si3 0.621291 0.820384 0.121295
Si Si4 0.094161 0.178732 0.594159
Si Si5 0.475759 0.684476 0.975724
Si Si6 0.810788 0.816388 0.310816
Si Si7 0.332799 0.318806 0.832829
O O1 0.045346 0.500000 0.545367
O O2 0.072907 0.279007 0.572894
O O3 0.287517 0.248298 0.285373
O O4 0.785322 0.248299 0.787574
O O5 0.500000 0.249767 0.500000
O O6 0.213588 0.243857 0.713586
O O7 0.238447 0.000000 0.738451
O O8 0.000000 0.249769 0.000000
O O9 0.357665 0.777197 0.357748
O O10 0.642045 0.713887 0.142042
O O11 0.628134 0.000000 0.128139
O O12 0.857742 0.777202 0.857670
O O13 0.087652 0.000000 0.587638
O O14 0.475447 0.500000 0.975413
O O15 0.500000 0.746803 0.000000
O O16 0.572061 0.755341 0.572838
O O17 0.811838 0.000000 0.311880
O O18 0.072802 0.755346 0.072102
O O19 0.328597 0.500000 0.828645
#
# Coordination Sequence:
#
# PCOD8060213 Si02
#       7
#     4   4   4   4   4   4   4
#     4  10  19  31  51  76 101 133 172 215 263 316
#     4   9  17  31  55  87 115 143 192 249 285 321
#     4  10  21  38  58  79 105 144 189 225 271 338
#     4  10  21  36  55  78 106 139 176 223 273 327
#     4   9  17  30  49  74 102 133 172 215 257 307
#     4  11  22  39  64  89 118 159 200 239 289 352
#     4  12  25  40  60  89 123 154 191 246 300 343
#
# _framework density 19.919328
#
# number of rings (size 3 to 8) (size 9 to 14) (size 15 to 20)
#    0.000    1.857    0.000    4.714    0.000    6.286 
#    0.000    0.000    0.000   11.143    0.000    0.000 
#    0.000    0.000    0.000    0.000    0.000    0.000 
#
# Total GULP energy -347314.083197 kJ/mol
# GULP energy per Si atom -12404.074400 kJ/mol
# Density = 1.987399 g / cm^3
# Si number density = 19.919328 Si / 1000 Ang^3
#
#
#
# Elastic Constant Matrix: (Units=GPa)
#
#
# Indices 1 2 3 4 5 6 
#
# 1 158.1870 26.6619 94.3716 0.0000 -1.3985 0.0000
# 2 26.6619 45.7569 29.9996 0.0000 -0.2937 0.0000
# 3 94.3716 29.9996 216.5562 0.0000 -3.7545 0.0000
# 4 0.0000 0.0000 0.0000 16.8370 0.0000 1.8867
# 5 -1.3985 -0.2937 -3.7545 0.0000 40.0257 0.0000
# 6 0.0000 0.0000 0.0000 1.8867 0.0000 38.2852
#
#
#
# Elastic Compliance Matrix: (Units=1/GPa)
#
#
# Indices 1 2 3 4 5 6 
#
# 1 0.008879 -0.002900 -0.003468 0.000000 -0.000036 0.000000
# 2 -0.002900 0.024986 -0.002200 0.000000 -0.000124 0.000000
# 3 -0.003468 -0.002200 0.006442 0.000000 0.000467 0.000000
# 4 0.000000 0.000000 0.000000 0.059723 0.000000 -0.002943
# 5 -0.000036 -0.000124 0.000467 0.000000 0.025026 0.000000
# 6 0.000000 0.000000 0.000000 -0.002943 0.000000 0.026265
#
#
# Mechanical properties :
#
#
# Convention : Reuss Voigt Hill
#
# Bulk Modulus (GPa) = 43.15744 80.28513 61.72128
# Shear Modulus (GPa) = 28.38009 36.99406 32.68707
#
# Velocity S-wave (km/s) = 3.77868 4.31419 4.05529
# Velocity P-wave (km/s) = 6.38366 8.07521 7.27874
#
# Compressibility (1/GPa) = 0.02317098
#
# Stress axis : x y z
#
# Youngs Moduli (GPa) = 112.62222 40.02265 155.23184
#
# Poissons Ratio (x) = 0.11607 0.53839
# Poissons Ratio (y) = 0.32662 0.34145
# Poissons Ratio (z) = 0.39061 0.08803
#
# Static dielectric constant tensor:
#      x y z
#    x 3.739880 0.000000 -0.017520 
#    y 0.000000 3.255270 0.000000 
#    z -0.017520 0.000000 3.938740 
# 
# 
# High freq. dielectric constant tensor:
#      x y z
#    x 1.794280 0.000000 -0.000760 
#    y 0.000000 1.739830 0.000000 
#    z -0.000760 0.000000 1.802910 
# 
# From -- ./inp_files/95985.got.cif
#   From: 2010.06.25/outbox.cif.g09.slc.cpg/sg10_48_cif.got.tgz:95985.got - 2010.06.27 22:07:45.
