data_PCOD8060993
_publ_section_title
;
Structure prediction by ZEFSAII (Michael W. Deem and Ramdas Pophale) SiO2 
 PCOD8060993
Probable space group: P 2/M
;
_chemical_formula_sum "Si O2"
_cell_formula_units_Z 28
_cell_length_a 31.461251
_cell_length_b 7.848447
_cell_length_c 10.277031
_cell_angle_alpha 90.000000
_cell_angle_beta 35.250713
_cell_angle_gamma 90.000000
_cell_volume 1464.603648
_symmetry_space_group_name_H-M "P 2/M"
_symmetry_group_IT_number 10
_symmetry_cell_setting 'monoclinic'
loop_
_space_group_symop_operation_xyz
x,y,z
-x,y,-z
-x,-y,-z
x,-y,z
loop_
_atom_site_type_symbol
_atom_site_label
_atom_site_fract_x
_atom_site_fract_y
_atom_site_fract_z
Si Si1 0.901078 0.305565 0.497304
Si Si2 0.417711 0.000000 0.051079
Si Si3 0.934572 0.798641 0.913566
Si Si4 0.318664 0.309863 0.302546
Si Si5 0.681332 0.690137 0.395870
Si Si6 0.833031 0.194752 0.932342
Si Si7 0.833037 0.194752 0.402482
Si Si8 0.582284 0.000000 0.639641
O O1 0.874674 0.500000 0.563310
O O2 0.869551 0.210246 0.701030
O O3 0.869558 0.210241 0.451191
O O4 0.988848 0.299415 0.277891
O O5 0.376431 0.829499 0.104342
O O6 0.421854 0.000000 0.195367
O O7 0.499997 0.000000 0.786188
O O8 0.890240 0.738209 0.897084
O O9 0.949827 0.000000 0.875425
O O10 0.890247 0.738211 0.151694
O O11 0.351886 0.500000 0.200549
O O12 0.301217 0.272233 0.496961
O O13 0.242438 0.300295 0.414429
O O14 0.648110 0.500000 0.459982
O O15 0.623562 0.829498 0.486510
O O16 0.757555 0.699707 0.126624
O O17 0.812932 0.000000 0.013186
O O18 0.812937 0.000000 0.422130
#
# Coordination Sequence:
#
# PCOD8060993 Si02
#       8
#     4   2   4   4   4   4   4   2
#     4  12  26  38  50  80 118 147 192 248 293 336
#     4   9  18  32  52  81 118 152 183 226 283 337
#     4  10  22  38  60  80 104 147 196 243 293 346
#     4  10  19  32  55  84 113 149 192 232 278 338
#     4  10  19  32  55  84 113 149 192 232 278 338
#     4  11  21  38  60  80 109 151 197 238 287 344
#     4  11  21  38  60  80 109 151 197 238 287 344
#     4   9  18  32  52  81 118 152 183 226 283 337
#
# _framework density 19.117799999999999
#
# number of rings (size 3 to 8) (size 9 to 14) (size 15 to 20)
#    0.000    1.571    2.857    3.000    0.000    6.286 
#    0.000    2.857    0.000    0.000    0.000    2.000 
#    0.000    3.429    0.000    0.000    0.000    0.000 
#
# Total GULP energy -347311.738762 kJ/mol
# GULP energy per Si atom -12403.990670 kJ/mol
# Density = 1.907429 g / cm^3
# Si number density = 19.117800 Si / 1000 Ang^3
#
#
#
# Elastic Constant Matrix: (Units=GPa)
#
#
# Indices 1 2 3 4 5 6 
#
# 1 117.3509 27.0610 32.3831 0.0000 -11.4795 0.0000
# 2 27.0610 110.6306 37.1248 0.0000 -17.2747 0.0000
# 3 32.3831 37.1248 128.7932 0.0000 -8.2202 0.0000
# 4 0.0000 0.0000 0.0000 19.6970 0.0000 -1.0862
# 5 -11.4795 -17.2747 -8.2202 0.0000 40.2187 0.0000
# 6 0.0000 0.0000 0.0000 -1.0862 0.0000 19.0624
#
#
#
# Elastic Compliance Matrix: (Units=1/GPa)
#
#
# Indices 1 2 3 4 5 6 
#
# 1 0.009538 -0.001435 -0.001875 0.000000 0.001723 0.000000
# 2 -0.001435 0.010817 -0.002520 0.000000 0.003721 0.000000
# 3 -0.001875 -0.002520 0.008976 0.000000 0.000217 0.000000
# 4 0.000000 0.000000 0.000000 0.050929 0.000000 0.002902
# 5 0.001723 0.003721 0.000217 0.000000 0.026999 0.000000
# 6 0.000000 0.000000 0.000000 0.002902 0.000000 0.052625
#
#
# Mechanical properties :
#
#
# Convention : Reuss Voigt Hill
#
# Bulk Modulus (GPa) = 56.58560 61.10137 58.84349
# Shear Modulus (GPa) = 28.17975 33.14269 30.66122
#
# Velocity S-wave (km/s) = 3.84344 4.16817 4.00910
# Velocity P-wave (km/s) = 7.02558 7.42932 7.23026
#
# Compressibility (1/GPa) = 0.01767234
#
# Stress axis : x y z
#
# Youngs Moduli (GPa) = 104.84146 92.44957 111.40969
#
# Poissons Ratio (x) = 0.13266 0.20885
# Poissons Ratio (y) = 0.15045 0.28071
# Poissons Ratio (z) = 0.19654 0.23294
#
# Static dielectric constant tensor:
#      x y z
#    x 3.274920 0.000000 -0.138850 
#    y 0.000000 3.537380 0.000000 
#    z -0.138850 0.000000 3.355920 
# 
# 
# High freq. dielectric constant tensor:
#      x y z
#    x 1.717420 0.000000 -0.014190 
#    y 0.000000 1.756100 0.000000 
#    z -0.014190 0.000000 1.725700 
# 
# From -- ./inp_files/37221.got.cif
#   From: 2010.06.25/outbox.cif.g09.slc.cpg/sg10_19_cif.got.tgz:37221.got - 2010.06.27 22:07:45.
