data_PCOD8060841
_publ_section_title
;
Structure prediction by ZEFSAII (Michael W. Deem and Ramdas Pophale) SiO2 
 PCOD8060841
Probable space group: P 2/M
;
_chemical_formula_sum "Si O2"
_cell_formula_units_Z 32
_cell_length_a 12.635499
_cell_length_b 9.230221
_cell_length_c 33.406041
_cell_angle_alpha 90.000000
_cell_angle_beta 25.123508
_cell_angle_gamma 90.000000
_cell_volume 1654.168578
_symmetry_space_group_name_H-M "P 2/M"
_symmetry_group_IT_number 10
_symmetry_cell_setting 'monoclinic'
loop_
_space_group_symop_operation_xyz
x,y,z
-x,y,-z
-x,-y,-z
x,-y,z
loop_
_atom_site_type_symbol
_atom_site_label
_atom_site_fract_x
_atom_site_fract_y
_atom_site_fract_z
Si Si1 0.045165 0.832106 0.725326
Si Si2 0.771521 0.168028 0.898659
Si Si3 0.535817 0.832009 0.598636
Si Si4 0.044218 0.665146 0.871280
Si Si5 0.086071 0.833793 0.387302
Si Si6 0.589016 0.333295 0.663309
Si Si7 0.209021 0.329766 0.960362
Si Si8 0.280845 0.172606 0.234635
O O1 0.312078 0.766510 0.647682
O O2 0.837719 0.802616 0.830085
O O3 0.932344 0.767259 0.722866
O O4 0.091976 0.000000 0.702243
O O5 0.975206 0.242500 0.856426
O O6 0.775618 0.000000 0.908263
O O7 0.500000 0.235415 0.000000
O O8 0.788609 0.815942 0.486829
O O9 0.550926 0.743413 0.634158
O O10 0.481982 0.000000 0.628106
O O11 0.971490 0.500000 0.887514
O O12 0.341263 0.681188 0.775440
O O13 0.898764 0.721480 0.960024
O O14 0.185446 0.739326 0.389992
O O15 0.200620 0.778684 0.306363
O O16 0.160819 0.000000 0.369761
O O17 0.657372 0.500000 0.631974
O O18 0.268619 0.500000 0.939024
O O19 0.456869 0.242413 0.866046
O O20 0.000000 0.288333 0.000000
O O21 0.306990 0.000000 0.221907
#
# Coordination Sequence:
#
# PCOD8060841 Si02
#       8
#     4   4   4   4   4   4   4   4
#     4   9  18  34  56  81 113 148 181 226 278 330
#     4  10  19  32  53  80 108 141 179 221 273 326
#     4  10  20  37  59  83 113 149 186 228 284 339
#     4  10  21  35  53  79 108 142 183 224 272 329
#     4  10  22  37  57  84 112 146 188 234 282 335
#     4  11  22  37  58  84 114 147 187 235 283 334
#     4  10  21  38  57  78 110 151 189 227 277 333
#     4  10  21  38  58  84 114 145 189 235 276 329
#
# _framework density 19.345065999999999
#
# number of rings (size 3 to 8) (size 9 to 14) (size 15 to 20)
#    0.000    2.000    1.250    2.250    0.000    6.500 
#    0.000    3.750    0.000    0.000    0.000    2.625 
#    0.000    0.000    0.000    0.000    0.000    0.000 
#
# Total GULP energy -396826.882444 kJ/mol
# GULP energy per Si atom -12400.840076 kJ/mol
# Density = 1.930104 g / cm^3
# Si number density = 19.345066 Si / 1000 Ang^3
#
#
#
# Elastic Constant Matrix: (Units=GPa)
#
#
# Indices 1 2 3 4 5 6 
#
# 1 129.1424 36.5608 32.5696 0.0000 -8.9406 0.0000
# 2 36.5608 49.5440 28.8619 0.0000 0.2289 0.0000
# 3 32.5696 28.8619 95.1937 0.0000 -8.6291 0.0000
# 4 0.0000 0.0000 0.0000 22.4741 0.0000 2.7958
# 5 -8.9406 0.2289 -8.6291 0.0000 32.8379 0.0000
# 6 0.0000 0.0000 0.0000 2.7958 0.0000 -12.8497
#
#
#
# Elastic Compliance Matrix: (Units=1/GPa)
#
#
# Indices 1 2 3 4 5 6 
#
# 1 0.010141 -0.006808 -0.001179 0.000000 0.002499 0.000000
# 2 -0.006808 0.029237 -0.006886 0.000000 -0.003867 0.000000
# 3 -0.001179 -0.006886 0.013288 0.000000 0.003219 0.000000
# 4 0.000000 0.000000 0.000000 0.043323 0.000000 0.009426
# 5 0.002499 -0.003867 0.003219 0.000000 0.032006 0.000000
# 6 0.000000 0.000000 0.000000 0.009426 0.000000 -0.075772
#
#
# Mechanical properties :
#
#
# Convention : Reuss Voigt Hill
#
# Bulk Modulus (GPa) = 43.62939 52.20719 47.91829
# Shear Modulus (GPa) = 55.79805 20.21834 38.00819
#
# Velocity S-wave (km/s) = 5.37645 3.23637 4.43736
# Velocity P-wave (km/s) = 7.81945 6.40401 7.14686
#
# Compressibility (1/GPa) = 0.02292033
#
# Stress axis : x y z
#
# Youngs Moduli (GPa) = 98.60774 34.20280 75.25761
#
# Poissons Ratio (x) = 0.23287 0.08873
# Poissons Ratio (y) = 0.67136 0.51820
# Poissons Ratio (z) = 0.11625 0.23551
#
# Static dielectric constant tensor:
#      x y z
#    x 3.691750 0.000000 -0.090970 
#    y 0.000000 3.337770 0.000000 
#    z -0.090970 0.000000 3.707100 
# 
# 
# High freq. dielectric constant tensor:
#      x y z
#    x 1.758940 0.000000 -0.004910 
#    y 0.000000 1.728190 0.000000 
#    z -0.004910 0.000000 1.766150 
# 
# From -- ./inp_files/71641.got.cif
#   From: 2010.06.25/outbox.cif.g09.slc.cpg/sg10_36_cif.got.tgz:71641.got - 2010.06.27 22:07:45.
