data_PCOD8060421
_publ_section_title
;
Structure prediction by ZEFSAII (Michael W. Deem and Ramdas Pophale) SiO2 
 PCOD8060421
Probable space group: P 2/M
;
_chemical_formula_sum "Si O2"
_cell_formula_units_Z 28
_cell_length_a 14.639659
_cell_length_b 9.138946
_cell_length_c 18.780670
_cell_angle_alpha 90.000000
_cell_angle_beta 38.390524
_cell_angle_gamma 90.000000
_cell_volume 1560.423395
_symmetry_space_group_name_H-M "P 2/M"
_symmetry_group_IT_number 10
_symmetry_cell_setting 'monoclinic'
loop_
_space_group_symop_operation_xyz
x,y,z
-x,y,-z
-x,-y,-z
x,-y,z
loop_
_atom_site_type_symbol
_atom_site_label
_atom_site_fract_x
_atom_site_fract_y
_atom_site_fract_z
Si Si1 0.363827 0.669949 0.406959
Si Si2 0.679128 0.667391 0.167106
Si Si3 0.884068 0.669270 0.915427
Si Si4 0.164865 0.173178 0.803387
Si Si5 0.948464 0.835125 0.741065
Si Si6 0.716966 0.161280 0.413862
Si Si7 0.048686 0.327109 0.548366
O O1 0.349567 0.500000 0.427536
O O2 0.507025 0.712046 0.273454
O O3 0.379181 0.735434 0.477044
O O4 0.217374 0.726571 0.456276
O O5 0.700038 0.500000 0.180785
O O6 0.770742 0.774466 0.161469
O O7 0.734799 0.684784 0.052366
O O8 0.924669 0.500000 0.876773
O O9 0.013320 0.743232 0.881830
O O10 0.854548 0.748430 0.857948
O O11 0.284105 0.210476 0.668255
O O12 0.132210 0.000000 0.825316
O O13 0.114533 0.836543 0.665871
O O14 0.940332 0.752208 0.670484
O O15 0.886872 0.000000 0.770474
O O16 0.649077 0.000000 0.463404
O O17 0.032043 0.500000 0.569358
O O18 0.000000 0.277467 0.500000
#
# Coordination Sequence:
#
# PCOD8060421 Si02
#       7
#     4   4   4   4   4   4   4
#     4   9  18  32  48  68  95 124 154 190 235 286
#     4  10  21  33  45  65  94 128 162 197 237 277
#     4  10  19  32  49  67  92 126 164 201 233 271
#     4  10  20  32  47  68  93 123 163 206 240 272
#     4   9  17  30  49  73  98 123 154 192 235 280
#     4   8  16  30  45  64  91 121 153 191 234 278
#     4   9  17  31  54  80 100 120 150 189 234 285
#
# _framework density 17.943847999999999
#
# number of rings (size 3 to 8) (size 9 to 14) (size 15 to 20)
#    0.000    2.714    0.000    2.571    0.000    8.286 
#    0.000    2.857    0.000    0.857    0.000    6.000 
#    0.000    0.000    0.000    0.000    0.000    0.000 
#
# Total GULP energy -347118.860892 kJ/mol
# GULP energy per Si atom -12397.102175 kJ/mol
# Density = 1.790301 g / cm^3
# Si number density = 17.943848 Si / 1000 Ang^3
#
#
#
# Elastic Constant Matrix: (Units=GPa)
#
#
# Indices 1 2 3 4 5 6 
#
# 1 46.8012 24.4847 42.7945 0.0000 21.0726 0.0000
# 2 24.4847 74.8423 52.7545 0.0000 11.8605 0.0000
# 3 42.7945 52.7545 132.1274 0.0000 18.4164 0.0000
# 4 0.0000 0.0000 0.0000 16.6239 0.0000 8.5774
# 5 21.0726 11.8605 18.4164 0.0000 26.8335 0.0000
# 6 0.0000 0.0000 0.0000 8.5774 0.0000 17.5554
#
#
#
# Elastic Compliance Matrix: (Units=1/GPa)
#
#
# Indices 1 2 3 4 5 6 
#
# 1 0.043222 -0.003749 -0.008849 0.000000 -0.026212 0.000000
# 2 -0.003749 0.019214 -0.006285 0.000000 -0.001235 0.000000
# 3 -0.008849 -0.006285 0.012814 0.000000 0.000933 0.000000
# 4 0.000000 0.000000 0.000000 0.080431 0.000000 -0.039298
# 5 -0.026212 -0.001235 0.000933 0.000000 0.057757 0.000000
# 6 0.000000 0.000000 0.000000 -0.039298 0.000000 0.076163
#
#
# Mechanical properties :
#
#
# Convention : Reuss Voigt Hill
#
# Bulk Modulus (GPa) = 26.67795 54.87091 40.77443
# Shear Modulus (GPa) = 14.71188 21.11836 17.91512
#
# Velocity S-wave (km/s) = 2.86647 3.43434 3.16317
# Velocity P-wave (km/s) = 5.08481 6.80969 6.00946
#
# Compressibility (1/GPa) = 0.03748413
#
# Stress axis : x y z
#
# Youngs Moduli (GPa) = 23.13657 52.04582 78.04025
#
# Poissons Ratio (x) = 0.19511 0.69055
# Poissons Ratio (y) = 0.08674 0.49050
# Poissons Ratio (z) = 0.20473 0.32712
#
# Static dielectric constant tensor:
#      x y z
#    x 3.083470 0.000000 0.165760 
#    y 0.000000 3.418510 0.000000 
#    z 0.165760 0.000000 3.499680 
# 
# 
# High freq. dielectric constant tensor:
#      x y z
#    x 1.653670 0.000000 0.018780 
#    y 0.000000 1.699180 0.000000 
#    z 0.018780 0.000000 1.697720 
# 
# From -- ./inp_files/54661.got.cif
#   From: 2010.06.25/outbox.cif.g09.slc.cpg/sg10_28_cif.got.tgz:54661.got - 2010.06.27 22:07:45.
