data_PCOD8060608
_publ_section_title
;
Structure prediction by ZEFSAII (Michael W. Deem and Ramdas Pophale) SiO2 
 PCOD8060608
Probable space group: P 2/M
;
_chemical_formula_sum "Si O2"
_cell_formula_units_Z 32
_cell_length_a 14.954633
_cell_length_b 9.330389
_cell_length_c 22.686326
_cell_angle_alpha 90.000000
_cell_angle_beta 31.867246
_cell_angle_gamma 90.000000
_cell_volume 1671.224815
_symmetry_space_group_name_H-M "P 2/M"
_symmetry_group_IT_number 10
_symmetry_cell_setting 'monoclinic'
loop_
_space_group_symop_operation_xyz
x,y,z
-x,y,-z
-x,-y,-z
x,-y,z
loop_
_atom_site_type_symbol
_atom_site_label
_atom_site_fract_x
_atom_site_fract_y
_atom_site_fract_z
Si Si1 0.975024 0.834027 0.762898
Si Si2 0.993070 0.668650 0.635690
Si Si3 0.123144 0.833944 0.800807
Si Si4 0.596591 0.167958 0.005052
Si Si5 0.651647 0.334834 0.237850
Si Si6 0.152764 0.843713 0.959289
Si Si7 0.636821 0.669185 0.778346
Si Si8 0.703014 0.665370 0.611454
O O1 0.033273 0.741800 0.675100
O O2 0.114869 0.805959 0.735600
O O3 0.791001 0.786492 0.888917
O O4 0.970011 0.000000 0.747223
O O5 0.019079 0.500000 0.629185
O O6 0.127264 0.730514 0.512678
O O7 0.805153 0.707698 0.720483
O O8 0.272674 0.742893 0.747091
O O9 0.160512 0.000000 0.794365
O O10 0.935388 0.792491 0.930601
O O11 0.574925 0.000000 0.029480
O O12 0.500000 0.215305 0.000000
O O13 0.521696 0.251673 0.103107
O O14 0.705251 0.500000 0.210663
O O15 0.716812 0.272207 0.138861
O O16 0.449667 0.314053 0.349768
O O17 0.241786 0.000000 0.917444
O O18 0.000000 0.860152 0.000000
O O19 0.599748 0.500000 0.799082
O O20 0.660599 0.733104 0.699031
O O21 0.737986 0.500000 0.605132
#
# Coordination Sequence:
#
# PCOD8060608 Si02
#       8
#     4   4   4   4   4   4   4   4
#     4  10  21  37  56  79 110 146 179 216 267 320
#     4  10  20  37  59  79 104 142 184 222 264 318
#     4   9  19  35  53  73 104 144 179 212 259 320
#     4  10  20  35  55  80 114 146 171 214 274 325
#     4  10  19  32  51  76 106 137 174 223 269 308
#     4   8  15  29  48  69  98 135 171 208 255 313
#     4  10  20  35  58  83 108 140 180 221 263 320
#     4   9  20  37  55  79 110 142 177 223 275 316
#
# _framework density 19.147632000000002
#
# number of rings (size 3 to 8) (size 9 to 14) (size 15 to 20)
#    0.000    2.500    1.250    1.500    1.750    5.000 
#    0.000    3.125    0.000    5.250    0.000    0.000 
#    0.000    0.000    0.000    0.000    0.000    0.000 
#
# Total GULP energy -396714.878873 kJ/mol
# GULP energy per Si atom -12397.339965 kJ/mol
# Density = 1.910405 g / cm^3
# Si number density = 19.147632 Si / 1000 Ang^3
#
#
#
# Elastic Constant Matrix: (Units=GPa)
#
#
# Indices 1 2 3 4 5 6 
#
# 1 87.8463 31.7209 25.7210 0.0000 22.1978 0.0000
# 2 31.7209 55.5113 29.7538 0.0000 6.0170 0.0000
# 3 25.7210 29.7538 85.7677 0.0000 21.7917 0.0000
# 4 0.0000 0.0000 0.0000 106.9528 0.0000 122.9912
# 5 22.1978 6.0170 21.7917 0.0000 26.8045 0.0000
# 6 0.0000 0.0000 0.0000 122.9912 0.0000 181.6389
#
#
#
# Elastic Compliance Matrix: (Units=1/GPa)
#
#
# Indices 1 2 3 4 5 6 
#
# 1 0.017892 -0.009500 0.001453 0.000000 -0.013866 0.000000
# 2 -0.009500 0.027228 -0.008876 0.000000 0.008972 0.000000
# 3 0.001453 -0.008876 0.017774 0.000000 -0.013661 0.000000
# 4 0.000000 0.000000 0.000000 0.042242 0.000000 -0.028603
# 5 -0.013866 0.008972 -0.013661 0.000000 0.057882 0.000000
# 6 0.000000 0.000000 0.000000 -0.028603 0.000000 0.024873
#
#
# Mechanical properties :
#
#
# Convention : Reuss Voigt Hill
#
# Bulk Modulus (GPa) = 34.42622 44.83518 39.63070
# Shear Modulus (GPa) = 21.60567 72.54121 47.07344
#
# Velocity S-wave (km/s) = 3.36277 6.16177 4.96365
# Velocity P-wave (km/s) = 5.75291 8.60753 7.32071
#
# Compressibility (1/GPa) = 0.02904763
#
# Stress axis : x y z
#
# Youngs Moduli (GPa) = 55.89000 36.72671 56.26252
#
# Poissons Ratio (x) = 0.34891 -0.08175
# Poissons Ratio (y) = 0.53096 0.49940
# Poissons Ratio (z) = -0.08121 0.32600
#
# Static dielectric constant tensor:
#      x y z
#    x 3.664770 0.000000 0.280690 
#    y 0.000000 3.299490 0.000000 
#    z 0.280690 0.000000 3.672450 
# 
# 
# High freq. dielectric constant tensor:
#      x y z
#    x 1.751630 0.000000 0.003130 
#    y 0.000000 1.722060 0.000000 
#    z 0.003130 0.000000 1.732370 
# 
# From -- ./inp_files/89495.got.cif
#   From: 2010.06.25/outbox.cif.g09.slc.cpg/sg10_45_cif.got.tgz:89495.got - 2010.06.27 22:07:45.
