data_PCOD8060979
_publ_section_title
;
Structure prediction by ZEFSAII (Michael W. Deem and Ramdas Pophale) SiO2 
 PCOD8060979
Probable space group: P 2/M
;
_chemical_formula_sum "Si O2"
_cell_formula_units_Z 20
_cell_length_a 25.111660
_cell_length_b 8.633910
_cell_length_c 10.613328
_cell_angle_alpha 90.000000
_cell_angle_beta 155.656678
_cell_angle_gamma 90.000000
_cell_volume 948.519049
_symmetry_space_group_name_H-M "P 2/M"
_symmetry_group_IT_number 10
_symmetry_cell_setting 'monoclinic'
loop_
_space_group_symop_operation_xyz
x,y,z
-x,y,-z
-x,-y,-z
x,-y,z
loop_
_atom_site_type_symbol
_atom_site_label
_atom_site_fract_x
_atom_site_fract_y
_atom_site_fract_z
Si Si1 0.427388 0.678079 0.225764
Si Si2 0.153862 0.676269 0.742848
Si Si3 0.136071 0.183456 0.236475
Si Si4 0.597065 0.684526 0.101844
Si Si5 0.107746 0.180166 0.891830
O O1 0.500000 0.762767 0.500000
O O2 0.471243 0.500000 0.321366
O O3 0.275303 0.697477 0.915566
O O4 0.457816 0.745683 0.151996
O O5 0.104003 0.500000 0.633816
O O6 0.188863 0.723756 0.962641
O O7 0.044355 0.789529 0.454690
O O8 0.257535 0.255259 0.569936
O O9 0.141284 0.000000 0.261700
O O10 0.147917 0.236385 0.116897
O O11 0.000000 0.245645 0.000000
O O12 0.602613 0.500000 0.115771
O O13 0.500000 0.748702 0.000000
O O14 0.135887 0.000000 0.934181
#
# Coordination Sequence:
#
# PCOD8060979 Si02
#       5
#     4   4   4   4   4
#     4   9  19  35  55  80 113 147 180 225 279 332
#     4  10  19  32  55  82 109 144 186 228 277 330
#     4  10  22  39  59  82 113 155 194 233 288 343
#     4  10  22  38  60  89 117 149 191 238 288 340
#     4  10  20  34  54  79 112 146 180 230 283 331
#
# _framework density 21.0855
#
# number of rings (size 3 to 8) (size 9 to 14) (size 15 to 20)
#    0.000    2.200    0.000    3.600    2.800    2.400 
#    0.000    1.000    0.000    3.000    0.000    0.000 
#    0.000    0.000    0.000    0.000    0.000    0.000 
#
# Total GULP energy -247917.174749 kJ/mol
# GULP energy per Si atom -12395.858737 kJ/mol
# Density = 2.103751 g / cm^3
# Si number density = 21.085500 Si / 1000 Ang^3
#
#
#
# Elastic Constant Matrix: (Units=GPa)
#
#
# Indices 1 2 3 4 5 6 
#
# 1 156.1971 19.4490 60.2061 0.0000 -23.2940 0.0000
# 2 19.4490 22.6392 4.4716 0.0000 -1.6701 0.0000
# 3 60.2061 4.4716 99.6831 0.0000 -19.2899 0.0000
# 4 0.0000 0.0000 0.0000 18.0249 0.0000 -2.3029
# 5 -23.2940 -1.6701 -19.2899 0.0000 40.0030 0.0000
# 6 0.0000 0.0000 0.0000 -2.3029 0.0000 16.8380
#
#
#
# Elastic Compliance Matrix: (Units=1/GPa)
#
#
# Indices 1 2 3 4 5 6 
#
# 1 0.009618 -0.007074 -0.004925 0.000000 0.002931 0.000000
# 2 -0.007074 0.049804 0.001813 0.000000 -0.001166 0.000000
# 3 -0.004925 0.001813 0.013659 0.000000 0.003795 0.000000
# 4 0.000000 0.000000 0.000000 0.056465 0.000000 0.007723
# 5 0.002931 -0.001166 0.003795 0.000000 0.028486 0.000000
# 6 0.000000 0.000000 0.000000 0.007723 0.000000 0.060446
#
#
# Mechanical properties :
#
#
# Convention : Reuss Voigt Hill
#
# Bulk Modulus (GPa) = 18.97181 49.64145 34.30663
# Shear Modulus (GPa) = 19.49922 27.93270 23.71596
#
# Velocity S-wave (km/s) = 3.04430 3.64364 3.35737
# Velocity P-wave (km/s) = 4.62322 6.42616 5.59775
#
# Compressibility (1/GPa) = 0.05270978
#
# Stress axis : x y z
#
# Youngs Moduli (GPa) = 103.96836 20.07861 73.21071
#
# Poissons Ratio (x) = 0.14204 0.36055
# Poissons Ratio (y) = 0.73548 -0.13272
# Poissons Ratio (z) = 0.51202 -0.03640
#
# Static dielectric constant tensor:
#      x y z
#    x 4.283420 0.000000 -0.258590 
#    y 0.000000 3.435210 0.000000 
#    z -0.258590 0.000000 3.715990 
# 
# 
# High freq. dielectric constant tensor:
#      x y z
#    x 1.848470 0.000000 -0.010690 
#    y 0.000000 1.791990 0.000000 
#    z -0.010690 0.000000 1.820830 
# 
# From -- ./inp_files/58061.got.cif
#   From: 2010.06.25/outbox.cif.g09.slc.cpg/sg10_30_cif.got.tgz:58061.got - 2010.06.27 22:07:45.
