data_PCOD8060134
_publ_section_title
;
Structure prediction by ZEFSAII (Michael W. Deem and Ramdas Pophale) SiO2 
 PCOD8060134
Probable space group: P 2/M
;
_chemical_formula_sum "Si O2"
_cell_formula_units_Z 32
_cell_length_a 16.712839
_cell_length_b 9.285128
_cell_length_c 22.545651
_cell_angle_alpha 90.000000
_cell_angle_beta 31.840166
_cell_angle_gamma 90.000000
_cell_volume 1845.719660
_symmetry_space_group_name_H-M "P 2/M"
_symmetry_group_IT_number 10
_symmetry_cell_setting 'monoclinic'
loop_
_space_group_symop_operation_xyz
x,y,z
-x,y,-z
-x,-y,-z
x,-y,z
loop_
_atom_site_type_symbol
_atom_site_label
_atom_site_fract_x
_atom_site_fract_y
_atom_site_fract_z
Si Si1 0.838087 0.164181 0.164824
Si Si2 0.141703 0.158049 0.367448
Si Si3 0.958207 0.332734 0.396717
Si Si4 0.898177 0.330078 0.944839
Si Si5 0.071990 0.335032 0.718856
Si Si6 0.667560 0.835263 0.392766
Si Si7 0.657379 0.831339 0.161324
Si Si8 0.311463 0.830497 0.372209
O O1 0.724491 0.182959 0.290479
O O2 0.744784 0.210947 0.166089
O O3 0.983556 0.265709 0.081667
O O4 0.897223 0.000000 0.122520
O O5 0.281417 0.207366 0.321455
O O6 0.000000 0.148412 0.500000
O O7 0.105654 0.270624 0.337986
O O8 0.173276 0.000000 0.319542
O O9 0.941259 0.500000 0.423154
O O10 0.994019 0.307775 0.304881
O O11 0.802174 0.254865 0.513125
O O12 0.886920 0.500000 0.961230
O O13 0.949020 0.288153 0.845927
O O14 0.734694 0.257290 0.058973
O O15 0.116076 0.500000 0.701210
O O16 0.226423 0.246486 0.627710
O O17 0.500000 0.767691 0.500000
O O18 0.663846 0.000000 0.416192
O O19 0.482868 0.783644 0.278568
O O20 0.667465 0.000000 0.140357
O O21 0.284167 0.000000 0.400531
#
# Coordination Sequence:
#
# PCOD8060134 Si02
#       8
#     4   4   4   4   4   4   4   4
#     4   9  18  32  48  69  95 125 161 201 242 280
#     4   8  15  30  49  71  99 129 157 188 236 291
#     4  10  19  31  50  75 100 127 162 197 233 286
#     4  10  20  35  51  67  93 128 167 205 240 279
#     4   9  20  35  48  67  96 130 162 197 240 283
#     4   9  18  30  47  70  95 125 162 199 234 282
#     4  10  20  33  51  72  97 126 158 201 245 284
#     4   9  19  33  50  74 103 130 154 190 245 295
#
# _framework density 17.337409999999998
#
# number of rings (size 3 to 8) (size 9 to 14) (size 15 to 20)
#    0.000    2.750    0.000    1.875    1.750    6.500 
#    0.000    0.000    0.000    0.750    0.000    5.250 
#    0.000    0.000    0.000    0.000    0.000    0.000 
#
# Total GULP energy -396741.475662 kJ/mol
# GULP energy per Si atom -12398.171114 kJ/mol
# Density = 1.729795 g / cm^3
# Si number density = 17.337410 Si / 1000 Ang^3
#
#
#
# Elastic Constant Matrix: (Units=GPa)
#
#
# Indices 1 2 3 4 5 6 
#
# 1 99.2543 43.9103 37.7444 0.0000 7.3540 0.0000
# 2 43.9103 66.8940 31.2376 0.0000 3.2335 0.0000
# 3 37.7444 31.2376 59.5140 0.0000 -2.5183 0.0000
# 4 0.0000 0.0000 0.0000 14.0850 0.0000 8.4071
# 5 7.3540 3.2335 -2.5183 0.0000 14.9517 0.0000
# 6 0.0000 0.0000 0.0000 8.4071 0.0000 19.2635
#
#
#
# Elastic Compliance Matrix: (Units=1/GPa)
#
#
# Indices 1 2 3 4 5 6 
#
# 1 0.016492 -0.007172 -0.007023 0.000000 -0.007744 0.000000
# 2 -0.007172 0.023485 -0.007900 0.000000 -0.002882 0.000000
# 3 -0.007023 -0.007900 0.025806 0.000000 0.009509 0.000000
# 4 0.000000 0.000000 0.000000 0.096007 0.000000 -0.041900
# 5 -0.007744 -0.002882 0.009509 0.000000 0.072916 0.000000
# 6 0.000000 0.000000 0.000000 -0.041900 0.000000 0.070198
#
#
# Mechanical properties :
#
#
# Convention : Reuss Voigt Hill
#
# Bulk Modulus (GPa) = 46.31103 50.16076 48.23589
# Shear Modulus (GPa) = 14.03339 17.17805 15.60572
#
# Velocity S-wave (km/s) = 2.84813 3.15113 3.00345
# Velocity P-wave (km/s) = 6.13069 6.49880 6.31743
#
# Compressibility (1/GPa) = 0.02159313
#
# Stress axis : x y z
#
# Youngs Moduli (GPa) = 60.63364 42.57955 38.75085
#
# Poissons Ratio (x) = 0.30539 0.27214
# Poissons Ratio (y) = 0.43487 0.30614
# Poissons Ratio (z) = 0.42582 0.33639
#
# Static dielectric constant tensor:
#      x y z
#    x 3.451700 0.000000 -0.067220 
#    y 0.000000 3.232940 0.000000 
#    z -0.067220 0.000000 3.170500 
# 
# 
# High freq. dielectric constant tensor:
#      x y z
#    x 1.665630 0.000000 0.002650 
#    y 0.000000 1.667240 0.000000 
#    z 0.002650 0.000000 1.652470 
# 
# From -- ./inp_files/89934.got.cif
#   From: 2010.06.25/outbox.cif.g09.slc.cpg/sg10_45_cif.got.tgz:89934.got - 2010.06.27 22:07:45.
