data_PCOD8060629
_publ_section_title
;
Structure prediction by ZEFSAII (Michael W. Deem and Ramdas Pophale) SiO2 
 PCOD8060629
Probable space group: P 2/M
;
_chemical_formula_sum "Si O2"
_cell_formula_units_Z 28
_cell_length_a 26.255029
_cell_length_b 8.735737
_cell_length_c 10.248862
_cell_angle_alpha 90.000000
_cell_angle_beta 39.429631
_cell_angle_gamma 90.000000
_cell_volume 1492.967529
_symmetry_space_group_name_H-M "P 2/M"
_symmetry_group_IT_number 10
_symmetry_cell_setting 'monoclinic'
loop_
_space_group_symop_operation_xyz
x,y,z
-x,y,-z
-x,-y,-z
x,-y,z
loop_
_atom_site_type_symbol
_atom_site_label
_atom_site_fract_x
_atom_site_fract_y
_atom_site_fract_z
Si Si1 0.166168 0.321260 0.318669
Si Si2 0.681679 0.180145 0.377487
Si Si3 0.405578 0.674783 0.687077
Si Si4 0.675716 0.820098 0.907393
Si Si5 0.996676 0.828216 0.351739
Si Si6 0.589800 0.818973 0.812961
Si Si7 0.840292 0.321097 0.971851
O O1 0.178760 0.500000 0.318459
O O2 0.231127 0.225364 0.271198
O O3 0.078953 0.272528 0.544573
O O4 0.176621 0.278955 0.145555
O O5 0.630313 0.216269 0.351569
O O6 0.633944 0.245055 0.597006
O O7 0.767514 0.262042 0.203564
O O8 0.696345 0.000000 0.357237
O O9 0.500000 0.692575 0.500000
O O10 0.378402 0.500000 0.714488
O O11 0.373923 0.725632 0.889256
O O12 0.641448 0.769948 0.835517
O O13 0.665100 0.000000 0.953493
O O14 0.000000 0.826046 0.500000
O O15 0.987004 0.000000 0.316946
O O16 0.078823 0.757236 0.134513
O O17 0.583421 0.000000 0.813957
O O18 0.500000 0.748962 0.000000
O O19 0.851619 0.500000 0.966853
#
# Coordination Sequence:
#
# PCOD8060629 Si02
#       7
#     4   4   4   4   4   4   4
#     4  10  19  32  51  78 115 149 180 221 275 329
#     4  11  21  35  58  82 108 143 186 231 276 328
#     4  11  23  37  53  78 111 142 177 227 283 333
#     4  11  21  35  58  82 108 143 186 231 276 328
#     4   9  17  29  49  78 111 144 185 226 265 321
#     4   9  20  38  57  80 109 142 185 235 282 329
#     4  10  19  32  51  78 115 149 180 221 275 329
#
# _framework density 18.754591999999999
#
# number of rings (size 3 to 8) (size 9 to 14) (size 15 to 20)
#    0.000    1.857    1.429    3.429    0.000    5.143 
#    0.000    2.857    0.000    6.000    0.000    6.000 
#    0.000    0.000    0.000    0.000    0.000    0.000 
#
# Total GULP energy -347293.710082 kJ/mol
# GULP energy per Si atom -12403.346789 kJ/mol
# Density = 1.871191 g / cm^3
# Si number density = 18.754592 Si / 1000 Ang^3
#
#
#
# Elastic Constant Matrix: (Units=GPa)
#
#
# Indices 1 2 3 4 5 6 
#
# 1 84.0038 21.9062 53.7356 0.0000 -18.7463 0.0000
# 2 21.9062 44.2931 23.5597 0.0000 -11.7055 0.0000
# 3 53.7356 23.5597 124.9741 0.0000 -17.4315 0.0000
# 4 0.0000 0.0000 0.0000 26.8583 0.0000 -10.1284
# 5 -18.7463 -11.7055 -17.4315 0.0000 31.6753 0.0000
# 6 0.0000 0.0000 0.0000 -10.1284 0.0000 14.7139
#
#
#
# Elastic Compliance Matrix: (Units=1/GPa)
#
#
# Indices 1 2 3 4 5 6 
#
# 1 0.018307 -0.004176 -0.006270 0.000000 0.005841 0.000000
# 2 -0.004176 0.027671 -0.002534 0.000000 0.006360 0.000000
# 3 -0.006270 -0.002534 0.011402 0.000000 0.001628 0.000000
# 4 0.000000 0.000000 0.000000 0.050286 0.000000 0.034614
# 5 0.005841 0.006360 0.001628 0.000000 0.038273 0.000000
# 6 0.000000 0.000000 0.000000 0.034614 0.000000 0.091790
#
#
# Mechanical properties :
#
#
# Convention : Reuss Voigt Hill
#
# Bulk Modulus (GPa) = 31.82531 50.18599 41.00565
# Shear Modulus (GPa) = 18.23745 24.92081 21.57913
#
# Velocity S-wave (km/s) = 3.12176 3.64920 3.39574
# Velocity P-wave (km/s) = 5.47723 6.67630 6.10627
#
# Compressibility (1/GPa) = 0.03142154
#
# Stress axis : x y z
#
# Youngs Moduli (GPa) = 54.62294 36.13945 87.70232
#
# Poissons Ratio (x) = 0.15091 0.54987
# Poissons Ratio (y) = 0.22809 0.22222
# Poissons Ratio (z) = 0.34247 0.09157
#
# Static dielectric constant tensor:
#      x y z
#    x 3.420080 0.000000 -0.249840 
#    y 0.000000 3.427370 0.000000 
#    z -0.249840 0.000000 3.531610 
# 
# 
# High freq. dielectric constant tensor:
#      x y z
#    x 1.717510 0.000000 -0.029920 
#    y 0.000000 1.729150 0.000000 
#    z -0.029920 0.000000 1.722480 
# 
# From -- ./inp_files/36966.got.cif
#   From: 2010.06.25/outbox.cif.g09.slc.cpg/sg10_19_cif.got.tgz:36966.got - 2010.06.27 22:07:45.
