data_PCOD8060006
_publ_section_title
;
Structure prediction by ZEFSAII (Michael W. Deem and Ramdas Pophale) SiO2 
 PCOD8060006
Probable space group: P 2/M
;
_chemical_formula_sum "Si O2"
_cell_formula_units_Z 32
_cell_length_a 20.515897
_cell_length_b 9.260299
_cell_length_c 10.920534
_cell_angle_alpha 90.000000
_cell_angle_beta 127.305282
_cell_angle_gamma 90.000000
_cell_volume 1650.268454
_symmetry_space_group_name_H-M "P 2/M"
_symmetry_group_IT_number 10
_symmetry_cell_setting 'monoclinic'
loop_
_space_group_symop_operation_xyz
x,y,z
-x,y,-z
-x,-y,-z
x,-y,z
loop_
_atom_site_type_symbol
_atom_site_label
_atom_site_fract_x
_atom_site_fract_y
_atom_site_fract_z
Si Si1 0.262922 0.665884 0.331963
Si Si2 0.123763 0.161888 0.070213
Si Si3 0.177778 0.333181 0.494933
Si Si4 0.452039 0.661591 0.819428
Si Si5 0.592290 0.163860 0.876787
Si Si6 0.689299 0.829850 0.225750
Si Si7 0.962073 0.837673 0.766415
Si Si8 0.406493 0.835081 0.394508
O O1 0.272988 0.500000 0.310093
O O2 0.201911 0.733355 0.160735
O O3 0.228003 0.690391 0.427243
O O4 0.352037 0.740109 0.424720
O O5 0.080529 0.164689 0.151316
O O6 0.154760 0.000000 0.076366
O O7 0.057118 0.211078 0.891749
O O8 0.172589 0.500000 0.526088
O O9 0.222461 0.243999 0.653519
O O10 0.085372 0.271907 0.377266
O O11 0.426582 0.500000 0.746284
O O12 0.511869 0.735635 0.789568
O O13 0.371929 0.759135 0.745081
O O14 0.500000 0.651890 0.000000
O O15 0.630298 0.179325 0.784940
O O16 0.562945 0.000000 0.869085
O O17 0.660593 0.206792 0.054875
O O18 0.694979 0.000000 0.256840
O O19 0.958201 0.000000 0.707844
O O20 0.500000 0.779633 0.500000
O O21 0.403287 0.000000 0.437148
#
# Coordination Sequence:
#
# PCOD8060006 Si02
#       8
#     4   4   4   4   4   4   4   4
#     4  10  21  34  48  71 101 132 165 201 243 290
#     4   8  14  27  48  70  96 129 165 199 232 283
#     4  10  20  31  45  72 107 134 161 197 241 292
#     4   9  17  29  46  68  92 118 150 191 241 291
#     4   9  19  35  51  70  91 119 163 206 244 288
#     4  10  19  31  49  69  94 126 160 200 242 289
#     4   8  14  26  45  71  99 130 163 194 235 285
#     4  10  22  38  54  71  93 125 167 209 248 289
#
# _framework density 19.390782999999999
#
# number of rings (size 3 to 8) (size 9 to 14) (size 15 to 20)
#    0.000    2.750    0.000    2.250    1.750    4.750 
#    0.000    2.500    0.000    0.000    0.000    0.875 
#    0.000    7.000    0.000    0.000    0.000    0.000 
#
# Total GULP energy -396703.855963 kJ/mol
# GULP energy per Si atom -12396.995499 kJ/mol
# Density = 1.934665 g / cm^3
# Si number density = 19.390783 Si / 1000 Ang^3
#
#
#
# Elastic Constant Matrix: (Units=GPa)
#
#
# Indices 1 2 3 4 5 6 
#
# 1 25.8130 15.8840 9.1739 0.0000 10.2579 0.0000
# 2 15.8840 106.0046 45.1334 0.0000 16.2008 0.0000
# 3 9.1739 45.1334 95.5773 0.0000 23.9075 0.0000
# 4 0.0000 0.0000 0.0000 22.4432 0.0000 7.2558
# 5 10.2579 16.2008 23.9075 0.0000 27.4421 0.0000
# 6 0.0000 0.0000 0.0000 7.2558 0.0000 21.5530
#
#
#
# Elastic Compliance Matrix: (Units=1/GPa)
#
#
# Indices 1 2 3 4 5 6 
#
# 1 0.047973 -0.005585 0.002166 0.000000 -0.016522 0.000000
# 2 -0.005585 0.012617 -0.005218 0.000000 -0.000815 0.000000
# 3 0.002166 -0.005218 0.015537 0.000000 -0.011264 0.000000
# 4 0.000000 0.000000 0.000000 0.049999 0.000000 -0.016832
# 5 -0.016522 -0.000815 -0.011264 0.000000 0.052911 0.000000
# 6 0.000000 0.000000 0.000000 -0.016832 0.000000 0.052064
#
#
# Mechanical properties :
#
#
# Convention : Reuss Voigt Hill
#
# Bulk Modulus (GPa) = 16.99210 40.86416 28.92813
# Shear Modulus (GPa) = 18.65727 24.76789 21.71258
#
# Velocity S-wave (km/s) = 3.10525 3.57781 3.34988
# Velocity P-wave (km/s) = 4.65175 6.17960 5.46929
#
# Compressibility (1/GPa) = 0.05885089
#
# Stress axis : x y z
#
# Youngs Moduli (GPa) = 20.84497 79.26050 64.36440
#
# Poissons Ratio (x) = 0.44270 -0.13939
# Poissons Ratio (y) = 0.11643 0.33585
# Poissons Ratio (z) = -0.04514 0.41357
#
# Static dielectric constant tensor:
#      x y z
#    x 3.102840 0.000000 0.265550 
#    y 0.000000 3.633220 0.000000 
#    z 0.265550 0.000000 3.759650 
# 
# 
# High freq. dielectric constant tensor:
#      x y z
#    x 1.700480 0.000000 0.020800 
#    y 0.000000 1.755230 0.000000 
#    z 0.020800 0.000000 1.761160 
# 
# From -- ./inp_files/55334.got.cif
#   From: 2010.06.25/outbox.cif.g09.slc.cpg/sg10_28_cif.got.tgz:55334.got - 2010.06.27 22:07:45.
