data_PCOD8060516
_publ_section_title
;
Structure prediction by ZEFSAII (Michael W. Deem and Ramdas Pophale) SiO2 
 PCOD8060516
Probable space group: P 2/M
;
_chemical_formula_sum "Si O2"
_cell_formula_units_Z 32
_cell_length_a 27.733997
_cell_length_b 8.947955
_cell_length_c 21.646393
_cell_angle_alpha 90.000000
_cell_angle_beta 161.536862
_cell_angle_gamma 90.000000
_cell_volume 1701.227053
_symmetry_space_group_name_H-M "P 2/M"
_symmetry_group_IT_number 10
_symmetry_cell_setting 'monoclinic'
loop_
_space_group_symop_operation_xyz
x,y,z
-x,y,-z
-x,-y,-z
x,-y,z
loop_
_atom_site_type_symbol
_atom_site_label
_atom_site_fract_x
_atom_site_fract_y
_atom_site_fract_z
Si Si1 0.922604 0.177507 0.498065
Si Si2 0.911742 0.329233 0.836309
Si Si3 0.547011 0.177475 0.246972
Si Si4 0.058766 0.676481 0.893121
Si Si5 0.566242 0.328739 0.401116
Si Si6 0.848966 0.177631 0.544150
Si Si7 0.405414 0.323313 0.326906
Si Si8 0.771603 0.177701 0.190973
O O1 0.859001 0.237798 0.485973
O O2 0.811529 0.235485 0.308493
O O3 0.096003 0.232746 0.695450
O O4 0.922249 0.000000 0.497885
O O5 0.969178 0.500000 0.902901
O O6 0.734510 0.316035 0.633116
O O7 0.955947 0.259243 0.824130
O O8 0.000000 0.248380 0.000000
O O9 0.549025 0.229961 0.319723
O O10 0.693489 0.238485 0.387006
O O11 0.547610 0.000000 0.247051
O O12 0.392909 0.242131 0.028563
O O13 0.042873 0.500000 0.862738
O O14 0.998803 0.759013 0.759530
O O15 0.230055 0.723070 0.118327
O O16 0.525810 0.500000 0.335215
O O17 0.462824 0.262434 0.330392
O O18 0.854083 0.000000 0.552770
O O19 0.500000 0.255001 0.500000
O O20 0.429296 0.500000 0.356110
O O21 0.765823 0.000000 0.183530
#
# Coordination Sequence:
#
# PCOD8060516 Si02
#       8
#     4   4   4   4   4   4   4   4
#     4   8  15  29  49  72  96 125 163 201 236 279
#     4   9  16  28  49  71  90 121 164 200 231 275
#     4  10  20  32  48  73 103 131 160 198 241 285
#     4  10  19  32  50  73  99 127 160 200 244 290
#     4  10  19  32  50  73  99 127 160 200 244 290
#     4  10  20  32  48  73 103 131 160 198 241 285
#     4   9  18  32  51  75  98 121 160 212 251 281
#     4   8  15  29  49  72  96 125 163 201 236 279
#
# _framework density 18.809953
#
# number of rings (size 3 to 8) (size 9 to 14) (size 15 to 20)
#    0.000    2.750    1.250    1.500    1.750    3.500 
#    0.000    2.500    0.000    5.250    0.000    3.500 
#    0.000    0.000    0.000    0.000    0.000    0.000 
#
# Total GULP energy -396645.039345 kJ/mol
# GULP energy per Si atom -12395.157480 kJ/mol
# Density = 1.876714 g / cm^3
# Si number density = 18.809953 Si / 1000 Ang^3
#
#
#
# Elastic Constant Matrix: (Units=GPa)
#
#
# Indices 1 2 3 4 5 6 
#
# 1 136.4504 12.1683 47.9465 0.0000 -6.5180 0.0000
# 2 12.1683 8.5592 13.7736 0.0000 -0.8774 0.0000
# 3 47.9465 13.7736 118.3698 0.0000 -8.9571 0.0000
# 4 0.0000 0.0000 0.0000 19.5797 0.0000 -10.9423
# 5 -6.5180 -0.8774 -8.9571 0.0000 32.3879 0.0000
# 6 0.0000 0.0000 0.0000 -10.9423 0.0000 31.6632
#
#
#
# Elastic Compliance Matrix: (Units=1/GPa)
#
#
# Indices 1 2 3 4 5 6 
#
# 1 0.009050 -0.008593 -0.002600 0.000000 0.000869 0.000000
# 2 -0.008593 0.151927 -0.014317 0.000000 -0.001573 0.000000
# 3 -0.002600 -0.014317 0.011335 0.000000 0.002224 0.000000
# 4 0.000000 0.000000 0.000000 0.063298 0.000000 0.021875
# 5 0.000869 -0.001573 0.002224 0.000000 0.031623 0.000000
# 6 0.000000 0.000000 0.000000 0.021875 0.000000 0.039142
#
#
# Mechanical properties :
#
#
# Convention : Reuss Voigt Hill
#
# Bulk Modulus (GPa) = 8.24452 45.68402 26.96427
# Shear Modulus (GPa) = 12.56831 29.35889 20.96360
#
# Velocity S-wave (km/s) = 2.58771 3.95500 3.34203
# Velocity P-wave (km/s) = 3.64978 6.72279 5.40911
#
# Compressibility (1/GPa) = 0.12129273
#
# Stress axis : x y z
#
# Youngs Moduli (GPa) = 110.49548 6.58213 88.21852
#
# Poissons Ratio (x) = 0.05656 0.22938
# Poissons Ratio (y) = 0.94947 1.26300
# Poissons Ratio (z) = 0.28731 0.09423
#
# Static dielectric constant tensor:
#      x y z
#    x 3.763360 0.000000 0.019040 
#    y 0.000000 2.840810 0.000000 
#    z 0.019040 0.000000 3.638830 
# 
# 
# High freq. dielectric constant tensor:
#      x y z
#    x 1.746120 0.000000 -0.000380 
#    y 0.000000 1.662110 0.000000 
#    z -0.000380 0.000000 1.741240 
# 
# From -- ./inp_files/80296.got.cif
#   From: 2010.06.25/outbox.cif.g09.slc.cpg/sg10_41_cif.got.tgz:80296.got - 2010.06.27 22:07:45.
