data_PCOD8060628
_publ_section_title
;
Structure prediction by ZEFSAII (Michael W. Deem and Ramdas Pophale) SiO2 
 PCOD8060628
Probable space group: P 2/M
;
_chemical_formula_sum "Si O2"
_cell_formula_units_Z 22
_cell_length_a 15.495357
_cell_length_b 13.729863
_cell_length_c 11.578857
_cell_angle_alpha 90.000000
_cell_angle_beta 27.319155
_cell_angle_gamma 90.000000
_cell_volume 1130.565286
_symmetry_space_group_name_H-M "P 2/M"
_symmetry_group_IT_number 10
_symmetry_cell_setting 'monoclinic'
loop_
_space_group_symop_operation_xyz
x,y,z
-x,y,-z
-x,-y,-z
x,-y,z
loop_
_atom_site_type_symbol
_atom_site_label
_atom_site_fract_x
_atom_site_fract_y
_atom_site_fract_z
Si Si1 0.878920 0.608678 0.817403
Si Si2 0.159556 0.236939 0.574998
Si Si3 0.797214 0.889648 0.686594
Si Si4 0.298492 0.607183 0.723807
Si Si5 0.439431 0.284251 0.947015
Si Si6 0.000000 0.741755 0.000000
O O1 0.942228 0.500000 0.700183
O O2 0.054405 0.683058 0.617798
O O3 0.802755 0.599072 0.035317
O O4 0.714745 0.646308 0.928132
O O5 0.186688 0.140642 0.466715
O O6 0.369501 0.276663 0.357338
O O7 0.033601 0.202776 0.837857
O O8 0.000000 0.877649 0.500000
O O9 0.723810 0.000000 0.781257
O O10 0.648512 0.823305 0.932023
O O11 0.500000 0.657177 0.500000
O O12 0.320012 0.500000 0.641239
O O13 0.182595 0.674223 0.776419
O O14 0.500000 0.327160 0.000000
#
# Coordination Sequence:
#
# PCOD8060628 Si02
#       6
#     4   4   4   4   4   2
#     4  10  20  34  50  75 115 153 183 223 267 312
#     4  10  21  36  56  84 113 144 184 223 270 325
#     4  10  20  39  65  83 102 136 179 230 279 327
#     4   9  17  29  48  71 100 144 193 227 255 300
#     4  10  21  35  56  82 109 139 189 230 266 321
#     4  10  19  32  51  78 112 144 172 220 270 316
#
# _framework density 19.459291
#
# number of rings (size 3 to 8) (size 9 to 14) (size 15 to 20)
#    0.000    2.182    1.818    1.364    0.000    5.091 
#    0.000    6.818    0.000    0.000    0.000    2.545 
#    0.000    0.000    0.000    0.000    0.000    0.000 
#
# Total GULP energy -272565.458541 kJ/mol
# GULP energy per Si atom -12389.339025 kJ/mol
# Density = 1.941500 g / cm^3
# Si number density = 19.459291 Si / 1000 Ang^3
#
#
#
# Elastic Constant Matrix: (Units=GPa)
#
#
# Indices 1 2 3 4 5 6 
#
# 1 62.7477 23.5280 18.0010 0.0000 -13.4962 0.0000
# 2 23.5280 76.0228 17.3698 0.0000 -10.3180 0.0000
# 3 18.0010 17.3698 88.3763 0.0000 -13.0464 0.0000
# 4 0.0000 0.0000 0.0000 23.0625 0.0000 2.1320
# 5 -13.4962 -10.3180 -13.0464 0.0000 37.5907 0.0000
# 6 0.0000 0.0000 0.0000 2.1320 0.0000 24.9515
#
#
#
# Elastic Compliance Matrix: (Units=1/GPa)
#
#
# Indices 1 2 3 4 5 6 
#
# 1 0.019454 -0.004837 -0.002294 0.000000 0.004861 0.000000
# 2 -0.004837 0.015302 -0.001748 0.000000 0.001857 0.000000
# 3 -0.002294 -0.001748 0.012578 0.000000 0.003062 0.000000
# 4 0.000000 0.000000 0.000000 0.043706 0.000000 -0.003734
# 5 0.004861 0.001857 0.003062 0.000000 0.029920 0.000000
# 6 0.000000 0.000000 0.000000 -0.003734 0.000000 0.040397
#
#
# Mechanical properties :
#
#
# Convention : Reuss Voigt Hill
#
# Bulk Modulus (GPa) = 33.81147 38.32717 36.06932
# Shear Modulus (GPa) = 26.45860 28.33747 27.39803
#
# Velocity S-wave (km/s) = 3.69140 3.82022 3.75636
# Velocity P-wave (km/s) = 5.96504 6.26080 6.11471
#
# Compressibility (1/GPa) = 0.02957576
#
# Stress axis : x y z
#
# Youngs Moduli (GPa) = 51.40287 65.34936 79.50276
#
# Poissons Ratio (x) = 0.31609 0.18241
# Poissons Ratio (y) = 0.24863 0.13899
# Poissons Ratio (z) = 0.11794 0.11425
#
# Static dielectric constant tensor:
#      x y z
#    x 3.704560 0.000000 -0.109760 
#    y 0.000000 3.591210 0.000000 
#    z -0.109760 0.000000 3.557550 
# 
# 
# High freq. dielectric constant tensor:
#      x y z
#    x 1.763520 0.000000 -0.013200 
#    y 0.000000 1.721810 0.000000 
#    z -0.013200 0.000000 1.771300 
# 
# From -- ./inp_files/51344.got.cif
#   From: 2010.06.25/outbox.cif.g09.slc.cpg/sg10_26_cif.got.tgz:51344.got - 2010.06.27 22:07:45.
