data_PCOD8060943
_publ_section_title
;
Structure prediction by ZEFSAII (Michael W. Deem and Ramdas Pophale) SiO2 
 PCOD8060943
Probable space group: P 2/M
;
_chemical_formula_sum "Si O2"
_cell_formula_units_Z 28
_cell_length_a 13.452924
_cell_length_b 8.993557
_cell_length_c 14.090736
_cell_angle_alpha 90.000000
_cell_angle_beta 121.324204
_cell_angle_gamma 90.000000
_cell_volume 1456.335380
_symmetry_space_group_name_H-M "P 2/M"
_symmetry_group_IT_number 10
_symmetry_cell_setting 'monoclinic'
loop_
_space_group_symop_operation_xyz
x,y,z
-x,y,-z
-x,-y,-z
x,-y,z
loop_
_atom_site_type_symbol
_atom_site_label
_atom_site_fract_x
_atom_site_fract_y
_atom_site_fract_z
Si Si1 0.780292 0.324532 0.667034
Si Si2 0.333412 0.170250 0.774177
Si Si3 0.781168 0.170611 0.093320
Si Si4 0.002209 0.323476 0.893319
Si Si5 0.315828 0.826479 0.551807
Si Si6 0.568549 0.330252 0.895536
Si Si7 0.553931 0.669269 0.668119
O O1 0.789003 0.500000 0.660843
O O2 0.780081 0.252437 0.562227
O O3 0.663126 0.274467 0.661900
O O4 0.889290 0.263615 0.781502
O O5 0.228463 0.189407 0.797132
O O6 0.286901 0.215065 0.646696
O O7 0.439399 0.275962 0.857972
O O8 0.378824 0.000000 0.794957
O O9 0.884752 0.269272 0.105627
O O10 0.802914 0.000000 0.075948
O O11 0.659725 0.223102 0.990197
O O12 0.005351 0.500000 0.896761
O O13 0.000000 0.261620 0.000000
O O14 0.444486 0.770803 0.588291
O O15 0.309012 0.000000 0.529515
O O16 0.583493 0.500000 0.937754
O O17 0.590901 0.317209 0.795128
O O18 0.520245 0.500000 0.625667
#
# Coordination Sequence:
#
# PCOD8060943 Si02
#       7
#     4   4   4   4   4   4   4
#     4  10  20  35  55  77 104 139 175 215 264 313
#     4   9  20  37  53  75 110 146 177 215 265 316
#     4  11  22  36  55  78 107 143 180 219 265 316
#     4  10  22  41  61  80 105 137 175 219 264 313
#     4  10  20  34  53  78 108 140 175 216 260 309
#     4  10  19  32  54  83 111 141 178 219 265 317
#     4   9  18  33  53  78 109 142 173 209 261 320
#
# _framework density 19.226341999999999
#
# number of rings (size 3 to 8) (size 9 to 14) (size 15 to 20)
#    0.000    2.143    0.000    3.000    0.000    9.429 
#    0.000    2.143    0.000    4.286    0.000    0.000 
#    0.000    0.000    0.000    0.000    0.000    0.000 
#
# Total GULP energy -347261.566998 kJ/mol
# GULP energy per Si atom -12402.198821 kJ/mol
# Density = 1.918258 g / cm^3
# Si number density = 19.226342 Si / 1000 Ang^3
#
#
#
# Elastic Constant Matrix: (Units=GPa)
#
#
# Indices 1 2 3 4 5 6 
#
# 1 94.2631 16.6750 53.5822 0.0000 -14.2995 0.0000
# 2 16.6750 26.5637 27.1784 0.0000 -1.2011 0.0000
# 3 53.5822 27.1784 132.6071 0.0000 1.5400 0.0000
# 4 0.0000 0.0000 0.0000 29.8153 0.0000 -2.8836
# 5 -14.2995 -1.2011 1.5400 0.0000 13.1526 0.0000
# 6 0.0000 0.0000 0.0000 -2.8836 0.0000 21.9512
#
#
#
# Elastic Compliance Matrix: (Units=1/GPa)
#
#
# Indices 1 2 3 4 5 6 
#
# 1 0.018214 -0.003473 -0.006883 0.000000 0.020291 0.000000
# 2 -0.003473 0.048697 -0.008597 0.000000 0.001678 0.000000
# 3 -0.006883 -0.008597 0.012197 0.000000 -0.009697 0.000000
# 4 0.000000 0.000000 0.000000 0.033971 0.000000 0.004463
# 5 0.020291 0.001678 -0.009697 0.000000 0.099380 0.000000
# 6 0.000000 0.000000 0.000000 0.004463 0.000000 0.046142
#
#
# Mechanical properties :
#
#
# Convention : Reuss Voigt Hill
#
# Bulk Modulus (GPa) = 24.27121 49.81169 37.04145
# Shear Modulus (GPa) = 16.11648 23.38369 19.75008
#
# Velocity S-wave (km/s) = 2.89840 3.49124 3.20854
# Velocity P-wave (km/s) = 4.88388 6.49738 5.74753
#
# Compressibility (1/GPa) = 0.04120108
#
# Stress axis : x y z
#
# Youngs Moduli (GPa) = 54.90322 20.53510 81.98761
#
# Poissons Ratio (x) = 0.07133 0.56435
# Poissons Ratio (y) = 0.19070 0.70482
# Poissons Ratio (z) = 0.37792 0.17653
#
# Static dielectric constant tensor:
#      x y z
#    x 3.453280 0.000000 -0.214170 
#    y 0.000000 3.459900 0.000000 
#    z -0.214170 0.000000 3.741420 
# 
# 
# High freq. dielectric constant tensor:
#      x y z
#    x 1.735680 0.000000 -0.018830 
#    y 0.000000 1.744660 0.000000 
#    z -0.018830 0.000000 1.755060 
# 
# From -- ./inp_files/49463.got.cif
#   From: 2010.06.25/outbox.cif.g09.slc.cpg/sg10_25_cif.got.tgz:49463.got - 2010.06.27 22:07:45.
