data_PCOD8060358
_publ_section_title
;
Structure prediction by ZEFSAII (Michael W. Deem and Ramdas Pophale) SiO2 
 PCOD8060358
Probable space group: P 2/M
;
_chemical_formula_sum "Si O2"
_cell_formula_units_Z 30
_cell_length_a 16.839723
_cell_length_b 14.122753
_cell_length_c 12.528682
_cell_angle_alpha 90.000000
_cell_angle_beta 28.627794
_cell_angle_gamma 90.000000
_cell_volume 1427.584803
_symmetry_space_group_name_H-M "P 2/M"
_symmetry_group_IT_number 10
_symmetry_cell_setting 'monoclinic'
loop_
_space_group_symop_operation_xyz
x,y,z
-x,y,-z
-x,-y,-z
x,-y,z
loop_
_atom_site_type_symbol
_atom_site_label
_atom_site_fract_x
_atom_site_fract_y
_atom_site_fract_z
Si Si1 0.647952 0.743253 0.484908
Si Si2 0.814339 0.776847 0.510637
Si Si3 0.864364 0.108735 0.865102
Si Si4 0.500000 0.242113 0.000000
Si Si5 0.043025 0.610895 0.251139
Si Si6 0.841207 0.396113 0.114911
Si Si7 0.332160 0.280140 0.987622
Si Si8 0.173305 0.892200 0.842485
O O1 0.764928 0.751151 0.449297
O O2 0.701568 0.663673 0.337913
O O3 0.460650 0.718729 0.737647
O O4 0.668103 0.842262 0.398593
O O5 0.942985 0.862559 0.367130
O O6 0.890094 0.677761 0.468197
O O7 0.656451 0.814533 0.765842
O O8 0.843905 0.000000 0.850853
O O9 0.758518 0.177225 0.911910
O O10 0.808355 0.120782 0.053028
O O11 0.426992 0.300935 0.986532
O O12 0.993590 0.500000 0.315535
O O13 0.099660 0.647308 0.067363
O O14 0.202066 0.633627 0.136534
O O15 0.765671 0.500000 0.182882
O O16 0.000000 0.403480 0.000000
O O17 0.182292 0.000000 0.795502
O O18 0.000000 0.848383 0.000000
#
# Coordination Sequence:
#
# PCOD8060358 Si02
#       8
#     4   4   4   2   4   4   4   4
#     4  11  19  33  57  84 118 158 192 222 277 335
#     4  10  20  38  63  83 110 151 190 240 285 332
#     4  10  21  38  60  88 118 149 188 230 279 340
#     4  10  24  46  62  82 112 142 194 250 296 336
#     4  10  21  38  60  88 118 149 188 230 279 340
#     4  10  19  31  54  89 122 153 187 222 268 339
#     4  10  24  41  58  82 115 152 189 243 290 331
#     4  10  19  31  54  89 122 153 187 222 268 339
#
# _framework density 21.014513000000001
#
# number of rings (size 3 to 8) (size 9 to 14) (size 15 to 20)
#    0.000    1.867    2.667    2.000    0.000    5.333 
#    0.000   10.667    0.000    0.000    0.000    0.000 
#    0.000    0.000    0.000    0.000    0.000    0.000 
#
# Total GULP energy -371764.655495 kJ/mol
# GULP energy per Si atom -12392.155183 kJ/mol
# Density = 2.096668 g / cm^3
# Si number density = 21.014513 Si / 1000 Ang^3
#
#
#
# Elastic Constant Matrix: (Units=GPa)
#
#
# Indices 1 2 3 4 5 6 
#
# 1 79.1850 10.2078 17.1549 0.0000 -1.0798 0.0000
# 2 10.2078 91.9407 23.7900 0.0000 -6.8359 0.0000
# 3 17.1549 23.7900 100.2095 0.0000 -5.3594 0.0000
# 4 0.0000 0.0000 0.0000 24.5631 0.0000 10.3972
# 5 -1.0798 -6.8359 -5.3594 0.0000 26.7615 0.0000
# 6 0.0000 0.0000 0.0000 10.3972 0.0000 24.0635
#
#
#
# Elastic Compliance Matrix: (Units=1/GPa)
#
#
# Indices 1 2 3 4 5 6 
#
# 1 0.013191 -0.000945 -0.002040 0.000000 -0.000118 0.000000
# 2 -0.000945 0.011815 -0.002511 0.000000 0.002477 0.000000
# 3 -0.002040 -0.002511 0.011004 0.000000 0.001480 0.000000
# 4 0.000000 0.000000 0.000000 0.049824 0.000000 -0.021527
# 5 -0.000118 0.002477 0.001480 0.000000 0.038292 0.000000
# 6 0.000000 0.000000 0.000000 -0.021527 0.000000 0.050858
#
#
# Mechanical properties :
#
#
# Convention : Reuss Voigt Hill
#
# Bulk Modulus (GPa) = 39.97194 41.51563 40.74378
# Shear Modulus (GPa) = 25.73150 29.75646 27.74398
#
# Velocity S-wave (km/s) = 3.50303 3.76705 3.63744
# Velocity P-wave (km/s) = 5.95181 6.22250 6.08866
#
# Compressibility (1/GPa) = 0.02501755
#
# Stress axis : x y z
#
# Youngs Moduli (GPa) = 75.80999 84.63560 90.88011
#
# Poissons Ratio (x) = 0.08002 0.18540
# Poissons Ratio (y) = 0.07167 0.22817
# Poissons Ratio (z) = 0.15465 0.21249
#
# Static dielectric constant tensor:
#      x y z
#    x 3.835730 0.000000 0.025320 
#    y 0.000000 3.828890 0.000000 
#    z 0.025320 0.000000 3.893920 
# 
# 
# High freq. dielectric constant tensor:
#      x y z
#    x 1.825480 0.000000 -0.001010 
#    y 0.000000 1.802890 0.000000 
#    z -0.001010 0.000000 1.820310 
# 
# From -- ./inp_files/53914.got.cif
#   From: 2010.06.25/outbox.cif.g09.slc.cpg/sg10_27_cif.got.tgz:53914.got - 2010.06.27 22:07:45.
