data_PCOD8060992
_publ_section_title
;
Structure prediction by ZEFSAII (Michael W. Deem and Ramdas Pophale) SiO2 
 PCOD8060992
Probable space group: P 2/M
;
_chemical_formula_sum "Si O2"
_cell_formula_units_Z 28
_cell_length_a 12.517622
_cell_length_b 9.493806
_cell_length_c 14.369143
_cell_angle_alpha 90.000000
_cell_angle_beta 119.107752
_cell_angle_gamma 90.000000
_cell_volume 1491.964800
_symmetry_space_group_name_H-M "P 2/M"
_symmetry_group_IT_number 10
_symmetry_cell_setting 'monoclinic'
loop_
_space_group_symop_operation_xyz
x,y,z
-x,y,-z
-x,-y,-z
x,-y,z
loop_
_atom_site_type_symbol
_atom_site_label
_atom_site_fract_x
_atom_site_fract_y
_atom_site_fract_z
Si Si1 0.787177 0.336725 0.272179
Si Si2 0.477072 0.656925 0.598124
Si Si3 0.963937 0.665919 0.718827
Si Si4 0.209308 0.665359 0.517714
Si Si5 0.368745 0.838809 0.208049
Si Si6 0.452399 0.834932 0.880193
Si Si7 0.908730 0.163355 0.880871
O O1 0.748782 0.500000 0.251734
O O2 0.835657 0.299630 0.396843
O O3 0.670724 0.244960 0.197442
O O4 0.895114 0.302882 0.245883
O O5 0.500000 0.649750 0.500000
O O6 0.481839 0.500000 0.643708
O O7 0.345703 0.728408 0.563176
O O8 0.585131 0.747906 0.686488
O O9 0.941993 0.500000 0.724391
O O10 0.881898 0.727317 0.598953
O O11 0.929119 0.745889 0.797575
O O12 0.214884 0.500000 0.502369
O O13 0.439974 0.794329 0.145240
O O14 0.225525 0.810520 0.134105
O O15 0.394882 0.000000 0.244070
O O16 0.422454 0.000000 0.866988
O O17 0.500000 0.784017 0.000000
O O18 0.930691 0.000000 0.864879
O O19 0.000000 0.214592 0.000000
#
# Coordination Sequence:
#
# PCOD8060992 Si02
#       7
#     4   4   4   4   4   4   4
#     4  10  20  36  59  87 116 148 185 227 280 334
#     4  10  19  32  55  84 112 147 185 223 272 331
#     4  10  21  37  59  86 114 147 189 232 275 330
#     4   9  17  33  55  82 116 148 180 221 277 335
#     4  10  21  38  57  82 111 144 187 231 278 329
#     4  10  22  38  59  84 112 149 190 231 278 332
#     4  10  23  41  60  80 109 150 191 232 281 334
#
# _framework density 18.767199000000002
#
# number of rings (size 3 to 8) (size 9 to 14) (size 15 to 20)
#    0.000    2.143    1.429    1.286    2.000    4.857 
#    0.000    1.429    0.000    1.714    0.000    0.000 
#    0.000    0.000    0.000    0.000    0.000    0.000 
#
# Total GULP energy -347222.538911 kJ/mol
# GULP energy per Si atom -12400.804961 kJ/mol
# Density = 1.872448 g / cm^3
# Si number density = 18.767199 Si / 1000 Ang^3
#
#
#
# Elastic Constant Matrix: (Units=GPa)
#
#
# Indices 1 2 3 4 5 6 
#
# 1 105.9220 41.2926 52.8643 0.0000 9.0931 0.0000
# 2 41.2926 51.5431 53.2392 0.0000 4.9929 0.0000
# 3 52.8643 53.2392 142.8719 0.0000 9.0058 0.0000
# 4 0.0000 0.0000 0.0000 13.9140 0.0000 6.6057
# 5 9.0931 4.9929 9.0058 0.0000 30.3859 0.0000
# 6 0.0000 0.0000 0.0000 6.6057 0.0000 28.3731
#
#
#
# Elastic Compliance Matrix: (Units=1/GPa)
#
#
# Indices 1 2 3 4 5 6 
#
# 1 0.014099 -0.009489 -0.001542 0.000000 -0.002203 0.000000
# 2 -0.009489 0.038017 -0.010640 0.000000 -0.000254 0.000000
# 3 -0.001542 -0.010640 0.011612 0.000000 -0.001232 0.000000
# 4 0.000000 0.000000 0.000000 0.080801 0.000000 -0.018812
# 5 -0.002203 -0.000254 -0.001232 0.000000 0.033976 0.000000
# 6 0.000000 0.000000 0.000000 -0.018812 0.000000 0.039624
#
#
# Mechanical properties :
#
#
# Convention : Reuss Voigt Hill
#
# Bulk Modulus (GPa) = 49.04983 66.12546 57.58764
# Shear Modulus (GPa) = 18.63821 24.73066 21.68444
#
# Velocity S-wave (km/s) = 3.15481 3.63403 3.40287
# Velocity P-wave (km/s) = 6.28197 7.27457 6.79641
#
# Compressibility (1/GPa) = 0.02038743
#
# Stress axis : x y z
#
# Youngs Moduli (GPa) = 70.92872 26.30388 86.11631
#
# Poissons Ratio (x) = 0.24959 0.13279
# Poissons Ratio (y) = 0.67302 0.91625
# Poissons Ratio (z) = 0.10937 0.27986
#
# Static dielectric constant tensor:
#      x y z
#    x 3.873820 0.000000 -0.026600 
#    y 0.000000 3.270460 0.000000 
#    z -0.026600 0.000000 3.506240 
# 
# 
# High freq. dielectric constant tensor:
#      x y z
#    x 1.745430 0.000000 0.000410 
#    y 0.000000 1.703800 0.000000 
#    z 0.000410 0.000000 1.733540 
# 
# From -- ./inp_files/49188.got.cif
#   From: 2010.06.25/outbox.cif.g09.slc.cpg/sg10_25_cif.got.tgz:49188.got - 2010.06.27 22:07:45.
