data_PCOD8060764
_publ_section_title
;
Structure prediction by ZEFSAII (Michael W. Deem and Ramdas Pophale) SiO2 
 PCOD8060764
Probable space group: P 2/M
;
_chemical_formula_sum "Si O2"
_cell_formula_units_Z 32
_cell_length_a 31.161648
_cell_length_b 8.863216
_cell_length_c 11.823545
_cell_angle_alpha 90.000000
_cell_angle_beta 26.856766
_cell_angle_gamma 90.000000
_cell_volume 1475.260866
_symmetry_space_group_name_H-M "P 2/M"
_symmetry_group_IT_number 10
_symmetry_cell_setting 'monoclinic'
loop_
_space_group_symop_operation_xyz
x,y,z
-x,y,-z
-x,-y,-z
x,-y,z
loop_
_atom_site_type_symbol
_atom_site_label
_atom_site_fract_x
_atom_site_fract_y
_atom_site_fract_z
Si Si1 0.960501 0.322224 0.973393
Si Si2 0.460265 0.667520 0.828968
Si Si3 0.620560 0.671471 0.288855
Si Si4 0.300704 0.174660 0.104975
Si Si5 0.208384 0.822484 0.007767
Si Si6 0.123536 0.322131 0.422898
Si Si7 0.793555 0.825926 0.244721
Si Si8 0.581053 0.832576 0.717037
O O1 0.955448 0.500000 0.996875
O O2 0.026696 0.273547 0.712190
O O3 0.855613 0.263023 0.190935
O O4 0.000000 0.255364 0.000000
O O5 0.426190 0.500000 0.939876
O O6 0.510950 0.670155 0.586457
O O7 0.366723 0.773780 0.055547
O O8 0.544681 0.715612 0.711421
O O9 0.651335 0.500000 0.182524
O O10 0.633443 0.788846 0.156972
O O11 0.692252 0.732972 0.217142
O O12 0.274987 0.000000 0.176006
O O13 0.205471 0.271928 0.318214
O O14 0.133804 0.760887 0.277388
O O15 0.223659 0.000000 0.994422
O O16 0.172062 0.792921 0.965310
O O17 0.128781 0.500000 0.390245
O O18 0.683324 0.777360 0.522587
O O19 0.806932 0.000000 0.242521
O O20 0.595294 0.000000 0.629764
O O21 0.500000 0.839413 0.000000
#
# Coordination Sequence:
#
# PCOD8060764 Si02
#       8
#     4   4   4   4   4   4   4   4
#     4  10  24  45  67  90 118 157 202 250 303 362
#     4  11  22  35  54  81 116 158 202 246 293 349
#     4  10  19  32  52  81 117 156 199 242 289 348
#     4  11  22  34  54  83 118 159 197 240 296 353
#     4  10  19  34  59  90 125 160 198 244 304 367
#     4  10  21  39  61  88 123 158 202 255 306 360
#     4  10  22  40  64  93 123 158 198 248 306 360
#     4  10  22  41  62  87 121 158 202 250 296 353
#
# _framework density 21.691079999999999
#
# number of rings (size 3 to 8) (size 9 to 14) (size 15 to 20)
#    0.000    1.750    1.250    4.500    0.000    7.500 
#    0.000    5.000    0.000    0.000    0.000    0.000 
#    0.000    0.000    0.000    0.000    0.000    0.000 
#
# Total GULP energy -396616.114536 kJ/mol
# GULP energy per Si atom -12394.253579 kJ/mol
# Density = 2.164171 g / cm^3
# Si number density = 21.691080 Si / 1000 Ang^3
#
#
#
# Elastic Constant Matrix: (Units=GPa)
#
#
# Indices 1 2 3 4 5 6 
#
# 1 104.2421 25.8163 41.7713 0.0000 -20.9781 0.0000
# 2 25.8163 74.1116 27.0338 0.0000 1.2116 0.0000
# 3 41.7713 27.0338 84.9847 0.0000 -10.6204 0.0000
# 4 0.0000 0.0000 0.0000 25.1923 0.0000 -1.0787
# 5 -20.9781 1.2116 -10.6204 0.0000 28.5737 0.0000
# 6 0.0000 0.0000 0.0000 -1.0787 0.0000 36.7361
#
#
#
# Elastic Compliance Matrix: (Units=1/GPa)
#
#
# Indices 1 2 3 4 5 6 
#
# 1 0.014077 -0.003302 -0.004782 0.000000 0.008698 0.000000
# 2 -0.003302 0.016221 -0.004117 0.000000 -0.004642 0.000000
# 3 -0.004782 -0.004117 0.015741 0.000000 0.002515 0.000000
# 4 0.000000 0.000000 0.000000 0.039745 0.000000 0.001167
# 5 0.008698 -0.004642 0.002515 0.000000 0.042514 0.000000
# 6 0.000000 0.000000 0.000000 0.001167 0.000000 0.027255
#
#
# Mechanical properties :
#
#
# Convention : Reuss Voigt Hill
#
# Bulk Modulus (GPa) = 46.21550 50.28682 48.25116
# Shear Modulus (GPa) = 26.71391 29.34822 28.03106
#
# Velocity S-wave (km/s) = 3.51317 3.68232 3.59874
# Velocity P-wave (km/s) = 6.14890 6.42750 6.28974
#
# Compressibility (1/GPa) = 0.02163776
#
# Stress axis : x y z
#
# Youngs Moduli (GPa) = 71.03617 61.64848 63.52748
#
# Poissons Ratio (x) = 0.20354 0.30379
# Poissons Ratio (y) = 0.23453 0.26156
# Poissons Ratio (z) = 0.33970 0.25382
#
# Static dielectric constant tensor:
#      x y z
#    x 3.982660 0.000000 0.007420 
#    y 0.000000 3.881070 0.000000 
#    z 0.007420 0.000000 3.965100 
# 
# 
# High freq. dielectric constant tensor:
#      x y z
#    x 1.847660 0.000000 -0.008630 
#    y 0.000000 1.847730 0.000000 
#    z -0.008630 0.000000 1.846390 
# 
# From -- ./inp_files/58078.got.cif
#   From: 2010.06.25/outbox.cif.g09.slc.cpg/sg10_30_cif.got.tgz:58078.got - 2010.06.27 22:07:45.
