data_PCOD8060831
_publ_section_title
;
Structure prediction by ZEFSAII (Michael W. Deem and Ramdas Pophale) SiO2 
 PCOD8060831
Probable space group: P 2/M
;
_chemical_formula_sum "Si O2"
_cell_formula_units_Z 32
_cell_length_a 21.464788
_cell_length_b 9.273182
_cell_length_c 27.899996
_cell_angle_alpha 90.000000
_cell_angle_beta 160.944760
_cell_angle_gamma 90.000000
_cell_volume 1813.074178
_symmetry_space_group_name_H-M "P 2/M"
_symmetry_group_IT_number 10
_symmetry_cell_setting 'monoclinic'
loop_
_space_group_symop_operation_xyz
x,y,z
-x,y,-z
-x,-y,-z
x,-y,z
loop_
_atom_site_type_symbol
_atom_site_label
_atom_site_fract_x
_atom_site_fract_y
_atom_site_fract_z
Si Si1 0.202578 0.664247 0.164966
Si Si2 0.903946 0.166020 0.076610
Si Si3 0.385633 0.834778 0.055253
Si Si4 0.548334 0.669573 0.088385
Si Si5 0.671162 0.168939 0.348096
Si Si6 0.375471 0.334886 0.190814
Si Si7 0.972645 0.333054 0.424465
Si Si8 0.688964 0.832807 0.662722
O O1 0.172671 0.500000 0.160489
O O2 0.355127 0.673811 0.233102
O O3 0.284115 0.755086 0.267605
O O4 0.000000 0.727954 0.000000
O O5 0.130912 0.192342 0.241760
O O6 0.852582 0.000000 0.026249
O O7 0.815003 0.201489 0.064207
O O8 0.813293 0.268419 0.970611
O O9 0.401945 0.740010 0.019460
O O10 0.558126 0.797758 0.216884
O O11 0.394653 0.000000 0.045792
O O12 0.520726 0.500000 0.073013
O O13 0.762846 0.716867 0.256514
O O14 0.500000 0.724246 0.000000
O O15 0.562051 0.244511 0.312535
O O16 0.881208 0.235494 0.498812
O O17 0.685257 0.000000 0.368737
O O18 0.396883 0.500000 0.189049
O O19 0.009490 0.500000 0.438845
O O20 0.000000 0.302033 0.500000
O O21 0.500000 0.769854 0.500000
O O22 0.661583 0.000000 0.654601
#
# Coordination Sequence:
#
# PCOD8060831 Si02
#       8
#     4   4   4   4   4   4   4   4
#     4  10  20  35  54  80 109 138 179 227 272 319
#     4   9  18  33  52  77 107 138 177 221 266 316
#     4   9  18  32  51  75 103 135 172 217 261 312
#     4  10  21  36  53  76 106 137 172 216 260 309
#     4  10  20  33  52  80 110 137 173 221 268 314
#     4  10  19  32  53  79 109 140 175 222 271 319
#     4  10  19  33  54  78 103 136 175 214 259 310
#     4  10  21  36  55  80 111 148 185 223 270 325
#
# _framework density 17.64958
#
# number of rings (size 3 to 8) (size 9 to 14) (size 15 to 20)
#    0.000    2.250    2.500    1.500    0.000    4.500 
#    0.000    1.250    0.000    3.000    0.000    0.000 
#    0.000    0.000    0.000    0.000    0.000    0.000 
#
# Total GULP energy -396857.487763 kJ/mol
# GULP energy per Si atom -12401.796493 kJ/mol
# Density = 1.760941 g / cm^3
# Si number density = 17.649580 Si / 1000 Ang^3
#
#
#
# Elastic Constant Matrix: (Units=GPa)
#
#
# Indices 1 2 3 4 5 6 
#
# 1 121.4939 55.4944 64.8252 0.0000 5.3823 0.0000
# 2 55.4944 73.1116 45.5240 0.0000 5.0624 0.0000
# 3 64.8252 45.5240 113.8623 0.0000 3.1387 0.0000
# 4 0.0000 0.0000 0.0000 22.7086 0.0000 3.1501
# 5 5.3823 5.0624 3.1387 0.0000 29.1452 0.0000
# 6 0.0000 0.0000 0.0000 3.1501 0.0000 33.6319
#
#
#
# Elastic Compliance Matrix: (Units=1/GPa)
#
#
# Indices 1 2 3 4 5 6 
#
# 1 0.014583 -0.007800 -0.005162 0.000000 -0.000782 0.000000
# 2 -0.007800 0.022551 -0.004520 0.000000 -0.001990 0.000000
# 3 -0.005162 -0.004520 0.013521 0.000000 0.000282 0.000000
# 4 0.000000 0.000000 0.000000 0.044616 0.000000 -0.004179
# 5 -0.000782 -0.001990 0.000282 0.000000 0.034771 0.000000
# 6 0.000000 0.000000 0.000000 -0.004179 0.000000 0.030125
#
#
# Mechanical properties :
#
#
# Convention : Reuss Voigt Hill
#
# Bulk Modulus (GPa) = 63.73923 71.12836 67.43380
# Shear Modulus (GPa) = 24.95480 26.60541 25.78011
#
# Velocity S-wave (km/s) = 3.76427 3.88677 3.82601
# Velocity P-wave (km/s) = 7.42193 7.78013 7.60314
#
# Compressibility (1/GPa) = 0.01568892
#
# Stress axis : x y z
#
# Youngs Moduli (GPa) = 68.57357 44.34390 73.95885
#
# Poissons Ratio (x) = 0.34590 0.38179
# Poissons Ratio (y) = 0.53491 0.33432
# Poissons Ratio (z) = 0.35399 0.20045
#
# Static dielectric constant tensor:
#      x y z
#    x 3.251470 0.000000 0.189570 
#    y 0.000000 3.257020 0.000000 
#    z 0.189570 0.000000 3.223710 
# 
# 
# High freq. dielectric constant tensor:
#      x y z
#    x 1.683120 0.000000 0.020390 
#    y 0.000000 1.684130 0.000000 
#    z 0.020390 0.000000 1.662640 
# 
# From -- ./inp_files/86835.got.cif
#   From: 2010.06.25/outbox.cif.g09.slc.cpg/sg10_44_cif.got.tgz:86835.got - 2010.06.27 22:07:45.
