data_PCOD8060440
_publ_section_title
;
Structure prediction by ZEFSAII (Michael W. Deem and Ramdas Pophale) SiO2 
 PCOD8060440
Probable space group: P 2/M
;
_chemical_formula_sum "Si O2"
_cell_formula_units_Z 32
_cell_length_a 27.998242
_cell_length_b 9.064300
_cell_length_c 22.670338
_cell_angle_alpha 90.000000
_cell_angle_beta 161.978888
_cell_angle_gamma 90.000000
_cell_volume 1779.908162
_symmetry_space_group_name_H-M "P 2/M"
_symmetry_group_IT_number 10
_symmetry_cell_setting 'monoclinic'
loop_
_space_group_symop_operation_xyz
x,y,z
-x,y,-z
-x,-y,-z
x,-y,z
loop_
_atom_site_type_symbol
_atom_site_label
_atom_site_fract_x
_atom_site_fract_y
_atom_site_fract_z
Si Si1 0.170259 0.833883 0.673802
Si Si2 0.939858 0.672548 0.564465
Si Si3 0.702126 0.165056 0.579814
Si Si4 0.270265 0.331272 0.899318
Si Si5 0.415912 0.672625 0.667130
Si Si6 0.859592 0.824533 0.591399
Si Si7 0.967471 0.162997 0.093039
Si Si8 0.165217 0.665183 0.162732
O O1 0.284829 0.766942 0.857438
O O2 0.000000 0.831518 0.500000
O O3 0.175098 0.734017 0.620866
O O4 0.223093 0.000000 0.720506
O O5 0.906881 0.500000 0.534995
O O6 0.116184 0.705342 0.754636
O O7 0.906964 0.761835 0.584584
O O8 0.592471 0.260030 0.408340
O O9 0.711278 0.240428 0.654885
O O10 0.871176 0.158510 0.751218
O O11 0.634449 0.000000 0.507165
O O12 0.268519 0.500000 0.876053
O O13 0.412359 0.296647 0.108617
O O14 0.375531 0.500000 0.616830
O O15 0.299793 0.751382 0.575562
O O16 0.997275 0.783090 0.798973
O O17 0.835646 0.000000 0.560977
O O18 0.893412 0.000000 0.006154
O O19 0.849390 0.270750 0.920760
O O20 0.229092 0.500000 0.232711
O O21 0.000000 0.668289 0.000000
#
# Coordination Sequence:
#
# PCOD8060440 Si02
#       8
#     4   4   4   4   4   4   4   4
#     4   9  17  30  50  74  97 122 155 196 238 279
#     4  10  19  33  53  74  97 126 159 195 236 282
#     4   9  16  26  40  60  89 123 156 191 234 280
#     4   9  19  34  52  74  98 125 158 196 237 282
#     4  10  19  32  49  70  98 129 160 195 237 284
#     4  10  20  33  48  70 100 130 160 195 238 285
#     4   8  15  26  39  57  86 121 152 188 233 277
#     4   9  15  22  36  59  85 115 154 195 231 273
#
# _framework density 17.978456000000001
#
# number of rings (size 3 to 8) (size 9 to 14) (size 15 to 20)
#    0.000    2.750    0.000    3.000    0.000    8.000 
#    0.000    0.625    0.000    3.750    0.000    0.875 
#    0.000    7.000    0.000    0.000    0.000    0.000 
#
# Total GULP energy -396737.361413 kJ/mol
# GULP energy per Si atom -12398.042544 kJ/mol
# Density = 1.793754 g / cm^3
# Si number density = 17.978456 Si / 1000 Ang^3
#
#
#
# Elastic Constant Matrix: (Units=GPa)
#
#
# Indices 1 2 3 4 5 6 
#
# 1 -47.2431 -14.3671 5.9481 0.0000 17.4252 0.0000
# 2 -14.3671 99.9484 39.3555 0.0000 0.7660 0.0000
# 3 5.9481 39.3555 76.5182 0.0000 -14.6191 0.0000
# 4 0.0000 0.0000 0.0000 25.4025 0.0000 -14.5154
# 5 17.4252 0.7660 -14.6191 0.0000 8.1998 0.0000
# 6 0.0000 0.0000 0.0000 -14.5154 0.0000 27.9946
#
#
#
# Elastic Compliance Matrix: (Units=1/GPa)
#
#
# Indices 1 2 3 4 5 6 
#
# 1 -0.007002 -0.004793 0.009005 0.000000 0.031380 0.000000
# 2 -0.004793 0.011642 -0.005880 0.000000 -0.001387 0.000000
# 3 0.009005 -0.005880 0.017960 0.000000 0.013434 0.000000
# 4 0.000000 0.000000 0.000000 0.055941 0.000000 0.029006
# 5 0.031380 -0.001387 0.013434 0.000000 0.079349 0.000000
# 6 0.000000 0.000000 0.000000 0.029006 0.000000 0.050761
#
#
# Mechanical properties :
#
#
# Convention : Reuss Voigt Hill
#
# Bulk Modulus (GPa) = 51.91072 21.23296 36.57184
# Shear Modulus (GPa) = 22.89283 18.87184 20.88233
#
# Velocity S-wave (km/s) = 3.57227 3.24341 3.41180
# Velocity P-wave (km/s) = 6.77874 5.08548 5.99222
#
# Compressibility (1/GPa) = 0.01926384
#
# Stress axis : x y z
#
# Youngs Moduli (GPa) = -142.82548 85.89317 55.67946
#
# Poissons Ratio (x) = 0.41165 -0.50137
# Poissons Ratio (y) = -0.68450 0.32742
# Poissons Ratio (z) = 1.28608 0.50509
#
# Static dielectric constant tensor:
#      x y z
#    x 3.140640 0.000000 -0.427620 
#    y 0.000000 3.556500 0.000000 
#    z -0.427620 0.000000 3.222020 
# 
# 
# High freq. dielectric constant tensor:
#      x y z
#    x 1.667490 0.000000 -0.043400 
#    y 0.000000 1.712560 0.000000 
#    z -0.043400 0.000000 1.673820 
# 
# From -- ./inp_files/54807.got.cif
#   From: 2010.06.25/outbox.cif.g09.slc.cpg/sg10_28_cif.got.tgz:54807.got - 2010.06.27 22:07:45.
