data_PCOD8060265
_publ_section_title
;
Structure prediction by ZEFSAII (Michael W. Deem and Ramdas Pophale) SiO2 
 PCOD8060265
Probable space group: P 2/M
;
_chemical_formula_sum "Si O2"
_cell_formula_units_Z 30
_cell_length_a 18.813299
_cell_length_b 10.316348
_cell_length_c 12.434078
_cell_angle_alpha 90.000000
_cell_angle_beta 138.614158
_cell_angle_gamma 90.000000
_cell_volume 1595.471636
_symmetry_space_group_name_H-M "P 2/M"
_symmetry_group_IT_number 10
_symmetry_cell_setting 'monoclinic'
loop_
_space_group_symop_operation_xyz
x,y,z
-x,y,-z
-x,-y,-z
x,-y,z
loop_
_atom_site_type_symbol
_atom_site_label
_atom_site_fract_x
_atom_site_fract_y
_atom_site_fract_z
Si Si1 0.609449 0.150245 0.453049
Si Si2 0.252705 0.148737 0.586041
Si Si3 0.081945 0.357044 0.689745
Si Si4 0.374841 0.849242 0.175749
Si Si5 0.917452 0.642615 0.685583
Si Si6 0.221378 0.846798 0.184767
Si Si7 0.745175 0.148334 0.166839
Si Si8 0.000000 0.272789 0.000000
O O1 0.641072 0.169923 0.364276
O O2 0.491230 0.214386 0.336931
O O3 0.702559 0.211686 0.633851
O O4 0.601168 0.000000 0.472917
O O5 0.161147 0.242676 0.437724
O O6 0.285681 0.181972 0.745682
O O7 0.210806 0.000000 0.527928
O O8 0.136940 0.500000 0.746043
O O9 0.164135 0.241746 0.773220
O O10 0.000000 0.341853 0.500000
O O11 0.025139 0.339686 0.739466
O O12 0.276404 0.793286 0.136510
O O13 0.383017 0.000000 0.211538
O O14 0.355479 0.827901 0.026439
O O15 0.866489 0.500000 0.603658
O O16 0.948001 0.643412 0.845941
O O17 0.221645 0.000000 0.188581
O O18 0.097058 0.808652 0.056909
O O19 0.786293 0.000000 0.204249
#
# Coordination Sequence:
#
# PCOD8060265 Si02
#       8
#     4   4   4   4   4   4   4   2
#     4   9  17  32  52  76 108 147 187 221 264 323
#     4  10  20  34  54  80 108 139 178 224 274 317
#     4  10  20  35  55  76 104 148 189 216 259 325
#     4   9  18  32  51  78 112 147 184 224 267 319
#     4  11  23  38  54  76 108 145 182 218 267 328
#     4  10  19  31  51  81 114 147 178 220 274 324
#     4  10  20  33  52  83 113 139 177 228 278 314
#     4  12  22  34  54  80 109 138 179 224 275 328
#
# _framework density 18.803217
#
# number of rings (size 3 to 8) (size 9 to 14) (size 15 to 20)
#    0.000    2.000    2.667    1.600    0.000    3.467 
#    0.000    2.667    0.000    0.800    0.000    2.800 
#    0.000    0.000    0.000    0.000    0.000    0.000 
#
# Total GULP energy -371720.283804 kJ/mol
# GULP energy per Si atom -12390.676127 kJ/mol
# Density = 1.876042 g / cm^3
# Si number density = 18.803217 Si / 1000 Ang^3
#
#
#
# Elastic Constant Matrix: (Units=GPa)
#
#
# Indices 1 2 3 4 5 6 
#
# 1 108.5526 29.0419 58.5311 0.0000 -1.5458 0.0000
# 2 29.0419 54.7264 27.9527 0.0000 4.7602 0.0000
# 3 58.5311 27.9527 95.4246 0.0000 -0.6381 0.0000
# 4 0.0000 0.0000 0.0000 1.0028 0.0000 -11.1284
# 5 -1.5458 4.7602 -0.6381 0.0000 38.5644 0.0000
# 6 0.0000 0.0000 0.0000 -11.1284 0.0000 13.8097
#
#
#
# Elastic Compliance Matrix: (Units=1/GPa)
#
#
# Indices 1 2 3 4 5 6 
#
# 1 0.014398 -0.003778 -0.007718 0.000000 0.000916 0.000000
# 2 -0.003778 0.022776 -0.004375 0.000000 -0.003035 0.000000
# 3 -0.007718 -0.004375 0.016499 0.000000 0.000504 0.000000
# 4 0.000000 0.000000 0.000000 -0.125551 0.000000 -0.101174
# 5 0.000916 -0.003035 0.000504 0.000000 0.026350 0.000000
# 6 0.000000 0.000000 0.000000 -0.101174 0.000000 -0.009117
#
#
# Mechanical properties :
#
#
# Convention : Reuss Voigt Hill
#
# Bulk Modulus (GPa) = 45.59916 54.41722 50.00819
# Shear Modulus (GPa) = -320.65056 20.22057 -150.21500
#
# Velocity S-wave (km/s) = -13.07287 3.28285 -8.94770
# Velocity P-wave (km/s) = 14.26755 6.58580 8.94959
#
# Compressibility (1/GPa) = 0.02193023
#
# Stress axis : x y z
#
# Youngs Moduli (GPa) = 69.45611 43.90572 60.61095
#
# Poissons Ratio (x) = 0.16586 0.46782
# Poissons Ratio (y) = 0.26239 0.26517
# Poissons Ratio (z) = 0.53609 0.19208
#
# Static dielectric constant tensor:
#      x y z
#    x 3.792950 0.000000 -0.677080 
#    y 0.000000 3.208880 0.000000 
#    z -0.677080 0.000000 7.378300 
# 
# 
# High freq. dielectric constant tensor:
#      x y z
#    x 1.743600 0.000000 -0.018330 
#    y 0.000000 1.688650 0.000000 
#    z -0.018330 0.000000 1.729290 
# 
# From -- ./inp_files/53696.got.cif
#   From: 2010.06.25/outbox.cif.g09.slc.cpg/sg10_27_cif.got.tgz:53696.got - 2010.06.27 22:07:45.
