data_PCOD8060757
_publ_section_title
;
Structure prediction by ZEFSAII (Michael W. Deem and Ramdas Pophale) SiO2 
 PCOD8060757
Probable space group: P 2/M
;
_chemical_formula_sum "Si O2"
_cell_formula_units_Z 32
_cell_length_a 10.651130
_cell_length_b 12.836780
_cell_length_c 19.081110
_cell_angle_alpha 90.000000
_cell_angle_beta 39.782889
_cell_angle_gamma 90.000000
_cell_volume 1669.375786
_symmetry_space_group_name_H-M "P 2/M"
_symmetry_group_IT_number 10
_symmetry_cell_setting 'monoclinic'
loop_
_space_group_symop_operation_xyz
x,y,z
-x,y,-z
-x,-y,-z
x,-y,z
loop_
_atom_site_type_symbol
_atom_site_label
_atom_site_fract_x
_atom_site_fract_y
_atom_site_fract_z
Si Si1 0.706736 0.389164 0.944906
Si Si2 0.025242 0.121237 0.879022
Si Si3 0.781208 0.884261 0.589254
Si Si4 0.327922 0.379359 0.629592
Si Si5 0.697942 0.885016 0.784363
Si Si6 0.334044 0.242948 0.915792
Si Si7 0.582145 0.243494 0.276731
Si Si8 0.025347 0.768375 0.240725
O O1 0.817871 0.500000 0.902110
O O2 0.813979 0.315838 0.845407
O O3 0.500000 0.407836 0.000000
O O4 0.703755 0.347395 0.025106
O O5 0.247789 0.157553 0.794114
O O6 0.977929 0.145408 0.818589
O O7 0.010702 0.000000 0.901042
O O8 0.869815 0.177271 0.998035
O O9 0.696355 0.896753 0.702448
O O10 0.628508 0.809537 0.613632
O O11 0.000000 0.835091 0.500000
O O12 0.791561 0.000000 0.549183
O O13 0.500000 0.375641 0.500000
O O14 0.254468 0.500000 0.668337
O O15 0.387277 0.338558 0.681940
O O16 0.173584 0.296874 0.663510
O O17 0.499109 0.822641 0.887846
O O18 0.898789 0.827094 0.722209
O O19 0.687720 0.000000 0.823409
O O20 0.409641 0.282253 0.807371
#
# Coordination Sequence:
#
# PCOD8060757 Si02
#       8
#     4   4   4   4   4   4   4   4
#     4  10  19  33  52  76 108 143 179 220 267 319
#     4  10  20  33  53  81 116 153 187 221 262 319
#     4   9  19  34  54  80 109 144 179 218 272 326
#     4  10  23  42  62  80 102 140 186 234 288 331
#     4  10  19  32  52  80 114 148 182 219 265 324
#     4  10  20  34  52  84 113 149 182 222 271 323
#     4  10  21  36  57  81 111 141 184 229 271 324
#     4  10  20  35  55  80 109 144 186 228 271 320
#
# _framework density 19.168841
#
# number of rings (size 3 to 8) (size 9 to 14) (size 15 to 20)
#    0.000    2.125    1.250    1.875    1.750    2.500 
#    0.000    1.875    0.000    7.125    0.000    0.000 
#    0.000    0.000    0.000    0.000    0.000    0.000 
#
# Total GULP energy -396532.486371 kJ/mol
# GULP energy per Si atom -12391.640199 kJ/mol
# Density = 1.912521 g / cm^3
# Si number density = 19.168841 Si / 1000 Ang^3
#
#
#
# Elastic Constant Matrix: (Units=GPa)
#
#
# Indices 1 2 3 4 5 6 
#
# 1 71.0089 41.4241 20.2156 0.0000 -14.2501 0.0000
# 2 41.4241 93.2846 14.1291 0.0000 3.3655 0.0000
# 3 20.2156 14.1291 61.7733 0.0000 -11.4785 0.0000
# 4 0.0000 0.0000 0.0000 58.5347 0.0000 -17.6788
# 5 -14.2501 3.3655 -11.4785 0.0000 35.2487 0.0000
# 6 0.0000 0.0000 0.0000 -17.6788 0.0000 32.5608
#
#
#
# Elastic Compliance Matrix: (Units=1/GPa)
#
#
# Indices 1 2 3 4 5 6 
#
# 1 0.022606 -0.009833 -0.003487 0.000000 0.008942 0.000000
# 2 -0.009833 0.015517 -0.001432 0.000000 -0.005923 0.000000
# 3 -0.003487 -0.001432 0.018542 0.000000 0.004765 0.000000
# 4 0.000000 0.000000 0.000000 0.020435 0.000000 0.011095
# 5 0.008942 -0.005923 0.004765 0.000000 0.034102 0.000000
# 6 0.000000 0.000000 0.000000 0.011095 0.000000 0.036736
#
#
# Mechanical properties :
#
#
# Convention : Reuss Voigt Hill
#
# Bulk Modulus (GPa) = 36.81706 41.95605 39.38655
# Shear Modulus (GPa) = 26.81016 35.28872 31.04944
#
# Velocity S-wave (km/s) = 3.74389 4.29527 4.02902
# Velocity P-wave (km/s) = 6.15933 6.82161 6.49891
#
# Compressibility (1/GPa) = 0.02716132
#
# Stress axis : x y z
#
# Youngs Moduli (GPa) = 44.23539 64.44581 53.93046
#
# Poissons Ratio (x) = 0.63370 0.18807
# Poissons Ratio (y) = 0.43497 0.07722
# Poissons Ratio (z) = 0.15426 0.09227
#
# Static dielectric constant tensor:
#      x y z
#    x 3.561110 0.000000 -0.189380 
#    y 0.000000 3.653360 0.000000 
#    z -0.189380 0.000000 3.463900 
# 
# 
# High freq. dielectric constant tensor:
#      x y z
#    x 1.746700 0.000000 -0.011930 
#    y 0.000000 1.740880 0.000000 
#    z -0.011930 0.000000 1.739540 
# 
# From -- ./inp_files/83865.got.cif
#   From: 2010.06.25/outbox.cif.g09.slc.cpg/sg10_42_cif.got.tgz:83865.got - 2010.06.27 22:07:45.
