data_PCOD8060281
_publ_section_title
;
Structure prediction by ZEFSAII (Michael W. Deem and Ramdas Pophale) SiO2 
 PCOD8060281
Probable space group: P 2/M
;
_chemical_formula_sum "Si O2"
_cell_formula_units_Z 32
_cell_length_a 22.910270
_cell_length_b 9.129094
_cell_length_c 28.197959
_cell_angle_alpha 90.000000
_cell_angle_beta 162.564761
_cell_angle_gamma 90.000000
_cell_volume 1767.084908
_symmetry_space_group_name_H-M "P 2/M"
_symmetry_group_IT_number 10
_symmetry_cell_setting 'monoclinic'
loop_
_space_group_symop_operation_xyz
x,y,z
-x,y,-z
-x,-y,-z
x,-y,z
loop_
_atom_site_type_symbol
_atom_site_label
_atom_site_fract_x
_atom_site_fract_y
_atom_site_fract_z
Si Si1 0.086552 0.171980 0.462789
Si Si2 0.283043 0.169563 0.516737
Si Si3 0.781651 0.668899 0.626307
Si Si4 0.089430 0.828984 0.185361
Si Si5 0.277613 0.832275 0.161679
Si Si6 0.218771 0.661165 0.651366
Si Si7 0.688052 0.326986 0.175011
Si Si8 0.670504 0.331189 0.705511
O O1 0.875585 0.245769 0.299577
O O2 0.188771 0.215549 0.493146
O O3 0.229256 0.227294 0.615589
O O4 0.060079 0.000000 0.448425
O O5 0.182307 0.265336 0.397799
O O6 0.512455 0.204681 0.697592
O O7 0.246089 0.000000 0.476341
O O8 0.843301 0.500000 0.673674
O O9 0.916581 0.756237 0.767583
O O10 0.559590 0.690963 0.469857
O O11 0.257854 0.755408 0.284771
O O12 0.135721 0.000000 0.225781
O O13 0.878921 0.798070 0.999898
O O14 0.229211 0.732639 0.169543
O O15 0.265761 0.000000 0.169757
O O16 0.287870 0.500000 0.687798
O O17 0.345805 0.713478 0.795467
O O18 0.000000 0.651669 0.500000
O O19 0.724392 0.500000 0.197822
O O20 0.500000 0.274380 0.000000
O O21 0.729417 0.500000 0.745898
#
# Coordination Sequence:
#
# PCOD8060281 Si02
#       8
#     4   4   4   4   4   4   4   4
#     4  10  19  31  52  78 100 128 166 205 244 287
#     4   9  19  37  55  70  94 130 168 203 243 292
#     4  10  21  35  51  72  98 129 165 205 247 293
#     4  11  21  32  50  74  98 127 162 202 252 305
#     4   9  19  35  52  70  95 128 165 202 243 296
#     4   8  15  29  49  72  98 130 165 197 232 279
#     4   9  18  33  52  75 106 139 166 197 241 288
#     4  10  20  33  50  73  99 126 160 204 252 300
#
# _framework density 18.108920000000001
#
# number of rings (size 3 to 8) (size 9 to 14) (size 15 to 20)
#    0.000    2.500    0.000    3.000    0.000    9.000 
#    0.000    1.250    0.000    4.500    0.000    0.000 
#    0.000    0.000    0.000    0.000    0.000    0.000 
#
# Total GULP energy -396825.720874 kJ/mol
# GULP energy per Si atom -12400.803777 kJ/mol
# Density = 1.806770 g / cm^3
# Si number density = 18.108920 Si / 1000 Ang^3
#
#
#
# Elastic Constant Matrix: (Units=GPa)
#
#
# Indices 1 2 3 4 5 6 
#
# 1 132.8049 64.4649 48.6930 0.0000 -22.2004 0.0000
# 2 64.4649 95.5049 37.6533 0.0000 -16.3459 0.0000
# 3 48.6930 37.6533 67.8133 0.0000 -27.8405 0.0000
# 4 0.0000 0.0000 0.0000 22.9485 0.0000 -4.8360
# 5 -22.2004 -16.3459 -27.8405 0.0000 31.0792 0.0000
# 6 0.0000 0.0000 0.0000 -4.8360 0.0000 26.6387
#
#
#
# Elastic Compliance Matrix: (Units=1/GPa)
#
#
# Indices 1 2 3 4 5 6 
#
# 1 0.012674 -0.006345 -0.005110 0.000000 0.001139 0.000000
# 2 -0.006345 0.016589 -0.004640 0.000000 0.000036 0.000000
# 3 -0.005110 -0.004640 0.029248 0.000000 0.020109 0.000000
# 4 0.000000 0.000000 0.000000 0.045309 0.000000 0.008225
# 5 0.001139 0.000036 0.020109 0.000000 0.051022 0.000000
# 6 0.000000 0.000000 0.000000 0.008225 0.000000 0.039033
#
#
# Mechanical properties :
#
#
# Convention : Reuss Voigt Hill
#
# Bulk Modulus (GPa) = 37.99362 66.41617 52.20489
# Shear Modulus (GPa) = 21.29128 25.82074 23.55601
#
# Velocity S-wave (km/s) = 3.43262 3.78015 3.61057
# Velocity P-wave (km/s) = 6.06108 7.47049 6.80239
#
# Compressibility (1/GPa) = 0.02632021
#
# Stress axis : x y z
#
# Youngs Moduli (GPa) = 78.90365 60.28007 34.19079
#
# Poissons Ratio (x) = 0.38249 0.17470
# Poissons Ratio (y) = 0.50066 0.15866
# Poissons Ratio (z) = 0.40317 0.27972
#
# Static dielectric constant tensor:
#      x y z
#    x 3.432650 0.000000 -0.313480 
#    y 0.000000 3.408870 0.000000 
#    z -0.313480 0.000000 3.314980 
# 
# 
# High freq. dielectric constant tensor:
#      x y z
#    x 1.697040 0.000000 -0.022290 
#    y 0.000000 1.706730 0.000000 
#    z -0.022290 0.000000 1.685370 
# 
# From -- ./inp_files/90651.got.cif
#   From: 2010.06.25/outbox.cif.g09.slc.cpg/sg10_46_cif.got.tgz:90651.got - 2010.06.27 22:07:45.
