data_PCOD8060783
_publ_section_title
;
Structure prediction by ZEFSAII (Michael W. Deem and Ramdas Pophale) SiO2 
 PCOD8060783
Probable space group: P 2/M
;
_chemical_formula_sum "Si O2"
_cell_formula_units_Z 28
_cell_length_a 18.097564
_cell_length_b 9.669344
_cell_length_c 15.705552
_cell_angle_alpha 90.000000
_cell_angle_beta 144.647895
_cell_angle_gamma 90.000000
_cell_volume 1590.187936
_symmetry_space_group_name_H-M "P 2/M"
_symmetry_group_IT_number 10
_symmetry_cell_setting 'monoclinic'
loop_
_space_group_symop_operation_xyz
x,y,z
-x,y,-z
-x,-y,-z
x,-y,z
loop_
_atom_site_type_symbol
_atom_site_label
_atom_site_fract_x
_atom_site_fract_y
_atom_site_fract_z
Si Si1 0.882182 0.844865 0.452544
Si Si2 0.052841 0.153917 0.182727
Si Si3 0.563944 0.336934 0.648251
Si Si4 0.582873 0.657400 0.320224
Si Si5 0.204434 0.153669 0.163072
Si Si6 0.879860 0.343182 0.606346
Si Si7 0.408923 0.839254 0.836751
O O1 0.916755 0.732843 0.554884
O O2 0.740963 0.812735 0.280002
O O3 0.000000 0.832447 0.500000
O O4 0.877589 0.000000 0.486810
O O5 0.165974 0.191179 0.223488
O O6 0.046513 0.268524 0.248934
O O7 0.076947 0.000000 0.243342
O O8 0.918844 0.157276 0.010818
O O9 0.500000 0.285338 0.500000
O O10 0.583217 0.500000 0.664052
O O11 0.486700 0.290657 0.659588
O O12 0.700345 0.266174 0.784301
O O13 0.543887 0.500000 0.260211
O O14 0.730334 0.666287 0.482561
O O15 0.550291 0.753992 0.209009
O O16 0.265548 0.000000 0.217609
O O17 0.928602 0.500000 0.646376
O O18 0.433736 0.000000 0.840049
O O19 0.500000 0.790455 0.000000
#
# Coordination Sequence:
#
# PCOD8060783 Si02
#       7
#     4   4   4   4   4   4   4
#     4   9  18  34  54  75 102 134 167 208 262 311
#     4   9  18  34  52  71  99 133 168 208 256 301
#     4  10  20  34  51  73 105 139 170 208 254 302
#     4   9  19  34  51  74 104 136 170 206 250 305
#     4   9  19  34  51  72  99 132 171 213 251 295
#     4  10  19  32  53  77 100 130 170 208 247 299
#     4   9  18  34  55  77 100 131 174 217 256 306
#
# _framework density 17.607980999999999
#
# number of rings (size 3 to 8) (size 9 to 14) (size 15 to 20)
#    0.000    2.714    0.000    2.143    0.000    4.286 
#    2.571    1.429    0.000    0.000    0.000    0.000 
#    0.000    0.000    0.000    0.000    0.000    0.000 
#
# Total GULP energy -347095.063404 kJ/mol
# GULP energy per Si atom -12396.252264 kJ/mol
# Density = 1.756790 g / cm^3
# Si number density = 17.607981 Si / 1000 Ang^3
#
#
#
# Elastic Constant Matrix: (Units=GPa)
#
#
# Indices 1 2 3 4 5 6 
#
# 1 112.1611 55.7792 46.1703 0.0000 -3.5289 0.0000
# 2 55.7792 92.0580 46.2099 0.0000 -13.3709 0.0000
# 3 46.1703 46.2099 71.1120 0.0000 -17.8911 0.0000
# 4 0.0000 0.0000 0.0000 23.1038 0.0000 1.4062
# 5 -3.5289 -13.3709 -17.8911 0.0000 24.5629 0.0000
# 6 0.0000 0.0000 0.0000 1.4062 0.0000 27.9021
#
#
#
# Elastic Compliance Matrix: (Units=1/GPa)
#
#
# Indices 1 2 3 4 5 6 
#
# 1 0.014795 -0.006331 -0.007130 0.000000 -0.006515 0.000000
# 2 -0.006331 0.018870 -0.007097 0.000000 0.004193 0.000000
# 3 -0.007130 -0.007097 0.027026 0.000000 0.014798 0.000000
# 4 0.000000 0.000000 0.000000 0.043416 0.000000 -0.002188
# 5 -0.006515 0.004193 0.014798 0.000000 0.052837 0.000000
# 6 0.000000 0.000000 0.000000 -0.002188 0.000000 0.035950
#
#
# Mechanical properties :
#
#
# Convention : Reuss Voigt Hill
#
# Bulk Modulus (GPa) = 51.08620 63.51665 57.30143
# Shear Modulus (GPa) = 20.78696 23.59188 22.18942
#
# Velocity S-wave (km/s) = 3.43963 3.66435 3.55377
# Velocity P-wave (km/s) = 6.69707 7.35216 7.03225
#
# Compressibility (1/GPa) = 0.01957476
#
# Stress axis : x y z
#
# Youngs Moduli (GPa) = 67.59254 52.99365 37.00096
#
# Poissons Ratio (x) = 0.33551 0.26383
# Poissons Ratio (y) = 0.42794 0.26258
# Poissons Ratio (z) = 0.48196 0.37607
#
# Static dielectric constant tensor:
#      x y z
#    x 3.244940 0.000000 -0.012150 
#    y 0.000000 3.429760 0.000000 
#    z -0.012150 0.000000 3.135970 
# 
# 
# High freq. dielectric constant tensor:
#      x y z
#    x 1.675650 0.000000 -0.001360 
#    y 0.000000 1.685720 0.000000 
#    z -0.001360 0.000000 1.672430 
# 
# From -- ./inp_files/63205.got.cif
#   From: 2010.06.25/outbox.cif.g09.slc.cpg/sg10_32_cif.got.tgz:63205.got - 2010.06.27 22:07:45.
