data_PCOD8060938
_publ_section_title
;
Structure prediction by ZEFSAII (Michael W. Deem and Ramdas Pophale) SiO2 
 PCOD8060938
Probable space group: P 2/M
;
_chemical_formula_sum "Si O2"
_cell_formula_units_Z 32
_cell_length_a 21.473757
_cell_length_b 9.115216
_cell_length_c 27.756877
_cell_angle_alpha 90.000000
_cell_angle_beta 161.128979
_cell_angle_gamma 90.000000
_cell_volume 1757.267214
_symmetry_space_group_name_H-M "P 2/M"
_symmetry_group_IT_number 10
_symmetry_cell_setting 'monoclinic'
loop_
_space_group_symop_operation_xyz
x,y,z
-x,y,-z
-x,-y,-z
x,-y,z
loop_
_atom_site_type_symbol
_atom_site_label
_atom_site_fract_x
_atom_site_fract_y
_atom_site_fract_z
Si Si1 0.561027 0.331747 0.597275
Si Si2 0.714418 0.326929 0.170064
Si Si3 0.849706 0.334172 0.664748
Si Si4 0.204057 0.168865 0.672561
Si Si5 0.117110 0.829367 0.794152
Si Si6 0.405341 0.831577 0.089375
Si Si7 0.868072 0.670800 0.043184
Si Si8 0.941579 0.828615 0.903012
O O1 0.500000 0.276917 0.500000
O O2 0.634754 0.500000 0.648586
O O3 0.378749 0.316030 0.498970
O O4 0.726757 0.229512 0.738715
O O5 0.736336 0.500000 0.183118
O O6 0.767697 0.274881 0.262033
O O7 0.861201 0.254627 0.240062
O O8 0.500000 0.274693 0.000000
O O9 0.906555 0.500000 0.691937
O O10 0.921038 0.224325 0.675760
O O11 0.949223 0.296433 0.788737
O O12 0.368863 0.200087 0.753323
O O13 0.000000 0.205957 0.500000
O O14 0.216562 0.000000 0.699015
O O15 0.100252 0.000000 0.770554
O O16 0.296501 0.791335 0.960083
O O17 0.365485 0.000000 0.073919
O O18 0.327372 0.732426 0.075872
O O19 0.838277 0.500000 0.011574
O O20 0.906293 0.749621 0.020585
O O21 0.946329 0.000000 0.895077
O O22 0.000000 0.792462 0.000000
#
# Coordination Sequence:
#
# PCOD8060938 Si02
#       8
#     4   4   4   4   4   4   4   4
#     4  10  19  36  59  84 111 142 181 226 278 330
#     4  11  22  35  55  82 112 146 185 230 279 327
#     4   9  18  33  54  82 115 142 176 230 282 332
#     4  10  21  38  59  83 113 150 188 228 280 335
#     4  10  19  32  54  82 112 145 184 231 280 330
#     4   9  18  33  54  82 112 142 181 229 277 331
#     4  10  19  34  57  82 109 144 185 229 278 333
#     4  11  24  39  55  81 116 151 188 231 275 325
#
# _framework density 18.210094000000002
#
# number of rings (size 3 to 8) (size 9 to 14) (size 15 to 20)
#    0.000    2.000    2.500    1.500    0.000    4.000 
#    0.000    1.250    0.000    1.500    0.000    0.000 
#    0.000    0.000    0.000    0.000    0.000    0.000 
#
# Total GULP energy -396937.618186 kJ/mol
# GULP energy per Si atom -12404.300568 kJ/mol
# Density = 1.816865 g / cm^3
# Si number density = 18.210094 Si / 1000 Ang^3
#
#
#
# Elastic Constant Matrix: (Units=GPa)
#
#
# Indices 1 2 3 4 5 6 
#
# 1 122.9154 72.9176 53.5422 0.0000 8.1329 0.0000
# 2 72.9176 96.1064 45.0493 0.0000 -0.5997 0.0000
# 3 53.5422 45.0493 90.6736 0.0000 8.3209 0.0000
# 4 0.0000 0.0000 0.0000 23.4580 0.0000 3.0188
# 5 8.1329 -0.5997 8.3209 0.0000 23.1942 0.0000
# 6 0.0000 0.0000 0.0000 3.0188 0.0000 37.1745
#
#
#
# Elastic Compliance Matrix: (Units=1/GPa)
#
#
# Indices 1 2 3 4 5 6 
#
# 1 0.016538 -0.010687 -0.004031 0.000000 -0.004629 0.000000
# 2 -0.010687 0.020656 -0.004493 0.000000 0.005893 0.000000
# 3 -0.004031 -0.004493 0.016050 0.000000 -0.004461 0.000000
# 4 0.000000 0.000000 0.000000 0.043080 0.000000 -0.003498
# 5 -0.004629 0.005893 -0.004461 0.000000 0.046490 0.000000
# 6 0.000000 0.000000 0.000000 -0.003498 0.000000 0.027184
#
#
# Mechanical properties :
#
#
# Convention : Reuss Voigt Hill
#
# Bulk Modulus (GPa) = 67.46390 72.52374 69.99382
# Shear Modulus (GPa) = 23.43450 25.97776 24.70613
#
# Velocity S-wave (km/s) = 3.59123 3.78108 3.68737
# Velocity P-wave (km/s) = 7.37047 7.67950 7.52657
#
# Compressibility (1/GPa) = 0.01482274
#
# Stress axis : x y z
#
# Youngs Moduli (GPa) = 60.46804 48.41176 62.30342
#
# Poissons Ratio (x) = 0.51736 0.25115
# Poissons Ratio (y) = 0.64621 0.27992
# Poissons Ratio (z) = 0.24375 0.21751
#
# Static dielectric constant tensor:
#      x y z
#    x 3.326860 0.000000 0.175810 
#    y 0.000000 3.373900 0.000000 
#    z 0.175810 0.000000 3.217080 
# 
# 
# High freq. dielectric constant tensor:
#      x y z
#    x 1.709170 0.000000 0.019010 
#    y 0.000000 1.710940 0.000000 
#    z 0.019010 0.000000 1.683670 
# 
# From -- ./inp_files/86914.got.cif
#   From: 2010.06.25/outbox.cif.g09.slc.cpg/sg10_44_cif.got.tgz:86914.got - 2010.06.27 22:07:45.
