data_PCOD8060267
_publ_section_title
;
Structure prediction by ZEFSAII (Michael W. Deem and Ramdas Pophale) SiO2 
 PCOD8060267
Probable space group: P 2/M
;
_chemical_formula_sum "Si O2"
_cell_formula_units_Z 32
_cell_length_a 23.432124
_cell_length_b 9.082424
_cell_length_c 14.487601
_cell_angle_alpha 90.000000
_cell_angle_beta 149.819983
_cell_angle_gamma 90.000000
_cell_volume 1550.010926
_symmetry_space_group_name_H-M "P 2/M"
_symmetry_group_IT_number 10
_symmetry_cell_setting 'monoclinic'
loop_
_space_group_symop_operation_xyz
x,y,z
-x,y,-z
-x,-y,-z
x,-y,z
loop_
_atom_site_type_symbol
_atom_site_label
_atom_site_fract_x
_atom_site_fract_y
_atom_site_fract_z
Si Si1 0.097480 0.166896 0.231490
Si Si2 0.317337 0.168514 0.976486
Si Si3 0.226846 0.167552 0.232469
Si Si4 0.087621 0.673857 0.700052
Si Si5 0.081073 0.328132 0.898680
Si Si6 0.390679 0.665125 0.903710
Si Si7 0.436514 0.170901 0.647595
Si Si8 0.300215 0.664402 0.588198
O O1 0.114616 0.182417 0.143884
O O2 0.221163 0.205199 0.441874
O O3 0.016948 0.283348 0.168009
O O4 0.063407 0.000000 0.210450
O O5 0.214485 0.267011 0.866998
O O6 0.350759 0.214492 0.920174
O O7 0.277088 0.000000 0.919810
O O8 0.431438 0.188947 0.199155
O O9 0.345888 0.223637 0.442660
O O10 0.242108 0.000000 0.224259
O O11 0.198806 0.256503 0.099861
O O12 0.093949 0.500000 0.697196
O O13 0.048894 0.720504 0.749198
O O14 0.000000 0.737710 0.500000
O O15 0.098883 0.500000 0.927590
O O16 0.407563 0.500000 0.969755
O O17 0.293525 0.657875 0.689157
O O18 0.500000 0.717836 0.000000
O O19 0.421801 0.279731 0.716090
O O20 0.412685 0.000000 0.639910
O O21 0.271719 0.500000 0.509570
#
# Coordination Sequence:
#
# PCOD8060267 Si02
#       8
#     4   4   4   4   4   4   4   4
#     4  10  21  36  57  86 124 161 192 234 297 358
#     4  11  23  38  61  89 116 150 198 251 293 343
#     4   9  19  37  60  87 123 162 189 225 295 365
#     4  10  25  48  66  81 112 157 200 246 301 355
#     4  11  23  39  61  88 114 151 204 254 295 344
#     4  10  20  34  53  82 120 160 196 233 291 358
#     4   9  19  36  56  84 122 155 184 229 293 353
#     4  10  19  31  51  81 117 157 198 235 280 345
#
# _framework density 20.645014
#
# number of rings (size 3 to 8) (size 9 to 14) (size 15 to 20)
#    0.000    2.000    1.250    2.625    1.750    7.000 
#    0.000    0.625    0.000    3.750    0.000    0.000 
#    0.000    0.000    0.000    0.000    0.000    0.000 
#
# Total GULP energy -396534.738090 kJ/mol
# GULP energy per Si atom -12391.710565 kJ/mol
# Density = 2.059803 g / cm^3
# Si number density = 20.645014 Si / 1000 Ang^3
#
#
#
# Elastic Constant Matrix: (Units=GPa)
#
#
# Indices 1 2 3 4 5 6 
#
# 1 60.9895 32.0129 56.0692 0.0000 -3.2254 0.0000
# 2 32.0129 40.1726 36.5534 0.0000 -12.7006 0.0000
# 3 56.0692 36.5534 90.6999 0.0000 -13.0004 0.0000
# 4 0.0000 0.0000 0.0000 32.8080 0.0000 1.3024
# 5 -3.2254 -12.7006 -13.0004 0.0000 28.6877 0.0000
# 6 0.0000 0.0000 0.0000 1.3024 0.0000 26.0682
#
#
#
# Elastic Compliance Matrix: (Units=1/GPa)
#
#
# Indices 1 2 3 4 5 6 
#
# 1 0.048744 -0.022435 -0.023238 0.000000 -0.014983 0.000000
# 2 -0.022435 0.053124 -0.004846 0.000000 0.018801 0.000000
# 3 -0.023238 -0.004846 0.028514 0.000000 0.008164 0.000000
# 4 0.000000 0.000000 0.000000 0.030541 0.000000 -0.001526
# 5 -0.014983 0.018801 0.008164 0.000000 0.045197 0.000000
# 6 0.000000 0.000000 0.000000 -0.001526 0.000000 0.038437
#
#
# Mechanical properties :
#
#
# Convention : Reuss Voigt Hill
#
# Bulk Modulus (GPa) = 34.07994 49.01475 41.54735
# Shear Modulus (GPa) = 14.06959 21.99453 18.03206
#
# Velocity S-wave (km/s) = 2.61339 3.26754 2.95860
# Velocity P-wave (km/s) = 5.06457 6.16676 5.64264
#
# Compressibility (1/GPa) = 0.02934277
#
# Stress axis : x y z
#
# Youngs Moduli (GPa) = 20.51552 18.82384 35.07042
#
# Poissons Ratio (x) = 0.42232 0.81498
# Poissons Ratio (y) = 0.46027 0.16995
# Poissons Ratio (z) = 0.47675 0.09122
#
# Static dielectric constant tensor:
#      x y z
#    x 3.618480 0.000000 -0.124770 
#    y 0.000000 3.619340 0.000000 
#    z -0.124770 0.000000 4.131840 
# 
# 
# High freq. dielectric constant tensor:
#      x y z
#    x 1.772850 0.000000 -0.002040 
#    y 0.000000 1.804300 0.000000 
#    z -0.002040 0.000000 1.827810 
# 
# From -- ./inp_files/71592.got.cif
#   From: 2010.06.25/outbox.cif.g09.slc.cpg/sg10_36_cif.got.tgz:71592.got - 2010.06.27 22:07:45.
