data_PCOD8060517
_publ_section_title
;
Structure prediction by ZEFSAII (Michael W. Deem and Ramdas Pophale) SiO2 
 PCOD8060517
Probable space group: P 2/M
;
_chemical_formula_sum "Si O2"
_cell_formula_units_Z 32
_cell_length_a 14.416147
_cell_length_b 8.832700
_cell_length_c 26.377678
_cell_angle_alpha 90.000000
_cell_angle_beta 29.849215
_cell_angle_gamma 90.000000
_cell_volume 1671.720242
_symmetry_space_group_name_H-M "P 2/M"
_symmetry_group_IT_number 10
_symmetry_cell_setting 'monoclinic'
loop_
_space_group_symop_operation_xyz
x,y,z
-x,y,-z
-x,-y,-z
x,-y,z
loop_
_atom_site_type_symbol
_atom_site_label
_atom_site_fract_x
_atom_site_fract_y
_atom_site_fract_z
Si Si1 0.597286 0.679878 0.902722
Si Si2 0.097530 0.820994 0.402466
Si Si3 0.069207 0.681077 0.810260
Si Si4 0.489290 0.322020 0.233854
Si Si5 0.305607 0.678108 0.961384
Si Si6 0.004678 0.321885 0.728349
Si Si7 0.180153 0.322012 0.542993
Si Si8 0.440494 0.320084 0.686502
O O1 0.603864 0.500000 0.896151
O O2 0.476976 0.746134 0.913006
O O3 0.807055 0.746142 0.802984
O O4 0.500000 0.734742 0.000000
O O5 0.305758 0.759644 0.301089
O O6 0.000000 0.761776 0.500000
O O7 0.985325 0.759502 0.407885
O O8 0.101276 0.000000 0.398637
O O9 0.073551 0.500000 0.808817
O O10 0.255393 0.746923 0.748200
O O11 0.061986 0.744607 0.756037
O O12 0.892071 0.744618 0.925932
O O13 0.447065 0.500000 0.255366
O O14 0.657782 0.284174 0.115062
O O15 0.548454 0.260811 0.260984
O O16 0.298782 0.500000 0.973975
O O17 0.980583 0.500000 0.746680
O O18 0.160777 0.284126 0.612074
O O19 0.160377 0.500000 0.542148
O O20 0.379821 0.260728 0.429567
O O21 0.434074 0.500000 0.688618
#
# Coordination Sequence:
#
# PCOD8060517 Si02
#       8
#     4   4   4   4   4   4   4   4
#     4   9  13  20  34  55  86 123 157 193 237 283
#     4  11  22  35  53  76  99 128 163 201 245 297
#     4   9  16  27  41  67 104 135 166 207 244 280
#     4  10  19  32  50  74 102 132 161 198 251 300
#     4   9  16  25  42  67  99 134 164 198 244 293
#     4   9  16  25  42  67  99 134 164 198 244 293
#     4  10  19  32  50  74 102 132 161 198 251 300
#     4   9  18  29  43  65  99 135 166 203 248 290
#
# _framework density 19.141959
#
# number of rings (size 3 to 8) (size 9 to 14) (size 15 to 20)
#    0.000    2.500    2.500    1.125    0.000    3.500 
#    0.000    5.000    0.000    0.000    0.000    7.000 
#    0.000    0.000    0.000    0.000    0.000    0.000 
#
# Total GULP energy -396687.080245 kJ/mol
# GULP energy per Si atom -12396.471258 kJ/mol
# Density = 1.909839 g / cm^3
# Si number density = 19.141959 Si / 1000 Ang^3
#
#
#
# Elastic Constant Matrix: (Units=GPa)
#
#
# Indices 1 2 3 4 5 6 
#
# 1 153.5775 12.1857 110.0044 0.0000 -9.3831 0.0000
# 2 12.1857 15.5223 14.5460 0.0000 2.4651 0.0000
# 3 110.0044 14.5460 153.9185 0.0000 10.0418 0.0000
# 4 0.0000 0.0000 0.0000 4.5668 0.0000 2.3200
# 5 -9.3831 2.4651 10.0418 0.0000 36.8329 0.0000
# 6 0.0000 0.0000 0.0000 2.3200 0.0000 2.2752
#
#
#
# Elastic Compliance Matrix: (Units=1/GPa)
#
#
# Indices 1 2 3 4 5 6 
#
# 1 0.014939 -0.002635 -0.010881 0.000000 0.006948 0.000000
# 2 -0.002635 0.071467 -0.004597 0.000000 -0.004201 0.000000
# 3 -0.010881 -0.004597 0.015138 0.000000 -0.006591 0.000000
# 4 0.000000 0.000000 0.000000 0.454340 0.000000 -0.463294
# 5 0.006948 -0.004201 -0.006591 0.000000 0.030998 0.000000
# 6 0.000000 0.000000 0.000000 -0.463294 0.000000 0.911945
#
#
# Mechanical properties :
#
#
# Convention : Reuss Voigt Hill
#
# Bulk Modulus (GPa) = 15.30958 66.27672 40.79315
# Shear Modulus (GPa) = 3.21167 21.15379 12.18273
#
# Velocity S-wave (km/s) = 1.29671 3.32791 2.52552
# Velocity P-wave (km/s) = 3.20269 7.03318 5.46456
#
# Compressibility (1/GPa) = 0.06531856
#
# Stress axis : x y z
#
# Youngs Moduli (GPa) = 66.94000 13.99251 66.05916
#
# Poissons Ratio (x) = 0.03686 0.71879
# Poissons Ratio (y) = 0.17636 0.30367
# Poissons Ratio (z) = 0.72837 0.06432
#
# Static dielectric constant tensor:
#      x y z
#    x 3.716850 0.000000 0.031320 
#    y 0.000000 2.727900 0.000000 
#    z 0.031320 0.000000 3.747520 
# 
# 
# High freq. dielectric constant tensor:
#      x y z
#    x 1.750900 0.000000 0.008340 
#    y 0.000000 1.662230 0.000000 
#    z 0.008340 0.000000 1.759090 
# 
# From -- ./inp_files/93128.got.cif
#   From: 2010.06.25/outbox.cif.g09.slc.cpg/sg10_47_cif.got.tgz:93128.got - 2010.06.27 22:07:45.
