data_PCOD8060859
_publ_section_title
;
Structure prediction by ZEFSAII (Michael W. Deem and Ramdas Pophale) SiO2 
 PCOD8060859
Probable space group: P 2/M
;
_chemical_formula_sum "Si O2"
_cell_formula_units_Z 28
_cell_length_a 11.653390
_cell_length_b 9.351050
_cell_length_c 15.420043
_cell_angle_alpha 90.000000
_cell_angle_beta 57.518444
_cell_angle_gamma 90.000000
_cell_volume 1417.478465
_symmetry_space_group_name_H-M "P 2/M"
_symmetry_group_IT_number 10
_symmetry_cell_setting 'monoclinic'
loop_
_space_group_symop_operation_xyz
x,y,z
-x,y,-z
-x,-y,-z
x,-y,z
loop_
_atom_site_type_symbol
_atom_site_label
_atom_site_fract_x
_atom_site_fract_y
_atom_site_fract_z
Si Si1 0.362099 0.834192 0.005115
Si Si2 0.089487 0.835768 0.211442
Si Si3 0.642967 0.663628 0.634579
Si Si4 0.914781 0.335747 0.616297
Si Si5 0.357491 0.670256 0.829184
Si Si6 0.821611 0.835466 0.227663
Si Si7 0.350677 0.166465 0.535385
O O1 0.237877 0.791402 0.117995
O O2 0.352309 0.000000 0.980325
O O3 0.500000 0.802344 0.000000
O O4 0.354596 0.732430 0.926076
O O5 0.045679 0.747271 0.313160
O O6 0.982198 0.809261 0.176841
O O7 0.085613 0.000000 0.242006
O O8 0.630719 0.500000 0.610358
O O9 0.753607 0.682603 0.665470
O O10 0.497869 0.720519 0.727285
O O11 0.696687 0.751738 0.530934
O O12 0.955204 0.500000 0.614804
O O13 0.000000 0.274862 0.500000
O O14 0.345167 0.500000 0.838659
O O15 0.230589 0.733684 0.827538
O O16 0.749351 0.793757 0.346553
O O17 0.790393 0.000000 0.215175
O O18 0.500000 0.220394 0.500000
O O19 0.349494 0.000000 0.513726
#
# Coordination Sequence:
#
# PCOD8060859 Si02
#       7
#     4   4   4   4   4   4   4
#     4  10  22  41  63  85 110 143 185 232 283 334
#     4  10  22  39  60  85 111 146 188 231 280 329
#     4  10  21  35  53  81 115 149 186 230 278 330
#     4  10  21  37  57  83 116 151 185 224 276 334
#     4  11  23  37  57  85 113 146 189 231 277 331
#     4  10  21  38  57  81 116 149 184 230 278 331
#     4  10  19  32  53  81 111 148 189 226 271 324
#
# _framework density 19.753385999999999
#
# number of rings (size 3 to 8) (size 9 to 14) (size 15 to 20)
#    0.000    1.857    1.429    2.143    0.000    4.286 
#    0.000    2.857    0.000    0.000    0.000    0.000 
#    0.000    0.000    0.000    0.000    0.000    0.000 
#
# Total GULP energy -347327.404992 kJ/mol
# GULP energy per Si atom -12404.550178 kJ/mol
# Density = 1.970843 g / cm^3
# Si number density = 19.753386 Si / 1000 Ang^3
#
#
#
# Elastic Constant Matrix: (Units=GPa)
#
#
# Indices 1 2 3 4 5 6 
#
# 1 107.0925 43.8879 55.6209 0.0000 -3.0522 0.0000
# 2 43.8879 75.4143 57.2403 0.0000 15.4894 0.0000
# 3 55.6209 57.2403 103.3909 0.0000 6.7997 0.0000
# 4 0.0000 0.0000 0.0000 20.1779 0.0000 -7.2666
# 5 -3.0522 15.4894 6.7997 0.0000 36.7518 0.0000
# 6 0.0000 0.0000 0.0000 -7.2666 0.0000 9.8992
#
#
#
# Elastic Compliance Matrix: (Units=1/GPa)
#
#
# Indices 1 2 3 4 5 6 
#
# 1 0.014266 -0.005451 -0.004946 0.000000 0.004397 0.000000
# 2 -0.005451 0.027122 -0.011441 0.000000 -0.009767 0.000000
# 3 -0.004946 -0.011441 0.018603 0.000000 0.000969 0.000000
# 4 0.000000 0.000000 0.000000 0.067369 0.000000 0.049453
# 5 0.004397 -0.009767 0.000969 0.000000 0.031512 0.000000
# 6 0.000000 0.000000 0.000000 0.049453 0.000000 0.137321
#
#
# Mechanical properties :
#
#
# Convention : Reuss Voigt Hill
#
# Bulk Modulus (GPa) = 61.29212 66.59953 63.94582
# Shear Modulus (GPa) = 14.47993 21.97568 18.22780
#
# Velocity S-wave (km/s) = 2.71040 3.33904 3.04101
# Velocity P-wave (km/s) = 6.39461 6.97526 6.69124
#
# Compressibility (1/GPa) = 0.01631531
#
# Stress axis : x y z
#
# Youngs Moduli (GPa) = 70.09803 36.87020 53.75549
#
# Poissons Ratio (x) = 0.20100 0.26585
# Poissons Ratio (y) = 0.38213 0.61500
# Poissons Ratio (z) = 0.34668 0.42182
#
# Static dielectric constant tensor:
#      x y z
#    x 3.743650 0.000000 -0.187670 
#    y 0.000000 3.472330 0.000000 
#    z -0.187670 0.000000 3.491540 
# 
# 
# High freq. dielectric constant tensor:
#      x y z
#    x 1.782950 0.000000 -0.006420 
#    y 0.000000 1.760880 0.000000 
#    z -0.006420 0.000000 1.766300 
# 
# From -- ./inp_files/49562.got.cif
#   From: 2010.06.25/outbox.cif.g09.slc.cpg/sg10_25_cif.got.tgz:49562.got - 2010.06.27 22:07:45.
