data_PCOD8060611
_publ_section_title
;
Structure prediction by ZEFSAII (Michael W. Deem and Ramdas Pophale) SiO2 
 PCOD8060611
Probable space group: P 2/M
;
_chemical_formula_sum "Si O2"
_cell_formula_units_Z 32
_cell_length_a 12.479043
_cell_length_b 13.960372
_cell_length_c 14.202187
_cell_angle_alpha 90.000000
_cell_angle_beta 141.147230
_cell_angle_gamma 90.000000
_cell_volume 1552.113760
_symmetry_space_group_name_H-M "P 2/M"
_symmetry_group_IT_number 10
_symmetry_cell_setting 'monoclinic'
loop_
_space_group_symop_operation_xyz
x,y,z
-x,y,-z
-x,-y,-z
x,-y,z
loop_
_atom_site_type_symbol
_atom_site_label
_atom_site_fract_x
_atom_site_fract_y
_atom_site_fract_z
Si Si1 0.901508 0.108964 0.834259
Si Si2 0.312288 0.810849 0.854155
Si Si3 0.684209 0.260729 0.765904
Si Si4 0.167283 0.247870 0.938640
Si Si5 0.819317 0.279157 0.420574
Si Si6 0.026478 0.101080 0.407706
Si Si7 0.638667 0.391047 0.451189
Si Si8 0.901567 0.392886 0.800994
O O1 0.721397 0.166309 0.725973
O O2 0.020668 0.163168 0.838371
O O3 0.865087 0.000000 0.775720
O O4 0.000000 0.110687 0.000000
O O5 0.273754 0.741475 0.915712
O O6 0.303202 0.755463 0.748255
O O7 0.165343 0.890795 0.764284
O O8 0.500000 0.855880 0.000000
O O9 0.504943 0.312072 0.623680
O O10 0.835987 0.335259 0.847080
O O11 0.698228 0.230984 0.884794
O O12 0.079321 0.350587 0.887262
O O13 0.851431 0.194032 0.521679
O O14 0.731873 0.365924 0.416366
O O15 0.000000 0.313073 0.500000
O O16 0.000000 0.096514 0.500000
O O17 0.107294 0.000000 0.426088
O O18 0.565022 0.500000 0.391793
O O19 0.766290 0.385935 0.624605
O O20 0.933965 0.500000 0.856004
#
# Coordination Sequence:
#
# PCOD8060611 Si02
#       8
#     4   4   4   4   4   4   4   4
#     4   8  16  33  55  78 106 140 176 212 256 316
#     4  10  19  32  51  76 109 144 181 222 263 308
#     4  10  20  34  55  81 111 139 167 218 277 323
#     4  10  20  34  54  79 107 143 181 215 261 320
#     4   9  19  36  55  73 105 147 184 224 265 313
#     4   8  16  32  52  72  98 136 177 217 262 307
#     4  11  22  36  56  81 107 138 179 226 276 323
#     4  10  20  35  56  79 102 134 177 222 271 330
#
# _framework density 20.617042999999999
#
# number of rings (size 3 to 8) (size 9 to 14) (size 15 to 20)
#    0.000    2.750    0.000    4.125    0.000    3.500 
#    0.000    1.250    0.000   16.500    0.000    0.000 
#    0.000    0.000    0.000    0.000    0.000    0.000 
#
# Total GULP energy -396440.409855 kJ/mol
# GULP energy per Si atom -12388.762808 kJ/mol
# Density = 2.057012 g / cm^3
# Si number density = 20.617043 Si / 1000 Ang^3
#
#
#
# Elastic Constant Matrix: (Units=GPa)
#
#
# Indices 1 2 3 4 5 6 
#
# 1 70.5683 22.4549 17.4959 0.0000 1.0786 0.0000
# 2 22.4549 104.2590 9.4317 0.0000 -2.2388 0.0000
# 3 17.4959 9.4317 72.5932 0.0000 -0.7664 0.0000
# 4 0.0000 0.0000 0.0000 32.3281 0.0000 -8.7492
# 5 1.0786 -2.2388 -0.7664 0.0000 16.7226 0.0000
# 6 0.0000 0.0000 0.0000 -8.7492 0.0000 46.2860
#
#
#
# Elastic Compliance Matrix: (Units=1/GPa)
#
#
# Indices 1 2 3 4 5 6 
#
# 1 0.016070 -0.003181 -0.003477 0.000000 -0.001622 0.000000
# 2 -0.003181 0.010361 -0.000563 0.000000 0.001567 0.000000
# 3 -0.003477 -0.000563 0.014695 0.000000 0.000822 0.000000
# 4 0.000000 0.000000 0.000000 0.032601 0.000000 0.006162
# 5 -0.001622 0.001567 0.000822 0.000000 0.060151 0.000000
# 6 0.000000 0.000000 0.000000 0.006162 0.000000 0.022770
#
#
# Mechanical properties :
#
#
# Convention : Reuss Voigt Hill
#
# Bulk Modulus (GPa) = 37.47554 38.46505 37.97030
# Shear Modulus (GPa) = 27.78013 32.26986 30.02500
#
# Velocity S-wave (km/s) = 3.67473 3.96056 3.82032
# Velocity P-wave (km/s) = 6.01841 6.29381 6.15765
#
# Compressibility (1/GPa) = 0.02668407
#
# Stress axis : x y z
#
# Youngs Moduli (GPa) = 62.22865 96.51350 68.04958
#
# Poissons Ratio (x) = 0.30704 0.23660
# Poissons Ratio (y) = 0.19797 0.03831
# Poissons Ratio (z) = 0.21636 0.05433
#
# Static dielectric constant tensor:
#      x y z
#    x 3.701440 0.000000 -0.239470 
#    y 0.000000 4.543370 0.000000 
#    z -0.239470 0.000000 3.813010 
# 
# 
# High freq. dielectric constant tensor:
#      x y z
#    x 1.797530 0.000000 -0.015560 
#    y 0.000000 1.791660 0.000000 
#    z -0.015560 0.000000 1.799780 
# 
# From -- ./inp_files/65124.got.cif
#   From: 2010.06.25/outbox.cif.g09.slc.cpg/sg10_33_cif.got.tgz:65124.got - 2010.06.27 22:07:45.
