data_PCOD8060984
_publ_section_title
;
Structure prediction by ZEFSAII (Michael W. Deem and Ramdas Pophale) SiO2 
 PCOD8060984
Probable space group: P 2/M
;
_chemical_formula_sum "Si O2"
_cell_formula_units_Z 32
_cell_length_a 12.275521
_cell_length_b 8.823636
_cell_length_c 20.785142
_cell_angle_alpha 90.000000
_cell_angle_beta 51.468254
_cell_angle_gamma 90.000000
_cell_volume 1761.137921
_symmetry_space_group_name_H-M "P 2/M"
_symmetry_group_IT_number 10
_symmetry_cell_setting 'monoclinic'
loop_
_space_group_symop_operation_xyz
x,y,z
-x,y,-z
-x,-y,-z
x,-y,z
loop_
_atom_site_type_symbol
_atom_site_label
_atom_site_fract_x
_atom_site_fract_y
_atom_site_fract_z
Si Si1 0.938048 0.179382 0.707201
Si Si2 0.653719 0.177936 0.759867
Si Si3 0.358687 0.672762 0.368829
Si Si4 0.329453 0.322523 0.743931
Si Si5 0.921287 0.325091 0.464898
Si Si6 0.090327 0.321936 0.029103
Si Si7 0.065637 0.179820 0.793640
Si Si8 0.655346 0.819974 0.123615
O O1 0.779471 0.242746 0.757565
O O2 0.034191 0.232532 0.613506
O O3 0.997977 0.239299 0.752409
O O4 0.939975 0.000000 0.705999
O O5 0.681076 0.225049 0.676769
O O6 0.500967 0.230810 0.840107
O O7 0.660605 0.000000 0.759421
O O8 0.354617 0.500000 0.345775
O O9 0.513292 0.711096 0.338129
O O10 0.245059 0.699975 0.466212
O O11 0.293192 0.500000 0.756673
O O12 0.226242 0.233395 0.734388
O O13 0.305593 0.261716 0.824473
O O14 0.959253 0.500000 0.439535
O O15 0.000000 0.266280 0.500000
O O16 0.114613 0.500000 0.026647
O O17 0.014293 0.260073 0.119382
O O18 0.239364 0.238176 0.969562
O O19 0.000000 0.280069 0.000000
O O20 0.056035 0.000000 0.804920
O O21 0.666968 0.000000 0.128555
#
# Coordination Sequence:
#
# PCOD8060984 Si02
#       8
#     4   4   4   4   4   4   4   4
#     4  10  22  38  55  79 111 146 181 220 268 320
#     4   9  18  33  53  79 109 140 176 216 266 318
#     4   9  18  32  52  80 110 138 175 222 269 315
#     4  10  19  33  53  78 109 142 176 220 270 317
#     4  10  19  33  55  83 110 140 182 225 265 316
#     4  11  22  36  56  82 109 139 179 223 266 317
#     4  11  23  38  56  78 108 145 183 221 266 321
#     4  10  19  32  55  83 108 137 174 220 267 315
#
# _framework density 18.170071
#
# number of rings (size 3 to 8) (size 9 to 14) (size 15 to 20)
#    0.000    2.000    2.500    1.500    0.000    3.250 
#    0.000    1.250    0.000    7.500    0.000    0.000 
#    0.000    0.000    0.000    0.000    0.000    0.000 
#
# Total GULP energy -396768.103832 kJ/mol
# GULP energy per Si atom -12399.003245 kJ/mol
# Density = 1.812871 g / cm^3
# Si number density = 18.170071 Si / 1000 Ang^3
#
#
#
# Elastic Constant Matrix: (Units=GPa)
#
#
# Indices 1 2 3 4 5 6 
#
# 1 142.6237 24.5741 67.3429 0.0000 -9.6235 0.0000
# 2 24.5741 20.6802 20.5998 0.0000 -2.6446 0.0000
# 3 67.3429 20.5998 102.7101 0.0000 -9.4241 0.0000
# 4 0.0000 0.0000 0.0000 21.9878 0.0000 -13.6772
# 5 -9.6235 -2.6446 -9.4241 0.0000 30.7100 0.0000
# 6 0.0000 0.0000 0.0000 -13.6772 0.0000 6.7470
#
#
#
# Elastic Compliance Matrix: (Units=1/GPa)
#
#
# Indices 1 2 3 4 5 6 
#
# 1 0.011016 -0.007318 -0.005655 0.000000 0.001086 0.000000
# 2 -0.007318 0.065359 -0.008236 0.000000 0.000808 0.000000
# 3 -0.005655 -0.008236 0.015299 0.000000 0.002213 0.000000
# 4 0.000000 0.000000 0.000000 -0.174286 0.000000 -0.353301
# 5 0.001086 0.000808 0.002213 0.000000 0.033652 0.000000
# 6 0.000000 0.000000 0.000000 -0.353301 0.000000 -0.567977
#
#
# Mechanical properties :
#
#
# Convention : Reuss Voigt Hill
#
# Bulk Modulus (GPa) = 20.30257 54.56084 37.43171
# Shear Modulus (GPa) = -8.95898 22.12210 6.58156
#
# Velocity S-wave (km/s) = -2.22291 3.49306 1.90527
# Velocity P-wave (km/s) = 2.14696 6.80894 5.04832
#
# Compressibility (1/GPa) = 0.04925484
#
# Stress axis : x y z
#
# Youngs Moduli (GPa) = 90.77772 15.30011 65.36326
#
# Poissons Ratio (x) = 0.11196 0.36965
# Poissons Ratio (y) = 0.66430 0.53836
# Poissons Ratio (z) = 0.51338 0.12602
#
# Static dielectric constant tensor:
#      x y z
#    x 3.845180 0.000000 -0.388400 
#    y 0.000000 3.345920 0.000000 
#    z -0.388400 0.000000 3.340190 
# 
# 
# High freq. dielectric constant tensor:
#      x y z
#    x 1.698890 0.000000 -0.029120 
#    y 0.000000 1.706050 0.000000 
#    z -0.029120 0.000000 1.696220 
# 
# From -- ./inp_files/49870.got.cif
#   From: 2010.06.25/outbox.cif.g09.slc.cpg/sg10_25_cif.got.tgz:49870.got - 2010.06.27 22:07:45.
