data_PCOD8060946
_publ_section_title
;
Structure prediction by ZEFSAII (Michael W. Deem and Ramdas Pophale) SiO2 
 PCOD8060946
Probable space group: P 2/M
;
_chemical_formula_sum "Si O2"
_cell_formula_units_Z 28
_cell_length_a 10.310760
_cell_length_b 9.003233
_cell_length_c 30.035515
_cell_angle_alpha 90.000000
_cell_angle_beta 146.717817
_cell_angle_gamma 90.000000
_cell_volume 1530.061829
_symmetry_space_group_name_H-M "P 2/M"
_symmetry_group_IT_number 10
_symmetry_cell_setting 'monoclinic'
loop_
_space_group_symop_operation_xyz
x,y,z
-x,y,-z
-x,-y,-z
x,-y,z
loop_
_atom_site_type_symbol
_atom_site_label
_atom_site_fract_x
_atom_site_fract_y
_atom_site_fract_z
Si Si1 0.592009 0.671907 0.238694
Si Si2 0.681442 0.175522 0.171974
Si Si3 0.141447 0.671098 0.163546
Si Si4 0.087100 0.326657 0.587049
Si Si5 0.385090 0.328416 0.012979
Si Si6 0.848209 0.172952 0.739492
Si Si7 0.674757 0.174911 0.427165
O O1 0.567141 0.500000 0.218105
O O2 0.636500 0.767668 0.208241
O O3 0.351298 0.730614 0.192439
O O4 0.812245 0.697577 0.334868
O O5 0.481588 0.235271 0.081721
O O6 0.939001 0.232899 0.230072
O O7 0.667516 0.000000 0.168258
O O8 0.187751 0.500000 0.188052
O O9 0.139742 0.753644 0.209348
O O10 0.895404 0.695754 0.067659
O O11 0.079420 0.500000 0.572264
O O12 0.253989 0.242076 0.600039
O O13 0.824397 0.255930 0.508995
O O14 0.453860 0.500000 0.039607
O O15 0.500000 0.269757 0.000000
O O16 0.601498 0.208265 0.643900
O O17 0.877005 0.000000 0.756512
O O18 0.729293 0.000000 0.443060
#
# Coordination Sequence:
#
# PCOD8060946 Si02
#       7
#     4   4   4   4   4   4   4
#     4  10  22  39  57  81 114 149 186 228 278 332
#     4  11  24  39  57  81 114 152 187 228 280 332
#     4  10  20  36  60  85 109 144 187 232 277 328
#     4  10  19  33  55  83 113 143 182 230 276 323
#     4  10  20  36  60  86 111 143 186 231 281 332
#     4  10  21  36  55  83 113 146 187 229 274 330
#     4  10  19  32  54  83 113 144 182 226 276 329
#
# _framework density 18.299914000000001
#
# number of rings (size 3 to 8) (size 9 to 14) (size 15 to 20)
#    0.000    1.857    2.857    2.143    0.000    4.286 
#    0.000    3.571    0.000    4.286    0.000    0.000 
#    0.000    0.000    0.000    0.000    0.000    0.000 
#
# Total GULP energy -347247.608626 kJ/mol
# GULP energy per Si atom -12401.700308 kJ/mol
# Density = 1.825826 g / cm^3
# Si number density = 18.299914 Si / 1000 Ang^3
#
#
#
# Elastic Constant Matrix: (Units=GPa)
#
#
# Indices 1 2 3 4 5 6 
#
# 1 122.8112 39.8651 65.0870 0.0000 2.4830 0.0000
# 2 39.8651 64.3135 46.9645 0.0000 0.0144 0.0000
# 3 65.0870 46.9645 110.1807 0.0000 -0.4942 0.0000
# 4 0.0000 0.0000 0.0000 27.9070 0.0000 -1.5304
# 5 2.4830 0.0144 -0.4942 0.0000 29.7929 0.0000
# 6 0.0000 0.0000 0.0000 -1.5304 0.0000 27.4464
#
#
#
# Elastic Compliance Matrix: (Units=1/GPa)
#
#
# Indices 1 2 3 4 5 6 
#
# 1 0.012377 -0.003381 -0.005875 0.000000 -0.001127 0.000000
# 2 -0.003381 0.023501 -0.008019 0.000000 0.000137 0.000000
# 3 -0.005875 -0.008019 0.015968 0.000000 0.000758 0.000000
# 4 0.000000 0.000000 0.000000 0.035943 0.000000 0.002004
# 5 -0.001127 0.000137 0.000758 0.000000 0.033672 0.000000
# 6 0.000000 0.000000 0.000000 0.002004 0.000000 0.036546
#
#
# Mechanical properties :
#
#
# Convention : Reuss Voigt Hill
#
# Bulk Modulus (GPa) = 57.82179 66.79319 62.30749
# Shear Modulus (GPa) = 25.21152 26.72182 25.96667
#
# Velocity S-wave (km/s) = 3.71574 3.82542 3.77098
# Velocity P-wave (km/s) = 7.07632 7.48934 7.28576
#
# Compressibility (1/GPa) = 0.01729452
#
# Stress axis : x y z
#
# Youngs Moduli (GPa) = 80.79794 42.55209 62.62489
#
# Poissons Ratio (x) = 0.14388 0.36792
# Poissons Ratio (y) = 0.27320 0.50220
# Poissons Ratio (z) = 0.47469 0.34123
#
# Static dielectric constant tensor:
#      x y z
#    x 3.373970 0.000000 0.371260 
#    y 0.000000 3.418730 0.000000 
#    z 0.371260 0.000000 3.840250 
# 
# 
# High freq. dielectric constant tensor:
#      x y z
#    x 1.693650 0.000000 0.011920 
#    y 0.000000 1.711960 0.000000 
#    z 0.011920 0.000000 1.724110 
# 
# From -- ./inp_files/92102.got.cif
#   From: 2010.06.25/outbox.cif.g09.slc.cpg/sg10_47_cif.got.tgz:92102.got - 2010.06.27 22:07:45.
