data_PCOD8060700
_publ_section_title
;
Structure prediction by ZEFSAII (Michael W. Deem and Ramdas Pophale) SiO2 
 PCOD8060700
Probable space group: P 2/M
;
_chemical_formula_sum "Si O2"
_cell_formula_units_Z 28
_cell_length_a 19.119421
_cell_length_b 14.159344
_cell_length_c 8.715053
_cell_angle_alpha 90.000000
_cell_angle_beta 137.629479
_cell_angle_gamma 90.000000
_cell_volume 1590.002354
_symmetry_space_group_name_H-M "P 2/M"
_symmetry_group_IT_number 10
_symmetry_cell_setting 'monoclinic'
loop_
_space_group_symop_operation_xyz
x,y,z
-x,y,-z
-x,-y,-z
x,-y,z
loop_
_atom_site_type_symbol
_atom_site_label
_atom_site_fract_x
_atom_site_fract_y
_atom_site_fract_z
Si Si1 0.890074 0.271803 0.882204
Si Si2 0.137072 0.893422 0.399369
Si Si3 0.057265 0.169391 0.741658
Si Si4 0.747160 0.105755 0.109403
Si Si5 0.393533 0.268339 0.239999
Si Si6 0.290417 0.393149 0.320123
Si Si7 0.504863 0.393612 0.838888
O O1 0.854821 0.179013 0.729268
O O2 0.804226 0.353500 0.730250
O O3 0.899792 0.251248 0.079096
O O4 0.000000 0.311082 0.000000
O O5 0.220640 0.864339 0.665151
O O6 0.022354 0.893364 0.287826
O O7 0.158132 0.000000 0.373398
O O8 0.152426 0.105983 0.837965
O O9 0.000000 0.214882 0.500000
O O10 0.702243 0.000000 0.037342
O O11 0.657017 0.171873 0.899216
O O12 0.500000 0.243616 0.500000
O O13 0.311687 0.325662 0.210090
O O14 0.415734 0.332624 0.129892
O O15 0.265537 0.500000 0.224922
O O16 0.390256 0.392551 0.587497
O O17 0.549186 0.500000 0.914484
O O18 0.500000 0.349435 0.000000
#
# Coordination Sequence:
#
# PCOD8060700 Si02
#       7
#     4   4   4   4   4   4   4
#     4  10  20  33  52  80 107 144 173 211 261 311
#     4   9  19  32  50  77 107 137 176 220 257 299
#     4   9  17  32  52  75 103 137 177 217 255 301
#     4  10  19  32  52  77 106 139 174 213 259 311
#     4  10  20  35  55  78 104 140 173 217 263 307
#     4  10  20  36  55  78 106 137 175 215 264 311
#     4   9  19  35  58  83 101 127 173 224 267 308
#
# _framework density 17.610036999999998
#
# number of rings (size 3 to 8) (size 9 to 14) (size 15 to 20)
#    0.000    2.429    1.429    0.857    2.000    7.143 
#    0.000    0.000    0.000    0.857    0.000    0.000 
#    0.000    0.000    0.000    0.000    0.000    0.000 
#
# Total GULP energy -347110.314952 kJ/mol
# GULP energy per Si atom -12396.796963 kJ/mol
# Density = 1.756996 g / cm^3
# Si number density = 17.610037 Si / 1000 Ang^3
#
#
#
# Elastic Constant Matrix: (Units=GPa)
#
#
# Indices 1 2 3 4 5 6 
#
# 1 87.9165 47.4088 43.9335 0.0000 -2.9578 0.0000
# 2 47.4088 96.8824 51.2453 0.0000 7.5595 0.0000
# 3 43.9335 51.2453 62.2486 0.0000 -6.6542 0.0000
# 4 0.0000 0.0000 0.0000 8.1972 0.0000 -4.0778
# 5 -2.9578 7.5595 -6.6542 0.0000 28.1815 0.0000
# 6 0.0000 0.0000 0.0000 -4.0778 0.0000 19.8154
#
#
#
# Elastic Compliance Matrix: (Units=1/GPa)
#
#
# Indices 1 2 3 4 5 6 
#
# 1 0.018328 -0.003935 -0.009620 0.000000 0.000708 0.000000
# 2 -0.003935 0.021460 -0.015951 0.000000 -0.009936 0.000000
# 3 -0.009620 -0.015951 0.037276 0.000000 0.012071 0.000000
# 4 0.000000 0.000000 0.000000 0.135906 0.000000 0.027968
# 5 0.000708 -0.009936 0.012071 0.000000 0.041074 0.000000
# 6 0.000000 0.000000 0.000000 0.027968 0.000000 0.056221
#
#
# Mechanical properties :
#
#
# Convention : Reuss Voigt Hill
#
# Bulk Modulus (GPa) = 55.39926 59.13583 57.26754
# Shear Modulus (GPa) = 13.32285 18.20282 15.76283
#
# Velocity S-wave (km/s) = 2.75353 3.21855 2.99508
# Velocity P-wave (km/s) = 6.45263 6.88954 6.67466
#
# Compressibility (1/GPa) = 0.01805078
#
# Stress axis : x y z
#
# Youngs Moduli (GPa) = 54.56268 46.59765 26.82682
#
# Poissons Ratio (x) = 0.18338 0.25806
# Poissons Ratio (y) = 0.21473 0.42793
# Poissons Ratio (z) = 0.52487 0.74330
#
# Static dielectric constant tensor:
#      x y z
#    x 3.270060 0.000000 -0.124980 
#    y 0.000000 3.134270 0.000000 
#    z -0.124980 0.000000 3.311320 
# 
# 
# High freq. dielectric constant tensor:
#      x y z
#    x 1.678250 0.000000 -0.008560 
#    y 0.000000 1.662620 0.000000 
#    z -0.008560 0.000000 1.682360 
# 
# From -- ./inp_files/24883.got.cif
#   From: 2010.06.25/outbox.cif.g09.slc.cpg/sg10_13_cif.got.tgz:24883.got - 2010.06.27 22:07:45.
