data_PCOD8060295
_publ_section_title
;
Structure prediction by ZEFSAII (Michael W. Deem and Ramdas Pophale) SiO2 
 PCOD8060295
Probable space group: P 2/M
;
_chemical_formula_sum "Si O2"
_cell_formula_units_Z 32
_cell_length_a 18.589003
_cell_length_b 8.698147
_cell_length_c 18.842201
_cell_angle_alpha 90.000000
_cell_angle_beta 147.538780
_cell_angle_gamma 90.000000
_cell_volume 1635.193858
_symmetry_space_group_name_H-M "P 2/M"
_symmetry_group_IT_number 10
_symmetry_cell_setting 'monoclinic'
loop_
_space_group_symop_operation_xyz
x,y,z
-x,y,-z
-x,-y,-z
x,-y,z
loop_
_atom_site_type_symbol
_atom_site_label
_atom_site_fract_x
_atom_site_fract_y
_atom_site_fract_z
Si Si1 0.659056 0.324040 0.319991
Si Si2 0.146559 0.682601 0.791384
Si Si3 0.637513 0.317959 0.140715
Si Si4 0.170164 0.317633 0.972554
Si Si5 0.126671 0.321272 0.268012
Si Si6 0.404868 0.181183 0.483323
Si Si7 0.447510 0.324121 0.260519
Si Si8 0.880446 0.176533 0.589574
O O1 0.712273 0.500000 0.369503
O O2 0.654124 0.267265 0.235355
O O3 0.515529 0.312002 0.239557
O O4 0.756150 0.200430 0.435244
O O5 0.124364 0.500000 0.769039
O O6 0.249439 0.743800 0.818303
O O7 0.188952 0.734522 0.906337
O O8 0.012866 0.773017 0.658036
O O9 0.632191 0.500000 0.130471
O O10 0.500000 0.243475 0.000000
O O11 0.173895 0.500000 0.977644
O O12 0.023433 0.262546 0.880880
O O13 0.295390 0.255748 0.124403
O O14 0.142254 0.500000 0.263884
O O15 0.253611 0.236295 0.338415
O O16 0.137800 0.293202 0.360673
O O17 0.500000 0.243450 0.500000
O O18 0.463682 0.235741 0.607607
O O19 0.401493 0.000000 0.482854
O O20 0.440739 0.500000 0.280386
O O21 0.885879 0.000000 0.620015
#
# Coordination Sequence:
#
# PCOD8060295 Si02
#       8
#     4   4   4   4   4   4   4   4
#     4  10  19  31  52  80 107 138 182 230 276 324
#     4   9  17  32  53  76 108 144 185 231 275 326
#     4   9  17  30  51  78 105 137 181 234 284 325
#     4   8  16  31  55  85 111 140 182 232 277 319
#     4  10  19  36  61  86 112 143 183 227 273 328
#     4  11  24  40  58  83 116 150 183 221 267 325
#     4  10  19  34  58  85 112 142 183 232 277 328
#     4  11  21  33  51  75 107 144 184 228 275 327
#
# _framework density 19.569544
#
# number of rings (size 3 to 8) (size 9 to 14) (size 15 to 20)
#    0.000    2.250    1.250    3.375    0.000    4.500 
#    0.000    6.875    0.000    8.250    0.000    0.000 
#    0.000    0.000    0.000    0.000    0.000    0.000 
#
# Total GULP energy -396556.947726 kJ/mol
# GULP energy per Si atom -12392.404616 kJ/mol
# Density = 1.952500 g / cm^3
# Si number density = 19.569544 Si / 1000 Ang^3
#
#
#
# Elastic Constant Matrix: (Units=GPa)
#
#
# Indices 1 2 3 4 5 6 
#
# 1 99.7223 12.9329 28.0951 0.0000 24.5500 0.0000
# 2 12.9329 37.7146 17.4434 0.0000 7.3488 0.0000
# 3 28.0951 17.4434 101.6741 0.0000 28.2410 0.0000
# 4 0.0000 0.0000 0.0000 5.0683 0.0000 -2.5155
# 5 24.5500 7.3488 28.2410 0.0000 30.7994 0.0000
# 6 0.0000 0.0000 0.0000 -2.5155 0.0000 10.1087
#
#
#
# Elastic Compliance Matrix: (Units=1/GPa)
#
#
# Indices 1 2 3 4 5 6 
#
# 1 0.012723 -0.002322 -0.000610 0.000000 -0.009029 0.000000
# 2 -0.002322 0.029452 -0.003990 0.000000 -0.001518 0.000000
# 3 -0.000610 -0.003990 0.013805 0.000000 -0.011220 0.000000
# 4 0.000000 0.000000 0.000000 0.225108 0.000000 0.056018
# 5 -0.009029 -0.001518 -0.011220 0.000000 0.050316 0.000000
# 6 0.000000 0.000000 0.000000 0.056018 0.000000 0.112865
#
#
# Mechanical properties :
#
#
# Convention : Reuss Voigt Hill
#
# Bulk Modulus (GPa) = 23.73127 39.56153 31.64640
# Shear Modulus (GPa) = 10.58969 21.23792 15.91381
#
# Velocity S-wave (km/s) = 2.32875 3.29789 2.85475
# Velocity P-wave (km/s) = 4.40269 5.89586 5.20312
#
# Compressibility (1/GPa) = 0.04213850
#
# Stress axis : x y z
#
# Youngs Moduli (GPa) = 78.59497 33.95334 72.43862
#
# Poissons Ratio (x) = 0.07883 0.04416
# Poissons Ratio (y) = 0.18248 0.28900
# Poissons Ratio (z) = 0.04791 0.13546
#
# Static dielectric constant tensor:
#      x y z
#    x 3.702290 0.000000 0.356890 
#    y 0.000000 3.189140 0.000000 
#    z 0.356890 0.000000 3.852430 
# 
# 
# High freq. dielectric constant tensor:
#      x y z
#    x 1.756170 0.000000 0.021690 
#    y 0.000000 1.727060 0.000000 
#    z 0.021690 0.000000 1.766390 
# 
# From -- ./inp_files/86168.got.cif
#   From: 2010.06.25/outbox.cif.g09.slc.cpg/sg10_44_cif.got.tgz:86168.got - 2010.06.27 22:07:45.
