data_PCOD8060652
_publ_section_title
;
Structure prediction by ZEFSAII (Michael W. Deem and Ramdas Pophale) SiO2 
 PCOD8060652
Probable space group: P 2/M
;
_chemical_formula_sum "Si O2"
_cell_formula_units_Z 24
_cell_length_a 16.464053
_cell_length_b 9.054915
_cell_length_c 23.320283
_cell_angle_alpha 90.000000
_cell_angle_beta 157.028699
_cell_angle_gamma 90.000000
_cell_volume 1356.813402
_symmetry_space_group_name_H-M "P 2/M"
_symmetry_group_IT_number 10
_symmetry_cell_setting 'monoclinic'
loop_
_space_group_symop_operation_xyz
x,y,z
-x,y,-z
-x,-y,-z
x,-y,z
loop_
_atom_site_type_symbol
_atom_site_label
_atom_site_fract_x
_atom_site_fract_y
_atom_site_fract_z
Si Si1 0.786765 0.172420 0.836996
Si Si2 0.775309 0.172698 0.335382
Si Si3 0.398285 0.170219 0.168254
Si Si4 0.501856 0.673576 0.066606
Si Si5 0.125249 0.673537 0.901919
Si Si6 0.720317 0.824617 0.667219
O O1 0.604320 0.202522 0.765134
O O2 0.729387 0.239654 0.738043
O O3 0.820942 0.000000 0.849249
O O4 0.000000 0.242565 0.000000
O O5 0.625171 0.208265 0.291424
O O6 0.692275 0.250681 0.224043
O O7 0.000000 0.235459 0.500000
O O8 0.788140 0.000000 0.330074
O O9 0.339018 0.000000 0.117280
O O10 0.222737 0.269661 0.024669
O O11 0.541416 0.500000 0.095601
O O12 0.500000 0.730294 0.000000
O O13 0.280569 0.716770 0.950981
O O14 0.090912 0.500000 0.883206
O O15 0.903470 0.752259 0.748153
O O16 0.500000 0.771362 0.500000
O O17 0.743725 0.000000 0.678604
#
# Coordination Sequence:
#
# PCOD8060652 Si02
#       6
#     4   4   4   4   4   4
#     4   9  15  27  50  72  91 123 164 197 229 282
#     4   9  18  32  50  77 107 129 157 207 262 299
#     4   9  16  30  52  71  95 131 166 197 239 294
#     4   9  19  36  55  73  96 134 177 208 243 302
#     4  10  19  32  52  74  98 127 164 207 250 288
#     4  10  20  34  50  72 100 131 166 199 239 295
#
# _framework density 17.688504999999999
#
# number of rings (size 3 to 8) (size 9 to 14) (size 15 to 20)
#    0.000    2.667    1.667    0.500    0.000    1.667 
#    3.000    1.667    0.000    0.000    0.000    0.000 
#    0.000    0.000    0.000    0.000    0.000    0.000 
#
# Total GULP energy -297537.518353 kJ/mol
# GULP energy per Si atom -12397.396598 kJ/mol
# Density = 1.764825 g / cm^3
# Si number density = 17.688505 Si / 1000 Ang^3
#
#
#
# Elastic Constant Matrix: (Units=GPa)
#
#
# Indices 1 2 3 4 5 6 
#
# 1 122.9523 28.3179 77.7176 0.0000 -7.5559 0.0000
# 2 28.3179 35.6088 39.3431 0.0000 2.7512 0.0000
# 3 77.7176 39.3431 157.1776 0.0000 5.5347 0.0000
# 4 0.0000 0.0000 0.0000 17.8376 0.0000 2.6991
# 5 -7.5559 2.7512 5.5347 0.0000 28.2876 0.0000
# 6 0.0000 0.0000 0.0000 2.6991 0.0000 21.6277
#
#
#
# Elastic Compliance Matrix: (Units=1/GPa)
#
#
# Indices 1 2 3 4 5 6 
#
# 1 0.012930 -0.004713 -0.005389 0.000000 0.004966 0.000000
# 2 -0.004713 0.040637 -0.007711 0.000000 -0.003702 0.000000
# 3 -0.005389 -0.007711 0.011057 0.000000 -0.002853 0.000000
# 4 0.000000 0.000000 0.000000 0.057140 0.000000 -0.007131
# 5 0.004966 -0.003702 -0.002853 0.000000 0.037596 0.000000
# 6 0.000000 0.000000 0.000000 -0.007131 0.000000 0.047127
#
#
# Mechanical properties :
#
#
# Convention : Reuss Voigt Hill
#
# Bulk Modulus (GPa) = 34.48385 67.38844 50.93614
# Shear Modulus (GPa) = 19.85877 24.90793 22.38335
#
# Velocity S-wave (km/s) = 3.35430 3.75659 3.56113
# Velocity P-wave (km/s) = 5.87700 7.54957 6.76517
#
# Compressibility (1/GPa) = 0.02899908
#
# Stress axis : x y z
#
# Youngs Moduli (GPa) = 77.34007 24.60841 90.43804
#
# Poissons Ratio (x) = 0.11597 0.48733
# Poissons Ratio (y) = 0.36447 0.69739
# Poissons Ratio (z) = 0.41675 0.18976
#
# Static dielectric constant tensor:
#      x y z
#    x 3.484740 0.000000 0.056220 
#    y 0.000000 3.043810 0.000000 
#    z 0.056220 0.000000 3.278680 
# 
# 
# High freq. dielectric constant tensor:
#      x y z
#    x 1.692400 0.000000 0.008490 
#    y 0.000000 1.659150 0.000000 
#    z 0.008490 0.000000 1.670750 
# 
# From -- ./inp_files/55048.got.cif
#   From: 2010.06.25/outbox.cif.g09.slc.cpg/sg10_28_cif.got.tgz:55048.got - 2010.06.27 22:07:45.
