data_PCOD8060821
_publ_section_title
;
Structure prediction by ZEFSAII (Michael W. Deem and Ramdas Pophale) SiO2 
 PCOD8060821
Probable space group: P 2/M
;
_chemical_formula_sum "Si O2"
_cell_formula_units_Z 26
_cell_length_a 13.833240
_cell_length_b 9.374402
_cell_length_c 19.689266
_cell_angle_alpha 90.000000
_cell_angle_beta 32.808489
_cell_angle_gamma 90.000000
_cell_volume 1383.446146
_symmetry_space_group_name_H-M "P 2/M"
_symmetry_group_IT_number 10
_symmetry_cell_setting 'monoclinic'
loop_
_space_group_symop_operation_xyz
x,y,z
-x,y,-z
-x,-y,-z
x,-y,z
loop_
_atom_site_type_symbol
_atom_site_label
_atom_site_fract_x
_atom_site_fract_y
_atom_site_fract_z
Si Si1 0.033756 0.164132 0.104270
Si Si2 0.641936 0.331919 0.151284
Si Si3 0.117994 0.660475 0.686593
Si Si4 0.266699 0.332623 0.326215
Si Si5 0.649943 0.843201 0.274224
Si Si6 0.500000 0.256829 0.500000
Si Si7 0.958996 0.330776 0.416659
O O1 0.997783 0.238252 0.197266
O O2 0.860766 0.176906 0.159636
O O3 0.087620 0.000000 0.084876
O O4 0.189925 0.245602 0.973680
O O5 0.683418 0.500000 0.129526
O O6 0.476306 0.295854 0.198883
O O7 0.587342 0.279312 0.259155
O O8 0.040786 0.500000 0.737017
O O9 0.326481 0.650254 0.583903
O O10 0.090369 0.729479 0.628270
O O11 0.239003 0.500000 0.349431
O O12 0.159334 0.282208 0.322156
O O13 0.179078 0.266941 0.446441
O O14 0.546647 0.837839 0.406824
O O15 0.613486 0.000000 0.264540
O O16 0.943205 0.500000 0.421473
#
# Coordination Sequence:
#
# PCOD8060821 Si02
#       7
#     4   4   4   4   4   2   4
#     4  10  22  38  52  69 100 141 176 205 247 308
#     4  11  21  33  53  79 102 128 169 219 260 291
#     4  10  19  32  53  79 105 133 167 212 257 294
#     4   8  15  28  48  76 105 130 161 203 251 305
#     4  10  21  36  53  73 102 140 174 202 243 305
#     4  10  20  32  52  82 110 132 164 206 250 300
#     4   8  14  28  50  75 104 134 161 197 252 307
#
# _framework density 18.793647
#
# number of rings (size 3 to 8) (size 9 to 14) (size 15 to 20)
#    0.000    2.462    0.000    3.692    0.000    7.385 
#    0.000    0.769    0.000    6.462    0.000    6.462 
#    0.000    0.000    0.000    0.000    0.000    0.000 
#
# Total GULP energy -322226.606597 kJ/mol
# GULP energy per Si atom -12393.331023 kJ/mol
# Density = 1.875087 g / cm^3
# Si number density = 18.793647 Si / 1000 Ang^3
#
#
#
# Elastic Constant Matrix: (Units=GPa)
#
#
# Indices 1 2 3 4 5 6 
#
# 1 102.5745 30.8070 33.2593 0.0000 10.6258 0.0000
# 2 30.8070 84.6805 34.4010 0.0000 -0.1294 0.0000
# 3 33.2593 34.4010 90.2668 0.0000 0.1562 0.0000
# 4 0.0000 0.0000 0.0000 11.9384 0.0000 7.3495
# 5 10.6258 -0.1294 0.1562 0.0000 23.1186 0.0000
# 6 0.0000 0.0000 0.0000 7.3495 0.0000 10.0461
#
#
#
# Elastic Compliance Matrix: (Units=1/GPa)
#
#
# Indices 1 2 3 4 5 6 
#
# 1 0.012368 -0.003148 -0.003347 0.000000 -0.005680 0.000000
# 2 -0.003148 0.014774 -0.004473 0.000000 0.001560 0.000000
# 3 -0.003347 -0.004473 0.014014 0.000000 0.001419 0.000000
# 4 0.000000 0.000000 0.000000 0.152401 0.000000 -0.111494
# 5 -0.005680 0.001560 0.001419 0.000000 0.045865 0.000000
# 6 0.000000 0.000000 0.000000 -0.111494 0.000000 0.181107
#
#
# Mechanical properties :
#
#
# Convention : Reuss Voigt Hill
#
# Bulk Modulus (GPa) = 52.03360 52.71735 52.37547
# Shear Modulus (GPa) = 11.13898 20.95758 16.04828
#
# Velocity S-wave (km/s) = 2.43718 3.34300 2.92536
# Velocity P-wave (km/s) = 5.97216 6.55838 6.27212
#
# Compressibility (1/GPa) = 0.01921835
#
# Stress axis : x y z
#
# Youngs Moduli (GPa) = 80.85126 67.68621 71.35755
#
# Poissons Ratio (x) = 0.21311 0.23887
# Poissons Ratio (y) = 0.25455 0.31919
# Poissons Ratio (z) = 0.27065 0.30277
#
# Static dielectric constant tensor:
#      x y z
#    x 3.732780 0.000000 -0.071620 
#    y 0.000000 3.155730 0.000000 
#    z -0.071620 0.000000 3.427420 
# 
# 
# High freq. dielectric constant tensor:
#      x y z
#    x 1.731620 0.000000 -0.002240 
#    y 0.000000 1.700420 0.000000 
#    z -0.002240 0.000000 1.724840 
# 
# From -- ./inp_files/66785.got.cif
#   From: 2010.06.25/outbox.cif.g09.slc.cpg/sg10_34_cif.got.tgz:66785.got - 2010.06.27 22:07:45.
