data_PCOD8060785
_publ_section_title
;
Structure prediction by ZEFSAII (Michael W. Deem and Ramdas Pophale) SiO2 
 PCOD8060785
Probable space group: P 2/M
;
_chemical_formula_sum "Si O2"
_cell_formula_units_Z 32
_cell_length_a 18.251055
_cell_length_b 8.946758
_cell_length_c 26.494045
_cell_angle_alpha 90.000000
_cell_angle_beta 155.426736
_cell_angle_gamma 90.000000
_cell_volume 1799.058955
_symmetry_space_group_name_H-M "P 2/M"
_symmetry_group_IT_number 10
_symmetry_cell_setting 'monoclinic'
loop_
_space_group_symop_operation_xyz
x,y,z
-x,y,-z
-x,-y,-z
x,-y,z
loop_
_atom_site_type_symbol
_atom_site_label
_atom_site_fract_x
_atom_site_fract_y
_atom_site_fract_z
Si Si1 0.975061 0.670317 0.925611
Si Si2 0.901835 0.167801 0.385663
Si Si3 0.102335 0.175774 0.269251
Si Si4 0.784858 0.823599 0.002639
Si Si5 0.589567 0.676394 0.238302
Si Si6 0.318995 0.172468 0.311062
Si Si7 0.295842 0.827188 0.485185
Si Si8 0.781001 0.675855 0.460694
O O1 0.996945 0.500000 0.920834
O O2 0.778773 0.729194 0.792260
O O3 0.120047 0.771658 0.988779
O O4 0.000000 0.685139 0.000000
O O5 0.720444 0.257954 0.277968
O O6 0.000000 0.166237 0.500000
O O7 0.027096 0.248461 0.423633
O O8 0.860964 0.000000 0.341317
O O9 0.251448 0.231559 0.323212
O O10 0.143156 0.235242 0.351549
O O11 0.120644 0.000000 0.284476
O O12 0.907792 0.221311 0.127721
O O13 0.600606 0.741526 0.892807
O O14 0.753066 0.000000 0.980053
O O15 0.585312 0.500000 0.229679
O O16 0.652861 0.722877 0.334242
O O17 0.526069 0.193978 0.435076
O O18 0.263167 0.000000 0.268716
O O19 0.305873 0.729394 0.541812
O O20 0.267663 0.000000 0.483052
O O21 0.809132 0.500000 0.478854
#
# Coordination Sequence:
#
# PCOD8060785 Si02
#       8
#     4   4   4   4   4   4   4   4
#     4  10  21  34  47  66 100 140 169 205 259 307
#     4   9  17  32  54  78 103 132 169 208 246 297
#     4   8  16  33  53  73  99 131 171 218 262 297
#     4  10  20  34  54  76  98 130 175 216 249 296
#     4  10  20  34  53  77 108 140 166 200 251 308
#     4   9  18  32  51  74  96 129 174 217 256 300
#     4  10  19  32  53  77 101 132 171 215 258 302
#     4  10  21  34  49  75 110 140 165 200 254 308
#
# _framework density 17.787075999999999
#
# number of rings (size 3 to 8) (size 9 to 14) (size 15 to 20)
#    0.000    2.500    0.000    3.000    1.750    6.000 
#    0.000    3.125    0.000    4.500    0.000    5.250 
#    0.000    0.000    0.000    0.000    0.000    0.000 
#
# Total GULP energy -396718.842173 kJ/mol
# GULP energy per Si atom -12397.463818 kJ/mol
# Density = 1.774659 g / cm^3
# Si number density = 17.787076 Si / 1000 Ang^3
#
#
#
# Elastic Constant Matrix: (Units=GPa)
#
#
# Indices 1 2 3 4 5 6 
#
# 1 54.0484 24.7197 38.8483 0.0000 2.0219 0.0000
# 2 24.7197 67.1262 40.0810 0.0000 2.1155 0.0000
# 3 38.8483 40.0810 104.5373 0.0000 7.6833 0.0000
# 4 0.0000 0.0000 0.0000 18.5062 0.0000 6.0089
# 5 2.0219 2.1155 7.6833 0.0000 24.2437 0.0000
# 6 0.0000 0.0000 0.0000 6.0089 0.0000 24.2139
#
#
#
# Elastic Compliance Matrix: (Units=1/GPa)
#
#
# Indices 1 2 3 4 5 6 
#
# 1 0.026506 -0.005019 -0.007981 0.000000 0.000757 0.000000
# 2 -0.005019 0.020282 -0.005950 0.000000 0.000535 0.000000
# 3 -0.007981 -0.005950 0.015078 0.000000 -0.003594 0.000000
# 4 0.000000 0.000000 0.000000 0.058772 0.000000 -0.014585
# 5 0.000757 0.000535 -0.003594 0.000000 0.042277 0.000000
# 6 0.000000 0.000000 0.000000 -0.014585 0.000000 0.044918
#
#
# Mechanical properties :
#
#
# Convention : Reuss Voigt Hill
#
# Bulk Modulus (GPa) = 41.73018 48.11220 44.92119
# Shear Modulus (GPa) = 19.70663 21.53028 20.61846
#
# Velocity S-wave (km/s) = 3.33215 3.48292 3.40837
# Velocity P-wave (km/s) = 6.19001 6.57891 6.38742
#
# Compressibility (1/GPa) = 0.02396347
#
# Stress axis : x y z
#
# Youngs Moduli (GPa) = 37.72732 49.30542 66.32365
#
# Poissons Ratio (x) = 0.24747 0.52936
# Poissons Ratio (y) = 0.18936 0.39465
# Poissons Ratio (z) = 0.30112 0.29338
#
# Static dielectric constant tensor:
#      x y z
#    x 3.200390 0.000000 -0.015300 
#    y 0.000000 3.330650 0.000000 
#    z -0.015300 0.000000 3.405780 
# 
# 
# High freq. dielectric constant tensor:
#      x y z
#    x 1.670930 0.000000 0.005800 
#    y 0.000000 1.685570 0.000000 
#    z 0.005800 0.000000 1.683380 
# 
# From -- ./inp_files/87206.got.cif
#   From: 2010.06.25/outbox.cif.g09.slc.cpg/sg10_44_cif.got.tgz:87206.got - 2010.06.27 22:07:45.
