data_PCOD8060308
_publ_section_title
;
Structure prediction by ZEFSAII (Michael W. Deem and Ramdas Pophale) SiO2 
 PCOD8060308
Probable space group: P 2/M
;
_chemical_formula_sum "Si O2"
_cell_formula_units_Z 32
_cell_length_a 11.034060
_cell_length_b 8.308158
_cell_length_c 22.313655
_cell_angle_alpha 90.000000
_cell_angle_beta 50.476477
_cell_angle_gamma 90.000000
_cell_volume 1577.864903
_symmetry_space_group_name_H-M "P 2/M"
_symmetry_group_IT_number 10
_symmetry_cell_setting 'monoclinic'
loop_
_space_group_symop_operation_xyz
x,y,z
-x,y,-z
-x,-y,-z
x,-y,z
loop_
_atom_site_type_symbol
_atom_site_label
_atom_site_fract_x
_atom_site_fract_y
_atom_site_fract_z
Si Si1 0.034684 0.691713 0.662705
Si Si2 0.245276 0.814757 0.796926
Si Si3 0.339360 0.187108 0.020420
Si Si4 0.892148 0.312232 0.587676
Si Si5 0.561174 0.686869 0.645436
Si Si6 0.821598 0.810767 0.049741
Si Si7 0.952403 0.687840 0.819288
Si Si8 0.645191 0.308281 0.489041
O O1 0.033929 0.500000 0.666693
O O2 0.205882 0.759988 0.592879
O O3 0.929609 0.759348 0.641310
O O4 0.981481 0.759097 0.743605
O O5 0.410486 0.786439 0.712753
O O6 0.265798 0.768219 0.860527
O O7 0.107347 0.711144 0.810668
O O8 0.195843 0.000000 0.806334
O O9 0.195903 0.213874 0.110520
O O10 0.372053 0.000000 0.000569
O O11 0.500000 0.262867 0.000000
O O12 0.282061 0.261912 0.973511
O O13 0.934401 0.500000 0.574096
O O14 0.706680 0.281756 0.643208
O O15 0.000000 0.235524 0.500000
O O16 0.511818 0.500000 0.657584
O O17 0.629689 0.752635 0.561497
O O18 0.835781 0.000000 0.033621
O O19 0.000000 0.740157 0.000000
O O20 0.910214 0.500000 0.831912
O O21 0.500000 0.235221 0.500000
O O22 0.650073 0.500000 0.487428
#
# Coordination Sequence:
#
# PCOD8060308 Si02
#       8
#     4   4   4   4   4   4   4   4
#     4   9  17  29  48  77 111 146 180 221 276 328
#     4  11  22  37  58  80 109 146 186 228 278 334
#     4  10  21  39  63  87 113 149 191 228 269 335
#     4   9  15  28  50  77 106 141 185 226 264 316
#     4  10  19  31  52  82 110 136 179 233 274 317
#     4   9  17  35  61  82 104 144 193 229 266 328
#     4  11  22  36  56  84 117 145 180 232 287 328
#     4   9  15  25  44  71 103 139 178 217 259 313
#
# _framework density 20.280570999999998
#
# number of rings (size 3 to 8) (size 9 to 14) (size 15 to 20)
#    0.000    2.250    2.500    1.500    0.000    3.250 
#    0.000    1.875    0.000    5.250    0.000    0.000 
#    0.000    0.000    0.000    0.000    0.000    0.000 
#
# Total GULP energy -396522.227738 kJ/mol
# GULP energy per Si atom -12391.319617 kJ/mol
# Density = 2.023441 g / cm^3
# Si number density = 20.280571 Si / 1000 Ang^3
#
#
#
# Elastic Constant Matrix: (Units=GPa)
#
#
# Indices 1 2 3 4 5 6 
#
# 1 154.4490 2.4124 60.2014 0.0000 17.8721 0.0000
# 2 2.4124 13.4435 1.1956 0.0000 3.5095 0.0000
# 3 60.2014 1.1956 133.2158 0.0000 12.1023 0.0000
# 4 0.0000 0.0000 0.0000 4.1797 0.0000 -1.8802
# 5 17.8721 3.5095 12.1023 0.0000 39.0168 0.0000
# 6 0.0000 0.0000 0.0000 -1.8802 0.0000 13.1791
#
#
#
# Elastic Compliance Matrix: (Units=1/GPa)
#
#
# Indices 1 2 3 4 5 6 
#
# 1 0.008121 -0.000470 -0.003428 0.000000 -0.002614 0.000000
# 2 -0.000470 0.076202 0.000135 0.000000 -0.006681 0.000000
# 3 -0.003428 0.000135 0.009171 0.000000 -0.001287 0.000000
# 4 0.000000 0.000000 0.000000 0.255659 0.000000 0.036474
# 5 -0.002614 -0.006681 -0.001287 0.000000 0.027828 0.000000
# 6 0.000000 0.000000 0.000000 0.036474 0.000000 0.081081
#
#
# Mechanical properties :
#
#
# Convention : Reuss Voigt Hill
#
# Bulk Modulus (GPa) = 11.63215 47.63635 29.63425
# Shear Modulus (GPa) = 10.11647 27.09503 18.60575
#
# Velocity S-wave (km/s) = 2.23586 3.65911 3.03218
# Velocity P-wave (km/s) = 3.52328 6.43364 5.18678
#
# Compressibility (1/GPa) = 0.08596861
#
# Stress axis : x y z
#
# Youngs Moduli (GPa) = 123.14238 13.12307 109.03358
#
# Poissons Ratio (x) = 0.00617 0.37378
# Poissons Ratio (y) = 0.05787 -0.01476
# Poissons Ratio (z) = 0.42214 -0.00178
#
# Static dielectric constant tensor:
#      x y z
#    x 4.099060 0.000000 0.203070 
#    y 0.000000 3.050490 0.000000 
#    z 0.203070 0.000000 3.817980 
# 
# 
# High freq. dielectric constant tensor:
#      x y z
#    x 1.806790 0.000000 0.007230 
#    y 0.000000 1.731190 0.000000 
#    z 0.007230 0.000000 1.800430 
# 
# From -- ./inp_files/83595.got.cif
#   From: 2010.06.25/outbox.cif.g09.slc.cpg/sg10_42_cif.got.tgz:83595.got - 2010.06.27 22:07:45.
