data_PCOD8060531
_publ_section_title
;
Structure prediction by ZEFSAII (Michael W. Deem and Ramdas Pophale) SiO2 
 PCOD8060531
Probable space group: P 2/M
;
_chemical_formula_sum "Si O2"
_cell_formula_units_Z 32
_cell_length_a 10.780895
_cell_length_b 9.532099
_cell_length_c 28.240428
_cell_angle_alpha 90.000000
_cell_angle_beta 147.811707
_cell_angle_gamma 90.000000
_cell_volume 1545.966489
_symmetry_space_group_name_H-M "P 2/M"
_symmetry_group_IT_number 10
_symmetry_cell_setting 'monoclinic'
loop_
_space_group_symop_operation_xyz
x,y,z
-x,y,-z
-x,-y,-z
x,-y,z
loop_
_atom_site_type_symbol
_atom_site_label
_atom_site_fract_x
_atom_site_fract_y
_atom_site_fract_z
Si Si1 0.217195 0.342274 0.100552
Si Si2 0.271393 0.158013 0.957168
Si Si3 0.974207 0.333341 0.717061
Si Si4 0.238151 0.163110 0.432015
Si Si5 0.837563 0.159757 0.756368
Si Si6 0.535009 0.840641 0.745209
Si Si7 0.501435 0.655858 0.104031
Si Si8 0.970464 0.164951 0.437646
O O1 0.157965 0.500000 0.099071
O O2 0.275172 0.246959 0.164202
O O3 0.446207 0.342486 0.141815
O O4 0.000000 0.282908 0.000000
O O5 0.053916 0.215472 0.857385
O O6 0.220180 0.000000 0.957241
O O7 0.500000 0.169383 0.000000
O O8 0.309977 0.249554 0.016253
O O9 0.933488 0.500000 0.701267
O O10 0.929149 0.264210 0.651723
O O11 0.803688 0.261612 0.700463
O O12 0.234992 0.291833 0.817063
O O13 0.500000 0.197608 0.500000
O O14 0.184383 0.197980 0.470348
O O15 0.180068 0.000000 0.403206
O O16 0.604625 0.166401 0.712307
O O17 0.882375 0.000000 0.753061
O O18 0.272627 0.779478 0.663798
O O19 0.548344 0.000000 0.768363
O O20 0.477030 0.500000 0.074969
O O21 0.000000 0.232185 0.500000
O O22 0.941264 0.000000 0.434932
#
# Coordination Sequence:
#
# PCOD8060531 Si02
#       8
#     4   4   4   4   4   4   4   4
#     4  10  21  37  56  79 112 153 193 236 285 341
#     4  10  19  32  50  77 111 147 187 239 288 327
#     4  11  23  37  56  83 116 152 189 234 286 337
#     4  10  22  39  64  92 115 147 188 231 285 346
#     4  10  21  36  55  82 115 151 195 239 285 339
#     4  10  21  36  59  86 114 150 192 242 290 339
#     4  10  21  35  53  78 109 150 193 230 279 342
#     4   9  19  37  62  92 121 149 187 236 291 348
#
# _framework density 20.699024000000001
#
# number of rings (size 3 to 8) (size 9 to 14) (size 15 to 20)
#    0.000    2.000    1.250    1.875    1.750    2.750 
#    0.000    0.000    0.000    0.750    0.000    0.000 
#    0.000    0.000    0.000    0.000    0.000    0.000 
#
# Total GULP energy -396733.975128 kJ/mol
# GULP energy per Si atom -12397.936723 kJ/mol
# Density = 2.065191 g / cm^3
# Si number density = 20.699024 Si / 1000 Ang^3
#
#
#
# Elastic Constant Matrix: (Units=GPa)
#
#
# Indices 1 2 3 4 5 6 
#
# 1 109.4244 31.6376 38.7678 0.0000 -3.5911 0.0000
# 2 31.6376 70.0789 39.2210 0.0000 -15.3130 0.0000
# 3 38.7678 39.2210 83.9957 0.0000 -8.3946 0.0000
# 4 0.0000 0.0000 0.0000 13.4598 0.0000 1.0593
# 5 -3.5911 -15.3130 -8.3946 0.0000 35.2418 0.0000
# 6 0.0000 0.0000 0.0000 1.0593 0.0000 19.5474
#
#
#
# Elastic Compliance Matrix: (Units=1/GPa)
#
#
# Indices 1 2 3 4 5 6 
#
# 1 0.011408 -0.003240 -0.003869 0.000000 -0.001167 0.000000
# 2 -0.003240 0.021757 -0.007941 0.000000 0.007232 0.000000
# 3 -0.003869 -0.007941 0.017430 0.000000 0.000307 0.000000
# 4 0.000000 0.000000 0.000000 0.074614 0.000000 -0.004043
# 5 -0.001167 0.007232 0.000307 0.000000 0.031472 0.000000
# 6 0.000000 0.000000 0.000000 -0.004043 0.000000 0.051377
#
#
# Mechanical properties :
#
#
# Convention : Reuss Voigt Hill
#
# Bulk Modulus (GPa) = 48.79310 53.63910 51.21610
# Shear Modulus (GPa) = 20.40911 23.90796 22.15854
#
# Velocity S-wave (km/s) = 3.14346 3.40226 3.27542
# Velocity P-wave (km/s) = 6.06621 6.43459 6.25311
#
# Compressibility (1/GPa) = 0.02049470
#
# Stress axis : x y z
#
# Youngs Moduli (GPa) = 87.65837 45.96240 57.37273
#
# Poissons Ratio (x) = 0.14891 0.22198
# Poissons Ratio (y) = 0.28399 0.45561
# Poissons Ratio (z) = 0.33916 0.36499
#
# Static dielectric constant tensor:
#      x y z
#    x 3.807980 0.000000 0.078350 
#    y 0.000000 3.512790 0.000000 
#    z 0.078350 0.000000 3.635910 
# 
# 
# High freq. dielectric constant tensor:
#      x y z
#    x 1.820060 0.000000 0.007680 
#    y 0.000000 1.781200 0.000000 
#    z 0.007680 0.000000 1.802820 
# 
# From -- ./inp_files/95016.got.cif
#   From: 2010.06.25/outbox.cif.g09.slc.cpg/sg10_48_cif.got.tgz:95016.got - 2010.06.27 22:07:45.
