data_PCOD8060947
_publ_section_title
;
Structure prediction by ZEFSAII (Michael W. Deem and Ramdas Pophale) SiO2 
 PCOD8060947
Probable space group: P 2/M
;
_chemical_formula_sum "Si O2"
_cell_formula_units_Z 28
_cell_length_a 7.804696
_cell_length_b 18.350039
_cell_length_c 18.686025
_cell_angle_alpha 90.000000
_cell_angle_beta 146.652399
_cell_angle_gamma 90.000000
_cell_volume 1471.123341
_symmetry_space_group_name_H-M "P 2/M"
_symmetry_group_IT_number 10
_symmetry_cell_setting 'monoclinic'
loop_
_space_group_symop_operation_xyz
x,y,z
-x,y,-z
-x,-y,-z
x,-y,z
loop_
_atom_site_type_symbol
_atom_site_label
_atom_site_fract_x
_atom_site_fract_y
_atom_site_fract_z
Si Si1 0.308278 0.081056 0.654139
Si Si2 0.709874 0.330761 0.255644
Si Si3 0.702458 0.583783 1.000000
Si Si4 0.795842 0.419367 0.500001
Si Si5 0.608977 0.182009 0.650544
Si Si6 0.993200 0.182009 0.650544
Si Si7 0.687296 0.669238 0.744355
O O1 0.574151 0.122467 0.701223
O O2 0.000000 0.075171 0.500000
O O3 0.230741 0.122466 0.701223
O O4 0.431394 0.000000 0.715697
O O5 0.556428 0.314234 0.278214
O O6 0.018357 0.379427 0.372038
O O7 0.812165 0.253398 0.258721
O O8 0.472164 0.374028 0.123404
O O9 0.768546 0.500000 0.999999
O O10 0.021456 0.625971 0.123406
O O11 0.500000 0.586174 0.000000
O O12 0.717355 0.500000 0.500001
O O13 0.469798 0.379426 0.372040
O O14 0.000000 0.422344 0.500000
O O15 0.828469 0.149763 0.664235
O O16 0.268092 0.203084 0.500000
O O17 0.777280 0.253398 0.741279
#
# Coordination Sequence:
#
# PCOD8060947 Si02
#       7
#     4   4   4   4   4   4   4
#     4   9  18  32  52  81 118 153 185 227 283 341
#     4  11  20  35  58  80 109 149 194 239 288 342
#     4  11  25  41  53  75 115 154 195 249 297 341
#     4   9  18  30  51  81 107 137 185 240 289 340
#     4  10  19  32  54  83 115 151 191 234 281 336
#     4  10  19  32  54  83 115 151 191 234 281 336
#     4  11  20  35  58  80 109 149 194 239 288 342
#
# _framework density 19.033073999999999
#
# number of rings (size 3 to 8) (size 9 to 14) (size 15 to 20)
#    0.000    1.857    2.857    2.143    0.000    2.857 
#    0.000    2.857    0.000    3.429    0.000    2.000 
#    0.000    3.429    0.000    0.000    0.000    0.000 
#
# Total GULP energy -347218.361435 kJ/mol
# GULP energy per Si atom -12400.655766 kJ/mol
# Density = 1.898975 g / cm^3
# Si number density = 19.033074 Si / 1000 Ang^3
#
#
#
# Elastic Constant Matrix: (Units=GPa)
#
#
# Indices 1 2 3 4 5 6 
#
# 1 106.4362 55.3304 15.5471 0.0000 0.5858 0.0000
# 2 55.3304 162.3328 44.9412 0.0000 0.0886 0.0000
# 3 15.5471 44.9412 96.6294 0.0000 -0.5012 0.0000
# 4 0.0000 0.0000 0.0000 21.8669 0.0000 -0.0204
# 5 0.5858 0.0886 -0.5012 0.0000 10.4011 0.0000
# 6 0.0000 0.0000 0.0000 -0.0204 0.0000 19.4328
#
#
#
# Elastic Compliance Matrix: (Units=1/GPa)
#
#
# Indices 1 2 3 4 5 6 
#
# 1 0.011422 -0.003883 -0.000035 0.000000 -0.000612 0.000000
# 2 -0.003883 0.008391 -0.003278 0.000000 -0.000011 0.000000
# 3 -0.000035 -0.003278 0.011882 0.000000 0.000602 0.000000
# 4 0.000000 0.000000 0.000000 0.045731 0.000000 0.000048
# 5 -0.000612 -0.000011 0.000602 0.000000 0.096207 0.000000
# 6 0.000000 0.000000 0.000000 0.000048 0.000000 0.051460
#
#
# Mechanical properties :
#
#
# Convention : Reuss Voigt Hill
#
# Bulk Modulus (GPa) = 57.79158 66.33732 62.06445
# Shear Modulus (GPa) = 20.38701 26.97879 23.68290
#
# Velocity S-wave (km/s) = 3.27637 3.76901 3.53129
# Velocity P-wave (km/s) = 6.68898 7.33962 7.02184
#
# Compressibility (1/GPa) = 0.01730356
#
# Stress axis : x y z
#
# Youngs Moduli (GPa) = 87.54662 119.17125 84.16022
#
# Poissons Ratio (x) = 0.46278 0.00294
# Poissons Ratio (y) = 0.33997 0.27587
# Poissons Ratio (z) = 0.00306 0.39064
#
# Static dielectric constant tensor:
#      x y z
#    x 3.495290 0.000000 0.002000 
#    y 0.000000 3.592610 0.000000 
#    z 0.002000 0.000000 3.254670 
# 
# 
# High freq. dielectric constant tensor:
#      x y z
#    x 1.746400 0.000000 0.000370 
#    y 0.000000 1.737440 0.000000 
#    z 0.000370 0.000000 1.701710 
# 
# From -- ./inp_files/83017.got.cif
#   From: 2010.06.25/outbox.cif.g09.slc.cpg/sg10_42_cif.got.tgz:83017.got - 2010.06.27 22:07:45.
