data_PCOD8060278
_publ_section_title
;
Structure prediction by ZEFSAII (Michael W. Deem and Ramdas Pophale) SiO2 
 PCOD8060278
Probable space group: P 2/M
;
_chemical_formula_sum "Si O2"
_cell_formula_units_Z 28
_cell_length_a 14.336954
_cell_length_b 8.914337
_cell_length_c 14.410344
_cell_angle_alpha 90.000000
_cell_angle_beta 121.344247
_cell_angle_gamma 90.000000
_cell_volume 1572.922537
_symmetry_space_group_name_H-M "P 2/M"
_symmetry_group_IT_number 10
_symmetry_cell_setting 'monoclinic'
loop_
_space_group_symop_operation_xyz
x,y,z
-x,y,-z
-x,-y,-z
x,-y,z
loop_
_atom_site_type_symbol
_atom_site_label
_atom_site_fract_x
_atom_site_fract_y
_atom_site_fract_z
Si Si1 0.902436 0.821837 0.831936
Si Si2 0.246009 0.328379 0.613318
Si Si3 0.068931 0.162498 0.626846
Si Si4 0.430483 0.675478 0.844603
Si Si5 0.354135 0.820516 0.989867
Si Si6 0.856856 0.177482 0.610221
Si Si7 0.856280 0.821942 0.008779
O O1 0.835135 0.769486 0.705229
O O2 0.027423 0.761018 0.893851
O O3 0.909694 0.000000 0.835626
O O4 0.841550 0.766318 0.893899
O O5 0.218980 0.500000 0.581212
O O6 0.167323 0.273956 0.655870
O O7 0.368560 0.302706 0.714324
O O8 0.230061 0.246677 0.506487
O O9 0.000000 0.133634 0.500000
O O10 0.982417 0.229331 0.655841
O O11 0.115688 0.000000 0.685255
O O12 0.445748 0.500000 0.875283
O O13 0.360628 0.751538 0.890683
O O14 0.546745 0.757415 0.896209
O O15 0.241982 0.761585 0.978288
O O16 0.361744 0.000000 0.989035
O O17 0.847464 0.000000 0.592914
O O18 0.853916 0.000000 0.009523
#
# Coordination Sequence:
#
# PCOD8060278 Si02
#       7
#     4   4   4   4   4   4   4
#     4   8  14  27  46  72 102 127 149 181 234 290
#     4  10  20  31  44  63  91 127 161 192 230 276
#     4   8  15  26  40  62  90 119 152 187 224 268
#     4  10  21  35  48  66  95 131 161 190 238 290
#     4  10  19  31  52  77  94 117 156 203 238 270
#     4   9  17  28  46  69  94 125 155 187 230 277
#     4   8  15  27  47  74 100 122 150 190 235 282
#
# _framework density 17.801258000000001
#
# number of rings (size 3 to 8) (size 9 to 14) (size 15 to 20)
#    0.000    3.000    0.000    3.857    2.000    4.857 
#    0.000    0.000    0.000    2.571    0.000   11.000 
#    0.000    0.000    0.000    0.000    0.000    0.000 
#
# Total GULP energy -346890.399732 kJ/mol
# GULP energy per Si atom -12388.942848 kJ/mol
# Density = 1.776074 g / cm^3
# Si number density = 17.801258 Si / 1000 Ang^3
#
#
#
# Elastic Constant Matrix: (Units=GPa)
#
#
# Indices 1 2 3 4 5 6 
#
# 1 82.3749 18.7425 28.8013 0.0000 -2.4387 0.0000
# 2 18.7425 56.2290 29.6429 0.0000 1.8965 0.0000
# 3 28.8013 29.6429 109.9824 0.0000 -3.1075 0.0000
# 4 0.0000 0.0000 0.0000 21.5337 0.0000 3.7960
# 5 -2.4387 1.8965 -3.1075 0.0000 19.9234 0.0000
# 6 0.0000 0.0000 0.0000 3.7960 0.0000 7.2665
#
#
#
# Elastic Compliance Matrix: (Units=1/GPa)
#
#
# Indices 1 2 3 4 5 6 
#
# 1 0.013874 -0.003248 -0.002713 0.000000 0.001584 0.000000
# 2 -0.003248 0.021653 -0.005077 0.000000 -0.003251 0.000000
# 3 -0.002713 -0.005077 0.011225 0.000000 0.001902 0.000000
# 4 0.000000 0.000000 0.000000 0.051149 0.000000 -0.026720
# 5 0.001584 -0.003251 0.001902 0.000000 0.050992 0.000000
# 6 0.000000 0.000000 0.000000 -0.026720 0.000000 0.151577
#
#
# Mechanical properties :
#
#
# Convention : Reuss Voigt Hill
#
# Bulk Modulus (GPa) = 40.52532 44.77330 42.64931
# Shear Modulus (GPa) = 15.11611 21.17135 18.14373
#
# Velocity S-wave (km/s) = 2.91720 3.45239 3.19602
# Velocity P-wave (km/s) = 5.84479 6.41080 6.13433
#
# Compressibility (1/GPa) = 0.02467593
#
# Stress axis : x y z
#
# Youngs Moduli (GPa) = 72.07690 46.18224 89.08606
#
# Poissons Ratio (x) = 0.14999 0.24170
# Poissons Ratio (y) = 0.23408 0.45233
# Poissons Ratio (z) = 0.19555 0.23449
#
# Static dielectric constant tensor:
#      x y z
#    x 3.604510 0.000000 -0.204070 
#    y 0.000000 3.033960 0.000000 
#    z -0.204070 0.000000 3.453980 
# 
# 
# High freq. dielectric constant tensor:
#      x y z
#    x 1.659520 0.000000 -0.004490 
#    y 0.000000 1.661500 0.000000 
#    z -0.004490 0.000000 1.692990 
# 
# From -- ./inp_files/66242.got.cif
#   From: 2010.06.25/outbox.cif.g09.slc.cpg/sg10_34_cif.got.tgz:66242.got - 2010.06.27 22:07:45.
