data_PCOD8060234
_publ_section_title
;
Structure prediction by ZEFSAII (Michael W. Deem and Ramdas Pophale) SiO2 
 PCOD8060234
Probable space group: P 2/M
;
_chemical_formula_sum "Si O2"
_cell_formula_units_Z 20
_cell_length_a 9.084521
_cell_length_b 9.306712
_cell_length_c 26.416744
_cell_angle_alpha 90.000000
_cell_angle_beta 29.267682
_cell_angle_gamma 90.000000
_cell_volume 1091.915861
_symmetry_space_group_name_H-M "P 2/M"
_symmetry_group_IT_number 10
_symmetry_cell_setting 'monoclinic'
loop_
_space_group_symop_operation_xyz
x,y,z
-x,y,-z
-x,-y,-z
x,-y,z
loop_
_atom_site_type_symbol
_atom_site_label
_atom_site_fract_x
_atom_site_fract_y
_atom_site_fract_z
Si Si1 0.656238 0.331275 0.097628
Si Si2 0.377583 0.331159 0.286889
Si Si3 0.206775 0.658203 0.487119
Si Si4 0.338531 0.166941 0.706123
Si Si5 0.638008 0.833758 0.905840
O O1 0.632492 0.500000 0.095480
O O2 0.476598 0.283435 0.201540
O O3 0.512812 0.254428 0.093201
O O4 0.000000 0.281709 0.000000
O O5 0.435219 0.500000 0.279305
O O6 0.577317 0.245315 0.267205
O O7 0.020024 0.294763 0.399601
O O8 0.345243 0.500000 0.456486
O O9 0.475588 0.770754 0.397734
O O10 0.000000 0.651303 0.500000
O O11 0.991952 0.194816 0.798822
O O12 0.416228 0.000000 0.688582
O O13 0.560028 0.000000 0.920968
O O14 0.500000 0.778895 0.000000
#
# Coordination Sequence:
#
# PCOD8060234 Si02
#       5
#     4   4   4   4   4
#     4  10  21  36  55  79 102 127 167 214 253 295
#     4   9  18  33  52  76 105 134 166 205 251 301
#     4   8  15  29  49  72 101 136 168 201 246 297
#     4  10  19  31  51  78 103 131 171 211 244 289
#     4  10  22  38  53  73 103 136 168 203 250 307
#
# _framework density 18.31643
#
# number of rings (size 3 to 8) (size 9 to 14) (size 15 to 20)
#    0.000    2.600    0.000    3.000    0.000    6.800 
#    0.000    1.000    0.000    6.000    0.000    0.000 
#    0.000    0.000    0.000    0.000    0.000    0.000 
#
# Total GULP energy -247976.035101 kJ/mol
# GULP energy per Si atom -12398.801755 kJ/mol
# Density = 1.827474 g / cm^3
# Si number density = 18.316430 Si / 1000 Ang^3
#
#
#
# Elastic Constant Matrix: (Units=GPa)
#
#
# Indices 1 2 3 4 5 6 
#
# 1 106.7598 59.4466 71.7615 0.0000 11.6694 0.0000
# 2 59.4466 79.2553 61.6449 0.0000 -0.1504 0.0000
# 3 71.7615 61.6449 167.7047 0.0000 20.7881 0.0000
# 4 0.0000 0.0000 0.0000 30.6811 0.0000 -1.7359
# 5 11.6694 -0.1504 20.7881 0.0000 26.8773 0.0000
# 6 0.0000 0.0000 0.0000 -1.7359 0.0000 30.5619
#
#
#
# Elastic Compliance Matrix: (Units=1/GPa)
#
#
# Indices 1 2 3 4 5 6 
#
# 1 0.018376 -0.011535 -0.002905 0.000000 -0.005796 0.000000
# 2 -0.011535 0.025726 -0.005706 0.000000 0.009565 0.000000
# 3 -0.002905 -0.005706 0.010121 0.000000 -0.006599 0.000000
# 4 0.000000 0.000000 0.000000 0.032698 0.000000 0.001857
# 5 -0.005796 0.009565 -0.006599 0.000000 0.044880 0.000000
# 6 0.000000 0.000000 0.000000 0.001857 0.000000 0.032826
#
#
# Mechanical properties :
#
#
# Convention : Reuss Voigt Hill
#
# Bulk Modulus (GPa) = 71.77965 82.15842 76.96904
# Shear Modulus (GPa) = 23.85932 28.34853 26.10392
#
# Velocity S-wave (km/s) = 3.61310 3.93836 3.77923
# Velocity P-wave (km/s) = 7.52859 8.10144 7.82026
#
# Compressibility (1/GPa) = 0.01393152
#
# Stress axis : x y z
#
# Youngs Moduli (GPa) = 54.42004 38.87171 98.80233
#
# Poissons Ratio (x) = 0.44837 0.28698
# Poissons Ratio (y) = 0.62772 0.56378
# Poissons Ratio (z) = 0.15807 0.22181
#
# Static dielectric constant tensor:
#      x y z
#    x 3.045470 0.000000 0.194260 
#    y 0.000000 3.365080 0.000000 
#    z 0.194260 0.000000 3.993280 
# 
# 
# High freq. dielectric constant tensor:
#      x y z
#    x 1.680970 0.000000 0.007250 
#    y 0.000000 1.706230 0.000000 
#    z 0.007250 0.000000 1.734400 
# 
# From -- ./inp_files/22384.got.cif
#   From: 2010.06.25/outbox.cif.g09.slc.cpg/sg10_12_cif.got.tgz:22384.got - 2010.06.27 22:07:45.
