data_PCOD8060252
_publ_section_title
;
Structure prediction by ZEFSAII (Michael W. Deem and Ramdas Pophale) SiO2 
 PCOD8060252
Probable space group: P 2/M
;
_chemical_formula_sum "Si O2"
_cell_formula_units_Z 28
_cell_length_a 5.241999
_cell_length_b 18.991719
_cell_length_c 13.768819
_cell_angle_alpha 90.000000
_cell_angle_beta 106.553484
_cell_angle_gamma 90.000000
_cell_volume 1313.937094
_symmetry_space_group_name_H-M "P 2/M"
_symmetry_group_IT_number 10
_symmetry_cell_setting 'monoclinic'
loop_
_space_group_symop_operation_xyz
x,y,z
-x,y,-z
-x,-y,-z
x,-y,z
loop_
_atom_site_type_symbol
_atom_site_label
_atom_site_fract_x
_atom_site_fract_y
_atom_site_fract_z
Si Si1 0.198949 0.675735 0.937002
Si Si2 0.774838 0.711295 0.535209
Si Si3 0.139846 0.083275 0.729450
Si Si4 0.358144 0.422509 0.614125
Si Si5 0.794532 0.840019 0.062274
Si Si6 0.936555 0.623234 0.716006
Si Si7 0.549978 0.083183 0.612246
O O1 0.177501 0.757969 0.911131
O O2 0.093246 0.634109 0.832606
O O3 0.500000 0.654595 0.000000
O O4 0.000000 0.653654 0.000000
O O5 0.500000 0.755740 0.500000
O O6 0.711132 0.635544 0.475130
O O7 0.878624 0.698238 0.655361
O O8 0.000000 0.753088 0.500000
O O9 0.163395 0.116272 0.836940
O O10 0.353307 0.113963 0.674519
O O11 0.849479 0.106029 0.664107
O O12 0.171926 0.000000 0.742958
O O13 0.351718 0.500000 0.564634
O O14 0.646262 0.411689 0.697118
O O15 0.133981 0.422689 0.672474
O O16 0.500000 0.859789 0.000000
O O17 0.000000 0.863099 0.000000
O O18 0.500000 0.114563 0.500000
O O19 0.507419 0.000000 0.606804
#
# Coordination Sequence:
#
# PCOD8060252 Si02
#       7
#     4   4   4   4   4   4   4
#     4  10  21  38  58  74  92 129 181 223 252 294
#     4   8  16  27  44  72 102 127 153 187 235 292
#     4  10  19  31  51  79 109 140 172 213 268 321
#     4  10  19  31  51  80 108 131 158 194 247 315
#     4  10  21  36  54  77 102 132 174 223 271 318
#     4  10  19  32  52  74  98 131 167 205 246 288
#     4   9  17  30  49  73 104 142 179 208 239 297
#
# _framework density 21.310001
#
# number of rings (size 3 to 8) (size 9 to 14) (size 15 to 20)
#    0.000    2.429    0.000    2.571    0.000    7.429 
#    0.000    0.000    0.000   16.286    0.000    0.000 
#    0.000    0.000    0.000    0.000    0.000    0.000 
#
# Total GULP energy -346949.934901 kJ/mol
# GULP energy per Si atom -12391.069104 kJ/mol
# Density = 2.126150 g / cm^3
# Si number density = 21.310001 Si / 1000 Ang^3
#
#
#
# Elastic Constant Matrix: (Units=GPa)
#
#
# Indices 1 2 3 4 5 6 
#
# 1 220.6933 2.0891 56.3373 0.0000 0.5749 0.0000
# 2 2.0891 21.4024 19.6687 0.0000 -0.9802 0.0000
# 3 56.3373 19.6687 137.4540 0.0000 2.9097 0.0000
# 4 0.0000 0.0000 0.0000 34.8168 0.0000 -1.9608
# 5 0.5749 -0.9802 2.9097 0.0000 38.1609 0.0000
# 6 0.0000 0.0000 0.0000 -1.9608 0.0000 8.3985
#
#
#
# Elastic Compliance Matrix: (Units=1/GPa)
#
#
# Indices 1 2 3 4 5 6 
#
# 1 0.005111 0.001653 -0.002334 0.000000 0.000143 0.000000
# 2 0.001653 0.054481 -0.008516 0.000000 0.002024 0.000000
# 3 -0.002334 -0.008516 0.009470 0.000000 -0.000906 0.000000
# 4 0.000000 0.000000 0.000000 0.029104 0.000000 0.006795
# 5 0.000143 0.002024 -0.000906 0.000000 0.026324 0.000000
# 6 0.000000 0.000000 0.000000 0.006795 0.000000 0.120655
#
#
# Mechanical properties :
#
#
# Convention : Reuss Voigt Hill
#
# Bulk Modulus (GPa) = 19.73675 59.52665 39.63170
# Shear Modulus (GPa) = 17.82977 36.37223 27.10100
#
# Velocity S-wave (km/s) = 2.89569 4.13584 3.57003
# Velocity P-wave (km/s) = 4.52348 7.12750 5.96922
#
# Compressibility (1/GPa) = 0.05066690
#
# Stress axis : x y z
#
# Youngs Moduli (GPa) = 195.65386 18.35487 105.59964
#
# Poissons Ratio (x) = -0.03034 0.24651
# Poissons Ratio (y) = -0.32341 0.89931
# Poissons Ratio (z) = 0.45673 0.15631
#
# Static dielectric constant tensor:
#      x y z
#    x 4.793650 0.000000 -0.246730 
#    y 0.000000 3.347960 0.000000 
#    z -0.246730 0.000000 3.734230 
# 
# 
# High freq. dielectric constant tensor:
#      x y z
#    x 1.872580 0.000000 0.000320 
#    y 0.000000 1.796800 0.000000 
#    z 0.000320 0.000000 1.833210 
# 
# From -- ./inp_files/39722.got.cif
#   From: 2010.06.25/outbox.cif.g09.slc.cpg/sg10_20_cif.got.tgz:39722.got - 2010.06.27 22:07:45.
