data_PCOD8060029
_publ_section_title
;
Structure prediction by ZEFSAII (Michael W. Deem and Ramdas Pophale) SiO2 
 PCOD8060029
Probable space group: P 2/M
;
_chemical_formula_sum "Si O2"
_cell_formula_units_Z 28
_cell_length_a 18.674596
_cell_length_b 8.887344
_cell_length_c 17.795405
_cell_angle_alpha 90.000000
_cell_angle_beta 32.089528
_cell_angle_gamma 90.000000
_cell_volume 1569.007100
_symmetry_space_group_name_H-M "P 2/M"
_symmetry_group_IT_number 10
_symmetry_cell_setting 'monoclinic'
loop_
_space_group_symop_operation_xyz
x,y,z
-x,y,-z
-x,-y,-z
x,-y,z
loop_
_atom_site_type_symbol
_atom_site_label
_atom_site_fract_x
_atom_site_fract_y
_atom_site_fract_z
Si Si1 0.930030 0.178440 0.877557
Si Si2 0.871187 0.166177 0.768280
Si Si3 0.345572 0.173043 0.615781
Si Si4 0.159970 0.667995 0.348123
Si Si5 0.143471 0.676319 0.908860
Si Si6 0.216185 0.678781 0.595667
Si Si7 0.809617 0.831991 0.533105
O O1 0.846083 0.219942 0.876380
O O2 0.071397 0.265119 0.752973
O O3 0.958059 0.000000 0.855664
O O4 0.842103 0.234094 0.025704
O O5 0.800071 0.272859 0.770370
O O6 0.030521 0.164275 0.614746
O O7 0.811688 0.000000 0.808408
O O8 0.500000 0.186050 0.500000
O O9 0.260117 0.266406 0.751427
O O10 0.328326 0.247351 0.549293
O O11 0.296919 0.000000 0.657708
O O12 0.215197 0.500000 0.306241
O O13 0.232306 0.765026 0.348693
O O14 0.000000 0.674343 0.500000
O O15 0.161366 0.500000 0.907817
O O16 0.000000 0.713979 0.000000
O O17 0.221169 0.500000 0.597040
O O18 0.249069 0.729172 0.481394
O O19 0.749884 0.000000 0.579212
#
# Coordination Sequence:
#
# PCOD8060029 Si02
#       7
#     4   4   4   4   4   4   4
#     4  10  19  31  49  71  97 131 169 209 249 297
#     4   8  15  25  37  57  86 122 160 197 242 291
#     4  11  24  40  57  76 100 134 173 212 257 308
#     4   9  15  22  34  55  84 120 158 197 243 292
#     4  11  22  35  54  80 104 132 169 212 259 307
#     4  11  20  31  48  71  98 127 164 209 256 303
#     4   9  16  26  40  58  85 123 163 201 241 293
#
# _framework density 17.845682
#
# number of rings (size 3 to 8) (size 9 to 14) (size 15 to 20)
#    0.000    2.143    1.429    4.286    0.000    7.429 
#    0.000    0.000    0.000    0.000    0.000    0.000 
#    0.000    1.143    0.000   12.000    0.000    8.429 
#
# Total GULP energy -347161.537253 kJ/mol
# GULP energy per Si atom -12398.626330 kJ/mol
# Density = 1.780506 g / cm^3
# Si number density = 17.845682 Si / 1000 Ang^3
#
#
#
# Elastic Constant Matrix: (Units=GPa)
#
#
# Indices 1 2 3 4 5 6 
#
# 1 126.6752 52.4810 31.3336 0.0000 32.7023 0.0000
# 2 52.4810 106.1519 19.4344 0.0000 11.3354 0.0000
# 3 31.3336 19.4344 33.5921 0.0000 8.8009 0.0000
# 4 0.0000 0.0000 0.0000 16.0933 0.0000 9.9252
# 5 32.7023 11.3354 8.8009 0.0000 22.3248 0.0000
# 6 0.0000 0.0000 0.0000 9.9252 0.0000 32.4724
#
#
#
# Elastic Compliance Matrix: (Units=1/GPa)
#
#
# Indices 1 2 3 4 5 6 
#
# 1 0.016721 -0.004805 -0.007850 0.000000 -0.018960 0.000000
# 2 -0.004805 0.012138 -0.003089 0.000000 0.002093 0.000000
# 3 -0.007850 -0.003089 0.039538 0.000000 -0.002520 0.000000
# 4 0.000000 0.000000 0.000000 0.076572 0.000000 -0.023404
# 5 -0.018960 0.002093 -0.002520 0.000000 0.072496 0.000000
# 6 0.000000 0.000000 0.000000 -0.023404 0.000000 0.037949
#
#
# Mechanical properties :
#
#
# Convention : Reuss Voigt Hill
#
# Bulk Modulus (GPa) = 27.09291 52.54638 39.81964
# Shear Modulus (GPa) = 16.71097 25.05611 20.88354
#
# Velocity S-wave (km/s) = 3.06341 3.75112 3.42457
# Velocity P-wave (km/s) = 5.26568 6.94766 6.16431
#
# Compressibility (1/GPa) = 0.03691003
#
# Stress axis : x y z
#
# Youngs Moduli (GPa) = 59.80431 82.38546 25.29212
#
# Poissons Ratio (x) = 0.39588 0.19854
# Poissons Ratio (y) = 0.28737 0.07812
# Poissons Ratio (z) = 0.46945 0.25447
#
# Static dielectric constant tensor:
#      x y z
#    x 3.639960 0.000000 0.310170 
#    y 0.000000 3.501340 0.000000 
#    z 0.310170 0.000000 2.817930 
# 
# 
# High freq. dielectric constant tensor:
#      x y z
#    x 1.701470 0.000000 0.037010 
#    y 0.000000 1.708050 0.000000 
#    z 0.037010 0.000000 1.619090 
# 
# From -- ./inp_files/77713.got.cif
#   From: 2010.06.25/outbox.cif.g09.slc.cpg/sg10_39_cif.got.tgz:77713.got - 2010.06.27 22:07:45.
