data_PCOD8060727
_publ_section_title
;
Structure prediction by ZEFSAII (Michael W. Deem and Ramdas Pophale) SiO2 
 PCOD8060727
Probable space group: P 2/M
;
_chemical_formula_sum "Si O2"
_cell_formula_units_Z 32
_cell_length_a 15.137934
_cell_length_b 9.603642
_cell_length_c 23.086745
_cell_angle_alpha 90.000000
_cell_angle_beta 30.412620
_cell_angle_gamma 90.000000
_cell_volume 1699.056319
_symmetry_space_group_name_H-M "P 2/M"
_symmetry_group_IT_number 10
_symmetry_cell_setting 'monoclinic'
loop_
_space_group_symop_operation_xyz
x,y,z
-x,y,-z
-x,-y,-z
x,-y,z
loop_
_atom_site_type_symbol
_atom_site_label
_atom_site_fract_x
_atom_site_fract_y
_atom_site_fract_z
Si Si1 0.816030 0.340489 0.951704
Si Si2 0.982141 0.159933 0.245266
Si Si3 0.882340 0.837969 0.514359
Si Si4 0.155336 0.157355 0.265156
Si Si5 0.392674 0.165126 0.506115
Si Si6 0.529156 0.661972 0.917779
Si Si7 0.805604 0.338650 0.092464
Si Si8 0.513936 0.832985 0.675528
O O1 0.858722 0.500000 0.912481
O O2 0.971540 0.248120 0.837781
O O3 0.636635 0.291462 0.024800
O O4 0.793958 0.314439 0.031238
O O5 0.803746 0.216957 0.373263
O O6 0.127495 0.179500 0.212532
O O7 0.964676 0.000000 0.235608
O O8 0.682699 0.782878 0.618674
O O9 0.000000 0.769576 0.500000
O O10 0.978175 0.808439 0.399537
O O11 0.866506 0.000000 0.536852
O O12 0.306998 0.257527 0.201815
O O13 0.213766 0.000000 0.245422
O O14 0.500000 0.226221 0.500000
O O15 0.461938 0.217346 0.404708
O O16 0.400756 0.000000 0.501239
O O17 0.570241 0.500000 0.888897
O O18 0.500000 0.707670 0.000000
O O19 0.772238 0.500000 0.128384
O O20 0.660758 0.241980 0.203904
O O21 0.000000 0.291639 0.000000
O O22 0.491675 0.000000 0.691999
#
# Coordination Sequence:
#
# PCOD8060727 Si02
#       8
#     4   4   4   4   4   4   4   4
#     4  10  22  39  56  75 107 149 187 224 274 329
#     4  10  19  33  55  83 112 140 178 225 271 324
#     4   9  18  33  53  79 112 146 175 215 273 326
#     4  10  19  32  52  78 110 143 176 217 268 323
#     4   9  18  33  55  83 113 140 166 216 283 325
#     4  10  20  34  51  74 106 142 177 216 264 319
#     4  10  24  44  60  76 109 153 189 232 286 330
#     4  10  20  37  61  87 112 141 186 231 269 330
#
# _framework density 18.833984999999998
#
# number of rings (size 3 to 8) (size 9 to 14) (size 15 to 20)
#    0.000    2.250    2.500    0.000    3.500    1.500 
#    0.000    1.250    0.000    1.500    0.000    0.000 
#    0.000    0.000    0.000    0.000    0.000    0.000 
#
# Total GULP energy -396686.719484 kJ/mol
# GULP energy per Si atom -12396.459984 kJ/mol
# Density = 1.879112 g / cm^3
# Si number density = 18.833985 Si / 1000 Ang^3
#
#
#
# Elastic Constant Matrix: (Units=GPa)
#
#
# Indices 1 2 3 4 5 6 
#
# 1 117.0318 27.2875 53.8115 0.0000 -16.2865 0.0000
# 2 27.2875 48.0795 56.9751 0.0000 -5.3432 0.0000
# 3 53.8115 56.9751 136.5375 0.0000 -14.9400 0.0000
# 4 0.0000 0.0000 0.0000 2.4980 0.0000 -5.7164
# 5 -16.2865 -5.3432 -14.9400 0.0000 21.9077 0.0000
# 6 0.0000 0.0000 0.0000 -5.7164 0.0000 28.2799
#
#
#
# Elastic Compliance Matrix: (Units=1/GPa)
#
#
# Indices 1 2 3 4 5 6 
#
# 1 0.011194 -0.002440 -0.002753 0.000000 0.005849 0.000000
# 2 -0.002440 0.041743 -0.016795 0.000000 -0.003086 0.000000
# 3 -0.002753 -0.016795 0.015934 0.000000 0.004723 0.000000
# 4 0.000000 0.000000 0.000000 0.744841 0.000000 0.150559
# 5 0.005849 -0.003086 0.004723 0.000000 0.052462 0.000000
# 6 0.000000 0.000000 0.000000 0.150559 0.000000 0.065794
#
#
# Mechanical properties :
#
#
# Convention : Reuss Voigt Hill
#
# Bulk Modulus (GPa) = 40.17010 64.19966 52.18488
# Shear Modulus (GPa) = 5.08005 21.44210 13.26108
#
# Velocity S-wave (km/s) = 1.64412 3.37780 2.65637
# Velocity P-wave (km/s) = 4.99790 7.02665 6.09725
#
# Compressibility (1/GPa) = 0.02489414
#
# Stress axis : x y z
#
# Youngs Moduli (GPa) = 89.33717 23.95622 62.75843
#
# Poissons Ratio (x) = 0.05846 0.17279
# Poissons Ratio (y) = 0.21800 1.05401
# Poissons Ratio (z) = 0.24597 0.40234
#
# Static dielectric constant tensor:
#      x y z
#    x 3.695860 0.000000 -0.065960 
#    y 0.000000 3.108310 0.000000 
#    z -0.065960 0.000000 3.416460 
# 
# 
# High freq. dielectric constant tensor:
#      x y z
#    x 1.742640 0.000000 -0.003620 
#    y 0.000000 1.692520 0.000000 
#    z -0.003620 0.000000 1.736460 
# 
# From -- ./inp_files/89574.got.cif
#   From: 2010.06.25/outbox.cif.g09.slc.cpg/sg10_45_cif.got.tgz:89574.got - 2010.06.27 22:07:45.
