data_PCOD8060791
_publ_section_title
;
Structure prediction by ZEFSAII (Michael W. Deem and Ramdas Pophale) SiO2 
 PCOD8060791
Probable space group: P 2/M
;
_chemical_formula_sum "Si O2"
_cell_formula_units_Z 28
_cell_length_a 14.077475
_cell_length_b 9.124384
_cell_length_c 16.621192
_cell_angle_alpha 90.000000
_cell_angle_beta 133.669094
_cell_angle_gamma 90.000000
_cell_volume 1544.303990
_symmetry_space_group_name_H-M "P 2/M"
_symmetry_group_IT_number 10
_symmetry_cell_setting 'monoclinic'
loop_
_space_group_symop_operation_xyz
x,y,z
-x,y,-z
-x,-y,-z
x,-y,z
loop_
_atom_site_type_symbol
_atom_site_label
_atom_site_fract_x
_atom_site_fract_y
_atom_site_fract_z
Si Si1 0.788267 0.326585 0.880956
Si Si2 0.466937 0.828025 0.222803
Si Si3 0.460736 0.667893 0.889752
Si Si4 0.005296 0.326729 0.129466
Si Si5 0.241857 0.827757 0.556735
Si Si6 0.944695 0.326459 0.662700
Si Si7 0.167308 0.667273 0.668358
O O1 0.764003 0.500000 0.868663
O O2 0.649375 0.245125 0.794606
O O3 0.868542 0.278150 0.848669
O O4 0.870740 0.273517 0.007834
O O5 0.463605 0.765543 0.130732
O O6 0.604718 0.787141 0.345602
O O7 0.445016 0.000000 0.206200
O O8 0.505759 0.500000 0.903700
O O9 0.305519 0.685435 0.792816
O O10 0.500000 0.726673 0.000000
O O11 0.999965 0.500000 0.128495
O O12 0.017860 0.264426 0.227156
O O13 0.188997 0.751634 0.444706
O O14 0.159621 0.766013 0.584365
O O15 0.219305 0.000000 0.539148
O O16 0.922204 0.500000 0.651782
O O17 0.059877 0.280058 0.669379
O O18 0.142863 0.500000 0.626890
#
# Coordination Sequence:
#
# PCOD8060791 Si02
#       7
#     4   4   4   4   4   4   4
#     4   9  17  34  59  80 102 132 167 206 256 313
#     4  10  21  35  51  72 102 140 172 208 256 299
#     4   9  18  31  50  76 103 133 171 209 247 303
#     4   8  17  33  55  83 106 127 161 212 263 304
#     4  10  21  36  50  69 102 140 177 210 246 298
#     4  10  19  32  53  77 104 131 166 213 257 299
#     4   9  18  31  49  75 103 133 168 208 253 296
#
# _framework density 18.131143999999999
#
# number of rings (size 3 to 8) (size 9 to 14) (size 15 to 20)
#    0.000    2.714    0.000    2.143    2.000    4.286 
#    0.000    3.571    0.000    4.286    0.000    0.000 
#    0.000    0.000    0.000    0.000    0.000    0.000 
#
# Total GULP energy -347203.329361 kJ/mol
# GULP energy per Si atom -12400.118906 kJ/mol
# Density = 1.808988 g / cm^3
# Si number density = 18.131144 Si / 1000 Ang^3
#
#
#
# Elastic Constant Matrix: (Units=GPa)
#
#
# Indices 1 2 3 4 5 6 
#
# 1 108.7412 38.4447 51.5729 0.0000 6.0624 0.0000
# 2 38.4447 51.0776 32.4014 0.0000 2.2484 0.0000
# 3 51.5729 32.4014 108.6010 0.0000 -12.0410 0.0000
# 4 0.0000 0.0000 0.0000 17.8554 0.0000 9.5124
# 5 6.0624 2.2484 -12.0410 0.0000 19.3922 0.0000
# 6 0.0000 0.0000 0.0000 9.5124 0.0000 13.7436
#
#
#
# Elastic Compliance Matrix: (Units=1/GPa)
#
#
# Indices 1 2 3 4 5 6 
#
# 1 0.014883 -0.007248 -0.005722 0.000000 -0.007365 0.000000
# 2 -0.007248 0.028833 -0.005670 0.000000 -0.004598 0.000000
# 3 -0.005722 -0.005670 0.014915 0.000000 0.011707 0.000000
# 4 0.000000 0.000000 0.000000 0.088719 0.000000 -0.061405
# 5 -0.007365 -0.004598 0.011707 0.000000 0.061672 0.000000
# 6 0.000000 0.000000 0.000000 -0.061405 0.000000 0.115262
#
#
# Mechanical properties :
#
#
# Convention : Reuss Voigt Hill
#
# Bulk Modulus (GPa) = 46.83701 57.02864 51.93283
# Shear Modulus (GPa) = 13.56190 19.93164 16.74677
#
# Velocity S-wave (km/s) = 2.73791 3.31917 3.04245
# Velocity P-wave (km/s) = 5.99026 6.79786 6.40680
#
# Compressibility (1/GPa) = 0.02135064
#
# Stress axis : x y z
#
# Youngs Moduli (GPa) = 67.19099 34.68279 67.04719
#
# Poissons Ratio (x) = 0.25139 0.38363
# Poissons Ratio (y) = 0.48701 0.38016
# Poissons Ratio (z) = 0.38445 0.19665
#
# Static dielectric constant tensor:
#      x y z
#    x 3.364650 0.000000 -0.041890 
#    y 0.000000 3.113190 0.000000 
#    z -0.041890 0.000000 3.590120 
# 
# 
# High freq. dielectric constant tensor:
#      x y z
#    x 1.696750 0.000000 0.007360 
#    y 0.000000 1.679510 0.000000 
#    z 0.007360 0.000000 1.707700 
# 
# From -- ./inp_files/49650.got.cif
#   From: 2010.06.25/outbox.cif.g09.slc.cpg/sg10_25_cif.got.tgz:49650.got - 2010.06.27 22:07:45.
