data_PCOD8060904
_publ_section_title
;
Structure prediction by ZEFSAII (Michael W. Deem and Ramdas Pophale) SiO2 
 PCOD8060904
Probable space group: P 2/M
;
_chemical_formula_sum "Si O2"
_cell_formula_units_Z 28
_cell_length_a 23.407212
_cell_length_b 11.472285
_cell_length_c 19.761437
_cell_angle_alpha 90.000000
_cell_angle_beta 162.646371
_cell_angle_gamma 90.000000
_cell_volume 1582.797611
_symmetry_space_group_name_H-M "P 2/M"
_symmetry_group_IT_number 10
_symmetry_cell_setting 'monoclinic'
loop_
_space_group_symop_operation_xyz
x,y,z
-x,y,-z
-x,-y,-z
x,-y,z
loop_
_atom_site_type_symbol
_atom_site_label
_atom_site_fract_x
_atom_site_fract_y
_atom_site_fract_z
Si Si1 0.399912 0.756070 0.571070
Si Si2 0.043333 0.362200 0.351085
Si Si3 0.353529 0.754154 0.278194
Si Si4 0.236502 0.000000 0.348133
Si Si5 0.637673 0.635440 0.950250
Si Si6 0.568472 0.364527 0.147945
Si Si7 0.026751 0.637177 0.179637
Si Si8 0.212270 0.000000 0.160027
O O1 0.557308 0.724217 0.693381
O O2 0.341009 0.890813 0.500628
O O3 0.491827 0.720243 0.746459
O O4 0.209219 0.680488 0.343633
O O5 0.066047 0.500000 0.371158
O O6 0.230191 0.308473 0.599480
O O7 0.030919 0.311524 0.260920
O O8 0.855478 0.327565 0.181315
O O9 0.500000 0.709590 0.500000
O O10 0.313160 0.890799 0.239487
O O11 0.159125 0.683468 0.069111
O O12 0.257454 0.000000 0.290882
O O13 0.011823 0.000000 0.111310
O O14 0.599525 0.500000 0.886241
O O15 0.598124 0.653864 0.984933
O O16 0.606693 0.500000 0.177950
O O17 0.500000 0.305576 0.000000
O O18 0.022226 0.500000 0.174763
#
# Coordination Sequence:
#
# PCOD8060904 Si02
#       8
#     4   4   4   2   4   4   4   2
#     4  12  22  37  60  84 106 145 188 233 279 336
#     4   9  17  31  50  75 109 148 183 216 263 323
#     4  12  24  39  61  80 107 145 189 238 291 332
#     4  11  23  38  65  81 105 139 183 237 295 336
#     4  10  19  32  54  80 111 150 184 219 272 332
#     4   9  17  29  48  78 115 149 182 222 265 317
#     4  11  23  38  56  81 114 151 187 227 277 339
#     4  11  22  43  60  81 107 137 181 242 304 340
#
# _framework density 17.690197000000001
#
# number of rings (size 3 to 8) (size 9 to 14) (size 15 to 20)
#    0.000    1.429    5.714    1.071    0.000    2.000 
#    0.000    3.571    0.000    0.000    0.000    0.500 
#    0.000    1.143    0.000    0.000    0.000    0.000 
#
# Total GULP energy -347221.899701 kJ/mol
# GULP energy per Si atom -12400.782132 kJ/mol
# Density = 1.764993 g / cm^3
# Si number density = 17.690197 Si / 1000 Ang^3
#
#
#
# Elastic Constant Matrix: (Units=GPa)
#
#
# Indices 1 2 3 4 5 6 
#
# 1 85.0842 26.8347 34.3020 0.0000 5.5660 0.0000
# 2 26.8347 55.6857 29.5130 0.0000 -4.7806 0.0000
# 3 34.3020 29.5130 105.1924 0.0000 10.3449 0.0000
# 4 0.0000 0.0000 0.0000 19.4397 0.0000 9.6866
# 5 5.5660 -4.7806 10.3449 0.0000 32.6092 0.0000
# 6 0.0000 0.0000 0.0000 9.6866 0.0000 12.5789
#
#
#
# Elastic Compliance Matrix: (Units=1/GPa)
#
#
# Indices 1 2 3 4 5 6 
#
# 1 0.014963 -0.005830 -0.003002 0.000000 -0.002456 0.000000
# 2 -0.005830 0.024232 -0.005517 0.000000 0.006298 0.000000
# 3 -0.003002 -0.005517 0.012451 0.000000 -0.004246 0.000000
# 4 0.000000 0.000000 0.000000 0.083470 0.000000 -0.064277
# 5 -0.002456 0.006298 -0.004246 0.000000 0.033356 0.000000
# 6 0.000000 0.000000 0.000000 -0.064277 0.000000 0.128996
#
#
# Mechanical properties :
#
#
# Convention : Reuss Voigt Hill
#
# Bulk Modulus (GPa) = 43.57765 47.47352 45.52558
# Shear Modulus (GPa) = 14.97839 23.27973 19.12906
#
# Velocity S-wave (km/s) = 2.91298 3.63156 3.29194
# Velocity P-wave (km/s) = 6.00010 6.66923 6.34349
#
# Compressibility (1/GPa) = 0.02294754
#
# Stress axis : x y z
#
# Youngs Moduli (GPa) = 66.83225 41.26762 80.31743
#
# Poissons Ratio (x) = 0.24061 0.24110
# Poissons Ratio (y) = 0.38966 0.44309
# Poissons Ratio (z) = 0.20062 0.22766
#
# Static dielectric constant tensor:
#      x y z
#    x 3.363140 0.000000 0.076630 
#    y 0.000000 2.969350 0.000000 
#    z 0.076630 0.000000 3.604760 
# 
# 
# High freq. dielectric constant tensor:
#      x y z
#    x 1.684410 0.000000 0.017080 
#    y 0.000000 1.638770 0.000000 
#    z 0.017080 0.000000 1.701530 
# 
# From -- ./inp_files/79544.got.cif
#   From: 2010.06.25/outbox.cif.g09.slc.cpg/sg10_40_cif.got.tgz:79544.got - 2010.06.27 22:07:45.
