data_PCOD8060075
_publ_section_title
;
Structure prediction by ZEFSAII (Michael W. Deem and Ramdas Pophale) SiO2 
 PCOD8060075
Probable space group: P 2/M
;
_chemical_formula_sum "Si O2"
_cell_formula_units_Z 32
_cell_length_a 23.452536
_cell_length_b 8.781078
_cell_length_c 12.326562
_cell_angle_alpha 90.000000
_cell_angle_beta 46.234726
_cell_angle_gamma 90.000000
_cell_volume 1833.263206
_symmetry_space_group_name_H-M "P 2/M"
_symmetry_group_IT_number 10
_symmetry_cell_setting 'monoclinic'
loop_
_space_group_symop_operation_xyz
x,y,z
-x,y,-z
-x,-y,-z
x,-y,z
loop_
_atom_site_type_symbol
_atom_site_label
_atom_site_fract_x
_atom_site_fract_y
_atom_site_fract_z
Si Si1 0.653988 0.823224 0.164505
Si Si2 0.920730 0.675006 0.545304
Si Si3 0.913310 0.175567 0.327618
Si Si4 0.178506 0.321755 0.737648
Si Si5 0.905687 0.823733 0.949794
Si Si6 0.191786 0.674412 0.109855
Si Si7 0.664448 0.177426 0.403183
Si Si8 0.505061 0.671071 0.622038
O O1 0.672088 0.784335 0.265795
O O2 0.575889 0.738752 0.223550
O O3 0.638668 0.000000 0.168377
O O4 0.728053 0.770779 0.995962
O O5 0.931391 0.500000 0.494237
O O6 0.904940 0.781018 0.463848
O O7 0.846598 0.694664 0.722131
O O8 0.000000 0.732351 0.500000
O O9 0.854180 0.280909 0.337654
O O10 0.001355 0.205187 0.169122
O O11 0.889472 0.000000 0.344320
O O12 0.169711 0.500000 0.771881
O O13 0.269923 0.274515 0.620960
O O14 0.129246 0.227865 0.890276
O O15 0.869594 0.728443 0.899556
O O16 0.884305 0.000000 0.959353
O O17 0.212825 0.500000 0.057406
O O18 0.579391 0.227736 0.561636
O O19 0.676908 0.000000 0.409903
O O20 0.500000 0.675596 0.500000
O O21 0.516143 0.500000 0.650941
#
# Coordination Sequence:
#
# PCOD8060075 Si02
#       8
#     4   4   4   4   4   4   4   4
#     4  10  19  31  49  74 107 141 175 217 262 312
#     4  10  21  38  57  78 104 136 177 225 271 316
#     4  11  24  39  56  76 103 139 181 225 269 317
#     4  12  24  36  54  77 106 142 181 220 264 317
#     4  11  22  36  53  76 106 139 177 220 266 318
#     4  11  21  33  54  79 106 140 178 220 266 315
#     4  10  19  32  50  74 107 141 175 213 260 314
#     4   9  17  29  47  72 104 139 176 212 254 313
#
# _framework density 17.455212
#
# number of rings (size 3 to 8) (size 9 to 14) (size 15 to 20)
#    0.000    1.500    2.500    3.750    0.000    6.750 
#    0.000    0.000    0.000    0.000    0.000    0.875 
#    0.000    7.000    0.000    0.000    0.000    0.000 
#
# Total GULP energy -396973.663487 kJ/mol
# GULP energy per Si atom -12405.426984 kJ/mol
# Density = 1.741548 g / cm^3
# Si number density = 17.455212 Si / 1000 Ang^3
#
#
#
# Elastic Constant Matrix: (Units=GPa)
#
#
# Indices 1 2 3 4 5 6 
#
# 1 73.4626 25.0286 39.4738 0.0000 -9.9258 0.0000
# 2 25.0286 56.2264 25.3680 0.0000 -9.1257 0.0000
# 3 39.4738 25.3680 53.1263 0.0000 -16.2159 0.0000
# 4 0.0000 0.0000 0.0000 28.3115 0.0000 -3.8842
# 5 -9.9258 -9.1257 -16.2159 0.0000 26.8598 0.0000
# 6 0.0000 0.0000 0.0000 -3.8842 0.0000 29.8199
#
#
#
# Elastic Compliance Matrix: (Units=1/GPa)
#
#
# Indices 1 2 3 4 5 6 
#
# 1 0.023244 -0.003333 -0.016431 0.000000 -0.002462 0.000000
# 2 -0.003333 0.023192 -0.008052 0.000000 0.001786 0.000000
# 3 -0.016431 -0.008052 0.039459 0.000000 0.015015 0.000000
# 4 0.000000 0.000000 0.000000 0.035964 0.000000 0.004684
# 5 -0.002462 0.001786 0.015015 0.000000 0.045992 0.000000
# 6 0.000000 0.000000 0.000000 0.004684 0.000000 0.034145
#
#
# Mechanical properties :
#
#
# Convention : Reuss Voigt Hill
#
# Bulk Modulus (GPa) = 33.04376 40.28400 36.66388
# Shear Modulus (GPa) = 18.67645 23.19457 20.93551
#
# Velocity S-wave (km/s) = 3.27458 3.64923 3.46697
# Velocity P-wave (km/s) = 5.76792 6.39410 6.08906
#
# Compressibility (1/GPa) = 0.03026290
#
# Stress axis : x y z
#
# Youngs Moduli (GPa) = 43.02164 43.11839 25.34247
#
# Poissons Ratio (x) = 0.14373 0.41640
# Poissons Ratio (y) = 0.14341 0.20406
# Poissons Ratio (z) = 0.70688 0.34720
#
# Static dielectric constant tensor:
#      x y z
#    x 3.126270 0.000000 -0.221270 
#    y 0.000000 3.390120 0.000000 
#    z -0.221270 0.000000 3.164880 
# 
# 
# High freq. dielectric constant tensor:
#      x y z
#    x 1.655550 0.000000 -0.025450 
#    y 0.000000 1.691470 0.000000 
#    z -0.025450 0.000000 1.658770 
# 
# From -- ./inp_files/49789.got.cif
#   From: 2010.06.25/outbox.cif.g09.slc.cpg/sg10_25_cif.got.tgz:49789.got - 2010.06.27 22:07:45.
