data_PCOD8060062
_publ_section_title
;
Structure prediction by ZEFSAII (Michael W. Deem and Ramdas Pophale) SiO2 
 PCOD8060062
Probable space group: P 2/M
;
_chemical_formula_sum "Si O2"
_cell_formula_units_Z 32
_cell_length_a 36.069296
_cell_length_b 8.359676
_cell_length_c 5.194798
_cell_angle_alpha 90.000000
_cell_angle_beta 90.006491
_cell_angle_gamma 90.000000
_cell_volume 1566.375109
_symmetry_space_group_name_H-M "P 2/M"
_symmetry_group_IT_number 10
_symmetry_cell_setting 'monoclinic'
loop_
_space_group_symop_operation_xyz
x,y,z
-x,y,-z
-x,-y,-z
x,-y,z
loop_
_atom_site_type_symbol
_atom_site_label
_atom_site_fract_x
_atom_site_fract_y
_atom_site_fract_z
Si Si1 0.584071 0.809674 0.498785
Si Si2 0.832273 0.689238 0.497996
Si Si3 0.293462 0.312895 0.990786
Si Si4 0.041689 0.809612 0.000749
Si Si5 0.790793 0.309540 0.998449
Si Si6 0.668251 0.812850 0.509223
Si Si7 0.541901 0.809096 0.998089
Si Si8 0.084844 0.189918 0.500846
O O1 0.626221 0.748624 0.499129
O O2 0.563342 0.742769 0.247295
O O3 0.583152 0.000000 0.503811
O O4 0.562873 0.741409 0.747879
O O5 0.829255 0.500000 0.498293
O O6 0.811497 0.759676 0.747724
O O7 0.874600 0.738604 0.500493
O O8 0.811998 0.760647 0.246952
O O9 0.295566 0.500000 0.052899
O O10 0.308653 0.281140 0.705428
O O11 0.251403 0.249250 0.000934
O O12 0.316501 0.218610 0.205457
O O13 0.062937 0.746028 0.252057
O O14 0.040359 0.000000 0.000382
O O15 0.063172 0.745854 0.750484
O O16 0.000000 0.740343 0.000000
O O17 0.791929 0.500000 0.002872
O O18 0.670201 0.000000 0.447076
O O19 0.541840 0.000000 0.998071
O O20 0.500000 0.743380 0.000000
O O21 0.087420 0.000000 0.500929
#
# Coordination Sequence:
#
# PCOD8060062 Si02
#       8
#     4   4   4   4   4   4   4   4
#     4   9  17  28  43  66 101 140 170 208 268 328
#     4  10  19  34  54  74  98 131 167 202 253 313
#     4  11  22  39  61  83 108 143 192 238 270 315
#     4   9  17  30  49  71  96 129 166 200 238 289
#     4   9  19  35  55  75  98 133 174 214 254 305
#     4  11  22  37  56  82 117 150 179 220 285 346
#     4   9  15  24  40  64  96 135 176 214 256 311
#     4  10  19  31  49  74 100 125 160 206 248 287
#
# _framework density 20.429334999999998
#
# number of rings (size 3 to 8) (size 9 to 14) (size 15 to 20)
#    0.000    2.250    0.000    3.750    0.000    7.000 
#    0.000    3.750    0.000    2.250    0.000    0.000 
#    0.000   35.000    0.000    0.000    0.000    0.000 
#
# Total GULP energy -396869.268119 kJ/mol
# GULP energy per Si atom -12402.164629 kJ/mol
# Density = 2.038284 g / cm^3
# Si number density = 20.429335 Si / 1000 Ang^3
#
#
#
# Elastic Constant Matrix: (Units=GPa)
#
#
# Indices 1 2 3 4 5 6 
#
# 1 191.5872 11.5281 91.3775 0.0000 -0.9922 0.0000
# 2 11.5281 14.1345 9.3426 0.0000 -0.4691 0.0000
# 3 91.3775 9.3426 191.6234 0.0000 -0.6204 0.0000
# 4 0.0000 0.0000 0.0000 13.8310 0.0000 1.1909
# 5 -0.9922 -0.4691 -0.6204 0.0000 51.3758 0.0000
# 6 0.0000 0.0000 0.0000 1.1909 0.0000 42.8649
#
#
#
# Elastic Compliance Matrix: (Units=1/GPa)
#
#
# Indices 1 2 3 4 5 6 
#
# 1 0.006928 -0.003580 -0.003129 0.000000 0.000063 0.000000
# 2 -0.003580 0.074975 -0.001946 0.000000 0.000592 0.000000
# 3 -0.003129 -0.001946 0.006805 0.000000 0.000004 0.000000
# 4 0.000000 0.000000 0.000000 0.072475 0.000000 -0.002014
# 5 0.000063 0.000592 0.000004 0.000000 0.019471 0.000000
# 6 0.000000 0.000000 0.000000 -0.002014 0.000000 0.023385
#
#
# Mechanical properties :
#
#
# Convention : Reuss Voigt Hill
#
# Bulk Modulus (GPa) = 14.00606 69.09351 41.54979
# Shear Modulus (GPa) = 20.39585 40.62082 30.50834
#
# Velocity S-wave (km/s) = 3.16311 4.46394 3.86859
# Velocity P-wave (km/s) = 4.49568 7.77581 6.35115
#
# Compressibility (1/GPa) = 0.07139766
#
# Stress axis : x y z
#
# Youngs Moduli (GPa) = 144.35150 13.33783 146.94139
#
# Poissons Ratio (x) = 0.04775 0.45974
# Poissons Ratio (y) = 0.51677 0.28600
# Poissons Ratio (z) = 0.45163 0.02596
#
# Static dielectric constant tensor:
#      x y z
#    x 3.902870 0.000000 0.000660 
#    y 0.000000 3.076190 0.000000 
#    z 0.000660 0.000000 4.045710 
# 
# 
# High freq. dielectric constant tensor:
#      x y z
#    x 1.817870 0.000000 -0.000040 
#    y 0.000000 1.741750 0.000000 
#    z -0.000040 0.000000 1.819260 
# 
# From -- ./inp_files/13561.got.cif
#   From: 2010.06.25/outbox.cif.g09.slc.cpg/sg10_7_cif.got.tgz:13561.got - 2010.06.27 22:07:45.
