data_PCOD8060230
_publ_section_title
;
Structure prediction by ZEFSAII (Michael W. Deem and Ramdas Pophale) SiO2 
 PCOD8060230
Probable space group: P 2/M
;
_chemical_formula_sum "Si O2"
_cell_formula_units_Z 30
_cell_length_a 30.441326
_cell_length_b 10.211944
_cell_length_c 30.564436
_cell_angle_alpha 90.000000
_cell_angle_beta 9.663745
_cell_angle_gamma 90.000000
_cell_volume 1594.961278
_symmetry_space_group_name_H-M "P 2/M"
_symmetry_group_IT_number 10
_symmetry_cell_setting 'monoclinic'
loop_
_space_group_symop_operation_xyz
x,y,z
-x,y,-z
-x,-y,-z
x,-y,z
loop_
_atom_site_type_symbol
_atom_site_label
_atom_site_fract_x
_atom_site_fract_y
_atom_site_fract_z
Si Si1 0.271103 0.500000 0.259302
Si Si2 0.056621 0.147383 0.396121
Si Si3 0.323716 0.655889 0.786582
Si Si4 0.556372 0.744047 0.857479
Si Si5 0.466943 0.655321 0.848992
Si Si6 0.730849 0.851684 0.239549
Si Si7 0.067379 0.344624 0.669647
Si Si8 0.857192 0.345898 0.307780
O O1 0.290862 0.621383 0.272443
O O2 0.000000 0.500000 0.500000
O O3 0.500000 0.500000 0.000000
O O4 0.000000 0.206449 0.500000
O O5 0.783604 0.145979 0.636928
O O6 0.161215 0.000000 0.297097
O O7 0.290978 0.229637 0.144591
O O8 0.319081 0.500000 0.779999
O O9 0.291410 0.740002 0.774913
O O10 0.590132 0.701455 0.547969
O O11 0.094896 0.698137 0.043966
O O12 0.474959 0.724966 0.887611
O O13 0.469089 0.500000 0.853806
O O14 0.707892 0.705635 0.583399
O O15 0.208165 0.704375 0.078407
O O16 0.500000 0.827247 0.500000
O O17 0.717032 0.000000 0.233564
O O18 0.000000 0.828310 0.000000
O O19 0.074050 0.500000 0.665925
O O20 0.111128 0.283212 0.675011
O O21 0.853632 0.500000 0.316517
#
# Coordination Sequence:
#
# PCOD8060230 Si02
#       8
#     2   4   4   4   4   4   4   4
#     4  12  24  36  54  80 114 148 168 202 270 332
#     4  11  24  41  60  78 100 135 184 230 261 301
#     4  10  19  31  51  77 107 136 176 227 273 313
#     4  12  22  38  57  82 112 138 175 217 265 323
#     4  10  19  32  49  79 110 141 168 206 256 322
#     4  10  21  36  52  73 104 143 184 221 262 318
#     4   9  17  29  49  72 109 143 170 202 258 315
#     4   9  17  30  48  77 106 136 171 217 266 315
#
# _framework density 18.809232999999999
#
# number of rings (size 3 to 8) (size 9 to 14) (size 15 to 20)
#    0.000    1.733    0.667    5.200    0.000    4.800 
#    0.000    0.000    0.000    0.000    0.000   18.667 
#    0.000    0.000    0.000    0.000    0.000    0.000 
#
# Total GULP energy -372012.531667 kJ/mol
# GULP energy per Si atom -12400.417722 kJ/mol
# Density = 1.876642 g / cm^3
# Si number density = 18.809233 Si / 1000 Ang^3
#
#
#
# Elastic Constant Matrix: (Units=GPa)
#
#
# Indices 1 2 3 4 5 6 
#
# 1 154.5584 49.9030 73.2858 0.0000 -0.3027 0.0000
# 2 49.9030 51.3055 28.3258 0.0000 2.9993 0.0000
# 3 73.2858 28.3258 171.2629 0.0000 -2.7848 0.0000
# 4 0.0000 0.0000 0.0000 8.1423 0.0000 -0.7605
# 5 -0.3027 2.9993 -2.7848 0.0000 30.0470 0.0000
# 6 0.0000 0.0000 0.0000 -0.7605 0.0000 12.4403
#
#
#
# Elastic Compliance Matrix: (Units=1/GPa)
#
#
# Indices 1 2 3 4 5 6 
#
# 1 0.010816 -0.008817 -0.003159 0.000000 0.000696 0.000000
# 2 -0.008817 0.028822 -0.001044 0.000000 -0.003063 0.000000
# 3 -0.003159 -0.001044 0.007376 0.000000 0.000756 0.000000
# 4 0.000000 0.000000 0.000000 0.123521 0.000000 0.007551
# 5 0.000696 -0.003063 0.000756 0.000000 0.033664 0.000000
# 6 0.000000 0.000000 0.000000 0.007551 0.000000 0.080846
#
#
# Mechanical properties :
#
#
# Convention : Reuss Voigt Hill
#
# Bulk Modulus (GPa) = 47.67651 75.57290 61.62471
# Shear Modulus (GPa) = 15.71954 25.16672 20.44313
#
# Velocity S-wave (km/s) = 2.89404 3.66183 3.30034
# Velocity P-wave (km/s) = 6.04729 7.62526 6.88165
#
# Compressibility (1/GPa) = 0.02097469
#
# Stress axis : x y z
#
# Youngs Moduli (GPa) = 92.45605 34.69513 135.58275
#
# Poissons Ratio (x) = 0.30591 0.42826
# Poissons Ratio (y) = 0.81519 0.14153
# Poissons Ratio (z) = 0.29204 0.03622
#
# Static dielectric constant tensor:
#      x y z
#    x 3.554570 0.000000 -0.054380 
#    y 0.000000 3.202310 0.000000 
#    z -0.054380 0.000000 3.645810 
# 
# 
# High freq. dielectric constant tensor:
#      x y z
#    x 1.737150 0.000000 -0.003930 
#    y 0.000000 1.690990 0.000000 
#    z -0.003930 0.000000 1.755990 
# 
# From -- ./inp_files/94062.got.cif
#   From: 2010.06.25/outbox.cif.g09.slc.cpg/sg10_48_cif.got.tgz:94062.got - 2010.06.27 22:07:45.
