data_PCOD8060394
_publ_section_title
;
Structure prediction by ZEFSAII (Michael W. Deem and Ramdas Pophale) SiO2 
 PCOD8060394
Probable space group: P 2/M
;
_chemical_formula_sum "Si O2"
_cell_formula_units_Z 24
_cell_length_a 21.693244
_cell_length_b 9.002414
_cell_length_c 12.074089
_cell_angle_alpha 90.000000
_cell_angle_beta 37.738333
_cell_angle_gamma 90.000000
_cell_volume 1443.208906
_symmetry_space_group_name_H-M "P 2/M"
_symmetry_group_IT_number 10
_symmetry_cell_setting 'monoclinic'
loop_
_space_group_symop_operation_xyz
x,y,z
-x,y,-z
-x,-y,-z
x,-y,z
loop_
_atom_site_type_symbol
_atom_site_label
_atom_site_fract_x
_atom_site_fract_y
_atom_site_fract_z
Si Si1 0.829394 0.325465 0.911282
Si Si2 0.663298 0.828692 0.265234
Si Si3 0.978010 0.835758 0.401616
Si Si4 0.563452 0.327616 0.018788
Si Si5 0.232435 0.175788 0.227969
Si Si6 0.508248 0.171618 0.667825
O O1 0.825088 0.500000 0.902855
O O2 0.782928 0.248929 0.869479
O O3 0.945548 0.277097 0.767046
O O4 0.761999 0.273767 0.111352
O O5 0.585741 0.792903 0.277246
O O6 0.611572 0.791508 0.456282
O O7 0.696033 0.000000 0.214591
O O8 0.861038 0.785720 0.556610
O O9 0.000000 0.839848 0.500000
O O10 0.994190 0.000000 0.327662
O O11 0.589223 0.500000 0.996656
O O12 0.497474 0.274160 0.216534
O O13 0.500000 0.295244 0.000000
O O14 0.666853 0.237044 0.859786
O O15 0.240724 0.000000 0.197316
O O16 0.505965 0.000000 0.707326
#
# Coordination Sequence:
#
# PCOD8060394 Si02
#       6
#     4   4   4   4   4   4
#     4  11  19  26  43  72 100 127 154 186 237 293
#     4   9  17  30  48  70  96 125 158 196 236 279
#     4   8  16  29  44  63  90 124 158 193 232 277
#     4  11  23  35  48  70  99 128 159 198 241 282
#     4  10  19  32  48  65  90 126 165 200 233 274
#     4   9  18  32  50  69  91 125 164 198 234 278
#
# _framework density 16.629608999999999
#
# number of rings (size 3 to 8) (size 9 to 14) (size 15 to 20)
#    0.000    2.333    1.667    4.500    0.000    5.667 
#    0.000    1.667    0.000    0.000    0.000    1.167 
#    0.000    9.333    0.000    0.000    0.000    0.000 
#
# Total GULP energy -297538.572150 kJ/mol
# GULP energy per Si atom -12397.440506 kJ/mol
# Density = 1.659176 g / cm^3
# Si number density = 16.629609 Si / 1000 Ang^3
#
#
#
# Elastic Constant Matrix: (Units=GPa)
#
#
# Indices 1 2 3 4 5 6 
#
# 1 52.2429 40.7878 45.9594 0.0000 -4.0387 0.0000
# 2 40.7878 105.0414 69.1653 0.0000 -12.0182 0.0000
# 3 45.9594 69.1653 137.9189 0.0000 -21.2951 0.0000
# 4 0.0000 0.0000 0.0000 15.8903 0.0000 1.9967
# 5 -4.0387 -12.0182 -21.2951 0.0000 21.7964 0.0000
# 6 0.0000 0.0000 0.0000 1.9967 0.0000 17.4300
#
#
#
# Elastic Compliance Matrix: (Units=1/GPa)
#
#
# Indices 1 2 3 4 5 6 
#
# 1 0.031416 -0.008031 -0.007332 0.000000 -0.005771 0.000000
# 2 -0.008031 0.016286 -0.005104 0.000000 0.002505 0.000000
# 3 -0.007332 -0.005104 0.013672 0.000000 0.009184 0.000000
# 4 0.000000 0.000000 0.000000 0.063850 0.000000 -0.007314
# 5 -0.005771 0.002505 0.009184 0.000000 0.055164 0.000000
# 6 0.000000 0.000000 0.000000 -0.007314 0.000000 0.058210
#
#
# Mechanical properties :
#
#
# Convention : Reuss Voigt Hill
#
# Bulk Modulus (GPa) = 48.92776 67.44759 58.18768
# Shear Modulus (GPa) = 17.46133 20.30939 18.88536
#
# Velocity S-wave (km/s) = 3.24391 3.49847 3.37359
# Velocity P-wave (km/s) = 6.59671 7.54757 7.08810
#
# Compressibility (1/GPa) = 0.02043829
#
# Stress axis : x y z
#
# Youngs Moduli (GPa) = 31.83109 61.40190 73.14237
#
# Poissons Ratio (x) = 0.49312 0.53631
# Poissons Ratio (y) = 0.25564 0.37335
# Poissons Ratio (z) = 0.23340 0.31342
#
# Static dielectric constant tensor:
#      x y z
#    x 2.724770 0.000000 -0.280590 
#    y 0.000000 3.113770 0.000000 
#    z -0.280590 0.000000 3.513120 
# 
# 
# High freq. dielectric constant tensor:
#      x y z
#    x 1.579150 0.000000 -0.021340 
#    y 0.000000 1.644340 0.000000 
#    z -0.021340 0.000000 1.655840 
# 
# From -- ./inp_files/54592.got.cif
#   From: 2010.06.25/outbox.cif.g09.slc.cpg/sg10_28_cif.got.tgz:54592.got - 2010.06.27 22:07:45.
