data_PCOD8060779
_publ_section_title
;
Structure prediction by ZEFSAII (Michael W. Deem and Ramdas Pophale) SiO2 
 PCOD8060779
Probable space group: P 2/M
;
_chemical_formula_sum "Si O2"
_cell_formula_units_Z 28
_cell_length_a 19.020000
_cell_length_b 9.119774
_cell_length_c 15.339246
_cell_angle_alpha 90.000000
_cell_angle_beta 142.455007
_cell_angle_gamma 90.000000
_cell_volume 1621.398703
_symmetry_space_group_name_H-M "P 2/M"
_symmetry_group_IT_number 10
_symmetry_cell_setting 'monoclinic'
loop_
_space_group_symop_operation_xyz
x,y,z
-x,y,-z
-x,-y,-z
x,-y,z
loop_
_atom_site_type_symbol
_atom_site_label
_atom_site_fract_x
_atom_site_fract_y
_atom_site_fract_z
Si Si1 0.142276 0.328843 0.805504
Si Si2 0.500875 0.826386 0.399970
Si Si3 0.878344 0.328572 0.556066
Si Si4 0.718873 0.330477 0.887603
Si Si5 0.136909 0.164962 0.629571
Si Si6 0.873769 0.670429 0.877840
Si Si7 0.727676 0.326434 0.574240
O O1 0.145778 0.500000 0.788044
O O2 0.187484 0.244779 0.764467
O O3 0.011683 0.282697 0.703191
O O4 0.229981 0.287128 0.968564
O O5 0.500000 0.773624 0.500000
O O6 0.386503 0.774146 0.238581
O O7 0.605539 0.754057 0.450089
O O8 0.510319 0.000000 0.403082
O O9 0.869126 0.500000 0.528271
O O10 0.823248 0.246664 0.418906
O O11 0.803939 0.282180 0.566224
O O12 0.678914 0.500000 0.844852
O O13 0.820992 0.301456 0.920128
O O14 0.000000 0.169987 0.500000
O O15 0.184691 0.000000 0.674286
O O16 0.887412 0.500000 0.868815
O O17 0.792705 0.737401 0.723227
O O18 0.000000 0.745281 0.000000
O O19 0.706118 0.500000 0.558126
#
# Coordination Sequence:
#
# PCOD8060779 Si02
#       7
#     4   4   4   4   4   4   4
#     4   9  17  30  50  78 107 132 162 205 255 301
#     4  11  23  37  51  68  97 136 177 215 250 290
#     4   9  17  30  50  78 107 132 162 205 255 301
#     4  10  19  32  53  76  99 130 169 210 250 295
#     4   9  17  29  47  72 103 140 173 199 237 297
#     4   9  16  27  47  76 104 127 156 199 248 297
#     4  10  19  32  53  76  99 130 169 210 250 295
#
# _framework density 17.26904
#
# number of rings (size 3 to 8) (size 9 to 14) (size 15 to 20)
#    0.000    2.429    1.429    1.714    0.000    6.857 
#    0.000    0.000    0.000    4.286    0.000    6.000 
#    0.000    0.000    0.000    0.000    0.000    0.000 
#
# Total GULP energy -347213.283034 kJ/mol
# GULP energy per Si atom -12400.474394 kJ/mol
# Density = 1.722974 g / cm^3
# Si number density = 17.269040 Si / 1000 Ang^3
#
#
#
# Elastic Constant Matrix: (Units=GPa)
#
#
# Indices 1 2 3 4 5 6 
#
# 1 55.9423 34.1023 44.7297 0.0000 -15.1205 0.0000
# 2 34.1023 52.4190 38.8450 0.0000 -8.3826 0.0000
# 3 44.7297 38.8450 105.8891 0.0000 -12.0140 0.0000
# 4 0.0000 0.0000 0.0000 18.6810 0.0000 -3.3618
# 5 -15.1205 -8.3826 -12.0140 0.0000 35.0542 0.0000
# 6 0.0000 0.0000 0.0000 -3.3618 0.0000 16.9560
#
#
#
# Elastic Compliance Matrix: (Units=1/GPa)
#
#
# Indices 1 2 3 4 5 6 
#
# 1 0.037280 -0.016325 -0.008717 0.000000 0.009190 0.000000
# 2 -0.016325 0.033674 -0.005559 0.000000 -0.000894 0.000000
# 3 -0.008717 -0.005559 0.015178 0.000000 0.000113 0.000000
# 4 0.000000 0.000000 0.000000 0.055511 0.000000 0.011006
# 5 0.009190 -0.000894 0.000113 0.000000 0.032316 0.000000
# 6 0.000000 0.000000 0.000000 0.011006 0.000000 0.061158
#
#
# Mechanical properties :
#
#
# Convention : Reuss Voigt Hill
#
# Bulk Modulus (GPa) = 40.10903 49.95606 45.03255
# Shear Modulus (GPa) = 16.41345 20.57645 18.49495
#
# Velocity S-wave (km/s) = 3.08629 3.45559 3.27615
# Velocity P-wave (km/s) = 5.99805 6.70167 6.35960
#
# Compressibility (1/GPa) = 0.02493204
#
# Stress axis : x y z
#
# Youngs Moduli (GPa) = 26.82368 29.69688 65.88494
#
# Poissons Ratio (x) = 0.48479 0.57431
# Poissons Ratio (y) = 0.43788 0.36623
# Poissons Ratio (z) = 0.23382 0.16508
#
# Static dielectric constant tensor:
#      x y z
#    x 3.180530 0.000000 -0.113790 
#    y 0.000000 3.062730 0.000000 
#    z -0.113790 0.000000 3.211560 
# 
# 
# High freq. dielectric constant tensor:
#      x y z
#    x 1.660450 0.000000 -0.013610 
#    y 0.000000 1.648200 0.000000 
#    z -0.013610 0.000000 1.659550 
# 
# From -- ./inp_files/48741.got.cif
#   From: 2010.06.25/outbox.cif.g09.slc.cpg/sg10_25_cif.got.tgz:48741.got - 2010.06.27 22:07:45.
