data_PCOD8060578
_publ_section_title
;
Structure prediction by ZEFSAII (Michael W. Deem and Ramdas Pophale) SiO2 
 PCOD8060578
Probable space group: P 2/M
;
_chemical_formula_sum "Si O2"
_cell_formula_units_Z 32
_cell_length_a 13.971062
_cell_length_b 18.550030
_cell_length_c 14.022446
_cell_angle_alpha 90.000000
_cell_angle_beta 148.251440
_cell_angle_gamma 90.000000
_cell_volume 1912.240486
_symmetry_space_group_name_H-M "P 2/M"
_symmetry_group_IT_number 10
_symmetry_cell_setting 'monoclinic'
loop_
_space_group_symop_operation_xyz
x,y,z
-x,y,-z
-x,-y,-z
x,-y,z
loop_
_atom_site_type_symbol
_atom_site_label
_atom_site_fract_x
_atom_site_fract_y
_atom_site_fract_z
Si Si1 0.511660 0.417934 0.900522
Si Si2 0.242075 0.185189 0.359127
Si Si3 0.443640 0.422630 0.558306
Si Si4 0.096637 0.668274 0.301622
Si Si5 0.644310 0.188347 0.757840
Si Si6 0.897682 0.581966 0.508712
Si Si7 0.940844 0.079582 0.057692
Si Si8 0.294502 0.336310 0.092452
O O1 0.588968 0.500000 0.959914
O O2 0.317699 0.413482 0.685456
O O3 0.641526 0.360154 0.958952
O O4 0.500000 0.393740 0.000000
O O5 0.155676 0.248481 0.349827
O O6 0.437708 0.162169 0.566435
O O7 0.262772 0.209092 0.265245
O O8 0.104297 0.118356 0.253175
O O9 0.500000 0.435521 0.500000
O O10 0.398214 0.500000 0.568259
O O11 0.265680 0.375027 0.404904
O O12 0.616105 0.389879 0.757117
O O13 0.044540 0.639558 0.362397
O O14 0.923380 0.657652 0.086159
O O15 0.643765 0.255843 0.828834
O O16 0.753817 0.124808 0.903484
O O17 0.956984 0.500000 0.586103
O O18 0.000000 0.606137 0.500000
O O19 0.908244 0.000000 0.074786
O O20 0.000000 0.070752 0.000000
#
# Coordination Sequence:
#
# PCOD8060578 Si02
#       8
#     4   4   4   4   4   4   4   4
#     4  10  20  35  53  74 101 133 171 218 271 320
#     4  10  19  32  51  74 102 138 173 208 255 307
#     4  11  24  38  50  69  99 135 179 226 263 302
#     4  12  22  34  54  75 100 137 176 220 263 315
#     4  10  19  32  51  74 102 138 173 208 255 307
#     4  10  20  35  53  74 101 133 171 218 271 320
#     4   9  18  32  50  75 105 133 165 206 252 309
#     4  12  22  34  54  75 100 137 176 220 263 315
#
# _framework density 16.734297000000002
#
# number of rings (size 3 to 8) (size 9 to 14) (size 15 to 20)
#    0.000    1.500    3.750    2.250    0.000    5.000 
#    0.000    3.750    0.000    0.000    0.000    0.000 
#    0.000    1.000    0.500    0.000    0.000    0.000 
#
# Total GULP energy -396733.620927 kJ/mol
# GULP energy per Si atom -12397.925654 kJ/mol
# Density = 1.669621 g / cm^3
# Si number density = 16.734297 Si / 1000 Ang^3
#
#
#
# Elastic Constant Matrix: (Units=GPa)
#
#
# Indices 1 2 3 4 5 6 
#
# 1 56.1163 30.4555 16.7709 0.0000 -5.8688 0.0000
# 2 30.4555 112.3302 40.8758 0.0000 -12.7525 0.0000
# 3 16.7709 40.8758 121.3894 0.0000 6.0966 0.0000
# 4 0.0000 0.0000 0.0000 25.3420 0.0000 -2.9275
# 5 -5.8688 -12.7525 6.0966 0.0000 15.5576 0.0000
# 6 0.0000 0.0000 0.0000 -2.9275 0.0000 28.5261
#
#
#
# Elastic Compliance Matrix: (Units=1/GPa)
#
#
# Indices 1 2 3 4 5 6 
#
# 1 0.021335 -0.004636 -0.001632 0.000000 0.004888 0.000000
# 2 -0.004636 0.012885 -0.004224 0.000000 0.010468 0.000000
# 3 -0.001632 -0.004224 0.010293 0.000000 -0.008112 0.000000
# 4 0.000000 0.000000 0.000000 0.039934 0.000000 0.004098
# 5 0.004888 0.010468 -0.008112 0.000000 0.077880 0.000000
# 6 0.000000 0.000000 0.000000 0.004098 0.000000 0.035476
#
#
# Mechanical properties :
#
#
# Convention : Reuss Voigt Hill
#
# Bulk Modulus (GPa) = 42.50008 51.78226 47.14117
# Shear Modulus (GPa) = 22.06246 27.33406 24.69826
#
# Velocity S-wave (km/s) = 3.63491 4.04594 3.84592
# Velocity P-wave (km/s) = 6.56269 7.26891 6.92481
#
# Compressibility (1/GPa) = 0.02352937
#
# Stress axis : x y z
#
# Youngs Moduli (GPa) = 46.87146 77.61212 97.15179
#
# Poissons Ratio (x) = 0.35978 0.15856
# Poissons Ratio (y) = 0.21728 0.41036
# Poissons Ratio (z) = 0.07650 0.32783
#
# Static dielectric constant tensor:
#      x y z
#    x 3.067970 0.000000 0.072480 
#    y 0.000000 3.253880 0.000000 
#    z 0.072480 0.000000 3.349940 
# 
# 
# High freq. dielectric constant tensor:
#      x y z
#    x 1.618270 0.000000 0.011690 
#    y 0.000000 1.627660 0.000000 
#    z 0.011690 0.000000 1.664050 
# 
# From -- ./inp_files/67730.got.cif
#   From: 2010.06.25/outbox.cif.g09.slc.cpg/sg10_34_cif.got.tgz:67730.got - 2010.06.27 22:07:45.
