data_PCOD8060529
_publ_section_title
;
Structure prediction by ZEFSAII (Michael W. Deem and Ramdas Pophale) SiO2 
 PCOD8060529
Probable space group: P 2/M
;
_chemical_formula_sum "Si O2"
_cell_formula_units_Z 28
_cell_length_a 14.214596
_cell_length_b 9.334692
_cell_length_c 17.776518
_cell_angle_alpha 90.000000
_cell_angle_beta 140.650618
_cell_angle_gamma 90.000000
_cell_volume 1495.557342
_symmetry_space_group_name_H-M "P 2/M"
_symmetry_group_IT_number 10
_symmetry_cell_setting 'monoclinic'
loop_
_space_group_symop_operation_xyz
x,y,z
-x,y,-z
-x,-y,-z
x,-y,z
loop_
_atom_site_type_symbol
_atom_site_label
_atom_site_fract_x
_atom_site_fract_y
_atom_site_fract_z
Si Si1 0.846788 0.252823 0.938157
Si Si2 0.905333 0.843250 0.138726
Si Si3 0.541216 0.659029 0.803060
Si Si4 0.424700 0.837273 0.030733
Si Si5 0.616714 0.835677 0.419394
Si Si6 0.176445 0.669492 0.348283
Si Si7 0.311213 0.155483 0.303234
O O1 0.712124 0.357832 0.879208
O O2 0.777903 0.153169 0.830592
O O3 0.887375 0.162665 0.037254
O O4 0.000000 0.326053 0.000000
O O5 0.006538 0.716695 0.233719
O O6 0.975045 0.000000 0.198748
O O7 0.751746 0.827938 0.087669
O O8 0.473739 0.500000 0.762554
O O9 0.526541 0.725619 0.876196
O O10 0.438342 0.759843 0.689625
O O11 0.471482 0.000000 0.081504
O O12 0.500000 0.788817 0.000000
O O13 0.756675 0.749005 0.537993
O O14 0.486542 0.827602 0.400378
O O15 0.660531 0.000000 0.428808
O O16 0.187768 0.500000 0.365681
O O17 0.260842 0.714784 0.324455
O O18 0.280024 0.000000 0.322070
#
# Coordination Sequence:
#
# PCOD8060529 Si02
#       7
#     4   4   4   4   4   4   4
#     4  10  19  32  50  77 107 148 183 224 259 316
#     4  10  20  35  55  80 108 143 184 224 268 321
#     4  10  21  35  54  83 114 142 177 220 272 325
#     4   9  19  38  63  88 112 140 177 220 266 322
#     4  10  21  38  56  73  99 142 192 231 265 313
#     4  12  24  34  48  73 108 145 181 228 276 319
#     4  10  20  34  52  73  98 140 193 235 268 312
#
# _framework density 18.722118999999999
#
# number of rings (size 3 to 8) (size 9 to 14) (size 15 to 20)
#    0.000    1.857    1.429    3.000    0.000   11.429 
#    0.000    0.000    0.000    0.857    0.000    6.000 
#    0.000    0.000    0.000    0.000    0.000    0.000 
#
# Total GULP energy -347026.921237 kJ/mol
# GULP energy per Si atom -12393.818616 kJ/mol
# Density = 1.867951 g / cm^3
# Si number density = 18.722119 Si / 1000 Ang^3
#
#
#
# Elastic Constant Matrix: (Units=GPa)
#
#
# Indices 1 2 3 4 5 6 
#
# 1 83.9468 33.9773 22.7065 0.0000 -11.8686 0.0000
# 2 33.9773 160.2656 56.2617 0.0000 -10.5695 0.0000
# 3 22.7065 56.2617 93.1584 0.0000 -4.9322 0.0000
# 4 0.0000 0.0000 0.0000 24.0676 0.0000 0.4718
# 5 -11.8686 -10.5695 -4.9322 0.0000 15.4060 0.0000
# 6 0.0000 0.0000 0.0000 0.4718 0.0000 15.2623
#
#
#
# Elastic Compliance Matrix: (Units=1/GPa)
#
#
# Indices 1 2 3 4 5 6 
#
# 1 0.014475 -0.001763 -0.001970 0.000000 0.009311 0.000000
# 2 -0.001763 0.008379 -0.004474 0.000000 0.002958 0.000000
# 3 -0.001970 -0.004474 0.013910 0.000000 -0.000134 0.000000
# 4 0.000000 0.000000 0.000000 0.041575 0.000000 -0.001285
# 5 0.009311 0.002958 -0.000134 0.000000 0.074069 0.000000
# 6 0.000000 0.000000 0.000000 -0.001285 0.000000 0.065561
#
#
# Mechanical properties :
#
#
# Convention : Reuss Voigt Hill
#
# Bulk Modulus (GPa) = 49.14294 62.58467 55.86380
# Shear Modulus (GPa) = 20.73250 25.90888 23.32069
#
# Velocity S-wave (km/s) = 3.33134 3.72407 3.53317
# Velocity P-wave (km/s) = 6.41114 7.21057 6.82257
#
# Compressibility (1/GPa) = 0.02034880
#
# Stress axis : x y z
#
# Youngs Moduli (GPa) = 69.08311 119.34373 71.89245
#
# Poissons Ratio (x) = 0.21041 0.14166
# Poissons Ratio (y) = 0.12180 0.32166
# Poissons Ratio (z) = 0.13613 0.53396
#
# Static dielectric constant tensor:
#      x y z
#    x 3.198660 0.000000 0.098710 
#    y 0.000000 3.295510 0.000000 
#    z 0.098710 0.000000 3.506070 
# 
# 
# High freq. dielectric constant tensor:
#      x y z
#    x 1.691520 0.000000 0.001040 
#    y 0.000000 1.723380 0.000000 
#    z 0.001040 0.000000 1.731500 
# 
# From -- ./inp_files/77710.got.cif
#   From: 2010.06.25/outbox.cif.g09.slc.cpg/sg10_39_cif.got.tgz:77710.got - 2010.06.27 22:07:45.
