data_PCOD8060906
_publ_section_title
;
Structure prediction by ZEFSAII (Michael W. Deem and Ramdas Pophale) SiO2 
 PCOD8060906
Probable space group: P 2/M
;
_chemical_formula_sum "Si O2"
_cell_formula_units_Z 32
_cell_length_a 14.007490
_cell_length_b 8.969080
_cell_length_c 20.753837
_cell_angle_alpha 90.000000
_cell_angle_beta 41.083647
_cell_angle_gamma 90.000000
_cell_volume 1713.475247
_symmetry_space_group_name_H-M "P 2/M"
_symmetry_group_IT_number 10
_symmetry_cell_setting 'monoclinic'
loop_
_space_group_symop_operation_xyz
x,y,z
-x,y,-z
-x,-y,-z
x,-y,z
loop_
_atom_site_type_symbol
_atom_site_label
_atom_site_fract_x
_atom_site_fract_y
_atom_site_fract_z
Si Si1 0.148998 0.177382 0.687648
Si Si2 0.154670 0.326710 0.162833
Si Si3 0.694078 0.176139 0.520003
Si Si4 0.400095 0.831499 0.804733
Si Si5 0.375318 0.828905 0.958121
Si Si6 0.319366 0.327234 0.206195
Si Si7 0.307154 0.670529 0.353262
Si Si8 0.365400 0.171412 0.683648
O O1 0.208940 0.234283 0.588444
O O2 0.254395 0.245709 0.689571
O O3 0.989749 0.238726 0.781182
O O4 0.141364 0.000000 0.694745
O O5 0.126716 0.500000 0.166043
O O6 0.199679 0.291474 0.213264
O O7 0.282538 0.275597 0.050916
O O8 0.762386 0.235009 0.552769
O O9 0.529009 0.238005 0.595382
O O10 0.694089 0.000000 0.522820
O O11 0.313139 0.813529 0.916133
O O12 0.523494 0.707363 0.740217
O O13 0.304377 0.808621 0.788295
O O14 0.468070 0.000000 0.767296
O O15 0.542556 0.778341 0.875725
O O16 0.365762 0.000000 0.986347
O O17 0.370396 0.500000 0.176709
O O18 0.242088 0.294831 0.314994
O O19 0.285273 0.500000 0.383409
O O20 0.376039 0.000000 0.658129
#
# Coordination Sequence:
#
# PCOD8060906 Si02
#       8
#     4   4   4   4   4   4   4   4
#     4  10  20  34  52  73  98 130 169 208 241 282
#     4  11  23  37  50  67  99 138 169 201 244 293
#     4   9  17  31  52  77 102 127 158 200 250 296
#     4   8  15  29  50  76 102 125 154 197 246 291
#     4  10  19  32  54  81 102 123 159 206 249 290
#     4   9  19  35  53  73  98 131 167 200 241 293
#     4   9  16  28  49  75  99 124 159 201 241 287
#     4   8  14  29  54  78  98 125 161 199 242 291
#
# _framework density 18.675495999999999
#
# number of rings (size 3 to 8) (size 9 to 14) (size 15 to 20)
#    0.000    2.750    0.000    2.625    0.000    5.500 
#    0.000    3.750    0.000   11.250    0.000    0.000 
#    0.000    0.000    0.000    0.000    0.000    0.000 
#
# Total GULP energy -396530.604465 kJ/mol
# GULP energy per Si atom -12391.581390 kJ/mol
# Density = 1.863299 g / cm^3
# Si number density = 18.675496 Si / 1000 Ang^3
#
#
#
# Elastic Constant Matrix: (Units=GPa)
#
#
# Indices 1 2 3 4 5 6 
#
# 1 62.9322 22.6318 28.8506 0.0000 18.2492 0.0000
# 2 22.6318 34.0368 15.2650 0.0000 7.3768 0.0000
# 3 28.8506 15.2650 29.0482 0.0000 14.3254 0.0000
# 4 0.0000 0.0000 0.0000 22.2728 0.0000 2.5299
# 5 18.2492 7.3768 14.3254 0.0000 29.5424 0.0000
# 6 0.0000 0.0000 0.0000 2.5299 0.0000 16.8503
#
#
#
# Elastic Compliance Matrix: (Units=1/GPa)
#
#
# Indices 1 2 3 4 5 6 
#
# 1 0.031850 -0.009180 -0.023969 0.000000 -0.005760 0.000000
# 2 -0.009180 0.041087 -0.013420 0.000000 0.001919 0.000000
# 3 -0.023969 -0.013420 0.074033 0.000000 -0.017742 0.000000
# 4 0.000000 0.000000 0.000000 0.045677 0.000000 -0.006858
# 5 -0.005760 0.001919 -0.017742 0.000000 0.045532 0.000000
# 6 0.000000 0.000000 0.000000 -0.006858 0.000000 0.060376
#
#
# Mechanical properties :
#
#
# Convention : Reuss Voigt Hill
#
# Bulk Modulus (GPa) = 18.57609 28.83464 23.70537
# Shear Modulus (GPa) = 12.20598 17.68442 14.94520
#
# Velocity S-wave (km/s) = 2.55930 3.08056 2.83195
# Velocity P-wave (km/s) = 4.32455 5.30344 4.83881
#
# Compressibility (1/GPa) = 0.05383264
#
# Stress axis : x y z
#
# Youngs Moduli (GPa) = 31.39756 24.33883 13.50744
#
# Poissons Ratio (x) = 0.22342 0.32375
# Poissons Ratio (y) = 0.28822 0.18127
# Poissons Ratio (z) = 0.75255 0.32663
#
# Static dielectric constant tensor:
#      x y z
#    x 3.653560 0.000000 0.481820 
#    y 0.000000 3.266040 0.000000 
#    z 0.481820 0.000000 3.390030 
# 
# 
# High freq. dielectric constant tensor:
#      x y z
#    x 1.719560 0.000000 0.038460 
#    y 0.000000 1.709740 0.000000 
#    z 0.038460 0.000000 1.708870 
# 
# From -- ./inp_files/84708.got.cif
#   From: 2010.06.25/outbox.cif.g09.slc.cpg/sg10_43_cif.got.tgz:84708.got - 2010.06.27 22:07:45.
