data_PCOD8060135
_publ_section_title
;
Structure prediction by ZEFSAII (Michael W. Deem and Ramdas Pophale) SiO2 
 PCOD8060135
Probable space group: P 2/M
;
_chemical_formula_sum "Si O2"
_cell_formula_units_Z 32
_cell_length_a 14.312127
_cell_length_b 9.214037
_cell_length_c 19.710707
_cell_angle_alpha 90.000000
_cell_angle_beta 46.303344
_cell_angle_gamma 90.000000
_cell_volume 1879.313001
_symmetry_space_group_name_H-M "P 2/M"
_symmetry_group_IT_number 10
_symmetry_cell_setting 'monoclinic'
loop_
_space_group_symop_operation_xyz
x,y,z
-x,y,-z
-x,-y,-z
x,-y,z
loop_
_atom_site_type_symbol
_atom_site_label
_atom_site_fract_x
_atom_site_fract_y
_atom_site_fract_z
Si Si1 0.467662 0.327483 0.695610
Si Si2 0.456233 0.332764 0.850302
Si Si3 0.238953 0.332766 0.301083
Si Si4 0.867488 0.171090 0.770935
Si Si5 0.123758 0.672291 0.646594
Si Si6 0.246329 0.671162 0.447963
Si Si7 0.373546 0.327741 0.601731
Si Si8 0.621100 0.829543 0.982528
O O1 0.479022 0.500000 0.691703
O O2 0.414069 0.277490 0.796113
O O3 0.610994 0.261714 0.611676
O O4 0.376275 0.276824 0.679344
O O5 0.420006 0.500000 0.878972
O O6 0.608607 0.308033 0.783356
O O7 0.376307 0.241422 0.944768
O O8 0.202498 0.500000 0.304345
O O9 0.162009 0.230236 0.289025
O O10 0.193902 0.287024 0.399611
O O11 0.751996 0.214401 0.879071
O O12 0.995815 0.246221 0.736012
O O13 0.887175 0.000000 0.756888
O O14 0.104212 0.500000 0.662771
O O15 0.150194 0.722414 0.555544
O O16 0.242113 0.729013 0.633568
O O17 0.261914 0.500000 0.444691
O O18 0.500000 0.264776 0.500000
O O19 0.376833 0.500000 0.594253
O O20 0.607552 0.000000 0.999248
O O21 0.500000 0.769083 0.000000
#
# Coordination Sequence:
#
# PCOD8060135 Si02
#       8
#     4   4   4   4   4   4   4   4
#     4   8  13  24  44  76 108 125 148 192 243 284
#     4   9  17  28  49  78 102 121 149 200 250 284
#     4   9  17  30  48  71  98 128 160 194 234 284
#     4  11  23  36  48  65  95 132 164 203 248 287
#     4  10  19  31  50  75 100 130 166 199 231 279
#     4   8  14  26  45  71 102 130 157 191 231 278
#     4   9  14  24  48  79 104 127 158 196 235 279
#     4  10  20  35  52  68  90 125 167 205 244 292
#
# _framework density 17.0275
#
# number of rings (size 3 to 8) (size 9 to 14) (size 15 to 20)
#    0.000    2.750    2.500    1.875    0.000    1.750 
#    0.000    3.125    0.000    2.625    0.000    5.250 
#    0.000    0.000    0.000    0.000    0.000    0.000 
#
# Total GULP energy -396636.856037 kJ/mol
# GULP energy per Si atom -12394.901751 kJ/mol
# Density = 1.698874 g / cm^3
# Si number density = 17.027500 Si / 1000 Ang^3
#
#
#
# Elastic Constant Matrix: (Units=GPa)
#
#
# Indices 1 2 3 4 5 6 
#
# 1 121.1983 33.0582 74.0149 0.0000 5.8014 0.0000
# 2 33.0582 30.7588 36.5515 0.0000 -2.4558 0.0000
# 3 74.0149 36.5515 114.4697 0.0000 3.8203 0.0000
# 4 0.0000 0.0000 0.0000 13.3508 0.0000 -7.3046
# 5 5.8014 -2.4558 3.8203 0.0000 26.5404 0.0000
# 6 0.0000 0.0000 0.0000 -7.3046 0.0000 5.4118
#
#
#
# Elastic Compliance Matrix: (Units=1/GPa)
#
#
# Indices 1 2 3 4 5 6 
#
# 1 0.014780 -0.007868 -0.006946 0.000000 -0.002959 0.000000
# 2 -0.007868 0.058021 -0.013742 0.000000 0.009067 0.000000
# 3 -0.006946 -0.013742 0.017692 0.000000 -0.002300 0.000000
# 4 0.000000 0.000000 0.000000 0.286418 0.000000 0.386593
# 5 -0.002959 0.009067 -0.002300 0.000000 0.039495 0.000000
# 6 0.000000 0.000000 0.000000 0.386593 0.000000 0.706587
#
#
# Mechanical properties :
#
#
# Convention : Reuss Voigt Hill
#
# Bulk Modulus (GPa) = 29.95641 61.51955 45.73798
# Shear Modulus (GPa) = 4.19734 17.24738 10.72236
#
# Velocity S-wave (km/s) = 1.57175 3.18608 2.51212
# Velocity P-wave (km/s) = 4.57439 7.05286 5.94423
#
# Compressibility (1/GPa) = 0.03338183
#
# Stress axis : x y z
#
# Youngs Moduli (GPa) = 67.65743 17.23513 56.52307
#
# Poissons Ratio (x) = 0.13560 0.39260
# Poissons Ratio (y) = 0.53230 0.77676
# Poissons Ratio (z) = 0.46994 0.23685
#
# Static dielectric constant tensor:
#      x y z
#    x 3.328830 0.000000 0.194930 
#    y 0.000000 2.746680 0.000000 
#    z 0.194930 0.000000 3.238960 
# 
# 
# High freq. dielectric constant tensor:
#      x y z
#    x 1.652950 0.000000 0.013930 
#    y 0.000000 1.611300 0.000000 
#    z 0.013930 0.000000 1.650170 
# 
# From -- ./inp_files/66000.got.cif
#   From: 2010.06.25/outbox.cif.g09.slc.cpg/sg10_33_cif.got.tgz:66000.got - 2010.06.27 22:07:45.
