data_PCOD8060501
_publ_section_title
;
Structure prediction by ZEFSAII (Michael W. Deem and Ramdas Pophale) SiO2 
 PCOD8060501
Probable space group: P 2/M
;
_chemical_formula_sum "Si O2"
_cell_formula_units_Z 32
_cell_length_a 20.437944
_cell_length_b 13.037261
_cell_length_c 20.437241
_cell_angle_alpha 90.000000
_cell_angle_beta 20.822546
_cell_angle_gamma 90.000000
_cell_volume 1935.773937
_symmetry_space_group_name_H-M "P 2/M"
_symmetry_group_IT_number 10
_symmetry_cell_setting 'monoclinic'
loop_
_space_group_symop_operation_xyz
x,y,z
-x,y,-z
-x,-y,-z
x,-y,z
loop_
_atom_site_type_symbol
_atom_site_label
_atom_site_fract_x
_atom_site_fract_y
_atom_site_fract_z
Si Si1 0.561910 0.382589 0.139969
Si Si2 0.921249 0.264697 0.505851
Si Si3 0.947406 0.121448 0.947417
Si Si4 0.704075 0.879043 0.295949
Si Si5 0.119542 0.240652 0.122470
Si Si6 0.490999 0.738954 0.082046
Si Si7 0.812196 0.879462 0.812974
Si Si8 0.856066 0.382860 0.440898
O O1 0.625591 0.500000 0.084452
O O2 0.564867 0.350362 0.060824
O O3 0.362095 0.366402 0.358101
O O4 0.701374 0.312717 0.050695
O O5 0.713227 0.227361 0.708194
O O6 0.937728 0.353177 0.435724
O O7 0.000000 0.310504 0.500000
O O8 0.034694 0.164914 0.378901
O O9 0.913495 0.184792 0.914261
O O10 0.148827 0.153831 0.786149
O O11 0.940108 0.000000 0.940356
O O12 0.786457 0.153934 0.148645
O O13 0.500000 0.830301 0.500000
O O14 0.685672 0.000000 0.314288
O O15 0.147568 0.153455 0.150485
O O16 0.943845 0.311172 0.303442
O O17 0.500000 0.695257 0.000000
O O18 0.613545 0.840332 0.975149
O O19 0.816530 0.000000 0.803739
O O20 0.910403 0.500000 0.376501
#
# Coordination Sequence:
#
# PCOD8060501 Si02
#       8
#     4   4   4   4   4   4   4   4
#     4   9  19  34  50  68  92 120 152 199 254 299
#     4  10  19  33  48  67  90 113 153 202 246 298
#     4   9  17  29  48  75 106 137 165 194 227 269
#     4   8  15  29  48  73 105 136 166 196 228 268
#     4  10  19  32  50  72  98 127 163 198 234 284
#     4  10  19  33  48  67  90 113 153 202 246 298
#     4  10  21  34  47  64  93 130 162 196 236 284
#     4   9  19  34  50  68  92 120 152 199 254 299
#
# _framework density 16.530856
#
# number of rings (size 3 to 8) (size 9 to 14) (size 15 to 20)
#    0.000    2.625    1.250    1.500    0.000    2.500 
#    0.000    0.000    0.000    4.500    0.000    7.000 
#    0.000   12.000    0.000    0.000    0.000    0.000 
#
# Total GULP energy -396732.976120 kJ/mol
# GULP energy per Si atom -12397.905504 kJ/mol
# Density = 1.649323 g / cm^3
# Si number density = 16.530856 Si / 1000 Ang^3
#
#
#
# Elastic Constant Matrix: (Units=GPa)
#
#
# Indices 1 2 3 4 5 6 
#
# 1 120.5819 38.3997 45.7616 0.0000 6.5108 0.0000
# 2 38.3997 68.9675 21.8978 0.0000 1.6188 0.0000
# 3 45.7616 21.8978 93.1140 0.0000 -3.8319 0.0000
# 4 0.0000 0.0000 0.0000 18.9467 0.0000 0.4629
# 5 6.5108 1.6188 -3.8319 0.0000 20.5300 0.0000
# 6 0.0000 0.0000 0.0000 0.4629 0.0000 20.5291
#
#
#
# Elastic Compliance Matrix: (Units=1/GPa)
#
#
# Indices 1 2 3 4 5 6 
#
# 1 0.011977 -0.005017 -0.004884 0.000000 -0.004314 0.000000
# 2 -0.005017 0.017848 -0.001738 0.000000 -0.000141 0.000000
# 3 -0.004884 -0.001738 0.013723 0.000000 0.004247 0.000000
# 4 0.000000 0.000000 0.000000 0.052809 0.000000 -0.001191
# 5 -0.004314 -0.000141 0.004247 0.000000 0.050881 0.000000
# 6 0.000000 0.000000 0.000000 -0.001191 0.000000 0.048738
#
#
# Mechanical properties :
#
#
# Convention : Reuss Voigt Hill
#
# Bulk Modulus (GPa) = 49.33018 54.97574 52.15296
# Shear Modulus (GPa) = 22.12288 23.77477 22.94883
#
# Velocity S-wave (km/s) = 3.66222 3.79648 3.72995
# Velocity P-wave (km/s) = 6.91292 7.24889 7.08290
#
# Compressibility (1/GPa) = 0.02027157
#
# Stress axis : x y z
#
# Youngs Moduli (GPa) = 83.49212 56.02942 72.86895
#
# Poissons Ratio (x) = 0.28108 0.35590
# Poissons Ratio (y) = 0.41885 0.12662
# Poissons Ratio (z) = 0.40778 0.09736
#
# Static dielectric constant tensor:
#      x y z
#    x 2.983400 0.000000 -0.110770 
#    y 0.000000 2.835130 0.000000 
#    z -0.110770 0.000000 3.573140 
# 
# 
# High freq. dielectric constant tensor:
#      x y z
#    x 1.622160 0.000000 -0.006210 
#    y 0.000000 1.610310 0.000000 
#    z -0.006210 0.000000 1.655690 
# 
# From -- ./inp_files/86244.got.cif
#   From: 2010.06.25/outbox.cif.g09.slc.cpg/sg10_44_cif.got.tgz:86244.got - 2010.06.27 22:07:45.
