data_PCOD8060870
_publ_section_title
;
Structure prediction by ZEFSAII (Michael W. Deem and Ramdas Pophale) SiO2 
 PCOD8060870
Probable space group: P 2/M
;
_chemical_formula_sum "Si O2"
_cell_formula_units_Z 28
_cell_length_a 10.182989
_cell_length_b 9.121616
_cell_length_c 30.018160
_cell_angle_alpha 90.000000
_cell_angle_beta 146.140021
_cell_angle_gamma 90.000000
_cell_volume 1553.513815
_symmetry_space_group_name_H-M "P 2/M"
_symmetry_group_IT_number 10
_symmetry_cell_setting 'monoclinic'
loop_
_space_group_symop_operation_xyz
x,y,z
-x,y,-z
-x,-y,-z
x,-y,z
loop_
_atom_site_type_symbol
_atom_site_label
_atom_site_fract_x
_atom_site_fract_y
_atom_site_fract_z
Si Si1 0.404708 0.673190 0.906696
Si Si2 0.856771 0.173218 0.501271
Si Si3 0.310624 0.170440 0.229534
Si Si4 0.861925 0.673170 0.081449
Si Si5 0.100796 0.325627 0.739563
Si Si6 0.668693 0.173606 0.662237
Si Si7 0.194069 0.828615 0.674615
O O1 0.395112 0.500000 0.906895
O O2 0.241734 0.732385 0.900874
O O3 0.301951 0.729159 0.830903
O O4 0.677370 0.722132 0.990632
O O5 0.588430 0.228802 0.425829
O O6 0.000000 0.242886 0.500000
O O7 0.978731 0.217305 0.581961
O O8 0.858211 0.000000 0.495315
O O9 0.295171 0.220662 0.276443
O O10 0.565950 0.211330 0.282966
O O11 0.114610 0.252749 0.144738
O O12 0.261268 0.000000 0.211174
O O13 0.898836 0.500000 0.091883
O O14 0.077601 0.500000 0.732723
O O15 0.180037 0.269298 0.714213
O O16 0.851642 0.257046 0.682571
O O17 0.699056 0.000000 0.664385
O O18 0.182217 0.000000 0.683808
#
# Coordination Sequence:
#
# PCOD8060870 Si02
#       7
#     4   4   4   4   4   4   4
#     4   8  16  31  52  76 102 137 178 218 253 302
#     4   9  16  32  58  82 102 134 181 222 254 302
#     4  10  19  32  53  83 110 132 169 221 271 312
#     4   9  16  31  55  78 101 134 179 221 257 303
#     4  11  22  37  54  77 110 144 176 213 264 318
#     4  10  19  33  57  83 105 134 176 222 263 308
#     4  10  21  37  56  78 108 142 176 217 263 312
#
# _framework density 18.023655999999999
#
# number of rings (size 3 to 8) (size 9 to 14) (size 15 to 20)
#    0.000    2.429    2.857    1.286    0.000    1.143 
#    0.000    7.143    0.000    5.143    0.000    0.000 
#    0.000    0.000    0.000    0.000    0.000    0.000 
#
# Total GULP energy -347136.519297 kJ/mol
# GULP energy per Si atom -12397.732832 kJ/mol
# Density = 1.798263 g / cm^3
# Si number density = 18.023656 Si / 1000 Ang^3
#
#
#
# Elastic Constant Matrix: (Units=GPa)
#
#
# Indices 1 2 3 4 5 6 
#
# 1 51.0472 25.4153 24.8803 0.0000 1.3017 0.0000
# 2 25.4153 35.5188 32.4670 0.0000 4.4524 0.0000
# 3 24.8803 32.4670 139.4668 0.0000 14.4481 0.0000
# 4 0.0000 0.0000 0.0000 22.5227 0.0000 -8.0855
# 5 1.3017 4.4524 14.4481 0.0000 28.5165 0.0000
# 6 0.0000 0.0000 0.0000 -8.0855 0.0000 5.9994
#
#
#
# Elastic Compliance Matrix: (Units=1/GPa)
#
#
# Indices 1 2 3 4 5 6 
#
# 1 0.030598 -0.021564 -0.000678 0.000000 0.002314 0.000000
# 2 -0.021564 0.051018 -0.007711 0.000000 -0.003074 0.000000
# 3 -0.000678 -0.007711 0.009455 0.000000 -0.003555 0.000000
# 4 0.000000 0.000000 0.000000 0.086016 0.000000 0.115924
# 5 0.002314 -0.003074 -0.003555 0.000000 0.037243 0.000000
# 6 0.000000 0.000000 0.000000 0.115924 0.000000 0.322914
#
#
# Mechanical properties :
#
#
# Convention : Reuss Voigt Hill
#
# Bulk Modulus (GPa) = 32.08900 43.50644 37.79772
# Shear Modulus (GPa) = 8.22994 20.95906 14.59450
#
# Velocity S-wave (km/s) = 2.13918 3.41378 2.84868
# Velocity P-wave (km/s) = 4.89325 6.30313 5.64240
#
# Compressibility (1/GPa) = 0.03116333
#
# Stress axis : x y z
#
# Youngs Moduli (GPa) = 32.68236 19.60080 105.76847
#
# Poissons Ratio (x) = 0.42267 0.07173
# Poissons Ratio (y) = 0.70476 0.81562
# Poissons Ratio (z) = 0.02216 0.15115
#
# Static dielectric constant tensor:
#      x y z
#    x 3.181540 0.000000 0.030700 
#    y 0.000000 2.979840 0.000000 
#    z 0.030700 0.000000 3.736520 
# 
# 
# High freq. dielectric constant tensor:
#      x y z
#    x 1.683050 0.000000 0.007500 
#    y 0.000000 1.664050 0.000000 
#    z 0.007500 0.000000 1.717170 
# 
# From -- ./inp_files/37313.got.cif
#   From: 2010.06.25/outbox.cif.g09.slc.cpg/sg10_19_cif.got.tgz:37313.got - 2010.06.27 22:07:45.
