data_PCOD8060563
_publ_section_title
;
Structure prediction by ZEFSAII (Michael W. Deem and Ramdas Pophale) SiO2 
 PCOD8060563
Probable space group: P 2/M
;
_chemical_formula_sum "Si O2"
_cell_formula_units_Z 32
_cell_length_a 12.883970
_cell_length_b 9.276843
_cell_length_c 14.059759
_cell_angle_alpha 90.000000
_cell_angle_beta 85.492132
_cell_angle_gamma 90.000000
_cell_volume 1675.260072
_symmetry_space_group_name_H-M "P 2/M"
_symmetry_group_IT_number 10
_symmetry_cell_setting 'monoclinic'
loop_
_space_group_symop_operation_xyz
x,y,z
-x,y,-z
-x,-y,-z
x,-y,z
loop_
_atom_site_type_symbol
_atom_site_label
_atom_site_fract_x
_atom_site_fract_y
_atom_site_fract_z
Si Si1 0.811853 0.828093 0.880253
Si Si2 0.638452 0.658285 0.251443
Si Si3 0.730325 0.170647 0.683960
Si Si4 0.849434 0.656192 0.346742
Si Si5 0.483530 0.828628 0.392260
Si Si6 0.235734 0.330737 0.933994
Si Si7 0.974268 0.668125 0.160256
Si Si8 0.115787 0.170187 0.483741
O O1 0.748892 0.777531 0.790305
O O2 0.928173 0.765877 0.873874
O O3 0.818053 0.000000 0.886278
O O4 0.747068 0.763122 0.972493
O O5 0.583507 0.500000 0.255042
O O6 0.750315 0.640277 0.288753
O O7 0.571709 0.772161 0.314881
O O8 0.666446 0.709749 0.142037
O O9 0.624913 0.231041 0.643251
O O10 0.827792 0.227339 0.614764
O O11 0.725376 0.000000 0.679925
O O12 0.873345 0.500000 0.391994
O O13 0.945713 0.701799 0.272196
O O14 0.823842 0.774089 0.428101
O O15 0.500000 0.772549 0.500000
O O16 0.488789 0.000000 0.390980
O O17 0.238710 0.500000 0.957585
O O18 0.123070 0.288952 0.899125
O O19 0.002607 0.500000 0.144057
O O20 0.000000 0.234994 0.500000
O O21 0.115294 0.000000 0.487309
#
# Coordination Sequence:
#
# PCOD8060563 Si02
#       8
#     4   4   4   4   4   4   4   4
#     4  11  21  33  51  75 105 139 175 217 256 297
#     4   9  19  36  56  78 103 130 166 215 263 304
#     4   9  20  36  50  73 109 139 167 209 263 314
#     4   9  18  32  50  74 103 133 166 208 259 310
#     4  10  20  36  59  81 102 134 172 210 257 313
#     4   9  19  36  55  75 104 140 173 210 259 308
#     4   9  18  33  52  74 105 143 174 205 254 310
#     4  10  19  32  51  73 101 139 175 207 248 299
#
# _framework density 19.101510999999999
#
# number of rings (size 3 to 8) (size 9 to 14) (size 15 to 20)
#    0.000    2.500    0.000    3.750    0.000    6.000 
#    0.000    6.250    0.000    3.750    0.000    0.000 
#    0.000    0.000    0.000    0.000    0.000    0.000 
#
# Total GULP energy -396623.916166 kJ/mol
# GULP energy per Si atom -12394.497380 kJ/mol
# Density = 1.905803 g / cm^3
# Si number density = 19.101511 Si / 1000 Ang^3
#
#
#
# Elastic Constant Matrix: (Units=GPa)
#
#
# Indices 1 2 3 4 5 6 
#
# 1 76.9533 28.3168 55.6708 0.0000 -12.5361 0.0000
# 2 28.3168 42.3793 46.6918 0.0000 -7.6158 0.0000
# 3 55.6708 46.6918 160.9001 0.0000 -12.0532 0.0000
# 4 0.0000 0.0000 0.0000 24.2527 0.0000 -3.8282
# 5 -12.5361 -7.6158 -12.0532 0.0000 28.8232 0.0000
# 6 0.0000 0.0000 0.0000 -3.8282 0.0000 21.2626
#
#
#
# Elastic Compliance Matrix: (Units=1/GPa)
#
#
# Indices 1 2 3 4 5 6 
#
# 1 0.019626 -0.007599 -0.004229 0.000000 0.004760 0.000000
# 2 -0.007599 0.038375 -0.008253 0.000000 0.003383 0.000000
# 3 -0.004229 -0.008253 0.010088 0.000000 0.000199 0.000000
# 4 0.000000 0.000000 0.000000 0.042439 0.000000 0.007641
# 5 0.004760 0.003383 0.000199 0.000000 0.037741 0.000000
# 6 0.000000 0.000000 0.000000 0.007641 0.000000 0.048407
#
#
# Mechanical properties :
#
#
# Convention : Reuss Voigt Hill
#
# Bulk Modulus (GPa) = 35.80812 60.17683 47.99247
# Shear Modulus (GPa) = 20.31304 24.83790 22.57547
#
# Velocity S-wave (km/s) = 3.26456 3.60989 3.44156
# Velocity P-wave (km/s) = 5.74428 6.99623 6.40093
#
# Compressibility (1/GPa) = 0.02792663
#
# Stress axis : x y z
#
# Youngs Moduli (GPa) = 50.95351 26.05840 99.12648
#
# Poissons Ratio (x) = 0.19802 0.41918
# Poissons Ratio (y) = 0.38720 0.81814
# Poissons Ratio (z) = 0.21547 0.21507
#
# Static dielectric constant tensor:
#      x y z
#    x 3.461900 0.000000 -0.094960 
#    y 0.000000 3.258960 0.000000 
#    z -0.094960 0.000000 3.770830 
# 
# 
# High freq. dielectric constant tensor:
#      x y z
#    x 1.726430 0.000000 -0.010210 
#    y 0.000000 1.722590 0.000000 
#    z -0.010210 0.000000 1.754950 
# 
# From -- ./inp_files/63846.got.cif
#   From: 2010.06.25/outbox.cif.g09.slc.cpg/sg10_32_cif.got.tgz:63846.got - 2010.06.27 22:07:45.
