data_PCOD8060464
_publ_section_title
;
Structure prediction by ZEFSAII (Michael W. Deem and Ramdas Pophale) SiO2 
 PCOD8060464
Probable space group: P 2/M
;
_chemical_formula_sum "Si O2"
_cell_formula_units_Z 24
_cell_length_a 16.662431
_cell_length_b 13.225616
_cell_length_c 10.046677
_cell_angle_alpha 90.000000
_cell_angle_beta 33.794261
_cell_angle_gamma 90.000000
_cell_volume 1231.451642
_symmetry_space_group_name_H-M "P 2/M"
_symmetry_group_IT_number 10
_symmetry_cell_setting 'monoclinic'
loop_
_space_group_symop_operation_xyz
x,y,z
-x,y,-z
-x,-y,-z
x,-y,z
loop_
_atom_site_type_symbol
_atom_site_label
_atom_site_fract_x
_atom_site_fract_y
_atom_site_fract_z
Si Si1 0.401655 0.884842 0.516338
Si Si2 0.089627 0.614829 0.188449
Si Si3 0.646814 0.612687 0.646674
Si Si4 0.205102 0.329929 0.297589
Si Si5 0.550869 0.198939 0.071045
Si Si6 0.160041 0.279819 0.823200
O O1 0.500000 0.841818 0.500000
O O2 0.503410 0.881618 0.245915
O O3 0.256850 0.820446 0.698453
O O4 0.354749 0.000000 0.608020
O O5 0.041363 0.500000 0.222203
O O6 0.196358 0.611744 0.168679
O O7 0.951527 0.682505 0.419306
O O8 0.166468 0.664318 0.956259
O O9 0.595510 0.500000 0.678750
O O10 0.692135 0.611973 0.739444
O O11 0.518941 0.691670 0.797532
O O12 0.782453 0.643254 0.367708
O O13 0.276212 0.218914 0.171872
O O14 0.500000 0.155363 0.000000
O O15 0.000000 0.247015 0.000000
#
# Coordination Sequence:
#
# PCOD8060464 Si02
#       6
#     4   4   4   4   4   4
#     4  10  22  42  64  81 101 135 179 228 283 332
#     4  11  21  31  50  78 113 154 183 210 252 309
#     4  10  19  32  51  77 110 148 184 217 256 306
#     4  10  19  32  49  75 111 146 185 215 251 308
#     4   9  20  35  55  81 108 138 177 223 270 314
#     4  11  22  36  56  81 110 142 179 226 267 316
#
# _framework density 19.489194999999999
#
# number of rings (size 3 to 8) (size 9 to 14) (size 15 to 20)
#    0.000    1.833    1.667    3.500    0.000    5.667 
#    0.000    0.000    0.000    5.500    0.000    4.667 
#    0.000    0.000    0.000    0.000    0.000    0.000 
#
# Total GULP energy -297534.230005 kJ/mol
# GULP energy per Si atom -12397.259584 kJ/mol
# Density = 1.944484 g / cm^3
# Si number density = 19.489195 Si / 1000 Ang^3
#
#
#
# Elastic Constant Matrix: (Units=GPa)
#
#
# Indices 1 2 3 4 5 6 
#
# 1 82.7830 29.1837 32.9618 0.0000 12.5745 0.0000
# 2 29.1837 57.0654 23.9044 0.0000 3.1979 0.0000
# 3 32.9618 23.9044 99.8692 0.0000 17.7407 0.0000
# 4 0.0000 0.0000 0.0000 16.6981 0.0000 -1.1741
# 5 12.5745 3.1979 17.7407 0.0000 32.7569 0.0000
# 6 0.0000 0.0000 0.0000 -1.1741 0.0000 13.5794
#
#
#
# Elastic Compliance Matrix: (Units=1/GPa)
#
#
# Indices 1 2 3 4 5 6 
#
# 1 0.016302 -0.006841 -0.003043 0.000000 -0.003942 0.000000
# 2 -0.006841 0.022362 -0.003511 0.000000 0.002345 0.000000
# 3 -0.003043 -0.003511 0.012823 0.000000 -0.005434 0.000000
# 4 0.000000 0.000000 0.000000 0.060253 0.000000 0.005210
# 5 -0.003942 0.002345 -0.005434 0.000000 0.034755 0.000000
# 6 0.000000 0.000000 0.000000 0.005210 0.000000 0.074091
#
#
# Mechanical properties :
#
#
# Convention : Reuss Voigt Hill
#
# Bulk Modulus (GPa) = 40.49130 45.75751 43.12441
# Shear Modulus (GPa) = 19.56112 22.85140 21.20626
#
# Velocity S-wave (km/s) = 3.17154 3.42792 3.30222
# Velocity P-wave (km/s) = 5.85090 6.26074 6.05928
#
# Compressibility (1/GPa) = 0.02469666
#
# Stress axis : x y z
#
# Youngs Moduli (GPa) = 61.34260 44.71899 77.98495
#
# Poissons Ratio (x) = 0.30594 0.23728
# Poissons Ratio (y) = 0.41967 0.27380
# Poissons Ratio (z) = 0.18664 0.15701
#
# Static dielectric constant tensor:
#      x y z
#    x 3.644040 0.000000 0.134220 
#    y 0.000000 3.164270 0.000000 
#    z 0.134220 0.000000 3.797310 
# 
# 
# High freq. dielectric constant tensor:
#      x y z
#    x 1.765940 0.000000 0.012280 
#    y 0.000000 1.718670 0.000000 
#    z 0.012280 0.000000 1.771410 
# 
# From -- ./inp_files/29294.got.cif
#   From: 2010.06.25/outbox.cif.g09.slc.cpg/sg10_15_cif.got.tgz:29294.got - 2010.06.27 22:07:45.
