data_PCOD8060055
_publ_section_title
;
Structure prediction by ZEFSAII (Michael W. Deem and Ramdas Pophale) SiO2 
 PCOD8060055
Probable space group: P 2/M
;
_chemical_formula_sum "Si O2"
_cell_formula_units_Z 32
_cell_length_a 20.320378
_cell_length_b 9.432123
_cell_length_c 26.534376
_cell_angle_alpha 90.000000
_cell_angle_beta 20.084851
_cell_angle_gamma 90.000000
_cell_volume 1746.484789
_symmetry_space_group_name_H-M "P 2/M"
_symmetry_group_IT_number 10
_symmetry_cell_setting 'monoclinic'
loop_
_space_group_symop_operation_xyz
x,y,z
-x,y,-z
-x,-y,-z
x,-y,z
loop_
_atom_site_type_symbol
_atom_site_label
_atom_site_fract_x
_atom_site_fract_y
_atom_site_fract_z
Si Si1 0.372613 0.656296 0.790809
Si Si2 0.677381 0.341767 0.660564
Si Si3 0.702825 0.164805 0.379001
Si Si4 0.357031 0.164531 0.464700
Si Si5 0.354738 0.331681 0.962734
Si Si6 0.697864 0.663644 0.886437
Si Si7 0.060217 0.332210 0.091719
Si Si8 0.055180 0.833512 0.595514
O O1 0.349447 0.500000 0.783535
O O2 0.524267 0.649757 0.726408
O O3 0.446461 0.760334 0.694115
O O4 0.170802 0.706499 0.960154
O O5 0.763159 0.500000 0.608122
O O6 0.563541 0.282843 0.791554
O O7 0.845748 0.232753 0.525391
O O8 0.500000 0.196673 0.500000
O O9 0.700021 0.217747 0.438852
O O10 0.858361 0.253103 0.236032
O O11 0.757040 0.000000 0.336768
O O12 0.181067 0.200525 0.554394
O O13 0.406602 0.000000 0.429385
O O14 0.353999 0.500000 0.961089
O O15 0.327073 0.275829 0.039148
O O16 0.182255 0.274567 0.051818
O O17 0.766696 0.500000 0.837443
O O18 0.851112 0.759792 0.747909
O O19 0.500000 0.679907 0.000000
O O20 0.027429 0.500000 0.119273
O O21 0.028419 0.000000 0.606270
#
# Coordination Sequence:
#
# PCOD8060055 Si02
#       8
#     4   4   4   4   4   4   4   4
#     4   8  15  28  48  74  97 117 148 193 240 280
#     4   8  14  28  50  72  94 120 152 192 235 278
#     4  10  21  35  48  66  96 130 161 193 230 276
#     4   9  18  32  50  72  95 122 158 194 230 278
#     4   8  15  30  52  75  96 120 155 198 237 274
#     4  10  20  33  49  70  96 127 162 195 230 278
#     4   9  17  31  52  75  96 120 155 197 238 280
#     4  10  19  31  49  73  98 122 153 195 238 279
#
# _framework density 18.322519
#
# number of rings (size 3 to 8) (size 9 to 14) (size 15 to 20)
#    0.000    3.000    0.000    2.625    0.000    2.000 
#    0.000    3.750    0.000    7.500    0.000    0.000 
#    0.000    0.000    0.000    0.000    0.000    0.000 
#
# Total GULP energy -396715.499307 kJ/mol
# GULP energy per Si atom -12397.359353 kJ/mol
# Density = 1.828082 g / cm^3
# Si number density = 18.322519 Si / 1000 Ang^3
#
#
#
# Elastic Constant Matrix: (Units=GPa)
#
#
# Indices 1 2 3 4 5 6 
#
# 1 20.8766 16.9277 25.5078 0.0000 -4.2680 0.0000
# 2 16.9277 70.7710 68.3742 0.0000 1.2834 0.0000
# 3 25.5078 68.3742 150.2829 0.0000 11.3679 0.0000
# 4 0.0000 0.0000 0.0000 23.1390 0.0000 -0.6742
# 5 -4.2680 1.2834 11.3679 0.0000 15.6453 0.0000
# 6 0.0000 0.0000 0.0000 -0.6742 0.0000 15.2120
#
#
#
# Elastic Compliance Matrix: (Units=1/GPa)
#
#
# Indices 1 2 3 4 5 6 
#
# 1 0.073548 -0.007028 -0.011478 0.000000 0.028980 0.000000
# 2 -0.007028 0.026552 -0.011193 0.000000 0.004037 0.000000
# 3 -0.011478 -0.011193 0.014668 0.000000 -0.012871 0.000000
# 4 0.000000 0.000000 0.000000 0.043273 0.000000 0.001918
# 5 0.028980 0.004037 -0.012871 0.000000 0.080843 0.000000
# 6 0.000000 0.000000 0.000000 0.001918 0.000000 0.065823
#
#
# Mechanical properties :
#
#
# Convention : Reuss Voigt Hill
#
# Bulk Modulus (GPa) = 18.06029 51.50557 34.78293
# Shear Modulus (GPa) = 13.06981 19.54064 16.30522
#
# Velocity S-wave (km/s) = 2.67370 3.26925 2.98636
# Velocity P-wave (km/s) = 4.40566 6.51323 5.56022
#
# Compressibility (1/GPa) = 0.05537011
#
# Stress axis : x y z
#
# Youngs Moduli (GPa) = 13.59654 37.66260 68.17477
#
# Poissons Ratio (x) = 0.26471 0.78250
# Poissons Ratio (y) = 0.09556 0.76305
# Poissons Ratio (z) = 0.15606 0.42154
#
# Static dielectric constant tensor:
#      x y z
#    x 3.268750 0.000000 0.300880 
#    y 0.000000 3.248870 0.000000 
#    z 0.300880 0.000000 3.530610 
# 
# 
# High freq. dielectric constant tensor:
#      x y z
#    x 1.683160 0.000000 0.016510 
#    y 0.000000 1.690970 0.000000 
#    z 0.016510 0.000000 1.719150 
# 
# From -- ./inp_files/86942.got.cif
#   From: 2010.06.25/outbox.cif.g09.slc.cpg/sg10_44_cif.got.tgz:86942.got - 2010.06.27 22:07:45.
