data_PCOD8060225
_publ_section_title
;
Structure prediction by ZEFSAII (Michael W. Deem and Ramdas Pophale) SiO2 
 PCOD8060225
Probable space group: P 2/M
;
_chemical_formula_sum "Si O2"
_cell_formula_units_Z 32
_cell_length_a 18.797354
_cell_length_b 9.570634
_cell_length_c 28.539693
_cell_angle_alpha 90.000000
_cell_angle_beta 20.217664
_cell_angle_gamma 90.000000
_cell_volume 1774.372387
_symmetry_space_group_name_H-M "P 2/M"
_symmetry_group_IT_number 10
_symmetry_cell_setting 'monoclinic'
loop_
_space_group_symop_operation_xyz
x,y,z
-x,y,-z
-x,-y,-z
x,-y,z
loop_
_atom_site_type_symbol
_atom_site_label
_atom_site_fract_x
_atom_site_fract_y
_atom_site_fract_z
Si Si1 0.851707 0.847551 0.634388
Si Si2 0.497490 0.342344 0.137523
Si Si3 0.632941 0.335508 0.373403
Si Si4 0.045249 0.165799 0.610990
Si Si5 0.448325 0.664895 0.385566
Si Si6 0.320365 0.658308 0.144652
Si Si7 0.197202 0.334309 0.904372
Si Si8 0.910067 0.335382 0.926707
O O1 0.661358 0.752143 0.735129
O O2 0.000000 0.860410 0.500000
O O3 0.988410 0.790205 0.592973
O O4 0.763481 0.000000 0.702934
O O5 0.474297 0.500000 0.170595
O O6 0.426191 0.323500 0.129075
O O7 0.736027 0.296130 0.995859
O O8 0.500000 0.273663 0.500000
O O9 0.646123 0.500000 0.372472
O O10 0.531431 0.298995 0.386124
O O11 0.867666 0.272685 0.226628
O O12 0.250542 0.241218 0.499998
O O13 0.860621 0.232896 0.755265
O O14 0.064154 0.000000 0.607243
O O15 0.397902 0.500000 0.412921
O O16 0.603675 0.713434 0.248293
O O17 0.239663 0.500000 0.186931
O O18 0.500000 0.701109 0.000000
O O19 0.191601 0.500000 0.907970
O O20 0.181326 0.276579 0.967427
O O21 0.000000 0.272373 0.000000
O O22 0.942958 0.500000 0.911839
#
# Coordination Sequence:
#
# PCOD8060225 Si02
#       8
#     4   4   4   4   4   4   4   4
#     4   9  19  35  50  66  96 135 167 199 245 300
#     4   9  18  30  48  75 100 125 160 206 251 290
#     4   9  17  29  47  73 104 134 163 201 251 305
#     4  10  21  35  51  73 102 135 170 209 251 301
#     4  10  19  31  51  77 102 132 171 210 251 299
#     4   9  18  34  54  75 101 131 166 211 256 297
#     4   9  15  26  45  69  99 130 161 204 249 293
#     4   9  16  27  43  69 101 128 160 201 248 298
#
# _framework density 18.034545000000001
#
# number of rings (size 3 to 8) (size 9 to 14) (size 15 to 20)
#    0.000    2.750    1.250    0.375    1.750    2.000 
#    0.000    3.750    0.000    1.500    0.000    0.000 
#    0.000    0.000    0.000    0.000    0.000    0.000 
#
# Total GULP energy -396454.574399 kJ/mol
# GULP energy per Si atom -12389.205450 kJ/mol
# Density = 1.799350 g / cm^3
# Si number density = 18.034545 Si / 1000 Ang^3
#
#
#
# Elastic Constant Matrix: (Units=GPa)
#
#
# Indices 1 2 3 4 5 6 
#
# 1 25.5511 29.3862 75.7153 0.0000 -12.6918 0.0000
# 2 29.3862 54.1859 56.9834 0.0000 -15.1170 0.0000
# 3 75.7153 56.9834 162.4976 0.0000 -11.3239 0.0000
# 4 0.0000 0.0000 0.0000 10.1608 0.0000 2.0965
# 5 -12.6918 -15.1170 -11.3239 0.0000 39.2953 0.0000
# 6 0.0000 0.0000 0.0000 2.0965 0.0000 11.8502
#
#
#
# Elastic Compliance Matrix: (Units=1/GPa)
#
#
# Indices 1 2 3 4 5 6 
#
# 1 -0.089512 0.001989 0.039849 0.000000 -0.016662 0.000000
# 2 0.001989 0.032238 -0.011555 0.000000 0.009715 0.000000
# 3 0.039849 -0.011555 -0.007934 0.000000 0.006139 0.000000
# 4 0.000000 0.000000 0.000000 0.102146 0.000000 -0.018071
# 5 -0.016662 0.009715 0.006139 0.000000 0.025573 0.000000
# 6 0.000000 0.000000 0.000000 -0.018071 0.000000 0.087584
#
#
# Mechanical properties :
#
#
# Convention : Reuss Voigt Hill
#
# Bulk Modulus (GPa) = -215.47351 62.93383 -76.26984
# Shear Modulus (GPa) = 56.83131 17.60458 37.21794
#
# Velocity S-wave (km/s) = 5.61969 3.12774 4.54773
# Velocity P-wave (km/s) = 8.81077 6.92934 3.84799
#
# Compressibility (1/GPa) = -0.00464094
#
# Stress axis : x y z
#
# Youngs Moduli (GPa) = -11.17163 31.01959 -126.04001
#
# Poissons Ratio (x) = -0.06171 5.02261
# Poissons Ratio (y) = 0.02222 -1.45637
# Poissons Ratio (z) = 0.44518 0.35843
#
# Static dielectric constant tensor:
#      x y z
#    x 3.401720 0.000000 0.039570 
#    y 0.000000 3.145080 0.000000 
#    z 0.039570 0.000000 3.669490 
# 
# 
# High freq. dielectric constant tensor:
#      x y z
#    x 1.698830 0.000000 -0.003530 
#    y 0.000000 1.649580 0.000000 
#    z -0.003530 0.000000 1.709490 
# 
# From -- ./inp_files/93441.got.cif
#   From: 2010.06.25/outbox.cif.g09.slc.cpg/sg10_47_cif.got.tgz:93441.got - 2010.06.27 22:07:45.
