data_PCOD8060725
_publ_section_title
;
Structure prediction by ZEFSAII (Michael W. Deem and Ramdas Pophale) SiO2 
 PCOD8060725
Probable space group: P 2/M
;
_chemical_formula_sum "Si O2"
_cell_formula_units_Z 32
_cell_length_a 22.224633
_cell_length_b 8.683399
_cell_length_c 15.271084
_cell_angle_alpha 90.000000
_cell_angle_beta 146.696452
_cell_angle_gamma 90.000000
_cell_volume 1618.175250
_symmetry_space_group_name_H-M "P 2/M"
_symmetry_group_IT_number 10
_symmetry_cell_setting 'monoclinic'
loop_
_space_group_symop_operation_xyz
x,y,z
-x,y,-z
-x,-y,-z
x,-y,z
loop_
_atom_site_type_symbol
_atom_site_label
_atom_site_fract_x
_atom_site_fract_y
_atom_site_fract_z
Si Si1 0.304728 0.682148 0.089587
Si Si2 0.128110 0.682676 0.009516
Si Si3 0.550441 0.679883 0.392528
Si Si4 0.738744 0.675836 0.341555
Si Si5 0.451913 0.178251 0.794248
Si Si6 0.232549 0.819744 0.302845
Si Si7 0.676175 0.678142 0.081095
Si Si8 0.884126 0.679529 0.676969
O O1 0.299902 0.500000 0.090991
O O2 0.215939 0.754628 0.047778
O O3 0.427282 0.738095 0.265543
O O4 0.275737 0.733615 0.954379
O O5 0.133605 0.500000 0.015319
O O6 0.152135 0.740768 0.135845
O O7 0.008030 0.740529 0.835465
O O8 0.563362 0.500000 0.426829
O O9 0.574644 0.715065 0.321010
O O10 0.641837 0.766820 0.561699
O O11 0.701008 0.500000 0.311762
O O12 0.640096 0.789145 0.245782
O O13 0.762921 0.700610 0.266604
O O14 0.845840 0.711746 0.530377
O O15 0.449428 0.000000 0.763549
O O16 0.569811 0.222222 0.976609
O O17 0.194626 0.772129 0.353638
O O18 0.224048 0.000000 0.280783
O O19 0.640395 0.500000 0.028392
O O20 0.876282 0.500000 0.691949
#
# Coordination Sequence:
#
# PCOD8060725 Si02
#       8
#     4   4   4   4   4   4   4   4
#     4   8  17  35  58  81 108 143 186 228 267 318
#     4  10  21  39  60  80 105 145 190 229 272 325
#     4  10  19  35  58  82 111 146 179 220 275 332
#     4  10  19  32  52  78 109 146 185 222 269 325
#     4  11  20  30  48  79 114 146 179 222 273 323
#     4  12  24  37  56  84 113 141 178 229 282 330
#     4   9  18  33  53  77 108 148 185 221 268 323
#     4  10  21  37  58  82 110 145 185 227 272 326
#
# _framework density 19.775362000000001
#
# number of rings (size 3 to 8) (size 9 to 14) (size 15 to 20)
#    0.000    2.000    1.250    4.125    0.000    4.500 
#    0.000    6.250    0.000    3.750    0.000    0.000 
#    0.000    7.000    0.000    0.000    0.000    0.000 
#
# Total GULP energy -396722.134220 kJ/mol
# GULP energy per Si atom -12397.566694 kJ/mol
# Density = 1.973035 g / cm^3
# Si number density = 19.775362 Si / 1000 Ang^3
#
#
#
# Elastic Constant Matrix: (Units=GPa)
#
#
# Indices 1 2 3 4 5 6 
#
# 1 70.0893 13.0252 44.0700 0.0000 10.2142 0.0000
# 2 13.0252 20.7390 14.7402 0.0000 3.9793 0.0000
# 3 44.0700 14.7402 134.9380 0.0000 -5.5693 0.0000
# 4 0.0000 0.0000 0.0000 8.0373 0.0000 -0.0614
# 5 10.2142 3.9793 -5.5693 0.0000 24.9902 0.0000
# 6 0.0000 0.0000 0.0000 -0.0614 0.0000 3.6918
#
#
#
# Elastic Compliance Matrix: (Units=1/GPa)
#
#
# Indices 1 2 3 4 5 6 
#
# 1 0.020881 -0.006833 -0.006440 0.000000 -0.008882 0.000000
# 2 -0.006833 0.056944 -0.004287 0.000000 -0.007230 0.000000
# 3 -0.006440 -0.004287 0.010213 0.000000 0.005591 0.000000
# 4 0.000000 0.000000 0.000000 0.124436 0.000000 0.002071
# 5 -0.008882 -0.007230 0.005591 0.000000 0.046043 0.000000
# 6 0.000000 0.000000 0.000000 0.002071 0.000000 0.270905
#
#
# Mechanical properties :
#
#
# Convention : Reuss Voigt Hill
#
# Bulk Modulus (GPa) = 18.89705 41.04855 29.97280
# Shear Modulus (GPa) = 8.58839 17.60592 13.09716
#
# Velocity S-wave (km/s) = 2.08624 2.98702 2.57630
# Velocity P-wave (km/s) = 3.92171 5.71829 4.90299
#
# Compressibility (1/GPa) = 0.05291831
#
# Stress axis : x y z
#
# Youngs Moduli (GPa) = 47.89105 17.56100 97.91398
#
# Poissons Ratio (x) = 0.11999 0.63053
# Poissons Ratio (y) = 0.32724 0.41978
# Poissons Ratio (z) = 0.30840 0.07529
#
# Static dielectric constant tensor:
#      x y z
#    x 3.621980 0.000000 -0.002790 
#    y 0.000000 3.320810 0.000000 
#    z -0.002790 0.000000 3.794960 
# 
# 
# High freq. dielectric constant tensor:
#      x y z
#    x 1.751100 0.000000 -0.012350 
#    y 0.000000 1.745290 0.000000 
#    z -0.012350 0.000000 1.777300 
# 
# From -- ./inp_files/58116.got.cif
#   From: 2010.06.25/outbox.cif.g09.slc.cpg/sg10_30_cif.got.tgz:58116.got - 2010.06.27 22:07:45.
