data_PCOD8060331
_publ_section_title
;
Structure prediction by ZEFSAII (Michael W. Deem and Ramdas Pophale) SiO2 
 PCOD8060331
Probable space group: P 2/M
;
_chemical_formula_sum "Si O2"
_cell_formula_units_Z 32
_cell_length_a 14.201469
_cell_length_b 9.004974
_cell_length_c 13.062903
_cell_angle_alpha 90.000000
_cell_angle_beta 93.359958
_cell_angle_gamma 90.000000
_cell_volume 1667.662850
_symmetry_space_group_name_H-M "P 2/M"
_symmetry_group_IT_number 10
_symmetry_cell_setting 'monoclinic'
loop_
_space_group_symop_operation_xyz
x,y,z
-x,y,-z
-x,-y,-z
x,-y,z
loop_
_atom_site_type_symbol
_atom_site_label
_atom_site_fract_x
_atom_site_fract_y
_atom_site_fract_z
Si Si1 0.915359 0.327340 0.722890
Si Si2 0.718480 0.674773 0.616183
Si Si3 0.059052 0.824610 0.600210
Si Si4 0.902679 0.324145 0.952356
Si Si5 0.398593 0.324324 0.196960
Si Si6 0.704464 0.323184 0.011014
Si Si7 0.615430 0.323963 0.217226
Si Si8 0.726388 0.823668 0.407645
O O1 0.939839 0.500000 0.721487
O O2 0.827972 0.288087 0.644017
O O3 0.887055 0.276459 0.834497
O O4 0.009820 0.241049 0.697667
O O5 0.702376 0.500000 0.599289
O O6 0.655978 0.736100 0.706493
O O7 0.686969 0.760214 0.512078
O O8 0.166291 0.768726 0.601532
O O9 0.000000 0.763261 0.500000
O O10 0.054416 0.000000 0.605470
O O11 0.907846 0.500000 0.962849
O O12 0.812712 0.266189 0.011081
O O13 0.000000 0.252631 0.000000
O O14 0.387102 0.500000 0.193589
O O15 0.353867 0.258558 0.089571
O O16 0.506760 0.275926 0.210075
O O17 0.699474 0.500000 0.007372
O O18 0.660590 0.265581 0.114179
O O19 0.627983 0.500000 0.231341
O O20 0.664316 0.240893 0.313157
O O21 0.718747 0.000000 0.408803
#
# Coordination Sequence:
#
# PCOD8060331 Si02
#       8
#     4   4   4   4   4   4   4   4
#     4  10  19  31  53  82 108 138 178 223 262 310
#     4  10  19  34  57  82 110 142 182 228 270 316
#     4  10  21  37  54  72 101 142 179 212 261 321
#     4   9  17  28  45  78 118 145 166 209 272 319
#     4   9  17  33  56  83 112 141 177 226 278 321
#     4   9  16  30  53  82 114 145 178 216 266 329
#     4  10  21  35  57  85 110 141 183 228 271 320
#     4  11  24  40  55  75 110 148 182 225 276 327
#
# _framework density 19.188531999999999
#
# number of rings (size 3 to 8) (size 9 to 14) (size 15 to 20)
#    0.000    2.250    2.500    0.750    1.750    3.250 
#    0.000    3.125    0.000    3.375    0.000    0.000 
#    0.000    0.000    0.000    0.000    0.000    0.000 
#
# Total GULP energy -396796.828323 kJ/mol
# GULP energy per Si atom -12399.900885 kJ/mol
# Density = 1.914486 g / cm^3
# Si number density = 19.188532 Si / 1000 Ang^3
#
#
#
# Elastic Constant Matrix: (Units=GPa)
#
#
# Indices 1 2 3 4 5 6 
#
# 1 135.5801 25.8789 78.3024 0.0000 0.4016 0.0000
# 2 25.8789 21.8260 29.4249 0.0000 2.5403 0.0000
# 3 78.3024 29.4249 153.8388 0.0000 -0.1062 0.0000
# 4 0.0000 0.0000 0.0000 1.8455 0.0000 4.2042
# 5 0.4016 2.5403 -0.1062 0.0000 37.2017 0.0000
# 6 0.0000 0.0000 0.0000 4.2042 0.0000 17.5205
#
#
#
# Elastic Compliance Matrix: (Units=1/GPa)
#
#
# Indices 1 2 3 4 5 6 
#
# 1 0.011319 -0.007680 -0.004292 0.000000 0.000390 0.000000
# 2 -0.007680 0.067627 -0.009029 0.000000 -0.004561 0.000000
# 3 -0.004292 -0.009029 0.010412 0.000000 0.000693 0.000000
# 4 0.000000 0.000000 0.000000 1.195238 0.000000 -0.286808
# 5 0.000390 -0.004561 0.000693 0.000000 0.027190 0.000000
# 6 0.000000 0.000000 0.000000 -0.286808 0.000000 0.125898
#
#
# Mechanical properties :
#
#
# Convention : Reuss Voigt Hill
#
# Bulk Modulus (GPa) = 21.11673 64.27303 42.69488
# Shear Modulus (GPa) = 3.34343 23.15612 13.24977
#
# Velocity S-wave (km/s) = 1.32144 3.47763 2.63060
# Velocity P-wave (km/s) = 3.65473 7.04936 5.61473
#
# Compressibility (1/GPa) = 0.04735581
#
# Stress axis : x y z
#
# Youngs Moduli (GPa) = 88.34384 14.78704 96.03854
#
# Poissons Ratio (x) = 0.11357 0.41222
# Poissons Ratio (y) = 0.67849 0.86714
# Poissons Ratio (z) = 0.37919 0.13351
#
# Static dielectric constant tensor:
#      x y z
#    x 3.708010 0.000000 -0.069500 
#    y 0.000000 2.954650 0.000000 
#    z -0.069500 0.000000 3.629560 
# 
# 
# High freq. dielectric constant tensor:
#      x y z
#    x 1.757290 0.000000 -0.005320 
#    y 0.000000 1.691120 0.000000 
#    z -0.005320 0.000000 1.758670 
# 
# From -- ./inp_files/49782.got.cif
#   From: 2010.06.25/outbox.cif.g09.slc.cpg/sg10_25_cif.got.tgz:49782.got - 2010.06.27 22:07:45.
