data_PCOD8060476
_publ_section_title
;
Structure prediction by ZEFSAII (Michael W. Deem and Ramdas Pophale) SiO2 
 PCOD8060476
Probable space group: P 2/M
;
_chemical_formula_sum "Si O2"
_cell_formula_units_Z 32
_cell_length_a 20.420214
_cell_length_b 9.154811
_cell_length_c 14.181591
_cell_angle_alpha 90.000000
_cell_angle_beta 139.742531
_cell_angle_gamma 90.000000
_cell_volume 1713.236639
_symmetry_space_group_name_H-M "P 2/M"
_symmetry_group_IT_number 10
_symmetry_cell_setting 'monoclinic'
loop_
_space_group_symop_operation_xyz
x,y,z
-x,y,-z
-x,-y,-z
x,-y,z
loop_
_atom_site_type_symbol
_atom_site_label
_atom_site_fract_x
_atom_site_fract_y
_atom_site_fract_z
Si Si1 0.534231 0.330009 0.935674
Si Si2 0.834646 0.828867 0.491060
Si Si3 0.810965 0.325950 0.942864
Si Si4 0.777321 0.331129 0.702354
Si Si5 0.039810 0.326770 0.225567
Si Si6 0.271503 0.331766 0.955389
Si Si7 0.659767 0.332688 0.396545
Si Si8 0.883874 0.333776 0.370753
O O1 0.552817 0.500000 0.975790
O O2 0.453290 0.303184 0.763206
O O3 0.500000 0.260680 0.000000
O O4 0.637843 0.258526 0.007333
O O5 0.930806 0.747801 0.643288
O O6 0.729855 0.783435 0.422836
O O7 0.824569 0.777136 0.372666
O O8 0.850364 0.000000 0.515900
O O9 0.807065 0.500000 0.946445
O O10 0.764184 0.263643 0.793047
O O11 0.745839 0.261182 0.959509
O O12 0.928006 0.274878 0.074123
O O13 0.798639 0.500000 0.742829
O O14 0.878167 0.269625 0.761435
O O15 0.675994 0.306410 0.527323
O O16 0.046587 0.500000 0.246590
O O17 0.302365 0.500000 0.001934
O O18 0.163682 0.315214 0.784961
O O19 0.692562 0.500000 0.408614
O O20 0.869864 0.500000 0.391160
O O21 0.000000 0.287045 0.500000
#
# Coordination Sequence:
#
# PCOD8060476 Si02
#       8
#     4   4   4   4   4   4   4   4
#     4   9  16  27  45  67  91 121 157 198 241 282
#     4  11  21  31  46  70  98 124 153 197 246 281
#     4   9  15  25  43  69  98 123 153 196 238 275
#     4   8  14  24  42  68  94 122 157 194 231 275
#     4   9  16  28  47  69  95 129 162 188 224 282
#     4   9  17  27  43  70  97 120 154 200 241 277
#     4   9  17  31  50  69  91 122 159 193 231 284
#     4  10  19  32  50  70  94 128 165 193 225 281
#
# _framework density 18.678097000000001
#
# number of rings (size 3 to 8) (size 9 to 14) (size 15 to 20)
#    0.000    2.750    0.000    3.750    0.000    5.750 
#    0.000    0.625    0.000   13.125    0.000    0.000 
#    0.000    4.000    0.000    0.000    0.000    0.000 
#
# Total GULP energy -396490.385209 kJ/mol
# GULP energy per Si atom -12390.324538 kJ/mol
# Density = 1.863558 g / cm^3
# Si number density = 18.678097 Si / 1000 Ang^3
#
#
#
# Elastic Constant Matrix: (Units=GPa)
#
#
# Indices 1 2 3 4 5 6 
#
# 1 125.0671 11.4027 63.7445 0.0000 -15.7898 0.0000
# 2 11.4027 34.8092 9.4835 0.0000 -4.4407 0.0000
# 3 63.7445 9.4835 111.8308 0.0000 -5.6629 0.0000
# 4 0.0000 0.0000 0.0000 2.9914 0.0000 4.0951
# 5 -15.7898 -4.4407 -5.6629 0.0000 30.3566 0.0000
# 6 0.0000 0.0000 0.0000 4.0951 0.0000 -0.1424
#
#
#
# Elastic Compliance Matrix: (Units=1/GPa)
#
#
# Indices 1 2 3 4 5 6 
#
# 1 0.012060 -0.001564 -0.006497 0.000000 0.004832 0.000000
# 2 -0.001564 0.030068 -0.001491 0.000000 0.003307 0.000000
# 3 -0.006497 -0.001491 0.012710 0.000000 -0.001226 0.000000
# 4 0.000000 0.000000 0.000000 0.008284 0.000000 0.238144
# 5 0.004832 0.003307 -0.001226 0.000000 0.035710 0.000000
# 6 0.000000 0.000000 0.000000 0.238144 0.000000 -0.173962
#
#
# Mechanical properties :
#
#
# Convention : Reuss Voigt Hill
#
# Bulk Modulus (GPa) = 27.98432 48.99650 38.49041
# Shear Modulus (GPa) = -113.34013 19.11288 -47.11363
#
# Velocity S-wave (km/s) = -7.79824 3.20234 -5.02780
# Velocity P-wave (km/s) = 8.12825 6.32158 3.61290
#
# Compressibility (1/GPa) = 0.03573430
#
# Stress axis : x y z
#
# Youngs Moduli (GPa) = 82.92130 33.25743 78.68059
#
# Poissons Ratio (x) = 0.05202 0.51117
# Poissons Ratio (y) = 0.12969 0.11730
# Poissons Ratio (z) = 0.53872 0.04958
#
# Static dielectric constant tensor:
#      x y z
#    x 3.665410 0.000000 -0.228670 
#    y 0.000000 2.756370 0.000000 
#    z -0.228670 0.000000 3.604300 
# 
# 
# High freq. dielectric constant tensor:
#      x y z
#    x 1.720640 0.000000 -0.013900 
#    y 0.000000 1.647450 0.000000 
#    z -0.013900 0.000000 1.732520 
# 
# From -- ./inp_files/70038.got.cif
#   From: 2010.06.25/outbox.cif.g09.slc.cpg/sg10_36_cif.got.tgz:70038.got - 2010.06.27 22:07:45.
