data_PCOD8060077
_publ_section_title
;
Structure prediction by ZEFSAII (Michael W. Deem and Ramdas Pophale) SiO2 
 PCOD8060077
Probable space group: P 2/M
;
_chemical_formula_sum "Si O2"
_cell_formula_units_Z 28
_cell_length_a 14.959712
_cell_length_b 7.606966
_cell_length_c 18.068726
_cell_angle_alpha 90.000000
_cell_angle_beta 49.944732
_cell_angle_gamma 90.000000
_cell_volume 1573.853640
_symmetry_space_group_name_H-M "P 2/M"
_symmetry_group_IT_number 10
_symmetry_cell_setting 'monoclinic'
loop_
_space_group_symop_operation_xyz
x,y,z
-x,y,-z
-x,-y,-z
x,-y,z
loop_
_atom_site_type_symbol
_atom_site_label
_atom_site_fract_x
_atom_site_fract_y
_atom_site_fract_z
Si Si1 0.352494 0.205885 0.728694
Si Si2 0.610573 0.800027 0.592474
Si Si3 0.811307 0.500000 0.126227
Si Si4 0.819840 0.707467 0.572841
Si Si5 0.738068 0.204531 0.383282
Si Si6 0.001609 0.799995 0.773425
Si Si7 0.954461 0.500000 0.905495
Si Si8 0.959781 0.291821 0.636843
O O1 0.482629 0.276856 0.678762
O O2 0.262412 0.322302 0.823050
O O3 0.336205 0.241708 0.650275
O O4 0.331391 0.000000 0.759457
O O5 0.693555 0.786043 0.620011
O O6 0.672075 0.706534 0.488689
O O7 0.586415 0.000000 0.583241
O O8 0.919017 0.500000 0.124747
O O9 0.852636 0.500000 0.019908
O O10 0.812772 0.500000 0.574119
O O11 0.857194 0.769020 0.635264
O O12 0.916086 0.773257 0.462329
O O13 0.868332 0.281583 0.305339
O O14 0.753804 0.000000 0.391120
O O15 0.935741 0.675378 0.866569
O O16 0.937497 0.796805 0.727990
O O17 0.001926 0.000000 0.803993
O O18 0.959641 0.500000 0.645599
#
# Coordination Sequence:
#
# PCOD8060077 Si02
#       8
#     4   4   2   4   4   4   2   4
#     4  10  21  37  54  76 108 141 180 221 255 308
#     4  10  19  31  49  74 109 148 180 213 250 299
#     4  11  24  40  58  78  99 139 177 218 282 316
#     4   9  18  29  45  73 109 150 180 213 252 296
#     4   9  17  31  49  74 108 144 178 208 246 301
#     4  11  20  33  56  81 105 142 176 211 264 312
#     4  11  24  40  57  78 106 129 175 233 266 323
#     4   9  17  31  48  71 111 147 180 217 253 300
#
# _framework density 17.790725999999999
#
# number of rings (size 3 to 8) (size 9 to 14) (size 15 to 20)
#    0.000    2.143    3.571    1.286    1.000    2.857 
#    1.286    3.571    0.000    0.000    0.000    2.000 
#    0.000    3.429    0.000    0.000    0.000    0.000 
#
# Total GULP energy -347130.007940 kJ/mol
# GULP energy per Si atom -12397.500284 kJ/mol
# Density = 1.775023 g / cm^3
# Si number density = 17.790726 Si / 1000 Ang^3
#
#
#
# Elastic Constant Matrix: (Units=GPa)
#
#
# Indices 1 2 3 4 5 6 
#
# 1 122.5944 22.8494 53.5926 0.0000 0.1649 0.0000
# 2 22.8494 70.2375 41.5468 0.0000 4.2419 0.0000
# 3 53.5926 41.5468 101.4780 0.0000 5.2813 0.0000
# 4 0.0000 0.0000 0.0000 16.7697 0.0000 -2.6479
# 5 0.1649 4.2419 5.2813 0.0000 23.7075 0.0000
# 6 0.0000 0.0000 0.0000 -2.6479 0.0000 19.6280
#
#
#
# Elastic Compliance Matrix: (Units=1/GPa)
#
#
# Indices 1 2 3 4 5 6 
#
# 1 0.010641 -0.000229 -0.005589 0.000000 0.001212 0.000000
# 2 -0.000229 0.018858 -0.007511 0.000000 -0.001699 0.000000
# 3 -0.005589 -0.007511 0.015995 0.000000 -0.002180 0.000000
# 4 0.000000 0.000000 0.000000 0.060929 0.000000 0.008220
# 5 0.001212 -0.001699 -0.002180 0.000000 0.042962 0.000000
# 6 0.000000 0.000000 0.000000 0.008220 0.000000 0.052056
#
#
# Mechanical properties :
#
#
# Convention : Reuss Voigt Hill
#
# Bulk Modulus (GPa) = 53.09285 58.92083 56.00684
# Shear Modulus (GPa) = 21.33299 23.77579 22.55439
#
# Velocity S-wave (km/s) = 3.46657 3.65967 3.56443
# Velocity P-wave (km/s) = 6.77721 7.14481 6.96344
#
# Compressibility (1/GPa) = 0.01883493
#
# Stress axis : x y z
#
# Youngs Moduli (GPa) = 93.97273 53.02910 62.51983
#
# Poissons Ratio (x) = 0.01213 0.34944
# Poissons Ratio (y) = 0.02150 0.46961
# Poissons Ratio (z) = 0.52524 0.39832
#
# Static dielectric constant tensor:
#      x y z
#    x 3.520890 0.000000 -0.026320 
#    y 0.000000 3.182230 0.000000 
#    z -0.026320 0.000000 3.044430 
# 
# 
# High freq. dielectric constant tensor:
#      x y z
#    x 1.690890 0.000000 0.003660 
#    y 0.000000 1.686770 0.000000 
#    z 0.003660 0.000000 1.640410 
# 
# From -- ./inp_files/77746.got.cif
#   From: 2010.06.25/outbox.cif.g09.slc.cpg/sg10_39_cif.got.tgz:77746.got - 2010.06.27 22:07:45.
