data_PCOD8060255
_publ_section_title
;
Structure prediction by ZEFSAII (Michael W. Deem and Ramdas Pophale) SiO2 
 PCOD8060255
Probable space group: P 2/M
;
_chemical_formula_sum "Si O2"
_cell_formula_units_Z 30
_cell_length_a 11.387833
_cell_length_b 14.174070
_cell_length_c 21.787162
_cell_angle_alpha 90.000000
_cell_angle_beta 27.164095
_cell_angle_gamma 90.000000
_cell_volume 1605.519602
_symmetry_space_group_name_H-M "P 2/M"
_symmetry_group_IT_number 10
_symmetry_cell_setting 'monoclinic'
loop_
_space_group_symop_operation_xyz
x,y,z
-x,y,-z
-x,-y,-z
x,-y,z
loop_
_atom_site_type_symbol
_atom_site_label
_atom_site_fract_x
_atom_site_fract_y
_atom_site_fract_z
Si Si1 0.154395 0.896023 0.338004
Si Si2 0.500000 0.340512 0.000000
Si Si3 0.267610 0.291441 0.229245
Si Si4 0.589688 0.294235 0.309216
Si Si5 0.241382 0.607538 0.564539
Si Si6 0.288294 0.610779 0.343309
Si Si7 0.951773 0.602417 0.215616
Si Si8 0.406885 0.104471 0.345259
O O1 0.176279 0.816525 0.276444
O O2 0.373502 0.879862 0.287956
O O3 0.874042 0.887371 0.496393
O O4 0.191534 0.000000 0.291241
O O5 0.537833 0.283617 0.918897
O O6 0.759151 0.398310 0.892907
O O7 0.381789 0.329779 0.240433
O O8 0.048809 0.367039 0.317615
O O9 0.415354 0.315384 0.449617
O O10 0.492088 0.361176 0.300317
O O11 0.588671 0.184242 0.290599
O O12 0.881416 0.321497 0.195144
O O13 0.295826 0.500000 0.516655
O O14 0.257211 0.614691 0.631445
O O15 0.303375 0.500000 0.322529
O O16 0.000000 0.640139 0.500000
O O17 0.905847 0.500000 0.207482
O O18 0.524394 0.000000 0.303792
#
# Coordination Sequence:
#
# PCOD8060255 Si02
#       8
#     4   2   4   4   4   4   4   4
#     4   9  16  30  53  82 114 145 179 218 270 333
#     4  10  25  42  59  72 102 156 203 228 263 318
#     4  11  19  35  55  80 110 150 187 225 268 327
#     4  12  19  31  54  84 117 140 173 229 285 329
#     4  10  19  31  51  79 112 147 182 220 270 333
#     4  11  20  29  49  85 120 142 168 221 288 338
#     4  10  22  38  55  76 106 151 198 229 261 319
#     4   9  17  29  51  86 119 144 168 209 280 351
#
# _framework density 18.685538999999999
#
# number of rings (size 3 to 8) (size 9 to 14) (size 15 to 20)
#    0.000    1.733    4.000    3.000    0.000    2.667 
#    0.000    1.000    0.000    7.200    0.000    1.867 
#    0.000    0.000    0.000    0.000    0.000    0.000 
#
# Total GULP energy -371655.014062 kJ/mol
# GULP energy per Si atom -12388.500469 kJ/mol
# Density = 1.864301 g / cm^3
# Si number density = 18.685539 Si / 1000 Ang^3
#
#
#
# Elastic Constant Matrix: (Units=GPa)
#
#
# Indices 1 2 3 4 5 6 
#
# 1 93.5377 41.3215 19.4065 0.0000 -0.7999 0.0000
# 2 41.3215 126.3315 16.6430 0.0000 5.8119 0.0000
# 3 19.4065 16.6430 53.9390 0.0000 14.7571 0.0000
# 4 0.0000 0.0000 0.0000 8.3501 0.0000 1.4085
# 5 -0.7999 5.8119 14.7571 0.0000 26.5944 0.0000
# 6 0.0000 0.0000 0.0000 1.4085 0.0000 21.8118
#
#
#
# Elastic Compliance Matrix: (Units=1/GPa)
#
#
# Indices 1 2 3 4 5 6 
#
# 1 0.013442 -0.003959 -0.004671 0.000000 0.003862 0.000000
# 2 -0.003959 0.009422 -0.001046 0.000000 -0.001598 0.000000
# 3 -0.004671 -0.001046 0.024191 0.000000 -0.013336 0.000000
# 4 0.000000 0.000000 0.000000 0.121078 0.000000 -0.007819
# 5 0.003862 -0.001598 -0.013336 0.000000 0.045467 0.000000
# 6 0.000000 0.000000 0.000000 -0.007819 0.000000 0.046352
#
#
# Mechanical properties :
#
#
# Convention : Reuss Voigt Hill
#
# Bulk Modulus (GPa) = 36.09638 47.61667 41.85652
# Shear Modulus (GPa) = 17.32874 24.44707 20.88791
#
# Velocity S-wave (km/s) = 3.04861 3.62102 3.34708
# Velocity P-wave (km/s) = 5.63487 6.55903 6.11444
#
# Compressibility (1/GPa) = 0.02770361
#
# Stress axis : x y z
#
# Youngs Moduli (GPa) = 74.39388 106.13600 41.33743
#
# Poissons Ratio (x) = 0.42019 0.19309
# Poissons Ratio (y) = 0.29452 0.04322
# Poissons Ratio (z) = 0.34750 0.11097
#
# Static dielectric constant tensor:
#      x y z
#    x 3.598440 0.000000 0.172400 
#    y 0.000000 3.623410 0.000000 
#    z 0.172400 0.000000 3.273740 
# 
# 
# High freq. dielectric constant tensor:
#      x y z
#    x 1.728110 0.000000 0.007970 
#    y 0.000000 1.720000 0.000000 
#    z 0.007970 0.000000 1.684620 
# 
# From -- ./inp_files/84111.got.cif
#   From: 2010.06.25/outbox.cif.g09.slc.cpg/sg10_43_cif.got.tgz:84111.got - 2010.06.27 22:07:45.
