data_PCOD8060078
_publ_section_title
;
Structure prediction by ZEFSAII (Michael W. Deem and Ramdas Pophale) SiO2 
 PCOD8060078
Probable space group: P 2/M
;
_chemical_formula_sum "Si O2"
_cell_formula_units_Z 24
_cell_length_a 25.237664
_cell_length_b 7.757969
_cell_length_c 11.051643
_cell_angle_alpha 90.000000
_cell_angle_beta 35.722234
_cell_angle_gamma 90.000000
_cell_volume 1263.368410
_symmetry_space_group_name_H-M "P 2/M"
_symmetry_group_IT_number 10
_symmetry_cell_setting 'monoclinic'
loop_
_space_group_symop_operation_xyz
x,y,z
-x,y,-z
-x,-y,-z
x,-y,z
loop_
_atom_site_type_symbol
_atom_site_label
_atom_site_fract_x
_atom_site_fract_y
_atom_site_fract_z
Si Si1 0.720940 0.198926 0.475378
Si Si2 0.566657 0.500000 0.489768
Si Si3 0.944719 0.803233 0.436106
Si Si4 0.304021 0.188091 0.752517
Si Si5 0.128901 0.306150 0.184997
Si Si6 0.088840 0.204671 0.767948
Si Si7 0.422053 0.500000 0.247591
O O1 0.739067 0.208362 0.299657
O O2 0.815026 0.268259 0.357580
O O3 0.638368 0.327754 0.662524
O O4 0.697975 0.000000 0.558001
O O5 0.500000 0.500000 0.500000
O O6 0.620843 0.327997 0.362994
O O7 0.536241 0.500000 0.690308
O O8 0.897050 0.687771 0.625792
O O9 0.914158 0.729938 0.364000
O O10 0.053401 0.792133 0.246383
O O11 0.914231 0.000000 0.510340
O O12 0.349084 0.000000 0.685663
O O13 0.223256 0.207206 0.997816
O O14 0.139097 0.500000 0.117437
O O15 0.083730 0.000000 0.785040
O O16 0.000000 0.282703 0.000000
O O17 0.500000 0.500000 0.000000
#
# Coordination Sequence:
#
# PCOD8060078 Si02
#       7
#     4   2   4   4   4   4   2
#     4   9  19  37  60  85 114 147 189 233 275 338
#     4  10  22  42  62  88 117 138 179 241 292 344
#     4  10  19  31  49  74 110 151 192 229 267 325
#     4  10  19  36  62  83 108 147 185 225 280 340
#     4  11  20  33  49  74 111 151 191 229 272 323
#     4   9  17  32  53  80 113 148 187 231 276 322
#     4  10  22  42  63  87 113 151 191 233 295 351
#
# _framework density 18.996832999999999
#
# number of rings (size 3 to 8) (size 9 to 14) (size 15 to 20)
#    0.000    2.167    0.833    4.000    0.000    3.333 
#    6.000    0.417    0.000    0.000    0.000    0.000 
#    0.000    0.000    0.000    0.000    0.000    0.000 
#
# Total GULP energy -297451.864163 kJ/mol
# GULP energy per Si atom -12393.827673 kJ/mol
# Density = 1.895359 g / cm^3
# Si number density = 18.996833 Si / 1000 Ang^3
#
#
#
# Elastic Constant Matrix: (Units=GPa)
#
#
# Indices 1 2 3 4 5 6 
#
# 1 142.0438 39.2657 56.2011 0.0000 -12.4461 0.0000
# 2 39.2657 101.9494 45.4574 0.0000 -4.0941 0.0000
# 3 56.2011 45.4574 117.2003 0.0000 -4.3269 0.0000
# 4 0.0000 0.0000 0.0000 26.9729 0.0000 -0.6016
# 5 -12.4461 -4.0941 -4.3269 0.0000 14.8381 0.0000
# 6 0.0000 0.0000 0.0000 -0.6016 0.0000 18.1961
#
#
#
# Elastic Compliance Matrix: (Units=1/GPa)
#
#
# Indices 1 2 3 4 5 6 
#
# 1 0.009541 -0.001792 -0.003642 0.000000 0.006447 0.000000
# 2 -0.001792 0.012253 -0.003865 0.000000 0.000751 0.000000
# 3 -0.003642 -0.003865 0.011753 0.000000 -0.000695 0.000000
# 4 0.000000 0.000000 0.000000 0.037102 0.000000 0.001227
# 5 0.006447 0.000751 -0.000695 0.000000 0.072806 0.000000
# 6 0.000000 0.000000 0.000000 0.001227 0.000000 0.054997
#
#
# Mechanical properties :
#
#
# Convention : Reuss Voigt Hill
#
# Bulk Modulus (GPa) = 66.90135 71.44909 69.17522
# Shear Modulus (GPa) = 22.51913 26.68603 24.60258
#
# Velocity S-wave (km/s) = 3.44672 3.75208 3.60264
# Velocity P-wave (km/s) = 7.15076 7.51422 7.33474
#
# Compressibility (1/GPa) = 0.01494738
#
# Stress axis : x y z
#
# Youngs Moduli (GPa) = 104.80584 81.61570 85.08754
#
# Poissons Ratio (x) = 0.14625 0.30992
# Poissons Ratio (y) = 0.18780 0.32889
# Poissons Ratio (z) = 0.38174 0.31547
#
# Static dielectric constant tensor:
#      x y z
#    x 3.528880 0.000000 0.080480 
#    y 0.000000 3.683510 0.000000 
#    z 0.080480 0.000000 3.275230 
# 
# 
# High freq. dielectric constant tensor:
#      x y z
#    x 1.731750 0.000000 0.008770 
#    y 0.000000 1.746870 0.000000 
#    z 0.008770 0.000000 1.717230 
# 
# From -- ./inp_files/56566.got.cif
#   From: 2010.06.25/outbox.cif.g09.slc.cpg/sg10_29_cif.got.tgz:56566.got - 2010.06.27 22:07:45.
