data_PCOD8060446
_publ_section_title
;
Structure prediction by ZEFSAII (Michael W. Deem and Ramdas Pophale) SiO2 
 PCOD8060446
Probable space group: P 2/M
;
_chemical_formula_sum "Si O2"
_cell_formula_units_Z 32
_cell_length_a 17.480895
_cell_length_b 8.876552
_cell_length_c 23.717446
_cell_angle_alpha 90.000000
_cell_angle_beta 149.265047
_cell_angle_gamma 90.000000
_cell_volume 1880.849478
_symmetry_space_group_name_H-M "P 2/M"
_symmetry_group_IT_number 10
_symmetry_cell_setting 'monoclinic'
loop_
_space_group_symop_operation_xyz
x,y,z
-x,y,-z
-x,-y,-z
x,-y,z
loop_
_atom_site_type_symbol
_atom_site_label
_atom_site_fract_x
_atom_site_fract_y
_atom_site_fract_z
Si Si1 0.669191 0.322888 0.330282
Si Si2 0.543224 0.824012 0.635373
Si Si3 0.803663 0.672422 0.735916
Si Si4 0.230024 0.674215 0.414042
Si Si5 0.865566 0.833538 0.370954
Si Si6 0.927115 0.674844 0.012468
Si Si7 0.382487 0.176503 0.190083
Si Si8 0.106115 0.178227 0.440168
O O1 0.673977 0.500000 0.340390
O O2 0.738757 0.279300 0.313303
O O3 0.500112 0.263703 0.225260
O O4 0.759760 0.249271 0.438882
O O5 0.675146 0.782659 0.676258
O O6 0.397961 0.732599 0.525722
O O7 0.592499 0.777535 0.729210
O O8 0.507450 0.000000 0.608163
O O9 0.754167 0.500000 0.716278
O O10 0.829901 0.701689 0.686694
O O11 0.958620 0.709108 0.864851
O O12 0.227848 0.500000 0.429397
O O13 0.116951 0.762852 0.383435
O O14 0.000000 0.842231 0.500000
O O15 0.941845 0.777207 0.360759
O O16 0.794430 0.000000 0.318556
O O17 0.881512 0.500000 0.980351
O O18 0.781643 0.773440 0.932935
O O19 0.000000 0.727814 0.000000
O O20 0.402287 0.000000 0.192924
O O21 0.129289 0.000000 0.457238
#
# Coordination Sequence:
#
# PCOD8060446 Si02
#       8
#     4   4   4   4   4   4   4   4
#     4  11  20  30  49  75 103 134 169 206 249 301
#     4  11  22  34  51  73 101 136 172 211 254 303
#     4  10  22  38  53  73 100 132 172 218 261 300
#     4  11  22  34  51  74 103 137 172 211 254 303
#     4   8  16  30  47  68 100 136 165 200 247 297
#     4  10  20  36  57  74  95 129 171 215 259 306
#     4  11  22  34  51  75 104 134 169 212 255 298
#     4  10  19  32  49  71 102 138 170 203 248 300
#
# _framework density 17.013590000000001
#
# number of rings (size 3 to 8) (size 9 to 14) (size 15 to 20)
#    0.000    1.750    2.500    3.750    0.000    7.000 
#    0.000    0.000    0.000    0.000    0.000    0.875 
#    0.000    7.000    0.000    0.000    0.000    0.000 
#
# Total GULP energy -396876.026598 kJ/mol
# GULP energy per Si atom -12402.375831 kJ/mol
# Density = 1.697487 g / cm^3
# Si number density = 17.013590 Si / 1000 Ang^3
#
#
#
# Elastic Constant Matrix: (Units=GPa)
#
#
# Indices 1 2 3 4 5 6 
#
# 1 128.9058 57.3077 56.3525 0.0000 14.0636 0.0000
# 2 57.3077 88.8070 35.4862 0.0000 7.0000 0.0000
# 3 56.3525 35.4862 73.6738 0.0000 -3.5792 0.0000
# 4 0.0000 0.0000 0.0000 18.3839 0.0000 9.3785
# 5 14.0636 7.0000 -3.5792 0.0000 19.3226 0.0000
# 6 0.0000 0.0000 0.0000 9.3785 0.0000 25.8101
#
#
#
# Elastic Compliance Matrix: (Units=1/GPa)
#
#
# Indices 1 2 3 4 5 6 
#
# 1 0.015728 -0.005226 -0.010068 0.000000 -0.011419 0.000000
# 2 -0.005226 0.016499 -0.004092 0.000000 -0.002931 0.000000
# 3 -0.010068 -0.004092 0.023888 0.000000 0.013235 0.000000
# 4 0.000000 0.000000 0.000000 0.066773 0.000000 -0.024263
# 5 -0.011419 -0.002931 0.013235 0.000000 0.063577 0.000000
# 6 0.000000 0.000000 0.000000 -0.024263 0.000000 0.047561
#
#
# Mechanical properties :
#
#
# Convention : Reuss Voigt Hill
#
# Bulk Modulus (GPa) = 57.65920 65.51992 61.58956
# Shear Modulus (GPa) = 17.94820 22.18600 20.06710
#
# Velocity S-wave (km/s) = 3.25150 3.61503 3.43807
# Velocity P-wave (km/s) = 6.93253 7.48456 7.21383
#
# Compressibility (1/GPa) = 0.01734329
#
# Stress axis : x y z
#
# Youngs Moduli (GPa) = 63.58033 60.60937 41.86231
#
# Poissons Ratio (x) = 0.31677 0.42146
# Poissons Ratio (y) = 0.33230 0.17129
# Poissons Ratio (z) = 0.64010 0.24800
#
# Static dielectric constant tensor:
#      x y z
#    x 3.506050 0.000000 0.068860 
#    y 0.000000 3.231260 0.000000 
#    z 0.068860 0.000000 2.924030 
# 
# 
# High freq. dielectric constant tensor:
#      x y z
#    x 1.662290 0.000000 0.011250 
#    y 0.000000 1.665670 0.000000 
#    z 0.011250 0.000000 1.618400 
# 
# From -- ./inp_files/88532.got.cif
#   From: 2010.06.25/outbox.cif.g09.slc.cpg/sg10_45_cif.got.tgz:88532.got - 2010.06.27 22:07:45.
