data_PCOD8060343
_publ_section_title
;
Structure prediction by ZEFSAII (Michael W. Deem and Ramdas Pophale) SiO2 
 PCOD8060343
Probable space group: P 2/M
;
_chemical_formula_sum "Si O2"
_cell_formula_units_Z 32
_cell_length_a 11.168349
_cell_length_b 15.463833
_cell_length_c 14.163910
_cell_angle_alpha 90.000000
_cell_angle_beta 140.255923
_cell_angle_gamma 90.000000
_cell_volume 1563.991620
_symmetry_space_group_name_H-M "P 2/M"
_symmetry_group_IT_number 10
_symmetry_cell_setting 'monoclinic'
loop_
_space_group_symop_operation_xyz
x,y,z
-x,y,-z
-x,-y,-z
x,-y,z
loop_
_atom_site_type_symbol
_atom_site_label
_atom_site_fract_x
_atom_site_fract_y
_atom_site_fract_z
Si Si1 0.061549 0.597003 0.432035
Si Si2 0.406972 0.906063 0.143342
Si Si3 0.610638 0.127723 0.658413
Si Si4 0.979144 0.279807 0.219570
Si Si5 0.478956 0.403315 0.728876
Si Si6 0.998297 0.905613 0.177298
Si Si7 0.439823 0.731342 0.070790
Si Si8 0.653025 0.325253 0.664087
O O1 0.993135 0.500000 0.362486
O O2 0.284305 0.602982 0.554383
O O3 0.000000 0.618622 0.500000
O O4 0.965732 0.669673 0.309574
O O5 0.469798 0.906220 0.291086
O O6 0.501708 0.827362 0.143237
O O7 0.469206 0.000000 0.139059
O O8 0.183135 0.894818 0.998429
O O9 0.500000 0.089926 0.500000
O O10 0.824453 0.097191 0.784141
O O11 0.584662 0.229785 0.647182
O O12 0.018782 0.176653 0.261447
O O13 0.136851 0.324861 0.249845
O O14 0.780328 0.286582 0.047494
O O15 0.514545 0.500000 0.788520
O O16 0.458000 0.340772 0.805577
O O17 0.645952 0.378369 0.757778
O O18 0.992408 0.000000 0.226322
O O19 0.500000 0.721053 0.000000
O O20 0.500000 0.366500 0.500000
#
# Coordination Sequence:
#
# PCOD8060343 Si02
#       8
#     4   4   4   4   4   4   4   4
#     4  10  21  38  61  87 113 151 204 245 282 345
#     4  10  20  36  57  80 112 154 198 238 285 344
#     4  10  19  31  53  83 117 150 185 235 289 342
#     4  10  21  37  61  85 113 158 191 240 297 344
#     4  11  23  39  62  88 119 156 190 238 301 354
#     4   9  19  33  52  80 113 152 193 231 282 349
#     4  11  24  41  59  84 119 155 200 248 289 342
#     4  10  19  36  59  86 120 148 187 237 291 358
#
# _framework density 20.460469
#
# number of rings (size 3 to 8) (size 9 to 14) (size 15 to 20)
#    0.000    1.875    2.500    1.500    0.000    4.250 
#    0.000    0.625    0.000    0.375    0.000    0.000 
#    0.000    0.000    0.000    0.000    0.000    0.000 
#
# Total GULP energy -396618.850711 kJ/mol
# GULP energy per Si atom -12394.339085 kJ/mol
# Density = 2.041390 g / cm^3
# Si number density = 20.460469 Si / 1000 Ang^3
#
#
#
# Elastic Constant Matrix: (Units=GPa)
#
#
# Indices 1 2 3 4 5 6 
#
# 1 75.4355 36.0705 17.1547 0.0000 -14.9052 0.0000
# 2 36.0705 149.5277 40.7621 0.0000 -27.6266 0.0000
# 3 17.1547 40.7621 55.0601 0.0000 -14.2495 0.0000
# 4 0.0000 0.0000 0.0000 24.6367 0.0000 -2.2792
# 5 -14.9052 -27.6266 -14.2495 0.0000 33.1356 0.0000
# 6 0.0000 0.0000 0.0000 -2.2792 0.0000 17.9358
#
#
#
# Elastic Compliance Matrix: (Units=1/GPa)
#
#
# Indices 1 2 3 4 5 6 
#
# 1 0.015714 -0.002484 -0.001984 0.000000 0.004144 0.000000
# 2 -0.002484 0.009530 -0.005079 0.000000 0.004644 0.000000
# 3 -0.001984 -0.005079 0.023870 0.000000 0.005138 0.000000
# 4 0.000000 0.000000 0.000000 0.041073 0.000000 0.005219
# 5 0.004144 0.004644 0.005138 0.000000 0.038124 0.000000
# 6 0.000000 0.000000 0.000000 0.005219 0.000000 0.056418
#
#
# Mechanical properties :
#
#
# Convention : Reuss Voigt Hill
#
# Bulk Modulus (GPa) = 33.31287 51.99976 42.65632
# Shear Modulus (GPa) = 23.38308 27.54403 25.46356
#
# Velocity S-wave (km/s) = 3.38426 3.67305 3.53161
# Velocity P-wave (km/s) = 5.62031 6.59229 6.12561
#
# Compressibility (1/GPa) = 0.03001843
#
# Stress axis : x y z
#
# Youngs Moduli (GPa) = 63.63637 104.93721 41.89338
#
# Poissons Ratio (x) = 0.26067 0.08314
# Poissons Ratio (y) = 0.15808 0.21278
# Poissons Ratio (z) = 0.12628 0.53300
#
# Static dielectric constant tensor:
#      x y z
#    x 3.421110 0.000000 0.078480 
#    y 0.000000 3.993720 0.000000 
#    z 0.078480 0.000000 3.583220 
# 
# 
# High freq. dielectric constant tensor:
#      x y z
#    x 1.776400 0.000000 0.002460 
#    y 0.000000 1.812840 0.000000 
#    z 0.002460 0.000000 1.781810 
# 
# From -- ./inp_files/65138.got.cif
#   From: 2010.06.25/outbox.cif.g09.slc.cpg/sg10_33_cif.got.tgz:65138.got - 2010.06.27 22:07:45.
