data_PCOD8060296
_publ_section_title
;
Structure prediction by ZEFSAII (Michael W. Deem and Ramdas Pophale) SiO2 
 PCOD8060296
Probable space group: P 2/M
;
_chemical_formula_sum "Si O2"
_cell_formula_units_Z 32
_cell_length_a 14.057157
_cell_length_b 9.413909
_cell_length_c 24.778789
_cell_angle_alpha 90.000000
_cell_angle_beta 150.034149
_cell_angle_gamma 90.000000
_cell_volume 1637.830415
_symmetry_space_group_name_H-M "P 2/M"
_symmetry_group_IT_number 10
_symmetry_cell_setting 'monoclinic'
loop_
_space_group_symop_operation_xyz
x,y,z
-x,y,-z
-x,-y,-z
x,-y,z
loop_
_atom_site_type_symbol
_atom_site_label
_atom_site_fract_x
_atom_site_fract_y
_atom_site_fract_z
Si Si1 0.672009 0.160334 0.433135
Si Si2 0.362308 0.666992 0.982056
Si Si3 0.993266 0.830352 0.161543
Si Si4 0.051652 0.337364 0.084849
Si Si5 0.465251 0.656313 0.254589
Si Si6 0.429270 0.662688 0.808214
Si Si7 0.926779 0.161790 0.405857
Si Si8 0.417465 0.831305 0.403783
O O1 0.621452 0.233572 0.351602
O O2 0.557415 0.231410 0.426370
O O3 0.899203 0.170330 0.551756
O O4 0.601478 0.000000 0.392616
O O5 0.310730 0.500000 0.959446
O O6 0.168645 0.758725 0.880475
O O7 0.500000 0.701336 0.000000
O O8 0.467867 0.721324 0.088022
O O9 0.966984 0.765653 0.088647
O O10 0.198559 0.785603 0.286630
O O11 0.968078 0.000000 0.147046
O O12 0.978421 0.500000 0.057623
O O13 0.279037 0.329117 0.199605
O O14 0.000000 0.281516 0.000000
O O15 0.553799 0.500000 0.305294
O O16 0.425482 0.681157 0.171098
O O17 0.371765 0.500000 0.789828
O O18 0.237145 0.745319 0.700798
O O19 0.000000 0.218270 0.500000
O O20 0.854582 0.000000 0.376844
O O21 0.500000 0.767412 0.500000
O O22 0.432217 0.000000 0.412162
#
# Coordination Sequence:
#
# PCOD8060296 Si02
#       8
#     4   4   4   4   4   4   4   4
#     4  10  19  34  54  76 109 149 187 228 279 340
#     4  10  23  44  65  83 113 158 199 239 292 349
#     4  11  22  37  62  92 117 148 193 245 294 343
#     4  10  20  35  56  82 117 158 195 234 287 352
#     4  10  19  31  52  80 110 145 185 232 284 335
#     4  10  21  37  58  84 113 151 197 240 287 343
#     4  10  20  33  53  82 115 153 190 231 289 344
#     4   9  19  36  57  82 114 152 190 230 284 345
#
# _framework density 19.538042999999998
#
# number of rings (size 3 to 8) (size 9 to 14) (size 15 to 20)
#    0.000    2.000    2.500    1.125    0.000    4.750 
#    0.000    2.500    0.000    3.375    0.000    0.000 
#    0.000    0.000    0.000    0.000    0.000    0.000 
#
# Total GULP energy -396712.968293 kJ/mol
# GULP energy per Si atom -12397.280259 kJ/mol
# Density = 1.949357 g / cm^3
# Si number density = 19.538043 Si / 1000 Ang^3
#
#
#
# Elastic Constant Matrix: (Units=GPa)
#
#
# Indices 1 2 3 4 5 6 
#
# 1 123.2384 39.1549 44.2943 0.0000 4.3110 0.0000
# 2 39.1549 58.2271 33.5260 0.0000 3.1782 0.0000
# 3 44.2943 33.5260 89.2689 0.0000 -2.3918 0.0000
# 4 0.0000 0.0000 0.0000 28.0830 0.0000 5.3621
# 5 4.3110 3.1782 -2.3918 0.0000 31.0353 0.0000
# 6 0.0000 0.0000 0.0000 5.3621 0.0000 28.1804
#
#
#
# Elastic Compliance Matrix: (Units=1/GPa)
#
#
# Indices 1 2 3 4 5 6 
#
# 1 0.011142 -0.005385 -0.003540 0.000000 -0.001269 0.000000
# 2 -0.005385 0.024776 -0.006695 0.000000 -0.002305 0.000000
# 3 -0.003540 -0.006695 0.015537 0.000000 0.002375 0.000000
# 4 0.000000 0.000000 0.000000 0.036951 0.000000 -0.007031
# 5 -0.001269 -0.002305 0.002375 0.000000 0.032817 0.000000
# 6 0.000000 0.000000 0.000000 -0.007031 0.000000 0.036824
#
#
# Mechanical properties :
#
#
# Convention : Reuss Voigt Hill
#
# Bulk Modulus (GPa) = 49.46853 56.07610 52.77232
# Shear Modulus (GPa) = 25.50714 27.71034 26.60874
#
# Velocity S-wave (km/s) = 3.61711 3.77009 3.69439
# Velocity P-wave (km/s) = 6.54360 6.90758 6.72805
#
# Compressibility (1/GPa) = 0.02021487
#
# Stress axis : x y z
#
# Youngs Moduli (GPa) = 89.75027 40.36223 64.36399
#
# Poissons Ratio (x) = 0.21734 0.22786
# Poissons Ratio (y) = 0.48329 0.43090
# Poissons Ratio (z) = 0.31774 0.27021
#
# Static dielectric constant tensor:
#      x y z
#    x 3.779020 0.000000 0.030380 
#    y 0.000000 3.353730 0.000000 
#    z 0.030380 0.000000 3.479790 
# 
# 
# High freq. dielectric constant tensor:
#      x y z
#    x 1.770140 0.000000 0.009710 
#    y 0.000000 1.738060 0.000000 
#    z 0.009710 0.000000 1.754240 
# 
# From -- ./inp_files/89612.got.cif
#   From: 2010.06.25/outbox.cif.g09.slc.cpg/sg10_45_cif.got.tgz:89612.got - 2010.06.27 22:07:45.
