data_PCOD8060051
_publ_section_title
;
Structure prediction by ZEFSAII (Michael W. Deem and Ramdas Pophale) SiO2 
 PCOD8060051
Probable space group: P 2/M
;
_chemical_formula_sum "Si O2"
_cell_formula_units_Z 32
_cell_length_a 12.268414
_cell_length_b 9.093653
_cell_length_c 21.362991
_cell_angle_alpha 90.000000
_cell_angle_beta 43.046339
_cell_angle_gamma 90.000000
_cell_volume 1626.853876
_symmetry_space_group_name_H-M "P 2/M"
_symmetry_group_IT_number 10
_symmetry_cell_setting 'monoclinic'
loop_
_space_group_symop_operation_xyz
x,y,z
-x,y,-z
-x,-y,-z
x,-y,z
loop_
_atom_site_type_symbol
_atom_site_label
_atom_site_fract_x
_atom_site_fract_y
_atom_site_fract_z
Si Si1 0.418939 0.169141 0.597848
Si Si2 0.529202 0.166913 0.122588
Si Si3 0.271527 0.170040 0.458466
Si Si4 0.089730 0.670396 0.750643
Si Si5 0.653320 0.659466 0.898158
Si Si6 0.167983 0.828937 0.075316
Si Si7 0.997063 0.671058 0.353960
Si Si8 0.264022 0.168752 0.320638
O O1 0.500000 0.224694 0.500000
O O2 0.543371 0.192212 0.602009
O O3 0.265167 0.264566 0.676200
O O4 0.365861 0.000000 0.613185
O O5 0.400571 0.271198 0.143926
O O6 0.456273 0.176391 0.223339
O O7 0.518911 0.000000 0.100504
O O8 0.715119 0.215981 0.032902
O O9 0.163492 0.259251 0.551689
O O10 0.243674 0.228109 0.399622
O O11 0.223323 0.000000 0.484430
O O12 0.106937 0.500000 0.756579
O O13 0.996669 0.701656 0.723728
O O14 0.997566 0.739034 0.850053
O O15 0.746540 0.500000 0.848748
O O16 0.745368 0.785330 0.896954
O O17 0.500000 0.613141 0.000000
O O18 0.125763 0.000000 0.091159
O O19 0.990557 0.500000 0.372015
O O20 0.153804 0.738580 0.319990
O O21 0.206869 0.000000 0.340128
#
# Coordination Sequence:
#
# PCOD8060051 Si02
#       8
#     4   4   4   4   4   4   4   4
#     4  10  20  37  61  84 106 135 176 223 272 323
#     4   9  18  32  49  71 101 140 181 221 262 310
#     4  10  21  38  59  81 106 140 180 222 268 319
#     4  11  23  36  54  82 113 143 177 220 273 323
#     4   9  16  26  42  66  98 135 173 214 261 310
#     4  10  19  31  49  73 103 138 179 222 265 313
#     4  11  23  36  52  79 114 146 178 218 265 320
#     4  10  21  36  55  79 109 145 183 220 262 315
#
# _framework density 19.669868000000001
#
# number of rings (size 3 to 8) (size 9 to 14) (size 15 to 20)
#    0.000    2.000    1.250    2.625    0.000    8.750 
#    0.000    0.000    0.000    0.750    0.000    5.250 
#    0.000    0.000    0.000    0.000    0.000    0.000 
#
# Total GULP energy -396421.288836 kJ/mol
# GULP energy per Si atom -12388.165276 kJ/mol
# Density = 1.962510 g / cm^3
# Si number density = 19.669868 Si / 1000 Ang^3
#
#
#
# Elastic Constant Matrix: (Units=GPa)
#
#
# Indices 1 2 3 4 5 6 
#
# 1 53.4067 24.0194 22.9754 0.0000 -11.2058 0.0000
# 2 24.0194 78.1233 38.9809 0.0000 -9.7516 0.0000
# 3 22.9754 38.9809 97.5242 0.0000 -17.4128 0.0000
# 4 0.0000 0.0000 0.0000 10.2040 0.0000 -0.1390
# 5 -11.2058 -9.7516 -17.4128 0.0000 24.7004 0.0000
# 6 0.0000 0.0000 0.0000 -0.1390 0.0000 18.3690
#
#
#
# Elastic Compliance Matrix: (Units=1/GPa)
#
#
# Indices 1 2 3 4 5 6 
#
# 1 0.023506 -0.005261 -0.002175 0.000000 0.007053 0.000000
# 2 -0.005261 0.017260 -0.005570 0.000000 0.000501 0.000000
# 3 -0.002175 -0.005570 0.014213 0.000000 0.006834 0.000000
# 4 0.000000 0.000000 0.000000 0.098011 0.000000 0.000742
# 5 0.007053 0.000501 0.006834 0.000000 0.048700 0.000000
# 6 0.000000 0.000000 0.000000 0.000742 0.000000 0.054445
#
#
# Mechanical properties :
#
#
# Convention : Reuss Voigt Hill
#
# Bulk Modulus (GPa) = 34.52388 44.55619 39.54004
# Shear Modulus (GPa) = 17.13486 20.19326 18.66406
#
# Velocity S-wave (km/s) = 2.95468 3.20755 3.08371
# Velocity P-wave (km/s) = 5.40647 6.03482 5.72927
#
# Compressibility (1/GPa) = 0.02896545
#
# Stress axis : x y z
#
# Youngs Moduli (GPa) = 42.54185 57.93902 70.35910
#
# Poissons Ratio (x) = 0.30483 0.15306
# Poissons Ratio (y) = 0.22382 0.39189
# Poissons Ratio (z) = 0.09255 0.32271
#
# Static dielectric constant tensor:
#      x y z
#    x 3.096590 0.000000 -0.122520 
#    y 0.000000 3.554860 0.000000 
#    z -0.122520 0.000000 3.951370 
# 
# 
# High freq. dielectric constant tensor:
#      x y z
#    x 1.718510 0.000000 -0.020450 
#    y 0.000000 1.768600 0.000000 
#    z -0.020450 0.000000 1.790790 
# 
# From -- ./inp_files/83536.got.cif
#   From: 2010.06.25/outbox.cif.g09.slc.cpg/sg10_42_cif.got.tgz:83536.got - 2010.06.27 22:07:45.
