data_PCOD8060035
_publ_section_title
;
Structure prediction by ZEFSAII (Michael W. Deem and Ramdas Pophale) SiO2 
 PCOD8060035
Probable space group: P 2/M
;
_chemical_formula_sum "Si O2"
_cell_formula_units_Z 28
_cell_length_a 27.214557
_cell_length_b 9.308141
_cell_length_c 9.315553
_cell_angle_alpha 90.000000
_cell_angle_beta 142.784855
_cell_angle_gamma 90.000000
_cell_volume 1427.222122
_symmetry_space_group_name_H-M "P 2/M"
_symmetry_group_IT_number 10
_symmetry_cell_setting 'monoclinic'
loop_
_space_group_symop_operation_xyz
x,y,z
-x,y,-z
-x,-y,-z
x,-y,z
loop_
_atom_site_type_symbol
_atom_site_label
_atom_site_fract_x
_atom_site_fract_y
_atom_site_fract_z
Si Si1 0.691167 0.161352 0.447972
Si Si2 0.081160 0.663329 0.596188
Si Si3 0.000600 0.832786 0.167527
Si Si4 0.383966 0.332334 0.958822
Si Si5 0.157665 0.166857 0.016774
Si Si6 0.452141 0.161723 0.675844
Si Si7 0.593874 0.343364 0.677529
O O1 0.688517 0.264681 0.303856
O O2 0.601235 0.162958 0.305548
O O3 0.714262 0.000000 0.452582
O O4 0.758362 0.217560 0.715621
O O5 0.108778 0.500000 0.630386
O O6 0.149118 0.743754 0.849450
O O7 0.000000 0.669019 0.500000
O O8 0.067934 0.742895 0.413003
O O9 0.912789 0.801762 0.031673
O O10 0.024002 0.000000 0.233415
O O11 0.000000 0.782488 0.000000
O O12 0.393170 0.500000 0.946188
O O13 0.469552 0.259262 0.119237
O O14 0.358427 0.304643 0.064962
O O15 0.158977 0.000000 0.976668
O O16 0.393638 0.222006 0.413048
O O17 0.479488 0.000000 0.700372
O O18 0.500000 0.351560 0.500000
O O19 0.621936 0.500000 0.684467
#
# Coordination Sequence:
#
# PCOD8060035 Si02
#       7
#     4   4   4   4   4   4   4
#     4  10  21  34  48  70  99 129 163 204 245 286
#     4   9  17  30  50  75 100 126 157 192 232 282
#     4   9  17  31  54  80 101 126 162 199 236 283
#     4  10  20  33  50  71  95 127 165 203 246 294
#     4   9  18  34  52  70  98 133 164 197 240 287
#     4  10  19  31  49  72  95 123 164 208 246 288
#     4   8  16  31  48  67  91 118 153 197 242 290
#
# _framework density 19.618528999999999
#
# number of rings (size 3 to 8) (size 9 to 14) (size 15 to 20)
#    0.000    2.714    0.000    2.571    0.000    8.571 
#    0.000    1.429    0.000    6.857    0.000    0.000 
#    0.000    0.000    0.000    0.000    0.000    0.000 
#
# Total GULP energy -347117.878473 kJ/mol
# GULP energy per Si atom -12397.067088 kJ/mol
# Density = 1.957388 g / cm^3
# Si number density = 19.618529 Si / 1000 Ang^3
#
#
#
# Elastic Constant Matrix: (Units=GPa)
#
#
# Indices 1 2 3 4 5 6 
#
# 1 26.0421 21.3940 20.2856 0.0000 -17.2254 0.0000
# 2 21.3940 121.3968 79.7651 0.0000 -23.2103 0.0000
# 3 20.2856 79.7651 152.4520 0.0000 -29.3116 0.0000
# 4 0.0000 0.0000 0.0000 30.4084 0.0000 -6.5990
# 5 -17.2254 -23.2103 -29.3116 0.0000 32.1581 0.0000
# 6 0.0000 0.0000 0.0000 -6.5990 0.0000 9.6257
#
#
#
# Elastic Compliance Matrix: (Units=1/GPa)
#
#
# Indices 1 2 3 4 5 6 
#
# 1 0.062321 -0.005500 0.000291 0.000000 0.029678 0.000000
# 2 -0.005500 0.013418 -0.006054 0.000000 0.001220 0.000000
# 3 0.000291 -0.006054 0.010765 0.000000 0.005598 0.000000
# 4 0.000000 0.000000 0.000000 0.038633 0.000000 0.026485
# 5 0.029678 0.001220 0.005598 0.000000 0.052977 0.000000
# 6 0.000000 0.000000 0.000000 0.026485 0.000000 0.122045
#
#
# Mechanical properties :
#
#
# Convention : Reuss Voigt Hill
#
# Bulk Modulus (GPa) = 15.63036 60.30891 37.96964
# Shear Modulus (GPa) = 14.53444 26.33486 20.43465
#
# Velocity S-wave (km/s) = 2.72481 3.66778 3.23088
# Velocity P-wave (km/s) = 4.22894 6.98171 5.77184
#
# Compressibility (1/GPa) = 0.06397804
#
# Stress axis : x y z
#
# Youngs Moduli (GPa) = 16.04590 74.52762 92.89736
#
# Poissons Ratio (x) = 0.40991 -0.02706
# Poissons Ratio (y) = 0.08825 0.56240
# Poissons Ratio (z) = -0.00467 0.45119
#
# Static dielectric constant tensor:
#      x y z
#    x 3.255210 0.000000 -0.358220 
#    y 0.000000 3.684810 0.000000 
#    z -0.358220 0.000000 3.842110 
# 
# 
# High freq. dielectric constant tensor:
#      x y z
#    x 1.722440 0.000000 -0.022510 
#    y 0.000000 1.765780 0.000000 
#    z -0.022510 0.000000 1.770730 
# 
# From -- ./inp_files/38056.got.cif
#   From: 2010.06.25/outbox.cif.g09.slc.cpg/sg10_20_cif.got.tgz:38056.got - 2010.06.27 22:07:45.
