data_PCOD8060313
_publ_section_title
;
Structure prediction by ZEFSAII (Michael W. Deem and Ramdas Pophale) SiO2 
 PCOD8060313
Probable space group: P 2/M
;
_chemical_formula_sum "Si O2"
_cell_formula_units_Z 32
_cell_length_a 18.469756
_cell_length_b 8.930255
_cell_length_c 26.809116
_cell_angle_alpha 90.000000
_cell_angle_beta 156.816607
_cell_angle_gamma 90.000000
_cell_volume 1740.787995
_symmetry_space_group_name_H-M "P 2/M"
_symmetry_group_IT_number 10
_symmetry_cell_setting 'monoclinic'
loop_
_space_group_symop_operation_xyz
x,y,z
-x,y,-z
-x,-y,-z
x,-y,z
loop_
_atom_site_type_symbol
_atom_site_label
_atom_site_fract_x
_atom_site_fract_y
_atom_site_fract_z
Si Si1 0.930528 0.175765 0.164599
Si Si2 0.398505 0.674946 0.676812
Si Si3 0.618091 0.325199 0.913766
Si Si4 0.915910 0.671352 0.258395
Si Si5 0.295540 0.331793 0.781868
Si Si6 0.293511 0.177928 0.514943
Si Si7 0.039430 0.839153 0.469162
Si Si8 0.656069 0.176278 0.563547
O O1 0.865150 0.254126 0.173995
O O2 0.142719 0.216352 0.287415
O O3 0.903905 0.000000 0.154495
O O4 0.807854 0.235535 0.041164
O O5 0.422806 0.500000 0.682535
O O6 0.529840 0.729024 0.805317
O O7 0.433296 0.762943 0.646530
O O8 0.190660 0.710087 0.560633
O O9 0.662271 0.500000 0.938958
O O10 0.492158 0.288298 0.882655
O O11 0.978438 0.500000 0.289537
O O12 0.728053 0.675496 0.172759
O O13 0.086306 0.758306 0.393611
O O14 0.247907 0.500000 0.732781
O O15 0.152889 0.211625 0.673528
O O16 0.362246 0.238269 0.504630
O O17 0.287071 0.000000 0.510222
O O18 0.000000 0.875985 0.500000
O O19 0.101822 0.000000 0.483729
O O20 0.500000 0.250760 0.500000
O O21 0.626697 0.000000 0.543818
#
# Coordination Sequence:
#
# PCOD8060313 Si02
#       8
#     4   4   4   4   4   4   4   4
#     4  10  21  36  55  78 104 133 169 217 266 312
#     4  11  21  33  51  72 102 145 183 215 258 314
#     4  10  22  37  51  69 100 145 189 219 251 307
#     4  10  19  32  52  73 100 139 178 220 263 308
#     4  10  20  33  49  69  96 140 189 223 257 304
#     4  10  19  31  52  83 111 132 166 219 268 305
#     4  11  21  30  45  71 101 134 177 235 278 296
#     4   8  16  34  60  86 108 130 158 200 259 322
#
# _framework density 18.382480000000001
#
# number of rings (size 3 to 8) (size 9 to 14) (size 15 to 20)
#    0.000    2.000    2.500    2.625    0.000    3.000 
#    0.000    2.500    0.000   14.250    0.000    5.250 
#    0.000    0.000    0.000    0.000    0.000    0.000 
#
# Total GULP energy -396507.586188 kJ/mol
# GULP energy per Si atom -12390.862068 kJ/mol
# Density = 1.834064 g / cm^3
# Si number density = 18.382480 Si / 1000 Ang^3
#
#
#
# Elastic Constant Matrix: (Units=GPa)
#
#
# Indices 1 2 3 4 5 6 
#
# 1 106.1306 28.0693 53.1635 0.0000 4.8792 0.0000
# 2 28.0693 70.0926 40.0179 0.0000 -6.8085 0.0000
# 3 53.1635 40.0179 103.2594 0.0000 -11.3737 0.0000
# 4 0.0000 0.0000 0.0000 26.5831 0.0000 -9.8935
# 5 4.8792 -6.8085 -11.3737 0.0000 22.4483 0.0000
# 6 0.0000 0.0000 0.0000 -9.8935 0.0000 17.9024
#
#
#
# Elastic Compliance Matrix: (Units=1/GPa)
#
#
# Indices 1 2 3 4 5 6 
#
# 1 0.013902 -0.002222 -0.007099 0.000000 -0.007292 0.000000
# 2 -0.002222 0.018767 -0.005771 0.000000 0.003251 0.000000
# 3 -0.007099 -0.005771 0.016472 0.000000 0.008139 0.000000
# 4 0.000000 0.000000 0.000000 0.047358 0.000000 0.026172
# 5 -0.007292 0.003251 0.008139 0.000000 0.051241 0.000000
# 6 0.000000 0.000000 0.000000 0.026172 0.000000 0.070322
#
#
# Mechanical properties :
#
#
# Convention : Reuss Voigt Hill
#
# Bulk Modulus (GPa) = 52.75283 57.99822 55.37553
# Shear Modulus (GPa) = 19.64117 23.93554 21.78835
#
# Velocity S-wave (km/s) = 3.27230 3.61235 3.44652
# Velocity P-wave (km/s) = 6.56025 7.00129 6.78436
#
# Compressibility (1/GPa) = 0.01895633
#
# Stress axis : x y z
#
# Youngs Moduli (GPa) = 71.93436 53.28386 60.70738
#
# Poissons Ratio (x) = 0.11841 0.43098
# Poissons Ratio (y) = 0.15985 0.35035
# Poissons Ratio (z) = 0.51068 0.30750
#
# Static dielectric constant tensor:
#      x y z
#    x 3.639900 0.000000 -0.162150 
#    y 0.000000 3.346480 0.000000 
#    z -0.162150 0.000000 3.244640 
# 
# 
# High freq. dielectric constant tensor:
#      x y z
#    x 1.703940 0.000000 -0.021900 
#    y 0.000000 1.713410 0.000000 
#    z -0.021900 0.000000 1.686200 
# 
# From -- ./inp_files/95673.got.cif
#   From: 2010.06.25/outbox.cif.g09.slc.cpg/sg10_48_cif.got.tgz:95673.got - 2010.06.27 22:07:45.
