data_PCOD8060552
_publ_section_title
;
Structure prediction by ZEFSAII (Michael W. Deem and Ramdas Pophale) SiO2 
 PCOD8060552
Probable space group: P 2/M
;
_chemical_formula_sum "Si O2"
_cell_formula_units_Z 32
_cell_length_a 10.276189
_cell_length_b 9.218997
_cell_length_c 23.471882
_cell_angle_alpha 90.000000
_cell_angle_beta 123.345339
_cell_angle_gamma 90.000000
_cell_volume 1857.564584
_symmetry_space_group_name_H-M "P 2/M"
_symmetry_group_IT_number 10
_symmetry_cell_setting 'monoclinic'
loop_
_space_group_symop_operation_xyz
x,y,z
-x,y,-z
-x,-y,-z
x,-y,z
loop_
_atom_site_type_symbol
_atom_site_label
_atom_site_fract_x
_atom_site_fract_y
_atom_site_fract_z
Si Si1 0.331618 0.331486 0.475040
Si Si2 0.043676 0.672915 0.921596
Si Si3 0.876836 0.669437 0.182242
Si Si4 0.758618 0.672184 0.925716
Si Si5 0.584620 0.672848 0.183848
Si Si6 0.175207 0.834086 0.538525
Si Si7 0.236452 0.833338 0.680746
Si Si8 0.960073 0.667427 0.666427
O O1 0.500000 0.266686 0.500000
O O2 0.344192 0.500000 0.492613
O O3 0.272903 0.255885 0.517387
O O4 0.218113 0.303603 0.393796
O O5 0.043003 0.500000 0.918904
O O6 0.080731 0.742272 0.868395
O O7 0.874232 0.726367 0.903144
O O8 0.176435 0.726586 0.997669
O O9 0.863496 0.500000 0.168330
O O10 0.710510 0.724367 0.166695
O O11 0.013333 0.705921 0.260539
O O12 0.753548 0.500000 0.924372
O O13 0.584767 0.733093 0.874711
O O14 0.587048 0.500000 0.191862
O O15 0.628821 0.744013 0.254834
O O16 0.263749 0.819780 0.619963
O O17 0.000000 0.771166 0.500000
O O18 0.167362 0.000000 0.515890
O O19 0.066879 0.768471 0.653221
O O20 0.240414 0.000000 0.701702
O O21 0.008437 0.500000 0.667301
#
# Coordination Sequence:
#
# PCOD8060552 Si02
#       8
#     4   4   4   4   4   4   4   4
#     4  10  21  35  50  74 105 131 159 199 247 296
#     4   8  13  23  39  62  92 124 152 185 226 273
#     4   8  14  24  40  61  87 119 152 184 225 270
#     4   8  14  24  39  63  95 122 150 186 229 275
#     4   9  17  29  44  68  96 120 149 191 237 281
#     4  10  20  35  54  74  94 125 170 208 239 286
#     4  10  19  32  51  72  94 122 161 202 239 282
#     4   9  17  31  49  69  97 127 157 194 238 287
#
# _framework density 17.226858
#
# number of rings (size 3 to 8) (size 9 to 14) (size 15 to 20)
#    0.000    3.000    1.250    1.875    0.000    2.000 
#    2.250    2.500    0.000    0.000    0.000    8.750 
#    0.000    0.000    0.000    0.000    0.000    0.000 
#
# Total GULP energy -396639.677944 kJ/mol
# GULP energy per Si atom -12394.989936 kJ/mol
# Density = 1.718765 g / cm^3
# Si number density = 17.226858 Si / 1000 Ang^3
#
#
#
# Elastic Constant Matrix: (Units=GPa)
#
#
# Indices 1 2 3 4 5 6 
#
# 1 133.7410 30.1018 91.6598 0.0000 4.2345 0.0000
# 2 30.1018 33.0534 28.7921 0.0000 -0.6680 0.0000
# 3 91.6598 28.7921 134.4975 0.0000 4.4506 0.0000
# 4 0.0000 0.0000 0.0000 38.9978 0.0000 -23.2104
# 5 4.2345 -0.6680 4.4506 0.0000 32.8315 0.0000
# 6 0.0000 0.0000 0.0000 -23.2104 0.0000 30.7905
#
#
#
# Elastic Compliance Matrix: (Units=1/GPa)
#
#
# Indices 1 2 3 4 5 6 
#
# 1 0.014906 -0.005860 -0.008876 0.000000 -0.000839 0.000000
# 2 -0.005860 0.039604 -0.004557 0.000000 0.002179 0.000000
# 3 -0.008876 -0.004557 0.014490 0.000000 -0.000912 0.000000
# 4 0.000000 0.000000 0.000000 0.046509 0.000000 0.035059
# 5 -0.000839 0.002179 -0.000912 0.000000 0.030735 0.000000
# 6 0.000000 0.000000 0.000000 0.035059 0.000000 0.058906
#
#
# Mechanical properties :
#
#
# Convention : Reuss Voigt Hill
#
# Bulk Modulus (GPa) = 32.87944 66.93328 49.90636
# Shear Modulus (GPa) = 19.69493 30.57315 25.13404
#
# Velocity S-wave (km/s) = 3.38489 4.21733 3.82383
# Velocity P-wave (km/s) = 5.86551 7.91536 6.96625
#
# Compressibility (1/GPa) = 0.03041414
#
# Stress axis : x y z
#
# Youngs Moduli (GPa) = 67.08737 25.24998 69.01402
#
# Poissons Ratio (x) = 0.14796 0.61258
# Poissons Ratio (y) = 0.39313 0.31447
# Poissons Ratio (z) = 0.59548 0.11506
#
# Static dielectric constant tensor:
#      x y z
#    x 3.337360 0.000000 0.041430 
#    y 0.000000 2.819550 0.000000 
#    z 0.041430 0.000000 3.499640 
# 
# 
# High freq. dielectric constant tensor:
#      x y z
#    x 1.654460 0.000000 0.000150 
#    y 0.000000 1.621060 0.000000 
#    z 0.000150 0.000000 1.675740 
# 
# From -- ./inp_files/86117.got.cif
#   From: 2010.06.25/outbox.cif.g09.slc.cpg/sg10_44_cif.got.tgz:86117.got - 2010.06.27 22:07:45.
