data_PCOD8060519
_publ_section_title
;
Structure prediction by ZEFSAII (Michael W. Deem and Ramdas Pophale) SiO2 
 PCOD8060519
Probable space group: P 2/M
;
_chemical_formula_sum "Si O2"
_cell_formula_units_Z 28
_cell_length_a 20.274255
_cell_length_b 9.036623
_cell_length_c 17.130849
_cell_angle_alpha 90.000000
_cell_angle_beta 28.513677
_cell_angle_gamma 90.000000
_cell_volume 1498.248112
_symmetry_space_group_name_H-M "P 2/M"
_symmetry_group_IT_number 10
_symmetry_cell_setting 'monoclinic'
loop_
_space_group_symop_operation_xyz
x,y,z
-x,y,-z
-x,-y,-z
x,-y,z
loop_
_atom_site_type_symbol
_atom_site_label
_atom_site_fract_x
_atom_site_fract_y
_atom_site_fract_z
Si Si1 0.136733 0.325205 0.085748
Si Si2 0.421641 0.823963 0.831519
Si Si3 0.901168 0.170014 0.410582
Si Si4 0.414254 0.823980 0.015603
Si Si5 0.052735 0.325789 0.861954
Si Si6 0.144370 0.826255 0.371115
Si Si7 0.289224 0.171236 0.535135
O O1 0.155349 0.500000 0.071798
O O2 0.038931 0.268414 0.257467
O O3 0.060496 0.276431 0.084636
O O4 0.286805 0.251008 0.934750
O O5 0.551511 0.778311 0.641544
O O6 0.400373 0.000000 0.853847
O O7 0.452496 0.768380 0.888553
O O8 0.823782 0.207487 0.571679
O O9 0.785977 0.206298 0.467452
O O10 0.950492 0.000000 0.356417
O O11 0.260436 0.763838 0.192776
O O12 0.427629 0.000000 0.003826
O O13 0.500000 0.758306 0.000000
O O14 0.071324 0.500000 0.842393
O O15 0.206083 0.259314 0.688223
O O16 0.000000 0.266831 0.000000
O O17 0.000000 0.749081 0.500000
O O18 0.135628 0.000000 0.365127
O O19 0.282467 0.000000 0.564513
#
# Coordination Sequence:
#
# PCOD8060519 Si02
#       7
#     4   4   4   4   4   4   4
#     4  10  20  33  51  74  98 128 165 202 244 296
#     4  10  19  32  50  74 105 135 164 202 246 291
#     4   9  16  29  48  69  95 126 163 207 248 287
#     4   9  16  26  43  68  96 127 165 207 244 278
#     4   9  19  37  58  77  97 124 161 202 242 289
#     4   9  15  22  37  63  90 118 156 199 240 278
#     4   9  18  31  50  76 101 127 159 195 241 294
#
# _framework density 18.688493000000001
#
# number of rings (size 3 to 8) (size 9 to 14) (size 15 to 20)
#    0.000    2.714    0.000    2.143    0.000    7.143 
#    0.000    0.714    0.000    8.571    0.000    0.000 
#    0.000    0.000    0.000    0.000    0.000    0.000 
#
# Total GULP energy -346988.244839 kJ/mol
# GULP energy per Si atom -12392.437316 kJ/mol
# Density = 1.864596 g / cm^3
# Si number density = 18.688493 Si / 1000 Ang^3
#
#
#
# Elastic Constant Matrix: (Units=GPa)
#
#
# Indices 1 2 3 4 5 6 
#
# 1 54.8461 17.9819 43.4612 0.0000 -2.8234 0.0000
# 2 17.9819 34.1400 35.3108 0.0000 -3.1695 0.0000
# 3 43.4612 35.3108 149.2661 0.0000 -2.2661 0.0000
# 4 0.0000 0.0000 0.0000 9.9449 0.0000 -4.3592
# 5 -2.8234 -3.1695 -2.2661 0.0000 31.9075 0.0000
# 6 0.0000 0.0000 0.0000 -4.3592 0.0000 18.7150
#
#
#
# Elastic Compliance Matrix: (Units=1/GPa)
#
#
# Indices 1 2 3 4 5 6 
#
# 1 0.025105 -0.007385 -0.005546 0.000000 0.001094 0.000000
# 2 -0.007385 0.041282 -0.007571 0.000000 0.002909 0.000000
# 3 -0.005546 -0.007571 0.010097 0.000000 -0.000526 0.000000
# 4 0.000000 0.000000 0.000000 0.111988 0.000000 0.026085
# 5 0.001094 0.002909 -0.000526 0.000000 0.031689 0.000000
# 6 0.000000 0.000000 0.000000 0.026085 0.000000 0.059509
#
#
# Mechanical properties :
#
#
# Convention : Reuss Voigt Hill
#
# Bulk Modulus (GPa) = 28.18541 47.97333 38.07937
# Shear Modulus (GPa) = 15.03747 21.54672 18.29210
#
# Velocity S-wave (km/s) = 2.83969 3.39918 3.13195
# Velocity P-wave (km/s) = 5.08589 6.41339 5.78783
#
# Compressibility (1/GPa) = 0.03547935
#
# Stress axis : x y z
#
# Youngs Moduli (GPa) = 39.83210 24.22360 99.03553
#
# Poissons Ratio (x) = 0.17890 0.54926
# Poissons Ratio (y) = 0.29417 0.74982
# Poissons Ratio (z) = 0.22091 0.18340
#
# Static dielectric constant tensor:
#      x y z
#    x 3.466000 0.000000 0.000130 
#    y 0.000000 3.048530 0.000000 
#    z 0.000130 0.000000 3.819740 
# 
# 
# High freq. dielectric constant tensor:
#      x y z
#    x 1.716120 0.000000 -0.002960 
#    y 0.000000 1.679600 0.000000 
#    z -0.002960 0.000000 1.738170 
# 
# From -- ./inp_files/79223.got.cif
#   From: 2010.06.25/outbox.cif.g09.slc.cpg/sg10_40_cif.got.tgz:79223.got - 2010.06.27 22:07:45.
