data_PCOD8060147
_publ_section_title
;
Structure prediction by ZEFSAII (Michael W. Deem and Ramdas Pophale) SiO2 
 PCOD8060147
Probable space group: P 2/M
;
_chemical_formula_sum "Si O2"
_cell_formula_units_Z 32
_cell_length_a 25.222630
_cell_length_b 9.363364
_cell_length_c 10.324228
_cell_angle_alpha 90.000000
_cell_angle_beta 141.700360
_cell_angle_gamma 90.000000
_cell_volume 1511.169873
_symmetry_space_group_name_H-M "P 2/M"
_symmetry_group_IT_number 10
_symmetry_cell_setting 'monoclinic'
loop_
_space_group_symop_operation_xyz
x,y,z
-x,y,-z
-x,-y,-z
x,-y,z
loop_
_atom_site_type_symbol
_atom_site_label
_atom_site_fract_x
_atom_site_fract_y
_atom_site_fract_z
Si Si1 0.927553 0.336089 0.459926
Si Si2 0.686611 0.341692 0.406666
Si Si3 0.451687 0.344607 0.654492
Si Si4 0.596125 0.835750 0.650645
Si Si5 0.427538 0.839780 0.971373
Si Si6 0.192776 0.166133 0.174060
Si Si7 0.028448 0.337660 0.907795
Si Si8 0.774531 0.161303 0.063258
O O1 0.913148 0.500000 0.395755
O O2 0.836482 0.260724 0.264417
O O3 0.000000 0.273645 0.500000
O O4 0.951627 0.316379 0.657090
O O5 0.721321 0.500000 0.430375
O O6 0.596588 0.367439 0.303889
O O7 0.661014 0.239037 0.238172
O O8 0.755087 0.263146 0.626511
O O9 0.479450 0.500000 0.652596
O O10 0.383083 0.264245 0.432010
O O11 0.535410 0.245620 0.833998
O O12 0.500000 0.785030 0.500000
O O13 0.595767 0.000000 0.604826
O O14 0.672983 0.811970 0.902611
O O15 0.403853 0.000000 0.971059
O O16 0.500000 0.847477 0.000000
O O17 0.200976 0.000000 0.229281
O O18 0.095915 0.218045 0.999190
O O19 0.220873 0.190699 0.081000
O O20 0.064335 0.500000 0.962839
O O21 0.000000 0.309286 0.000000
O O22 0.801543 0.000000 0.147583
#
# Coordination Sequence:
#
# PCOD8060147 Si02
#       8
#     4   4   4   4   4   4   4   4
#     4  10  20  36  62  93 121 154 201 249 299 363
#     4  10  19  31  50  78 110 143 185 237 291 349
#     4  10  19  31  50  75 105 141 185 240 297 352
#     4  10  21  38  57  78 111 155 199 245 304 366
#     4   9  17  29  47  71 102 139 180 229 283 340
#     4  11  21  34  57  87 118 152 197 248 302 361
#     4  10  22  41  62  87 124 164 198 238 302 373
#     4  10  21  36  58  89 119 151 198 254 306 359
#
# _framework density 21.175647000000001
#
# number of rings (size 3 to 8) (size 9 to 14) (size 15 to 20)
#    0.000    2.000    2.500    1.500    0.000    4.750 
#    0.000    1.250    0.000    3.000    0.000    0.000 
#    0.000    0.000    0.000    0.000    0.000    0.000 
#
# Total GULP energy -396538.377936 kJ/mol
# GULP energy per Si atom -12391.824310 kJ/mol
# Density = 2.112745 g / cm^3
# Si number density = 21.175647 Si / 1000 Ang^3
#
#
#
# Elastic Constant Matrix: (Units=GPa)
#
#
# Indices 1 2 3 4 5 6 
#
# 1 36.9831 11.9310 22.9073 0.0000 7.1043 0.0000
# 2 11.9310 134.7862 76.3498 0.0000 2.5162 0.0000
# 3 22.9073 76.3498 155.6034 0.0000 2.3683 0.0000
# 4 0.0000 0.0000 0.0000 39.9445 0.0000 -0.5327
# 5 7.1043 2.5162 2.3683 0.0000 28.5664 0.0000
# 6 0.0000 0.0000 0.0000 -0.5327 0.0000 13.5300
#
#
#
# Elastic Compliance Matrix: (Units=1/GPa)
#
#
# Indices 1 2 3 4 5 6 
#
# 1 0.031240 -0.000119 -0.004428 0.000000 -0.007392 0.000000
# 2 -0.000119 0.010282 -0.005021 0.000000 -0.000460 0.000000
# 3 -0.004428 -0.005021 0.009531 0.000000 0.000753 0.000000
# 4 0.000000 0.000000 0.000000 0.025048 0.000000 0.000986
# 5 -0.007392 -0.000460 0.000753 0.000000 0.036822 0.000000
# 6 0.000000 0.000000 0.000000 0.000986 0.000000 0.073949
#
#
# Mechanical properties :
#
#
# Convention : Reuss Voigt Hill
#
# Bulk Modulus (GPa) = 31.33074 61.08319 46.20697
# Shear Modulus (GPa) = 23.07898 30.82049 26.94974
#
# Velocity S-wave (km/s) = 3.30492 3.81920 3.57133
# Velocity P-wave (km/s) = 5.42136 6.95392 6.23490
#
# Compressibility (1/GPa) = 0.03191753
#
# Stress axis : x y z
#
# Youngs Moduli (GPa) = 32.00974 97.25516 104.92619
#
# Poissons Ratio (x) = 0.01157 0.46464
# Poissons Ratio (y) = 0.00381 0.52680
# Poissons Ratio (z) = 0.14175 0.48828
#
# Static dielectric constant tensor:
#      x y z
#    x 3.539050 0.000000 0.025600 
#    y 0.000000 4.036870 0.000000 
#    z 0.025600 0.000000 3.892460 
# 
# 
# High freq. dielectric constant tensor:
#      x y z
#    x 1.787910 0.000000 -0.004100 
#    y 0.000000 1.837700 0.000000 
#    z -0.004100 0.000000 1.838940 
# 
# From -- ./inp_files/58306.got.cif
#   From: 2010.06.25/outbox.cif.g09.slc.cpg/sg10_30_cif.got.tgz:58306.got - 2010.06.27 22:07:45.
