data_PCOD8060863
_publ_section_title
;
Structure prediction by ZEFSAII (Michael W. Deem and Ramdas Pophale) SiO2 
 PCOD8060863
Probable space group: P 2/M
;
_chemical_formula_sum "Si O2"
_cell_formula_units_Z 32
_cell_length_a 29.778693
_cell_length_b 9.228993
_cell_length_c 12.539908
_cell_angle_alpha 90.000000
_cell_angle_beta 151.533530
_cell_angle_gamma 90.000000
_cell_volume 1642.664163
_symmetry_space_group_name_H-M "P 2/M"
_symmetry_group_IT_number 10
_symmetry_cell_setting 'monoclinic'
loop_
_space_group_symop_operation_xyz
x,y,z
-x,y,-z
-x,-y,-z
x,-y,z
loop_
_atom_site_type_symbol
_atom_site_label
_atom_site_fract_x
_atom_site_fract_y
_atom_site_fract_z
Si Si1 0.622196 0.830111 0.010273
Si Si2 0.742340 0.670791 0.860614
Si Si3 0.103868 0.168718 0.679716
Si Si4 0.248290 0.331405 0.362039
Si Si5 0.895323 0.671481 0.757586
Si Si6 0.546791 0.167548 0.483248
Si Si7 0.389840 0.838214 0.781711
Si Si8 0.828902 0.166998 0.409939
O O1 0.634216 0.765353 0.154283
O O2 0.719679 0.798458 0.151732
O O3 0.602545 0.000000 0.979013
O O4 0.531169 0.765169 0.760445
O O5 0.734879 0.500000 0.865207
O O6 0.776620 0.705906 0.811881
O O7 0.641023 0.739543 0.672364
O O8 0.820059 0.736344 0.100293
O O9 0.109744 0.202932 0.566114
O O10 0.000000 0.214038 0.500000
O O11 0.124779 0.000000 0.746251
O O12 0.264557 0.500000 0.411361
O O13 0.167595 0.274481 0.273990
O O14 0.346177 0.254573 0.595345
O O15 0.891311 0.500000 0.737222
O O16 0.861940 0.736877 0.576843
O O17 0.000000 0.726774 0.000000
O O18 0.500000 0.181847 0.500000
O O19 0.571546 0.000000 0.510034
O O20 0.347506 0.000000 0.686088
O O21 0.500000 0.841334 0.000000
O O22 0.839543 0.000000 0.466240
#
# Coordination Sequence:
#
# PCOD8060863 Si02
#       8
#     4   4   4   4   4   4   4   4
#     4   9  17  31  53  82 112 144 184 232 285 339
#     4  11  24  40  59  87 123 159 197 244 294 351
#     4  10  23  42  63  88 117 152 196 248 301 353
#     4  10  22  39  56  82 120 158 195 237 286 344
#     4  10  22  39  60  85 116 157 199 238 289 352
#     4  10  20  37  62  87 115 157 200 242 296 349
#     4  10  19  32  53  81 112 148 191 235 281 338
#     4  10  20  38  62  88 117 146 189 245 295 347
#
# _framework density 19.480549
#
# number of rings (size 3 to 8) (size 9 to 14) (size 15 to 20)
#    0.000    2.000    1.250    1.875    1.750    5.500 
#    0.000    1.250    0.000    0.000    0.000    0.000 
#    0.000    0.000    0.000    0.000    0.000    0.000 
#
# Total GULP energy -396796.683559 kJ/mol
# GULP energy per Si atom -12399.896361 kJ/mol
# Density = 1.943621 g / cm^3
# Si number density = 19.480549 Si / 1000 Ang^3
#
#
#
# Elastic Constant Matrix: (Units=GPa)
#
#
# Indices 1 2 3 4 5 6 
#
# 1 117.1811 38.8410 45.2807 0.0000 7.7738 0.0000
# 2 38.8410 50.4799 46.2853 0.0000 0.4014 0.0000
# 3 45.2807 46.2853 123.0885 0.0000 5.5145 0.0000
# 4 0.0000 0.0000 0.0000 35.9840 0.0000 11.9452
# 5 7.7738 0.4014 5.5145 0.0000 30.7742 0.0000
# 6 0.0000 0.0000 0.0000 11.9452 0.0000 56.1346
#
#
#
# Elastic Compliance Matrix: (Units=1/GPa)
#
#
# Indices 1 2 3 4 5 6 
#
# 1 0.011821 -0.007931 -0.001247 0.000000 -0.002659 0.000000
# 2 -0.007931 0.035639 -0.010638 0.000000 0.003445 0.000000
# 3 -0.001247 -0.010638 0.012665 0.000000 -0.001816 0.000000
# 4 0.000000 0.000000 0.000000 0.029902 0.000000 -0.006363
# 5 -0.002659 0.003445 -0.001816 0.000000 0.033447 0.000000
# 6 0.000000 0.000000 0.000000 -0.006363 0.000000 0.019168
#
#
# Mechanical properties :
#
#
# Convention : Reuss Voigt Hill
#
# Bulk Modulus (GPa) = 48.79907 61.28483 55.04195
# Shear Modulus (GPa) = 26.44030 35.26807 30.85419
#
# Velocity S-wave (km/s) = 3.68811 4.25952 3.98407
# Velocity P-wave (km/s) = 6.57577 7.46453 7.03420
#
# Compressibility (1/GPa) = 0.02049219
#
# Stress axis : x y z
#
# Youngs Moduli (GPa) = 84.59618 28.05920 78.95940
#
# Poissons Ratio (x) = 0.22253 0.09848
# Poissons Ratio (y) = 0.67090 0.83999
# Poissons Ratio (z) = 0.10551 0.29850
#
# Static dielectric constant tensor:
#      x y z
#    x 4.173530 0.000000 0.015470 
#    y 0.000000 3.367370 0.000000 
#    z 0.015470 0.000000 3.594190 
# 
# 
# High freq. dielectric constant tensor:
#      x y z
#    x 1.775650 0.000000 0.000230 
#    y 0.000000 1.734090 0.000000 
#    z 0.000230 0.000000 1.764460 
# 
# From -- ./inp_files/58323.got.cif
#   From: 2010.06.25/outbox.cif.g09.slc.cpg/sg10_30_cif.got.tgz:58323.got - 2010.06.27 22:07:45.
