data_PCOD8060471
_publ_section_title
;
Structure prediction by ZEFSAII (Michael W. Deem and Ramdas Pophale) SiO2 
 PCOD8060471
Probable space group: P 2/M
;
_chemical_formula_sum "Si O2"
_cell_formula_units_Z 28
_cell_length_a 15.007036
_cell_length_b 8.880874
_cell_length_c 19.118444
_cell_angle_alpha 90.000000
_cell_angle_beta 141.821025
_cell_angle_gamma 90.000000
_cell_volume 1574.983315
_symmetry_space_group_name_H-M "P 2/M"
_symmetry_group_IT_number 10
_symmetry_cell_setting 'monoclinic'
loop_
_space_group_symop_operation_xyz
x,y,z
-x,y,-z
-x,-y,-z
x,-y,z
loop_
_atom_site_type_symbol
_atom_site_label
_atom_site_fract_x
_atom_site_fract_y
_atom_site_fract_z
Si Si1 0.546434 0.664228 0.241520
Si Si2 0.674391 0.175903 0.711097
Si Si3 0.621772 0.319731 0.433969
Si Si4 0.438898 0.680303 0.035062
Si Si5 0.874269 0.322065 0.111432
Si Si6 0.224356 0.664653 0.096615
Si Si7 0.836290 0.823208 0.669775
O O1 0.617308 0.500000 0.274739
O O2 0.628742 0.744017 0.357446
O O3 0.539516 0.746465 0.161173
O O4 0.382584 0.645584 0.163977
O O5 0.522795 0.262136 0.617608
O O6 0.778038 0.220538 0.839937
O O7 0.754990 0.223004 0.690354
O O8 0.641640 0.000000 0.694247
O O9 0.617232 0.500000 0.431071
O O10 0.761956 0.259843 0.559113
O O11 0.447901 0.500000 0.043708
O O12 0.500000 0.744838 0.000000
O O13 0.273564 0.730823 0.942398
O O14 0.898006 0.500000 0.135010
O O15 0.999891 0.231292 0.226907
O O16 0.874488 0.278070 0.028868
O O17 0.171113 0.500000 0.089962
O O18 0.830628 0.000000 0.653200
#
# Coordination Sequence:
#
# PCOD8060471 Si02
#       7
#     4   4   4   4   4   4   4
#     4   7  12  24  43  69  95 116 143 183 228 271
#     4  10  20  32  46  66  92 122 160 203 240 273
#     4  10  19  32  50  68  90 123 163 201 232 269
#     4   8  13  25  50  80 102 116 137 181 237 283
#     4   9  18  32  49  71  97 124 156 191 231 280
#     4   8  15  29  47  66  91 122 156 194 231 272
#     4  11  23  34  44  63  94 129 162 198 237 276
#
# _framework density 17.777965999999999
#
# number of rings (size 3 to 8) (size 9 to 14) (size 15 to 20)
#    0.000    3.000    0.000    4.286    0.000    5.143 
#    0.000    2.857    0.000    1.286    0.000    6.000 
#    0.000    0.000    0.000    0.000    0.000    0.000 
#
# Total GULP energy -346911.305149 kJ/mol
# GULP energy per Si atom -12389.689470 kJ/mol
# Density = 1.773750 g / cm^3
# Si number density = 17.777966 Si / 1000 Ang^3
#
#
#
# Elastic Constant Matrix: (Units=GPa)
#
#
# Indices 1 2 3 4 5 6 
#
# 1 69.8785 24.8707 68.3586 0.0000 -21.6662 0.0000
# 2 24.8707 44.1816 35.4021 0.0000 -5.9058 0.0000
# 3 68.3586 35.4021 148.2677 0.0000 -17.6352 0.0000
# 4 0.0000 0.0000 0.0000 7.8265 0.0000 14.2391
# 5 -21.6662 -5.9058 -17.6352 0.0000 26.1586 0.0000
# 6 0.0000 0.0000 0.0000 14.2391 0.0000 -5.9198
#
#
#
# Elastic Compliance Matrix: (Units=1/GPa)
#
#
# Indices 1 2 3 4 5 6 
#
# 1 0.034332 -0.007323 -0.011844 0.000000 0.018797 0.000000
# 2 -0.007323 0.029644 -0.003944 0.000000 -0.002031 0.000000
# 3 -0.011844 -0.003944 0.012909 0.000000 -0.001998 0.000000
# 4 0.000000 0.000000 0.000000 0.023766 0.000000 0.057166
# 5 0.018797 -0.002031 -0.001998 0.000000 0.051992 0.000000
# 6 0.000000 0.000000 0.000000 0.057166 0.000000 -0.031421
#
#
# Mechanical properties :
#
#
# Convention : Reuss Voigt Hill
#
# Bulk Modulus (GPa) = 32.61130 57.73228 45.17179
# Shear Modulus (GPa) = 28.14273 14.52617 21.33445
#
# Velocity S-wave (km/s) = 3.98302 2.86158 3.46793
# Velocity P-wave (km/s) = 6.28778 6.59263 6.44200
#
# Compressibility (1/GPa) = 0.03066422
#
# Stress axis : x y z
#
# Youngs Moduli (GPa) = 29.12756 33.73309 77.46264
#
# Poissons Ratio (x) = 0.24701 0.91750
# Poissons Ratio (y) = 0.21329 0.30549
# Poissons Ratio (z) = 0.34500 0.13304
#
# Static dielectric constant tensor:
#      x y z
#    x 3.213750 0.000000 -0.402790 
#    y 0.000000 3.024110 0.000000 
#    z -0.402790 0.000000 3.663130 
# 
# 
# High freq. dielectric constant tensor:
#      x y z
#    x 1.655010 0.000000 -0.021100 
#    y 0.000000 1.657420 0.000000 
#    z -0.021100 0.000000 1.698030 
# 
# From -- ./inp_files/54953.got.cif
#   From: 2010.06.25/outbox.cif.g09.slc.cpg/sg10_28_cif.got.tgz:54953.got - 2010.06.27 22:07:45.
