data_PCOD8060178
_publ_section_title
;
Structure prediction by ZEFSAII (Michael W. Deem and Ramdas Pophale) SiO2 
 PCOD8060178
Probable space group: P 2/M
;
_chemical_formula_sum "Si O2"
_cell_formula_units_Z 22
_cell_length_a 12.893902
_cell_length_b 17.892320
_cell_length_c 12.901394
_cell_angle_alpha 90.000000
_cell_angle_beta 23.217192
_cell_angle_gamma 90.000000
_cell_volume 1173.339695
_symmetry_space_group_name_H-M "P 2/M"
_symmetry_group_IT_number 10
_symmetry_cell_setting 'monoclinic'
loop_
_space_group_symop_operation_xyz
x,y,z
-x,y,-z
-x,-y,-z
x,-y,z
loop_
_atom_site_type_symbol
_atom_site_label
_atom_site_fract_x
_atom_site_fract_y
_atom_site_fract_z
Si Si1 0.427748 0.587380 0.946969
Si Si2 0.786111 0.337173 0.285557
Si Si3 0.215231 0.500000 0.715609
Si Si4 0.564095 0.085024 0.062388
Si Si5 0.061552 0.835675 0.559837
Si Si6 0.890215 0.326365 0.410805
O O1 0.425244 0.500000 0.919531
O O2 0.637160 0.628786 0.682720
O O3 0.500000 0.599408 0.000000
O O4 0.142184 0.620471 0.186552
O O5 0.500000 0.321768 0.500000
O O6 0.814540 0.420483 0.313574
O O7 0.841429 0.291296 0.339426
O O8 0.000000 0.321681 0.000000
O O9 0.500000 0.500000 0.500000
O O10 0.000000 0.500000 0.000000
O O11 0.340734 0.127750 0.333881
O O12 0.585551 0.000000 0.081411
O O13 0.500000 0.088663 0.000000
O O14 0.834986 0.128246 0.839526
O O15 0.064789 0.746273 0.561082
O O16 0.000000 0.859963 0.500000
#
# Coordination Sequence:
#
# PCOD8060178 Si02
#       6
#     4   4   2   4   4   4
#     4  11  24  39  54  75 105 143 188 227 261 311
#     4  10  21  37  53  76 102 130 172 230 280 330
#     4   8  16  30  48  66  87 116 155 210 270 310
#     4   9  17  30  49  74 107 141 168 201 249 307
#     4  10  19  31  50  77 107 138 173 208 251 312
#     4  12  23  37  58  77 106 143 182 225 276 323
#
# _framework density 18.749898000000002
#
# number of rings (size 3 to 8) (size 9 to 14) (size 15 to 20)
#    0.000    1.818    0.000    4.909    2.545    5.091 
#    3.273    0.000    0.000    0.000    0.000    0.000 
#    0.000   14.545    0.000    0.000    0.000    0.000 
#
# Total GULP energy -272630.600024 kJ/mol
# GULP energy per Si atom -12392.300001 kJ/mol
# Density = 1.870722 g / cm^3
# Si number density = 18.749898 Si / 1000 Ang^3
#
#
#
# Elastic Constant Matrix: (Units=GPa)
#
#
# Indices 1 2 3 4 5 6 
#
# 1 57.8413 2.1957 18.5888 0.0000 0.3021 0.0000
# 2 2.1957 92.2506 42.0008 0.0000 -4.5743 0.0000
# 3 18.5888 42.0008 142.7963 0.0000 -9.2141 0.0000
# 4 0.0000 0.0000 0.0000 18.1130 0.0000 -3.0469
# 5 0.3021 -4.5743 -9.2141 0.0000 23.9242 0.0000
# 6 0.0000 0.0000 0.0000 -3.0469 0.0000 5.0383
#
#
#
# Elastic Compliance Matrix: (Units=1/GPa)
#
#
# Indices 1 2 3 4 5 6 
#
# 1 0.018116 0.000716 -0.002640 0.000000 -0.001109 0.000000
# 2 0.000716 0.012568 -0.003728 0.000000 0.000958 0.000000
# 3 -0.002640 -0.003728 0.008613 0.000000 0.002638 0.000000
# 4 0.000000 0.000000 0.000000 0.061462 0.000000 0.037169
# 5 -0.001109 0.000958 0.002638 0.000000 0.043012 0.000000
# 6 0.000000 0.000000 0.000000 0.037169 0.000000 0.220958
#
#
# Mechanical properties :
#
#
# Convention : Reuss Voigt Hill
#
# Bulk Modulus (GPa) = 35.72408 46.49543 41.10975
# Shear Modulus (GPa) = 12.97474 24.75529 18.86502
#
# Velocity S-wave (km/s) = 2.63342 3.63752 3.17541
# Velocity P-wave (km/s) = 5.32361 6.51871 5.95124
#
# Compressibility (1/GPa) = 0.02799232
#
# Stress axis : x y z
#
# Youngs Moduli (GPa) = 55.20031 79.56837 116.09783
#
# Poissons Ratio (x) = -0.05697 0.30655
# Poissons Ratio (y) = -0.03952 0.43281
# Poissons Ratio (z) = 0.14575 0.29663
#
# Static dielectric constant tensor:
#      x y z
#    x 3.130060 0.000000 -0.106570 
#    y 0.000000 3.447660 0.000000 
#    z -0.106570 0.000000 3.802060 
# 
# 
# High freq. dielectric constant tensor:
#      x y z
#    x 1.686430 0.000000 -0.012930 
#    y 0.000000 1.713640 0.000000 
#    z -0.012930 0.000000 1.756190 
# 
# From -- ./inp_files/67698.got.cif
#   From: 2010.06.25/outbox.cif.g09.slc.cpg/sg10_34_cif.got.tgz:67698.got - 2010.06.27 22:07:45.
