data_PCOD8060488
_publ_section_title
;
Structure prediction by ZEFSAII (Michael W. Deem and Ramdas Pophale) SiO2 
 PCOD8060488
Probable space group: P 2/M
;
_chemical_formula_sum "Si O2"
_cell_formula_units_Z 32
_cell_length_a 23.270838
_cell_length_b 13.784559
_cell_length_c 19.587993
_cell_angle_alpha 90.000000
_cell_angle_beta 162.209399
_cell_angle_gamma 90.000000
_cell_volume 1919.825028
_symmetry_space_group_name_H-M "P 2/M"
_symmetry_group_IT_number 10
_symmetry_cell_setting 'monoclinic'
loop_
_space_group_symop_operation_xyz
x,y,z
-x,y,-z
-x,-y,-z
x,-y,z
loop_
_atom_site_type_symbol
_atom_site_label
_atom_site_fract_x
_atom_site_fract_y
_atom_site_fract_z
Si Si1 0.913526 0.389983 0.585425
Si Si2 0.814926 0.384945 0.992268
Si Si3 0.022708 0.895825 0.606463
Si Si4 0.132191 0.307801 0.714800
Si Si5 0.432743 0.615309 0.629515
Si Si6 0.542458 0.707363 0.194854
Si Si7 0.038026 0.614804 0.117542
Si Si8 0.393087 0.890301 0.811282
O O1 0.863694 0.500000 0.546083
O O2 0.717115 0.336241 0.350644
O O3 0.030055 0.342907 0.779839
O O4 0.043338 0.384947 0.665693
O O5 0.825209 0.500000 0.007384
O O6 0.874702 0.347709 0.984560
O O7 0.604989 0.352530 0.775377
O O8 0.826762 0.883994 0.423428
O O9 0.000000 0.898421 0.500000
O O10 0.142868 0.800345 0.761346
O O11 0.114142 0.000000 0.732425
O O12 0.000000 0.307211 0.500000
O O13 0.347981 0.337078 0.944290
O O14 0.438320 0.500000 0.653381
O O15 0.442610 0.679491 0.708892
O O16 0.243636 0.645030 0.376386
O O17 0.549635 0.823006 0.188285
O O18 0.026329 0.500000 0.099076
O O19 0.000000 0.661325 0.000000
O O20 0.456981 0.000000 0.865816
O O21 0.500000 0.853142 0.000000
#
# Coordination Sequence:
#
# PCOD8060488 Si02
#       8
#     4   4   4   4   4   4   4   4
#     4  11  22  36  51  69  96 133 176 214 252 298
#     4   9  17  31  49  68  95 132 171 205 242 293
#     4   9  17  32  51  70  93 119 150 198 261 319
#     4  11  23  36  51  70  94 125 171 220 262 302
#     4  10  19  32  50  71  97 137 176 201 241 297
#     4  12  22  33  55  73  96 132 172 209 257 308
#     4   9  17  29  47  73 103 132 165 207 247 288
#     4  10  20  34  53  76 100 125 161 212 268 319
#
# _framework density 16.668185000000001
#
# number of rings (size 3 to 8) (size 9 to 14) (size 15 to 20)
#    0.000    1.875    3.750    1.875    0.000    2.750 
#    0.000    3.125    0.000    0.000    0.000    0.000 
#    0.000    0.500    0.000    1.250    0.000    0.250 
#
# Total GULP energy -396550.734211 kJ/mol
# GULP energy per Si atom -12392.210444 kJ/mol
# Density = 1.663025 g / cm^3
# Si number density = 16.668185 Si / 1000 Ang^3
#
#
#
# Elastic Constant Matrix: (Units=GPa)
#
#
# Indices 1 2 3 4 5 6 
#
# 1 108.2799 31.2651 51.6632 0.0000 4.2767 0.0000
# 2 31.2651 43.7839 23.5426 0.0000 -4.9229 0.0000
# 3 51.6632 23.5426 97.4264 0.0000 8.9085 0.0000
# 4 0.0000 0.0000 0.0000 12.8003 0.0000 7.4923
# 5 4.2767 -4.9229 8.9085 0.0000 31.3098 0.0000
# 6 0.0000 0.0000 0.0000 7.4923 0.0000 16.6215
#
#
#
# Elastic Compliance Matrix: (Units=1/GPa)
#
#
# Indices 1 2 3 4 5 6 
#
# 1 0.014024 -0.007185 -0.005567 0.000000 -0.001461 0.000000
# 2 -0.007185 0.031114 -0.004359 0.000000 0.007114 0.000000
# 3 -0.005567 -0.004359 0.014643 0.000000 -0.004091 0.000000
# 4 0.000000 0.000000 0.000000 0.106122 0.000000 -0.047835
# 5 -0.001461 0.007114 -0.004091 0.000000 0.034421 0.000000
# 6 0.000000 0.000000 0.000000 -0.047835 0.000000 0.081725
#
#
# Mechanical properties :
#
#
# Convention : Reuss Voigt Hill
#
# Bulk Modulus (GPa) = 39.12402 51.38134 45.25268
# Shear Modulus (GPa) = 15.39459 21.68096 18.53777
#
# Velocity S-wave (km/s) = 3.04236 3.61049 3.33853
# Velocity P-wave (km/s) = 5.98870 6.94793 6.48607
#
# Compressibility (1/GPa) = 0.02555975
#
# Stress axis : x y z
#
# Youngs Moduli (GPa) = 71.30797 32.14014 68.29020
#
# Poissons Ratio (x) = 0.23093 0.38014
# Poissons Ratio (y) = 0.51236 0.29766
# Poissons Ratio (z) = 0.39694 0.14009
#
# Static dielectric constant tensor:
#      x y z
#    x 3.250180 0.000000 0.203350 
#    y 0.000000 3.155520 0.000000 
#    z 0.203350 0.000000 3.250210 
# 
# 
# High freq. dielectric constant tensor:
#      x y z
#    x 1.635180 0.000000 0.029970 
#    y 0.000000 1.602650 0.000000 
#    z 0.029970 0.000000 1.643650 
# 
# From -- ./inp_files/79726.got.cif
#   From: 2010.06.25/outbox.cif.g09.slc.cpg/sg10_40_cif.got.tgz:79726.got - 2010.06.27 22:07:45.
