data_PCOD8060739
_publ_section_title
;
Structure prediction by ZEFSAII (Michael W. Deem and Ramdas Pophale) SiO2 
 PCOD8060739
Probable space group: P 2/M
;
_chemical_formula_sum "Si O2"
_cell_formula_units_Z 32
_cell_length_a 20.563210
_cell_length_b 8.912110
_cell_length_c 11.584047
_cell_angle_alpha 90.000000
_cell_angle_beta 127.414100
_cell_angle_gamma 90.000000
_cell_volume 1686.154067
_symmetry_space_group_name_H-M "P 2/M"
_symmetry_group_IT_number 10
_symmetry_cell_setting 'monoclinic'
loop_
_space_group_symop_operation_xyz
x,y,z
-x,y,-z
-x,-y,-z
x,-y,z
loop_
_atom_site_type_symbol
_atom_site_label
_atom_site_fract_x
_atom_site_fract_y
_atom_site_fract_z
Si Si1 0.242274 0.326719 0.187307
Si Si2 0.093209 0.322229 0.597188
Si Si3 0.920506 0.326648 0.847872
Si Si4 0.684815 0.174068 0.528080
Si Si5 0.450752 0.176796 0.794628
Si Si6 0.771071 0.677447 0.083266
Si Si7 0.157042 0.823551 0.439140
Si Si8 0.390350 0.321310 0.958471
O O1 0.265154 0.500000 0.203973
O O2 0.154396 0.298255 0.147767
O O3 0.311481 0.252200 0.342817
O O4 0.239561 0.253210 0.056444
O O5 0.092730 0.500000 0.582535
O O6 0.142630 0.272531 0.765980
O O7 0.143528 0.255250 0.545847
O O8 0.000000 0.260016 0.500000
O O9 0.928148 0.500000 0.819124
O O10 0.913704 0.228059 0.725253
O O11 0.000000 0.269970 0.000000
O O12 0.597284 0.208517 0.376016
O O13 0.756108 0.232315 0.518886
O O14 0.698716 0.000000 0.564796
O O15 0.397825 0.243219 0.842621
O O16 0.463337 0.000000 0.828787
O O17 0.537566 0.260932 0.880265
O O18 0.770650 0.500000 0.071107
O O19 0.695673 0.730450 0.081004
O O20 0.153825 0.000000 0.454379
O O21 0.397785 0.500000 0.953512
#
# Coordination Sequence:
#
# PCOD8060739 Si02
#       8
#     4   4   4   4   4   4   4   4
#     4   9  18  33  53  75 101 134 173 215 257 305
#     4  10  21  35  55  77 101 136 175 215 256 305
#     4   9  18  31  53  78  98 128 173 219 257 301
#     4   9  19  35  53  75 103 136 171 212 257 303
#     4  10  19  33  54  78 106 134 170 214 255 303
#     4   9  19  35  53  76 106 137 170 212 260 307
#     4  10  20  34  51  73 105 134 166 210 259 310
#     4  10  19  32  52  79 108 136 168 209 257 308
#
# _framework density 18.978100999999999
#
# number of rings (size 3 to 8) (size 9 to 14) (size 15 to 20)
#    0.000    2.500    0.000    2.625    1.750    2.000 
#    0.000    3.125    0.000    3.750    0.000    0.000 
#    0.000    0.000    0.000    0.000    0.000    0.000 
#
# Total GULP energy -396764.390847 kJ/mol
# GULP energy per Si atom -12398.887214 kJ/mol
# Density = 1.893491 g / cm^3
# Si number density = 18.978101 Si / 1000 Ang^3
#
#
#
# Elastic Constant Matrix: (Units=GPa)
#
#
# Indices 1 2 3 4 5 6 
#
# 1 65.1437 19.9096 49.1119 0.0000 -2.8428 0.0000
# 2 19.9096 38.7673 29.0968 0.0000 -0.8851 0.0000
# 3 49.1119 29.0968 150.5834 0.0000 -1.1382 0.0000
# 4 0.0000 0.0000 0.0000 23.1867 0.0000 2.6445
# 5 -2.8428 -0.8851 -1.1382 0.0000 29.8534 0.0000
# 6 0.0000 0.0000 0.0000 2.6445 0.0000 14.5487
#
#
#
# Elastic Compliance Matrix: (Units=1/GPa)
#
#
# Indices 1 2 3 4 5 6 
#
# 1 0.021892 -0.006849 -0.005804 0.000000 0.001660 0.000000
# 2 -0.006849 0.032327 -0.004012 0.000000 0.000153 0.000000
# 3 -0.005804 -0.004012 0.009307 0.000000 -0.000317 0.000000
# 4 0.000000 0.000000 0.000000 0.044041 0.000000 -0.008005
# 5 0.001660 0.000153 -0.000317 0.000000 0.033648 0.000000
# 6 0.000000 0.000000 0.000000 -0.008005 0.000000 0.070190
#
#
# Mechanical properties :
#
#
# Convention : Reuss Voigt Hill
#
# Bulk Modulus (GPa) = 33.11659 50.08121 41.59890
# Shear Modulus (GPa) = 19.62341 23.94284 21.78313
#
# Velocity S-wave (km/s) = 3.21908 3.55576 3.39160
# Velocity P-wave (km/s) = 5.59503 6.58059 6.10772
#
# Compressibility (1/GPa) = 0.03019635
#
# Stress axis : x y z
#
# Youngs Moduli (GPa) = 45.67883 30.93425 107.45160
#
# Poissons Ratio (x) = 0.21187 0.62365
# Poissons Ratio (y) = 0.31285 0.43104
# Poissons Ratio (z) = 0.26512 0.12409
#
# Static dielectric constant tensor:
#      x y z
#    x 3.394570 0.000000 0.026330 
#    y 0.000000 3.305290 0.000000 
#    z 0.026330 0.000000 3.817080 
# 
# 
# High freq. dielectric constant tensor:
#      x y z
#    x 1.719950 0.000000 0.001960 
#    y 0.000000 1.720710 0.000000 
#    z 0.001960 0.000000 1.753590 
# 
# From -- ./inp_files/55347.got.cif
#   From: 2010.06.25/outbox.cif.g09.slc.cpg/sg10_28_cif.got.tgz:55347.got - 2010.06.27 22:07:45.
