data_PCOD8060413
_publ_section_title
;
Structure prediction by ZEFSAII (Michael W. Deem and Ramdas Pophale) SiO2 
 PCOD8060413
Probable space group: P 2/M
;
_chemical_formula_sum "Si O2"
_cell_formula_units_Z 32
_cell_length_a 12.495433
_cell_length_b 14.289768
_cell_length_c 12.273988
_cell_angle_alpha 90.000000
_cell_angle_beta 71.211510
_cell_angle_gamma 90.000000
_cell_volume 2074.822614
_symmetry_space_group_name_H-M "P 2/M"
_symmetry_group_IT_number 10
_symmetry_cell_setting 'monoclinic'
loop_
_space_group_symop_operation_xyz
x,y,z
-x,y,-z
-x,-y,-z
x,-y,z
loop_
_atom_site_type_symbol
_atom_site_label
_atom_site_fract_x
_atom_site_fract_y
_atom_site_fract_z
Si Si1 0.610137 0.889682 0.024751
Si Si2 0.233514 0.109494 0.214665
Si Si3 0.007139 0.109905 0.625518
Si Si4 0.445289 0.398312 0.352563
Si Si5 0.371752 0.203587 0.354471
Si Si6 0.675746 0.602000 0.377213
Si Si7 0.768801 0.794694 0.381625
Si Si8 0.397316 0.110981 0.726786
O O1 0.622696 0.851690 0.143278
O O2 0.594324 0.000000 0.034895
O O3 0.500000 0.846366 0.000000
O O4 0.724412 0.863692 0.920453
O O5 0.324353 0.149402 0.267902
O O6 0.107378 0.145929 0.278643
O O7 0.235201 0.000000 0.234602
O O8 0.103244 0.170700 0.651731
O O9 0.000000 0.132185 0.500000
O O10 0.030311 0.000000 0.637349
O O11 0.418608 0.500000 0.306251
O O12 0.390718 0.310842 0.307087
O O13 0.391824 0.395783 0.488924
O O14 0.580974 0.384337 0.314663
O O15 0.286697 0.194328 0.482339
O O16 0.489044 0.158292 0.356323
O O17 0.735951 0.500000 0.343125
O O18 0.766701 0.686000 0.343281
O O19 0.707032 0.858702 0.313294
O O20 0.410171 0.000000 0.717382
#
# Coordination Sequence:
#
# PCOD8060413 Si02
#       8
#     4   4   4   4   4   4   4   4
#     4   9  17  31  47  63  89 123 158 192 223 265
#     4  10  19  32  49  66  88 127 169 188 210 270
#     4  10  20  33  46  63  93 133 162 181 217 276
#     4   8  14  25  40  63  94 122 147 176 227 289
#     4  11  18  27  46  71  96 121 148 189 235 279
#     4   8  14  26  43  62  90 123 150 180 224 282
#     4  11  20  30  45  69  99 121 152 192 235 273
#     4  11  21  29  42  70  99 120 147 193 241 269
#
# _framework density 15.423005
#
# number of rings (size 3 to 8) (size 9 to 14) (size 15 to 20)
#    0.000    2.250    3.750    1.875    0.000    2.000 
#    0.000    0.625    0.000    4.125    0.000    2.625 
#    0.000    1.000    0.000    0.000    0.000    0.000 
#
# Total GULP energy -396592.146256 kJ/mol
# GULP energy per Si atom -12393.504570 kJ/mol
# Density = 1.538790 g / cm^3
# Si number density = 15.423005 Si / 1000 Ang^3
#
#
#
# Elastic Constant Matrix: (Units=GPa)
#
#
# Indices 1 2 3 4 5 6 
#
# 1 82.5536 28.1887 11.2885 0.0000 -10.2490 0.0000
# 2 28.1887 52.2133 15.9591 0.0000 -9.8005 0.0000
# 3 11.2885 15.9591 32.1367 0.0000 -6.8950 0.0000
# 4 0.0000 0.0000 0.0000 5.1557 0.0000 -1.8714
# 5 -10.2490 -9.8005 -6.8950 0.0000 19.0486 0.0000
# 6 0.0000 0.0000 0.0000 -1.8714 0.0000 19.2757
#
#
#
# Elastic Compliance Matrix: (Units=1/GPa)
#
#
# Indices 1 2 3 4 5 6 
#
# 1 0.015194 -0.007146 -0.000892 0.000000 0.004175 0.000000
# 2 -0.007146 0.027186 -0.009556 0.000000 0.006683 0.000000
# 3 -0.000892 -0.009556 0.037967 0.000000 0.008346 0.000000
# 4 0.000000 0.000000 0.000000 0.201043 0.000000 0.019519
# 5 0.004175 0.006683 0.008346 0.000000 0.061203 0.000000
# 6 0.000000 0.000000 0.000000 0.019519 0.000000 0.053774
#
#
# Mechanical properties :
#
#
# Convention : Reuss Voigt Hill
#
# Bulk Modulus (GPa) = 22.14538 30.86403 26.50471
# Shear Modulus (GPa) = 11.19549 16.12716 13.66133
#
# Velocity S-wave (km/s) = 2.69717 3.23717 2.97943
# Velocity P-wave (km/s) = 4.90810 5.83331 5.39059
#
# Compressibility (1/GPa) = 0.04515614
#
# Stress axis : x y z
#
# Youngs Moduli (GPa) = 65.81587 36.78406 26.33878
#
# Poissons Ratio (x) = 0.26287 0.02351
# Poissons Ratio (y) = 0.47035 0.25170
# Poissons Ratio (z) = 0.05874 0.35152
#
# Static dielectric constant tensor:
#      x y z
#    x 2.852870 0.000000 -0.046590 
#    y 0.000000 3.179770 0.000000 
#    z -0.046590 0.000000 2.916190 
# 
# 
# High freq. dielectric constant tensor:
#      x y z
#    x 1.575780 0.000000 -0.000110 
#    y 0.000000 1.582600 0.000000 
#    z -0.000110 0.000000 1.565910 
# 
# From -- ./inp_files/47376.got.cif
#   From: 2010.06.25/outbox.cif.g09.slc.cpg/sg10_24_cif.got.tgz:47376.got - 2010.06.27 22:07:45.
