data_PCOD8060084
_publ_section_title
;
Structure prediction by ZEFSAII (Michael W. Deem and Ramdas Pophale) SiO2 
 PCOD8060084
Probable space group: P 2/M
;
_chemical_formula_sum "Si O2"
_cell_formula_units_Z 32
_cell_length_a 14.345604
_cell_length_b 8.635240
_cell_length_c 25.610591
_cell_angle_alpha 90.000000
_cell_angle_beta 32.889657
_cell_angle_gamma 90.000000
_cell_volume 1722.784576
_symmetry_space_group_name_H-M "P 2/M"
_symmetry_group_IT_number 10
_symmetry_cell_setting 'monoclinic'
loop_
_space_group_symop_operation_xyz
x,y,z
-x,y,-z
-x,-y,-z
x,-y,z
loop_
_atom_site_type_symbol
_atom_site_label
_atom_site_fract_x
_atom_site_fract_y
_atom_site_fract_z
Si Si1 0.277969 0.821901 0.052102
Si Si2 0.882451 0.819054 0.763473
Si Si3 0.420167 0.320036 0.149456
Si Si4 0.450576 0.819634 0.598815
Si Si5 0.348374 0.321284 0.864970
Si Si6 0.245302 0.318754 0.605513
Si Si7 0.956289 0.176912 0.935396
Si Si8 0.681738 0.676800 0.237019
O O1 0.207051 0.765380 0.140836
O O2 0.126482 0.796921 0.082183
O O3 0.338415 0.000000 0.025516
O O4 0.442767 0.720126 0.960070
O O5 0.755191 0.775178 0.776094
O O6 0.058585 0.727405 0.673077
O O7 0.923468 0.000000 0.743981
O O8 0.375953 0.500000 0.167624
O O9 0.496086 0.270933 0.170200
O O10 0.618973 0.725320 0.503108
O O11 0.289501 0.769800 0.638628
O O12 0.408729 0.787513 0.678742
O O13 0.486326 0.000000 0.574112
O O14 0.300295 0.500000 0.898164
O O15 0.406492 0.294496 0.777914
O O16 0.179936 0.219390 0.955627
O O17 0.254854 0.500000 0.612027
O O18 0.117624 0.288895 0.863199
O O19 0.014998 0.000000 0.915499
O O20 0.658531 0.500000 0.266002
#
# Coordination Sequence:
#
# PCOD8060084 Si02
#       8
#     4   4   4   4   4   4   4   4
#     4   9  19  33  48  70 104 141 173 209 258 312
#     4  11  21  34  53  77 106 140 176 215 261 309
#     4  10  20  34  51  73 102 138 180 222 262 305
#     4  11  22  38  58  82 111 138 166 208 261 310
#     4   9  20  36  51  70 103 143 180 221 266 310
#     4  11  22  38  59  83 109 138 171 206 251 310
#     4  10  19  31  49  75 106 139 176 218 264 315
#     4  11  21  34  53  76 103 139 180 218 261 314
#
# _framework density 18.574580999999998
#
# number of rings (size 3 to 8) (size 9 to 14) (size 15 to 20)
#    0.000    1.750    0.000    6.000    0.000    7.000 
#    0.000    0.000    0.000    0.750    0.000    5.250 
#    0.000    0.000    0.000    0.000    0.000    0.000 
#
# Total GULP energy -396959.581957 kJ/mol
# GULP energy per Si atom -12404.986936 kJ/mol
# Density = 1.853230 g / cm^3
# Si number density = 18.574581 Si / 1000 Ang^3
#
#
#
# Elastic Constant Matrix: (Units=GPa)
#
#
# Indices 1 2 3 4 5 6 
#
# 1 88.4032 22.9787 55.9656 0.0000 -1.0944 0.0000
# 2 22.9787 67.7658 20.9088 0.0000 -1.4535 0.0000
# 3 55.9656 20.9088 72.0863 0.0000 -2.2295 0.0000
# 4 0.0000 0.0000 0.0000 31.4593 0.0000 -2.3455
# 5 -1.0944 -1.4535 -2.2295 0.0000 29.0703 0.0000
# 6 0.0000 0.0000 0.0000 -2.3455 0.0000 26.5710
#
#
#
# Elastic Compliance Matrix: (Units=1/GPa)
#
#
# Indices 1 2 3 4 5 6 
#
# 1 0.022626 -0.002481 -0.016864 0.000000 -0.000566 0.000000
# 2 -0.002481 0.016485 -0.002839 0.000000 0.000513 0.000000
# 3 -0.016864 -0.002839 0.027830 0.000000 0.001358 0.000000
# 4 0.000000 0.000000 0.000000 0.031998 0.000000 0.002825
# 5 -0.000566 0.000513 0.001358 0.000000 0.034508 0.000000
# 6 0.000000 0.000000 0.000000 0.002825 0.000000 0.037884
#
#
# Mechanical properties :
#
#
# Convention : Reuss Voigt Hill
#
# Bulk Modulus (GPa) = 44.30149 47.55128 45.92639
# Shear Modulus (GPa) = 22.39907 25.98027 24.18967
#
# Velocity S-wave (km/s) = 3.47637 3.74398 3.61265
# Velocity P-wave (km/s) = 6.32582 6.65925 6.49467
#
# Compressibility (1/GPa) = 0.02257261
#
# Stress axis : x y z
#
# Youngs Moduli (GPa) = 44.19770 60.66075 35.93206
#
# Poissons Ratio (x) = 0.15050 0.60595
# Poissons Ratio (y) = 0.10966 0.10203
# Poissons Ratio (z) = 0.74534 0.17225
#
# Static dielectric constant tensor:
#      x y z
#    x 3.541540 0.000000 0.013920 
#    y 0.000000 3.455820 0.000000 
#    z 0.013920 0.000000 3.187100 
# 
# 
# High freq. dielectric constant tensor:
#      x y z
#    x 1.722040 0.000000 -0.001070 
#    y 0.000000 1.730890 0.000000 
#    z -0.001070 0.000000 1.696120 
# 
# From -- ./inp_files/66455.got.cif
#   From: 2010.06.25/outbox.cif.g09.slc.cpg/sg10_34_cif.got.tgz:66455.got - 2010.06.27 22:07:45.
