data_PCOD8060750
_publ_section_title
;
Structure prediction by ZEFSAII (Michael W. Deem and Ramdas Pophale) SiO2 
 PCOD8060750
Probable space group: P 2/M
;
_chemical_formula_sum "Si O2"
_cell_formula_units_Z 28
_cell_length_a 13.453863
_cell_length_b 22.556582
_cell_length_c 5.104743
_cell_angle_alpha 90.000000
_cell_angle_beta 78.464914
_cell_angle_gamma 90.000000
_cell_volume 1517.863401
_symmetry_space_group_name_H-M "P 2/M"
_symmetry_group_IT_number 10
_symmetry_cell_setting 'monoclinic'
loop_
_space_group_symop_operation_xyz
x,y,z
-x,y,-z
-x,-y,-z
x,-y,z
loop_
_atom_site_type_symbol
_atom_site_label
_atom_site_fract_x
_atom_site_fract_y
_atom_site_fract_z
Si Si1 0.212946 0.734182 0.359684
Si Si2 0.880300 0.065767 0.069035
Si Si3 0.879706 0.139223 0.569259
Si Si4 0.339065 0.566448 0.402078
Si Si5 0.114115 0.316723 0.910048
Si Si6 0.206172 0.565769 0.971713
Si Si7 0.436634 0.312454 0.286445
O O1 0.185425 0.801782 0.431816
O O2 0.151097 0.693521 0.595427
O O3 0.331362 0.722766 0.337994
O O4 0.184383 0.718519 0.076776
O O5 0.846368 0.095155 0.357248
O O6 0.831617 0.000000 0.070925
O O7 0.844400 0.107726 0.853460
O O8 0.000000 0.059235 0.000000
O O9 0.000000 0.153893 0.500000
O O10 0.386052 0.500000 0.348901
O O11 0.296259 0.576047 0.716204
O O12 0.423502 0.616118 0.307345
O O13 0.249285 0.575287 0.239750
O O14 0.117750 0.386828 0.969700
O O15 0.000000 0.293364 0.000000
O O16 0.159631 0.500000 0.964033
O O17 0.500000 0.289771 0.500000
O O18 0.500000 0.295186 0.000000
#
# Coordination Sequence:
#
# PCOD8060750 Si02
#       7
#     4   4   4   4   4   4   4
#     4  12  24  40  55  81 116 145 187 236 268 325
#     4   9  17  30  50  79 115 151 184 216 251 301
#     4  10  19  32  52  79 113 152 183 213 261 314
#     4  10  20  37  58  78 103 132 172 231 293 349
#     4  12  22  36  58  80 107 148 184 222 276 330
#     4  10  19  35  55  76 104 137 175 224 275 330
#     4  12  24  39  60  80 105 142 185 231 295 343
#
# _framework density 18.446982999999999
#
# number of rings (size 3 to 8) (size 9 to 14) (size 15 to 20)
#    0.000    1.286    2.857    4.286    0.000    3.714 
#    0.000    0.000    0.000    4.286    0.000    0.000 
#    0.000   11.429    0.000    0.000    0.000    0.000 
#
# Total GULP energy -347269.359823 kJ/mol
# GULP energy per Si atom -12402.477137 kJ/mol
# Density = 1.840500 g / cm^3
# Si number density = 18.446983 Si / 1000 Ang^3
#
#
#
# Elastic Constant Matrix: (Units=GPa)
#
#
# Indices 1 2 3 4 5 6 
#
# 1 89.1450 39.1140 31.9996 0.0000 -0.6845 0.0000
# 2 39.1140 104.5748 15.4559 0.0000 3.5904 0.0000
# 3 31.9996 15.4559 96.0898 0.0000 8.3107 0.0000
# 4 0.0000 0.0000 0.0000 73.0217 0.0000 -22.2282
# 5 -0.6845 3.5904 8.3107 0.0000 26.2972 0.0000
# 6 0.0000 0.0000 0.0000 -22.2282 0.0000 31.3581
#
#
#
# Elastic Compliance Matrix: (Units=1/GPa)
#
#
# Indices 1 2 3 4 5 6 
#
# 1 0.015039 -0.005058 -0.004409 0.000000 0.002475 0.000000
# 2 -0.005058 0.011516 -0.000021 0.000000 -0.001697 0.000000
# 3 -0.004409 -0.000021 0.012222 0.000000 -0.003974 0.000000
# 4 0.000000 0.000000 0.000000 0.017463 0.000000 0.012378
# 5 0.002475 -0.001697 -0.003974 0.000000 0.039579 0.000000
# 6 0.000000 0.000000 0.000000 0.012378 0.000000 0.040664
#
#
# Mechanical properties :
#
#
# Convention : Reuss Voigt Hill
#
# Bulk Modulus (GPa) = 50.50280 51.43874 50.97077
# Shear Modulus (GPa) = 30.85306 39.68474 35.26890
#
# Velocity S-wave (km/s) = 4.09409 4.64323 4.37728
# Velocity P-wave (km/s) = 7.05588 7.52936 7.29646
#
# Compressibility (1/GPa) = 0.01980088
#
# Stress axis : x y z
#
# Youngs Moduli (GPa) = 66.49550 86.83683 81.81839
#
# Poissons Ratio (x) = 0.43924 0.36070
# Poissons Ratio (y) = 0.33635 0.00172
# Poissons Ratio (z) = 0.29315 0.00183
#
# Static dielectric constant tensor:
#      x y z
#    x 3.036420 0.000000 0.153300 
#    y 0.000000 3.525640 0.000000 
#    z 0.153300 0.000000 3.638610 
# 
# 
# High freq. dielectric constant tensor:
#      x y z
#    x 1.670800 0.000000 0.017560 
#    y 0.000000 1.712000 0.000000 
#    z 0.017560 0.000000 1.738270 
# 
# From -- ./inp_files/7899.got.cif
#   From: 2010.06.25/outbox.cif.g09.slc.cpg/sg10_4_cif.got.tgz:7899.got - 2010.06.27 22:07:45.
