data_PCOD8060513
_publ_section_title
;
Structure prediction by ZEFSAII (Michael W. Deem and Ramdas Pophale) SiO2 
 PCOD8060513
Probable space group: P 2/M
;
_chemical_formula_sum "Si O2"
_cell_formula_units_Z 32
_cell_length_a 7.983800
_cell_length_b 17.629237
_cell_length_c 12.222103
_cell_angle_alpha 90.000000
_cell_angle_beta 101.802621
_cell_angle_gamma 90.000000
_cell_volume 1683.870986
_symmetry_space_group_name_H-M "P 2/M"
_symmetry_group_IT_number 10
_symmetry_cell_setting 'monoclinic'
loop_
_space_group_symop_operation_xyz
x,y,z
-x,y,-z
-x,-y,-z
x,-y,z
loop_
_atom_site_type_symbol
_atom_site_label
_atom_site_fract_x
_atom_site_fract_y
_atom_site_fract_z
Si Si1 0.030289 0.414079 0.876292
Si Si2 0.816140 0.221764 0.517151
Si Si3 0.335264 0.683144 0.917601
Si Si4 0.097964 0.271719 0.255981
Si Si5 0.280413 0.784166 0.730453
Si Si6 0.465038 0.087375 0.185895
Si Si7 0.810766 0.188870 0.944633
Si Si8 0.664438 0.915674 0.588852
O O1 0.993635 0.500000 0.834505
O O2 0.226652 0.392170 0.880924
O O3 0.916766 0.357956 0.787908
O O4 0.000000 0.401492 0.000000
O O5 0.781724 0.275553 0.618511
O O6 0.689395 0.228802 0.395962
O O7 0.818760 0.137071 0.568570
O O8 0.000000 0.244022 0.500000
O O9 0.391235 0.720946 0.809711
O O10 0.500000 0.653072 0.000000
O O11 0.230024 0.746688 0.971308
O O12 0.193677 0.223999 0.176688
O O13 0.917409 0.229416 0.260309
O O14 0.355175 0.866513 0.777756
O O15 0.337473 0.123855 0.076598
O O16 0.363675 0.089838 0.286136
O O17 0.507136 0.000000 0.159177
O O18 0.000000 0.156005 0.000000
O O19 0.500000 0.887103 0.500000
O O20 0.713889 0.000000 0.559223
#
# Coordination Sequence:
#
# PCOD8060513 Si02
#       8
#     4   4   4   4   4   4   4   4
#     4  10  19  34  58  88 115 142 179 224 273 325
#     4  10  20  32  53  79 107 139 184 229 267 327
#     4  11  20  34  58  84 111 148 176 226 275 325
#     4  10  19  36  57  81 108 144 179 227 269 324
#     4  10  20  35  53  78 109 144 186 226 270 327
#     4  11  23  36  53  78 109 145 189 235 283 328
#     4  12  20  36  59  76 105 145 187 229 270 328
#     4  10  19  32  50  73 105 138 176 234 286 316
#
# _framework density 19.003833
#
# number of rings (size 3 to 8) (size 9 to 14) (size 15 to 20)
#    0.000    1.500    7.500    0.000    0.000    0.750 
#    0.000    3.750    0.000    9.375    0.000    0.000 
#    0.000    3.500    0.000    0.000    0.000    0.000 
#
# Total GULP energy -396434.940072 kJ/mol
# GULP energy per Si atom -12388.591877 kJ/mol
# Density = 1.896058 g / cm^3
# Si number density = 19.003833 Si / 1000 Ang^3
#
#
#
# Elastic Constant Matrix: (Units=GPa)
#
#
# Indices 1 2 3 4 5 6 
#
# 1 27.3123 26.2462 12.1655 0.0000 9.6531 0.0000
# 2 26.2462 121.1784 46.9008 0.0000 4.5715 0.0000
# 3 12.1655 46.9008 94.2717 0.0000 3.5582 0.0000
# 4 0.0000 0.0000 0.0000 16.4610 0.0000 5.6978
# 5 9.6531 4.5715 3.5582 0.0000 24.3245 0.0000
# 6 0.0000 0.0000 0.0000 5.6978 0.0000 19.1757
#
#
#
# Elastic Compliance Matrix: (Units=1/GPa)
#
#
# Indices 1 2 3 4 5 6 
#
# 1 0.054067 -0.010605 -0.000972 0.000000 -0.019321 0.000000
# 2 -0.010605 0.012335 -0.004866 0.000000 0.002602 0.000000
# 3 -0.000972 -0.004866 0.013178 0.000000 -0.000628 0.000000
# 4 0.000000 0.000000 0.000000 0.067714 0.000000 -0.020120
# 5 -0.019321 0.002602 -0.000628 0.000000 0.048381 0.000000
# 6 0.000000 0.000000 0.000000 -0.020120 0.000000 0.058128
#
#
# Mechanical properties :
#
#
# Convention : Reuss Voigt Hill
#
# Bulk Modulus (GPa) = 21.41679 45.93195 33.67437
# Shear Modulus (GPa) = 16.54247 22.48889 19.51568
#
# Velocity S-wave (km/s) = 2.95359 3.44377 3.20806
# Velocity P-wave (km/s) = 4.78809 6.32733 5.61074
#
# Compressibility (1/GPa) = 0.04669234
#
# Stress axis : x y z
#
# Youngs Moduli (GPa) = 18.49574 81.07298 75.88606
#
# Poissons Ratio (x) = 0.85981 0.07373
# Poissons Ratio (y) = 0.19616 0.36927
# Poissons Ratio (z) = 0.01797 0.39451
#
# Static dielectric constant tensor:
#      x y z
#    x 3.359820 0.000000 0.154170 
#    y 0.000000 3.297560 0.000000 
#    z 0.154170 0.000000 4.101460 
# 
# 
# High freq. dielectric constant tensor:
#      x y z
#    x 1.721800 0.000000 0.004670 
#    y 0.000000 1.705030 0.000000 
#    z 0.004670 0.000000 1.757150 
# 
# From -- ./inp_files/36459.got.cif
#   From: 2010.06.25/outbox.cif.g09.slc.cpg/sg10_19_cif.got.tgz:36459.got - 2010.06.27 22:07:45.
