data_PCOD8060360
_publ_section_title
;
Structure prediction by ZEFSAII (Michael W. Deem and Ramdas Pophale) SiO2 
 PCOD8060360
Probable space group: P 2/M
;
_chemical_formula_sum "Si O2"
_cell_formula_units_Z 28
_cell_length_a 10.276424
_cell_length_b 8.972281
_cell_length_c 31.024032
_cell_angle_alpha 90.000000
_cell_angle_beta 32.294453
_cell_angle_gamma 90.000000
_cell_volume 1528.284920
_symmetry_space_group_name_H-M "P 2/M"
_symmetry_group_IT_number 10
_symmetry_cell_setting 'monoclinic'
loop_
_space_group_symop_operation_xyz
x,y,z
-x,y,-z
-x,-y,-z
x,-y,z
loop_
_atom_site_type_symbol
_atom_site_label
_atom_site_fract_x
_atom_site_fract_y
_atom_site_fract_z
Si Si1 0.380456 0.325913 0.740863
Si Si2 0.330978 0.676577 0.657383
Si Si3 0.652778 0.824935 0.498841
Si Si4 0.455388 0.825991 0.074049
Si Si5 0.800961 0.825980 0.675882
Si Si6 0.150899 0.324147 0.085332
Si Si7 0.151089 0.827621 0.240763
O O1 0.427627 0.500000 0.726185
O O2 0.355663 0.263958 0.699276
O O3 0.607747 0.253381 0.700165
O O4 0.135346 0.288060 0.836085
O O5 0.332604 0.500000 0.655128
O O6 0.558478 0.739215 0.567108
O O7 0.079167 0.731582 0.708089
O O8 0.500000 0.774103 0.500000
O O9 0.930924 0.777502 0.414054
O O10 0.622371 0.000000 0.515138
O O11 0.260491 0.746175 0.097987
O O12 0.376433 0.800235 0.145433
O O13 0.466891 0.000000 0.059197
O O14 0.720267 0.751179 0.992293
O O15 0.760233 0.777946 0.736865
O O16 0.762645 0.000000 0.680864
O O17 0.201444 0.500000 0.071726
O O18 0.067751 0.000000 0.264427
#
# Coordination Sequence:
#
# PCOD8060360 Si02
#       7
#     4   4   4   4   4   4   4
#     4  10  23  40  55  80 117 153 186 228 278 333
#     4  11  22  36  58  85 113 147 189 230 276 331
#     4  10  20  38  60  83 114 145 184 235 281 329
#     4  10  19  31  55  87 112 139 185 236 277 322
#     4  10  22  39  60  82 109 150 188 228 283 336
#     4  10  19  34  54  78 115 151 182 225 278 331
#     4  10  20  37  58  84 114 145 186 234 280 329
#
# _framework density 18.321190999999999
#
# number of rings (size 3 to 8) (size 9 to 14) (size 15 to 20)
#    0.000    1.857    2.857    2.143    0.000    4.857 
#    0.000    3.571    0.000    4.286    0.000    0.000 
#    0.000    0.000    0.000    0.000    0.000    0.000 
#
# Total GULP energy -347248.427543 kJ/mol
# GULP energy per Si atom -12401.729555 kJ/mol
# Density = 1.827949 g / cm^3
# Si number density = 18.321191 Si / 1000 Ang^3
#
#
#
# Elastic Constant Matrix: (Units=GPa)
#
#
# Indices 1 2 3 4 5 6 
#
# 1 91.5512 31.3463 54.1116 0.0000 -7.1739 0.0000
# 2 31.3463 60.5519 48.5256 0.0000 -0.6767 0.0000
# 3 54.1116 48.5256 136.7328 0.0000 4.8580 0.0000
# 4 0.0000 0.0000 0.0000 33.8764 0.0000 0.7936
# 5 -7.1739 -0.6767 4.8580 0.0000 31.6934 0.0000
# 6 0.0000 0.0000 0.0000 0.7936 0.0000 38.3426
#
#
#
# Elastic Compliance Matrix: (Units=1/GPa)
#
#
# Indices 1 2 3 4 5 6 
#
# 1 0.015510 -0.004116 -0.004825 0.000000 0.004163 0.000000
# 2 -0.004116 0.024268 -0.007007 0.000000 0.000661 0.000000
# 3 -0.004825 -0.007007 0.011819 0.000000 -0.003053 0.000000
# 4 0.000000 0.000000 0.000000 0.029533 0.000000 -0.000611
# 5 0.004163 0.000661 -0.003053 0.000000 0.032977 0.000000
# 6 0.000000 0.000000 0.000000 -0.000611 0.000000 0.026093
#
#
# Mechanical properties :
#
#
# Convention : Reuss Voigt Hill
#
# Bulk Modulus (GPa) = 50.76105 61.86701 56.31403
# Shear Modulus (GPa) = 27.98542 31.10597 29.54570
#
# Velocity S-wave (km/s) = 3.91255 4.12492 4.02014
# Velocity P-wave (km/s) = 6.94097 7.51851 7.23550
#
# Compressibility (1/GPa) = 0.01970014
#
# Stress axis : x y z
#
# Youngs Moduli (GPa) = 64.47331 41.20580 84.61299
#
# Poissons Ratio (x) = 0.16960 0.40829
# Poissons Ratio (y) = 0.26536 0.59291
# Poissons Ratio (z) = 0.31111 0.28874
#
# Static dielectric constant tensor:
#      x y z
#    x 3.226650 0.000000 0.145800 
#    y 0.000000 3.360070 0.000000 
#    z 0.145800 0.000000 3.776230 
# 
# 
# High freq. dielectric constant tensor:
#      x y z
#    x 1.690080 0.000000 0.005850 
#    y 0.000000 1.711660 0.000000 
#    z 0.005850 0.000000 1.729800 
# 
# From -- ./inp_files/37933.got.cif
#   From: 2010.06.25/outbox.cif.g09.slc.cpg/sg10_19_cif.got.tgz:37933.got - 2010.06.27 22:07:45.
