data_PCOD8060949
_publ_section_title
;
Structure prediction by ZEFSAII (Michael W. Deem and Ramdas Pophale) SiO2 
 PCOD8060949
Probable space group: P 2/M
;
_chemical_formula_sum "Si O2"
_cell_formula_units_Z 32
_cell_length_a 13.952084
_cell_length_b 10.948617
_cell_length_c 14.510006
_cell_angle_alpha 90.000000
_cell_angle_beta 134.810795
_cell_angle_gamma 90.000000
_cell_volume 1572.462741
_symmetry_space_group_name_H-M "P 2/M"
_symmetry_group_IT_number 10
_symmetry_cell_setting 'monoclinic'
loop_
_space_group_symop_operation_xyz
x,y,z
-x,y,-z
-x,-y,-z
x,-y,z
loop_
_atom_site_type_symbol
_atom_site_label
_atom_site_fract_x
_atom_site_fract_y
_atom_site_fract_z
Si Si1 0.563745 0.764683 0.634470
Si Si2 0.805049 0.362541 0.717429
Si Si3 0.018875 0.135439 0.645756
Si Si4 0.786398 0.209531 0.366982
Si Si5 0.497004 0.139203 0.896923
Si Si6 0.708807 0.861425 0.898627
Si Si7 0.000576 0.855002 0.847482
Si Si8 0.320982 0.365315 0.557775
O O1 0.500000 0.830493 0.500000
O O2 0.655895 0.651840 0.661264
O O3 0.656353 0.853758 0.758094
O O4 0.445105 0.723505 0.621613
O O5 0.859272 0.500000 0.781099
O O6 0.792781 0.354622 0.598514
O O7 0.893539 0.245908 0.811952
O O8 0.118054 0.228489 0.657986
O O9 0.016423 0.169038 0.750313
O O10 0.868488 0.134677 0.500864
O O11 0.080365 0.000000 0.674393
O O12 0.651043 0.140083 0.247424
O O13 0.746335 0.336698 0.388730
O O14 0.606606 0.203687 0.902673
O O15 0.541608 0.000000 0.940431
O O16 0.500000 0.204226 0.000000
O O17 0.716862 0.000000 0.934204
O O18 0.861563 0.812162 0.009365
O O19 0.961976 0.000000 0.841608
O O20 0.381336 0.500000 0.603749
#
# Coordination Sequence:
#
# PCOD8060949 Si02
#       8
#     4   4   4   4   4   4   4   4
#     4  10  21  39  60  86 114 150 201 254 299 351
#     4  10  21  40  64  87 114 154 204 248 296 360
#     4  10  20  33  54  87 120 151 190 238 292 354
#     4  11  18  32  55  84 113 148 192 240 291 354
#     4  10  19  32  54  83 115 153 193 236 287 352
#     4  10  21  36  56  86 122 157 194 243 302 360
#     4  10  21  39  60  85 124 162 196 244 305 355
#     4  10  20  37  59  85 114 149 195 250 305 353
#
# _framework density 20.350244
#
# number of rings (size 3 to 8) (size 9 to 14) (size 15 to 20)
#    0.000    1.875    2.500    2.625    0.000    4.750 
#    0.000    6.875    0.000    0.375    0.000    0.000 
#    0.000    0.000    0.000    0.000    0.000    0.000 
#
# Total GULP energy -396423.278912 kJ/mol
# GULP energy per Si atom -12388.227466 kJ/mol
# Density = 2.030393 g / cm^3
# Si number density = 20.350244 Si / 1000 Ang^3
#
#
#
# Elastic Constant Matrix: (Units=GPa)
#
#
# Indices 1 2 3 4 5 6 
#
# 1 77.4605 26.2369 35.6455 0.0000 5.7533 0.0000
# 2 26.2369 56.4050 26.1119 0.0000 11.1429 0.0000
# 3 35.6455 26.1119 115.4969 0.0000 7.2453 0.0000
# 4 0.0000 0.0000 0.0000 15.2541 0.0000 1.2307
# 5 5.7533 11.1429 7.2453 0.0000 30.3776 0.0000
# 6 0.0000 0.0000 0.0000 1.2307 0.0000 19.2479
#
#
#
# Elastic Compliance Matrix: (Units=1/GPa)
#
#
# Indices 1 2 3 4 5 6 
#
# 1 0.016690 -0.005997 -0.003792 0.000000 -0.000057 0.000000
# 2 -0.005997 0.023215 -0.002979 0.000000 -0.006669 0.000000
# 3 -0.003792 -0.002979 0.010546 0.000000 -0.000704 0.000000
# 4 0.000000 0.000000 0.000000 0.065896 0.000000 -0.004213
# 5 -0.000057 -0.006669 -0.000704 0.000000 0.035544 0.000000
# 6 0.000000 0.000000 0.000000 -0.004213 0.000000 0.052223
#
#
# Mechanical properties :
#
#
# Convention : Reuss Voigt Hill
#
# Bulk Modulus (GPa) = 40.13544 47.26122 43.69833
# Shear Modulus (GPa) = 21.01228 23.73379 22.37303
#
# Velocity S-wave (km/s) = 3.21679 3.41877 3.31932
# Velocity P-wave (km/s) = 5.79328 6.23364 6.01749
#
# Compressibility (1/GPa) = 0.02491564
#
# Stress axis : x y z
#
# Youngs Moduli (GPa) = 59.91581 43.07518 94.82070
#
# Poissons Ratio (x) = 0.25832 0.35953
# Poissons Ratio (y) = 0.35931 0.28251
# Poissons Ratio (z) = 0.22718 0.12834
#
# Static dielectric constant tensor:
#      x y z
#    x 3.851720 0.000000 0.006450 
#    y 0.000000 3.289390 0.000000 
#    z 0.006450 0.000000 3.768160 
# 
# 
# High freq. dielectric constant tensor:
#      x y z
#    x 1.805960 0.000000 -0.001250 
#    y 0.000000 1.741170 0.000000 
#    z -0.001250 0.000000 1.801140 
# 
# From -- ./inp_files/67375.got.cif
#   From: 2010.06.25/outbox.cif.g09.slc.cpg/sg10_34_cif.got.tgz:67375.got - 2010.06.27 22:07:45.
