data_PCOD8060776
_publ_section_title
;
Structure prediction by ZEFSAII (Michael W. Deem and Ramdas Pophale) SiO2 
 PCOD8060776
Probable space group: P 2/M
;
_chemical_formula_sum "Si O2"
_cell_formula_units_Z 28
_cell_length_a 21.890173
_cell_length_b 9.014767
_cell_length_c 28.387684
_cell_angle_alpha 90.000000
_cell_angle_beta 163.585792
_cell_angle_gamma 90.000000
_cell_volume 1582.975020
_symmetry_space_group_name_H-M "P 2/M"
_symmetry_group_IT_number 10
_symmetry_cell_setting 'monoclinic'
loop_
_space_group_symop_operation_xyz
x,y,z
-x,y,-z
-x,-y,-z
x,-y,z
loop_
_atom_site_type_symbol
_atom_site_label
_atom_site_fract_x
_atom_site_fract_y
_atom_site_fract_z
Si Si1 0.482667 0.675594 0.634554
Si Si2 0.709870 0.670059 0.266479
Si Si3 0.364600 0.676379 0.355846
Si Si4 0.656148 0.669131 0.074083
Si Si5 0.103252 0.171235 0.405475
Si Si6 0.895404 0.826966 0.487030
Si Si7 0.073773 0.324395 0.004074
O O1 0.457700 0.500000 0.617857
O O2 0.531413 0.726971 0.616962
O O3 0.258892 0.746120 0.484618
O O4 0.674766 0.727819 0.813468
O O5 0.777674 0.500000 0.324890
O O6 0.712606 0.758349 0.317835
O O7 0.878949 0.743174 0.355169
O O8 0.470071 0.680306 0.068568
O O9 0.500000 0.745101 0.500000
O O10 0.370664 0.500000 0.363687
O O11 0.109674 0.731306 0.169172
O O12 0.727400 0.500000 0.137766
O O13 0.861174 0.772366 0.220293
O O14 0.500000 0.727693 0.000000
O O15 0.181256 0.200118 0.516485
O O16 0.106539 0.000000 0.394784
O O17 0.928526 0.000000 0.500603
O O18 0.069952 0.500000 0.000401
O O19 0.000000 0.265583 0.000000
#
# Coordination Sequence:
#
# PCOD8060776 Si02
#       7
#     4   4   4   4   4   4   4
#     4   9  17  30  49  71  99 133 165 206 253 299
#     4  10  19  32  53  76  95 119 158 211 262 302
#     4   8  13  24  47  78 104 125 158 206 252 296
#     4  10  20  35  54  76 100 128 168 219 266 310
#     4  11  23  35  50  72 102 140 176 211 255 309
#     4  10  20  33  49  70  97 130 165 203 249 302
#     4   7  11  22  42  68  94 122 156 191 236 289
#
# _framework density 17.688213999999999
#
# number of rings (size 3 to 8) (size 9 to 14) (size 15 to 20)
#    0.000    2.714    1.429    3.857    0.000    3.143 
#    0.000    1.429    0.000    7.714    0.000    0.000 
#    0.000    0.000    0.000    0.000    0.000    0.000 
#
# Total GULP energy -346888.066253 kJ/mol
# GULP energy per Si atom -12388.859509 kJ/mol
# Density = 1.764795 g / cm^3
# Si number density = 17.688214 Si / 1000 Ang^3
#
#
#
# Elastic Constant Matrix: (Units=GPa)
#
#
# Indices 1 2 3 4 5 6 
#
# 1 78.8033 30.8193 56.1849 0.0000 0.3908 0.0000
# 2 30.8193 43.4967 23.3564 0.0000 0.1211 0.0000
# 3 56.1849 23.3564 127.1086 0.0000 -6.6259 0.0000
# 4 0.0000 0.0000 0.0000 5.2866 0.0000 -10.6466
# 5 0.3908 0.1211 -6.6259 0.0000 28.3431 0.0000
# 6 0.0000 0.0000 0.0000 -10.6466 0.0000 11.4847
#
#
#
# Elastic Compliance Matrix: (Units=1/GPa)
#
#
# Indices 1 2 3 4 5 6 
#
# 1 0.023251 -0.012081 -0.008171 0.000000 -0.002179 0.000000
# 2 -0.012081 0.031825 -0.000513 0.000000 -0.000089 0.000000
# 3 -0.008171 -0.000513 0.011722 0.000000 0.002855 0.000000
# 4 0.000000 0.000000 0.000000 -0.218197 0.000000 -0.202273
# 5 -0.002179 -0.000089 0.002855 0.000000 0.035980 0.000000
# 6 0.000000 0.000000 0.000000 -0.202273 0.000000 -0.100439
#
#
# Mechanical properties :
#
#
# Convention : Reuss Voigt Hill
#
# Bulk Modulus (GPa) = 39.57331 52.23664 45.90498
# Shear Modulus (GPa) = -30.13785 18.29276 -5.92255
#
# Velocity S-wave (km/s) = -4.13224 3.21935 -1.83182
# Velocity P-wave (km/s) = 0.58812 6.58900 4.64053
#
# Compressibility (1/GPa) = 0.02526955
#
# Stress axis : x y z
#
# Youngs Moduli (GPa) = 43.00846 31.42137 85.30791
#
# Poissons Ratio (x) = 0.37959 0.69708
# Poissons Ratio (y) = 0.51957 0.04374
# Poissons Ratio (z) = 0.35144 0.01611
#
# Static dielectric constant tensor:
#      x y z
#    x 3.163740 0.000000 -0.213620 
#    y 0.000000 3.029230 0.000000 
#    z -0.213620 0.000000 3.635990 
# 
# 
# High freq. dielectric constant tensor:
#      x y z
#    x 1.656290 0.000000 -0.013240 
#    y 0.000000 1.657960 0.000000 
#    z -0.013240 0.000000 1.695370 
# 
# From -- ./inp_files/93554.got.cif
#   From: 2010.06.25/outbox.cif.g09.slc.cpg/sg10_47_cif.got.tgz:93554.got - 2010.06.27 22:07:45.
