data_PCOD8060454
_publ_section_title
;
Structure prediction by ZEFSAII (Michael W. Deem and Ramdas Pophale) SiO2 
 PCOD8060454
Probable space group: P 2/M
;
_chemical_formula_sum "Si O2"
_cell_formula_units_Z 32
_cell_length_a 15.620440
_cell_length_b 14.568308
_cell_length_c 22.684155
_cell_angle_alpha 90.000000
_cell_angle_beta 160.525218
_cell_angle_gamma 90.000000
_cell_volume 1720.996844
_symmetry_space_group_name_H-M "P 2/M"
_symmetry_group_IT_number 10
_symmetry_cell_setting 'monoclinic'
loop_
_space_group_symop_operation_xyz
x,y,z
-x,y,-z
-x,-y,-z
x,-y,z
loop_
_atom_site_type_symbol
_atom_site_label
_atom_site_fract_x
_atom_site_fract_y
_atom_site_fract_z
Si Si1 0.386237 0.601137 0.017571
Si Si2 0.562029 0.102016 0.862072
Si Si3 0.750623 0.709775 0.959091
Si Si4 0.320996 0.863526 0.831994
Si Si5 0.159054 0.661316 0.752730
Si Si6 0.169613 0.394891 0.168548
Si Si7 0.738623 0.900866 0.448491
Si Si8 0.586496 0.294387 0.373501
O O1 0.294873 0.500000 0.977621
O O2 0.674667 0.590403 0.178146
O O3 0.385716 0.666968 0.073052
O O4 0.187839 0.641035 0.840650
O O5 0.452214 0.114772 0.855482
O O6 0.328534 0.113997 0.664038
O O7 0.686160 0.000000 0.936835
O O8 0.776086 0.180014 0.986097
O O9 0.027294 0.663103 0.127430
O O10 0.567302 0.687462 0.785660
O O11 0.293093 0.756113 0.822947
O O12 0.042647 0.909190 0.653433
O O13 0.500000 0.905022 0.000000
O O14 0.861000 0.657401 0.542843
O O15 0.218850 0.500000 0.220999
O O16 0.438710 0.342832 0.331617
O O17 0.000000 0.393708 0.000000
O O18 0.621765 0.815083 0.409618
O O19 0.624485 0.000000 0.396068
#
# Coordination Sequence:
#
# PCOD8060454 Si02
#       8
#     4   4   4   4   4   4   4   4
#     4  11  21  35  53  74 106 143 168 209 269 317
#     4  10  19  32  49  72 105 139 171 211 257 305
#     4  10  19  36  54  78 103 134 178 217 258 310
#     4  11  18  30  49  74 104 139 175 210 246 300
#     4  10  19  35  50  75 109 139 169 208 259 314
#     4   9  18  34  55  78 102 130 171 224 270 303
#     4   9  19  32  48  74 106 138 171 209 257 305
#     4   9  20  34  57  76 102 138 174 217 259 305
#
# _framework density 18.593875000000001
#
# number of rings (size 3 to 8) (size 9 to 14) (size 15 to 20)
#    0.000    2.125    2.500    1.875    0.000    4.000 
#    0.000    1.875    0.000    5.250    0.000    0.000 
#    0.000    6.000    0.000    0.000    0.000    0.000 
#
# Total GULP energy -396596.457561 kJ/mol
# GULP energy per Si atom -12393.639299 kJ/mol
# Density = 1.855155 g / cm^3
# Si number density = 18.593875 Si / 1000 Ang^3
#
#
#
# Elastic Constant Matrix: (Units=GPa)
#
#
# Indices 1 2 3 4 5 6 
#
# 1 73.4011 52.0425 47.6589 0.0000 15.9326 0.0000
# 2 52.0425 151.0215 39.2061 0.0000 7.3084 0.0000
# 3 47.6589 39.2061 64.0597 0.0000 6.2559 0.0000
# 4 0.0000 0.0000 0.0000 13.3240 0.0000 -1.7371
# 5 15.9326 7.3084 6.2559 0.0000 18.6879 0.0000
# 6 0.0000 0.0000 0.0000 -1.7371 0.0000 18.1392
#
#
#
# Elastic Compliance Matrix: (Units=1/GPa)
#
#
# Indices 1 2 3 4 5 6 
#
# 1 0.036344 -0.005955 -0.021292 0.000000 -0.021529 0.000000
# 2 -0.005955 0.008890 -0.001206 0.000000 0.002004 0.000000
# 3 -0.021292 -0.001206 0.031397 0.000000 0.008114 0.000000
# 4 0.000000 0.000000 0.000000 0.076002 0.000000 0.007278
# 5 -0.021529 0.002004 0.008114 0.000000 0.068365 0.000000
# 6 0.000000 0.000000 0.000000 0.007278 0.000000 0.055826
#
#
# Mechanical properties :
#
#
# Convention : Reuss Voigt Hill
#
# Bulk Modulus (GPa) = 50.69830 62.92191 56.81010
# Shear Modulus (GPa) = 14.69274 20.00187 17.34731
#
# Velocity S-wave (km/s) = 2.81409 3.28338 3.05775
# Velocity P-wave (km/s) = 6.15501 6.94894 6.56399
#
# Compressibility (1/GPa) = 0.01972453
#
# Stress axis : x y z
#
# Youngs Moduli (GPa) = 27.51518 112.48872 31.85026
#
# Poissons Ratio (x) = 0.66985 0.67815
# Poissons Ratio (y) = 0.16385 0.03842
# Poissons Ratio (z) = 0.58585 0.13569
#
# Static dielectric constant tensor:
#      x y z
#    x 3.254980 0.000000 -0.006330 
#    y 0.000000 3.787220 0.000000 
#    z -0.006330 0.000000 3.324260 
# 
# 
# High freq. dielectric constant tensor:
#      x y z
#    x 1.696100 0.000000 -0.008110 
#    y 0.000000 1.743410 0.000000 
#    z -0.008110 0.000000 1.698700 
# 
# From -- ./inp_files/51655.got.cif
#   From: 2010.06.25/outbox.cif.g09.slc.cpg/sg10_26_cif.got.tgz:51655.got - 2010.06.27 22:07:45.
