data_PCOD8060617
_publ_section_title
;
Structure prediction by ZEFSAII (Michael W. Deem and Ramdas Pophale) SiO2 
 PCOD8060617
Probable space group: P 2/M
;
_chemical_formula_sum "Si O2"
_cell_formula_units_Z 32
_cell_length_a 22.253823
_cell_length_b 9.096108
_cell_length_c 28.113098
_cell_angle_alpha 90.000000
_cell_angle_beta 161.508229
_cell_angle_gamma 90.000000
_cell_volume 1804.924028
_symmetry_space_group_name_H-M "P 2/M"
_symmetry_group_IT_number 10
_symmetry_cell_setting 'monoclinic'
loop_
_space_group_symop_operation_xyz
x,y,z
-x,y,-z
-x,-y,-z
x,-y,z
loop_
_atom_site_type_symbol
_atom_site_label
_atom_site_fract_x
_atom_site_fract_y
_atom_site_fract_z
Si Si1 0.806643 0.673641 0.879164
Si Si2 0.173540 0.673829 0.997771
Si Si3 0.765816 0.828176 0.212077
Si Si4 0.107049 0.169801 0.533967
Si Si5 0.794293 0.171639 0.701470
Si Si6 0.425889 0.828472 0.370328
Si Si7 0.500130 0.670818 0.826773
Si Si8 0.569153 0.327050 0.985674
O O1 0.789692 0.500000 0.863285
O O2 0.627574 0.741892 0.717468
O O3 0.800739 0.729071 0.928944
O O4 0.000000 0.730165 0.000000
O O5 0.152744 0.500000 0.979432
O O6 0.984933 0.741192 0.833215
O O7 0.352983 0.729463 0.102284
O O8 0.623226 0.750174 0.141603
O O9 0.978010 0.806834 0.390491
O O10 0.713839 0.000000 0.169060
O O11 0.745855 0.748904 0.145767
O O12 0.302327 0.249763 0.670793
O O13 0.000000 0.235126 0.500000
O O14 0.152473 0.000000 0.577616
O O15 0.708693 0.224150 0.687596
O O16 0.643594 0.206736 0.546734
O O17 0.839563 0.000000 0.737250
O O18 0.397742 0.000000 0.340081
O O19 0.459083 0.500000 0.789176
O O20 0.592195 0.702971 0.947195
O O21 0.561629 0.500000 0.991762
#
# Coordination Sequence:
#
# PCOD8060617 Si02
#       8
#     4   4   4   4   4   4   4   4
#     4  10  19  32  52  79 106 137 176 220 265 312
#     4  10  21  37  53  75 108 141 178 218 261 317
#     4  10  19  32  53  79 105 132 165 212 265 302
#     4  10  20  35  55  80 107 136 174 218 260 310
#     4   9  18  33  52  77 104 135 172 215 262 312
#     4   9  18  32  52  78 107 132 169 219 264 310
#     4  10  22  37  54  76 106 144 178 215 263 314
#     4  10  19  32  51  77 104 133 172 212 254 308
#
# _framework density 17.729278000000001
#
# number of rings (size 3 to 8) (size 9 to 14) (size 15 to 20)
#    0.000    2.250    2.500    2.250    0.000    3.500 
#    0.000    2.500    0.000    7.500    0.000    0.000 
#    0.000    0.000    0.000    0.000    0.000    0.000 
#
# Total GULP energy -396814.677844 kJ/mol
# GULP energy per Si atom -12400.458683 kJ/mol
# Density = 1.768893 g / cm^3
# Si number density = 17.729278 Si / 1000 Ang^3
#
#
#
# Elastic Constant Matrix: (Units=GPa)
#
#
# Indices 1 2 3 4 5 6 
#
# 1 118.0677 42.5105 72.3598 0.0000 0.7299 0.0000
# 2 42.5105 61.7553 52.3379 0.0000 -2.0012 0.0000
# 3 72.3598 52.3379 139.2854 0.0000 -1.0633 0.0000
# 4 0.0000 0.0000 0.0000 -4.7410 0.0000 10.7577
# 5 0.7299 -2.0012 -1.0633 0.0000 29.1450 0.0000
# 6 0.0000 0.0000 0.0000 10.7577 0.0000 13.3681
#
#
#
# Elastic Compliance Matrix: (Units=1/GPa)
#
#
# Indices 1 2 3 4 5 6 
#
# 1 0.013373 -0.004900 -0.005112 0.000000 -0.000858 0.000000
# 2 -0.004900 0.025605 -0.007063 0.000000 0.001623 0.000000
# 3 -0.005112 -0.007063 0.012490 0.000000 0.000099 0.000000
# 4 0.000000 0.000000 0.000000 -0.074638 0.000000 0.060063
# 5 -0.000858 0.001623 0.000099 0.000000 0.034448 0.000000
# 6 0.000000 0.000000 0.000000 0.060063 0.000000 0.026470
#
#
# Mechanical properties :
#
#
# Convention : Reuss Voigt Hill
#
# Bulk Modulus (GPa) = 57.75016 72.61386 65.18201
# Shear Modulus (GPa) = 64.37370 17.68111 41.02740
#
# Velocity S-wave (km/s) = 6.03225 3.16140 4.81573
# Velocity P-wave (km/s) = 9.00897 7.37373 8.23205
#
# Compressibility (1/GPa) = 0.01731597
#
# Stress axis : x y z
#
# Youngs Moduli (GPa) = 74.77983 39.05521 80.06284
#
# Poissons Ratio (x) = 0.19138 0.40931
# Poissons Ratio (y) = 0.36645 0.56549
# Poissons Ratio (z) = 0.38230 0.27585
#
# Static dielectric constant tensor:
#      x y z
#    x 3.286860 0.000000 -0.171280 
#    y 0.000000 3.201570 0.000000 
#    z -0.171280 0.000000 3.286310 
# 
# 
# High freq. dielectric constant tensor:
#      x y z
#    x 1.668050 0.000000 -0.018120 
#    y 0.000000 1.683890 0.000000 
#    z -0.018120 0.000000 1.688910 
# 
# From -- ./inp_files/93771.got.cif
#   From: 2010.06.25/outbox.cif.g09.slc.cpg/sg10_47_cif.got.tgz:93771.got - 2010.06.27 22:07:45.
