data_PCOD8060001
_publ_section_title
;
Structure prediction by ZEFSAII (Michael W. Deem and Ramdas Pophale) SiO2 
 PCOD8060001
Probable space group: P 2/M
;
_chemical_formula_sum "Si O2"
_cell_formula_units_Z 28
_cell_length_a 14.422096
_cell_length_b 12.135482
_cell_length_c 9.844887
_cell_angle_alpha 90.000000
_cell_angle_beta 109.274449
_cell_angle_gamma 90.000000
_cell_volume 1626.463546
_symmetry_space_group_name_H-M "P 2/M"
_symmetry_group_IT_number 10
_symmetry_cell_setting 'monoclinic'
loop_
_space_group_symop_operation_xyz
x,y,z
-x,y,-z
-x,-y,-z
x,-y,z
loop_
_atom_site_type_symbol
_atom_site_label
_atom_site_fract_x
_atom_site_fract_y
_atom_site_fract_z
Si Si1 0.231991 0.870846 0.585200
Si Si2 0.229039 0.127743 0.140828
Si Si3 0.618087 0.500000 0.900860
Si Si4 0.615978 0.303419 0.708986
Si Si5 0.610569 0.697267 0.397435
Si Si6 0.077271 0.127382 0.298053
Si Si7 0.615390 0.500000 0.210255
Si Si8 0.139238 0.129126 0.823770
O O1 0.332763 0.811088 0.597562
O O2 0.143852 0.821973 0.450321
O O3 0.204638 0.844950 0.725794
O O4 0.248613 0.000000 0.564911
O O5 0.321614 0.192600 0.244465
O O6 0.131627 0.145537 0.182531
O O7 0.260474 0.000000 0.153042
O O8 0.200168 0.176331 0.980039
O O9 0.655785 0.393894 0.835191
O O10 0.501376 0.500000 0.847219
O O11 0.657858 0.500000 0.076112
O O12 0.503001 0.275506 0.685985
O O13 0.625935 0.347016 0.558823
O O14 0.651751 0.607156 0.310761
O O15 0.969445 0.183817 0.241150
O O16 0.062486 0.000000 0.326740
O O17 0.124197 0.000000 0.841486
#
# Coordination Sequence:
#
# PCOD8060001 Si02
#       8
#     4   4   2   4   4   4   2   4
#     4  10  19  31  48  76 107 135 167 200 245 302
#     4  10  19  31  48  76 107 135 167 200 245 302
#     4   9  19  35  55  75  94 123 168 216 252 286
#     4  10  20  34  52  74 102 134 167 204 244 292
#     4  10  20  34  52  74 102 134 167 204 244 292
#     4   9  16  30  49  70  99 134 171 208 243 285
#     4   9  19  35  55  75  94 123 168 216 252 286
#     4   9  18  30  47  70 101 136 169 210 249 283
#
# _framework density 17.215264000000001
#
# number of rings (size 3 to 8) (size 9 to 14) (size 15 to 20)
#    0.000    2.429    1.429    1.286    2.000    5.714 
#    0.000    1.429    0.000    2.571    0.000    6.000 
#    0.000    0.000    0.000    0.000    0.000    0.000 
#
# Total GULP energy -347120.701608 kJ/mol
# GULP energy per Si atom -12397.167915 kJ/mol
# Density = 1.717608 g / cm^3
# Si number density = 17.215264 Si / 1000 Ang^3
#
#
#
# Elastic Constant Matrix: (Units=GPa)
#
#
# Indices 1 2 3 4 5 6 
#
# 1 64.4747 34.5635 28.1376 0.0000 3.9884 0.0000
# 2 34.5635 60.1677 32.7009 0.0000 -0.4358 0.0000
# 3 28.1376 32.7009 119.4133 0.0000 -6.1470 0.0000
# 4 0.0000 0.0000 0.0000 21.3295 0.0000 -4.9127
# 5 3.9884 -0.4358 -6.1470 0.0000 23.1050 0.0000
# 6 0.0000 0.0000 0.0000 -4.9127 0.0000 7.0199
#
#
#
# Elastic Compliance Matrix: (Units=1/GPa)
#
#
# Indices 1 2 3 4 5 6 
#
# 1 0.023390 -0.012147 -0.002438 0.000000 -0.004915 0.000000
# 2 -0.012147 0.025861 -0.004143 0.000000 0.001482 0.000000
# 3 -0.002438 -0.004143 0.010241 0.000000 0.003067 0.000000
# 4 0.000000 0.000000 0.000000 0.055893 0.000000 0.039115
# 5 -0.004915 0.001482 0.003067 0.000000 0.044973 0.000000
# 6 0.000000 0.000000 0.000000 0.039115 0.000000 0.169827
#
#
# Mechanical properties :
#
#
# Convention : Reuss Voigt Hill
#
# Bulk Modulus (GPa) = 45.38190 48.31773 46.84982
# Shear Modulus (GPa) = 13.33385 20.20111 16.76748
#
# Velocity S-wave (km/s) = 2.78607 3.42927 3.12427
# Velocity P-wave (km/s) = 6.06368 6.61873 6.34728
#
# Compressibility (1/GPa) = 0.02203521
#
# Stress axis : x y z
#
# Youngs Moduli (GPa) = 42.75398 38.66887 97.64385
#
# Poissons Ratio (x) = 0.46970 0.23806
# Poissons Ratio (y) = 0.51932 0.40457
# Poissons Ratio (z) = 0.10424 0.16022
#
# Static dielectric constant tensor:
#      x y z
#    x 3.079250 0.000000 -0.046260 
#    y 0.000000 2.858250 0.000000 
#    z -0.046260 0.000000 3.532850 
# 
# 
# High freq. dielectric constant tensor:
#      x y z
#    x 1.652850 0.000000 -0.008780 
#    y 0.000000 1.620110 0.000000 
#    z -0.008780 0.000000 1.685970 
# 
# From -- ./inp_files/28383.got.cif
#   From: 2010.06.25/outbox.cif.g09.slc.cpg/sg10_15_cif.got.tgz:28383.got - 2010.06.27 22:07:45.
