data_PCOD8060571
_publ_section_title
;
Structure prediction by ZEFSAII (Michael W. Deem and Ramdas Pophale) SiO2 
 PCOD8060571
Probable space group: P 2/M
;
_chemical_formula_sum "Si O2"
_cell_formula_units_Z 28
_cell_length_a 22.955231
_cell_length_b 9.689428
_cell_length_c 19.977734
_cell_angle_alpha 90.000000
_cell_angle_beta 160.048320
_cell_angle_gamma 90.000000
_cell_volume 1516.247532
_symmetry_space_group_name_H-M "P 2/M"
_symmetry_group_IT_number 10
_symmetry_cell_setting 'monoclinic'
loop_
_space_group_symop_operation_xyz
x,y,z
-x,y,-z
-x,-y,-z
x,-y,z
loop_
_atom_site_type_symbol
_atom_site_label
_atom_site_fract_x
_atom_site_fract_y
_atom_site_fract_z
Si Si1 0.961318 0.164793 0.883943
Si Si2 0.344216 0.845596 0.649355
Si Si3 0.091272 0.341955 0.665526
Si Si4 0.396144 0.164023 0.557984
Si Si5 0.482977 0.658050 0.057232
Si Si6 0.234307 0.835981 0.072467
Si Si7 0.960912 0.154402 0.266049
O O1 0.775093 0.224114 0.661438
O O2 0.960178 0.000000 0.880522
O O3 0.000000 0.219399 0.000000
O O4 0.111262 0.224118 0.997608
O O5 0.412590 0.785975 0.652708
O O6 0.395863 0.747892 0.765638
O O7 0.141131 0.850250 0.423401
O O8 0.416189 0.000000 0.740559
O O9 0.037753 0.500000 0.620790
O O10 0.026094 0.252102 0.656318
O O11 0.000000 0.287128 0.500000
O O12 0.292047 0.324689 0.876145
O O13 0.568179 0.212580 0.704543
O O14 0.382730 0.000000 0.543406
O O15 0.545272 0.500000 0.128302
O O16 0.500000 0.712864 0.000000
O O17 0.222054 0.000000 0.061377
O O18 0.172473 0.785963 0.932357
O O19 0.908172 0.000000 0.232543
#
# Coordination Sequence:
#
# PCOD8060571 Si02
#       7
#     4   4   4   4   4   4   4
#     4   9  16  26  40  62  95 131 167 205 247 303
#     4  10  19  32  51  73  98 130 168 210 253 300
#     4  10  21  36  52  71  97 129 165 207 256 306
#     4   9  16  27  43  64  93 128 165 206 251 295
#     4  10  21  36  52  71  97 129 165 207 256 306
#     4   9  16  27  43  64  93 128 165 206 251 295
#     4  10  19  32  51  73  98 130 168 210 253 300
#
# _framework density 18.466640999999999
#
# number of rings (size 3 to 8) (size 9 to 14) (size 15 to 20)
#    0.000    2.429    1.429    1.714    0.000    4.571 
#    0.000    2.857    0.000    0.000    0.000    0.000 
#    0.000    2.286    0.000    6.000    0.000    5.714 
#
# Total GULP energy -347133.951508 kJ/mol
# GULP energy per Si atom -12397.641125 kJ/mol
# Density = 1.842461 g / cm^3
# Si number density = 18.466641 Si / 1000 Ang^3
#
#
#
# Elastic Constant Matrix: (Units=GPa)
#
#
# Indices 1 2 3 4 5 6 
#
# 1 129.6495 28.3289 64.7873 0.0000 -5.2705 0.0000
# 2 28.3289 31.4912 21.8365 0.0000 -7.1029 0.0000
# 3 64.7873 21.8365 122.4992 0.0000 -2.5375 0.0000
# 4 0.0000 0.0000 0.0000 9.2538 0.0000 8.9922
# 5 -5.2705 -7.1029 -2.5375 0.0000 33.0011 0.0000
# 6 0.0000 0.0000 0.0000 8.9922 0.0000 1.0301
#
#
#
# Elastic Compliance Matrix: (Units=1/GPa)
#
#
# Indices 1 2 3 4 5 6 
#
# 1 0.011740 -0.007148 -0.004935 0.000000 -0.000043 0.000000
# 2 -0.007148 0.042438 -0.003625 0.000000 0.007714 0.000000
# 3 -0.004935 -0.003625 0.011405 0.000000 -0.000691 0.000000
# 4 0.000000 0.000000 0.000000 -0.014442 0.000000 0.126071
# 5 -0.000043 0.007714 -0.000691 0.000000 0.031902 0.000000
# 6 0.000000 0.000000 0.000000 0.126071 0.000000 -0.129739
#
#
# Mechanical properties :
#
#
# Convention : Reuss Voigt Hill
#
# Bulk Modulus (GPa) = 29.26817 57.06059 43.16438
# Shear Modulus (GPa) = -1285.18108 19.90284 -632.63912
#
# Velocity S-wave (km/s) = -26.40943 3.28651 -18.52913
# Velocity P-wave (km/s) = 30.23344 6.73557 20.84098
#
# Compressibility (1/GPa) = 0.03416681
#
# Stress axis : x y z
#
# Youngs Moduli (GPa) = 85.18226 23.56354 87.67760
#
# Poissons Ratio (x) = 0.16843 0.43273
# Poissons Ratio (y) = 0.60888 0.31781
# Poissons Ratio (z) = 0.42042 0.08541
#
# Static dielectric constant tensor:
#      x y z
#    x 3.470800 0.000000 0.097650 
#    y 0.000000 2.879090 0.000000 
#    z 0.097650 0.000000 3.559910 
# 
# 
# High freq. dielectric constant tensor:
#      x y z
#    x 1.723360 0.000000 0.008270 
#    y 0.000000 1.650370 0.000000 
#    z 0.008270 0.000000 1.730900 
# 
# From -- ./inp_files/37956.got.cif
#   From: 2010.06.25/outbox.cif.g09.slc.cpg/sg10_19_cif.got.tgz:37956.got - 2010.06.27 22:07:45.
