data_PCOD8060639
_publ_section_title
;
Structure prediction by ZEFSAII (Michael W. Deem and Ramdas Pophale) SiO2 
 PCOD8060639
Probable space group: P 2/M
;
_chemical_formula_sum "Si O2"
_cell_formula_units_Z 24
_cell_length_a 25.199920
_cell_length_b 7.739101
_cell_length_c 17.600915
_cell_angle_alpha 90.000000
_cell_angle_beta 157.159141
_cell_angle_gamma 90.000000
_cell_volume 1332.447554
_symmetry_space_group_name_H-M "P 2/M"
_symmetry_group_IT_number 10
_symmetry_cell_setting 'monoclinic'
loop_
_space_group_symop_operation_xyz
x,y,z
-x,y,-z
-x,-y,-z
x,-y,z
loop_
_atom_site_type_symbol
_atom_site_label
_atom_site_fract_x
_atom_site_fract_y
_atom_site_fract_z
Si Si1 0.203216 0.000000 0.318366
Si Si2 0.783098 0.295328 0.235259
Si Si3 0.493793 0.196162 0.906620
Si Si4 0.739616 0.690677 0.506715
Si Si5 0.963722 0.299774 0.165296
Si Si6 0.103114 0.000000 0.026357
Si Si7 0.037057 0.296304 0.664935
O O1 0.278406 0.829681 0.449803
O O2 0.213261 0.000000 0.240043
O O3 0.047036 0.000000 0.137057
O O4 0.761728 0.500000 0.213136
O O5 0.836918 0.240801 0.222517
O O6 0.893351 0.225812 0.442272
O O7 0.641109 0.200828 0.061715
O O8 0.386939 0.306825 0.717660
O O9 0.440417 0.000000 0.838679
O O10 0.500000 0.273495 0.000000
O O11 0.745984 0.500000 0.552510
O O12 0.876118 0.726658 0.638911
O O13 0.919284 0.500000 0.094390
O O14 0.936500 0.232268 0.214787
O O15 0.875303 0.175005 0.994077
O O16 0.022971 0.500000 0.645569
#
# Coordination Sequence:
#
# PCOD8060639 Si02
#       7
#     2   4   4   4   4   2   4
#     4   9  18  34  47  71 105 124 160 202 237 296
#     4   9  17  31  49  68  94 132 170 201 241 281
#     4  11  22  33  45  68 103 134 166 206 236 275
#     4  10  19  32  52  72  97 135 165 195 242 287
#     4   9  17  30  49  75 100 126 163 199 241 294
#     4   9  18  30  50  72  99 133 152 195 253 292
#     4   8  15  30  49  69  98 128 161 208 242 278
#
# _framework density 18.011966999999999
#
# number of rings (size 3 to 8) (size 9 to 14) (size 15 to 20)
#    0.000    2.667    0.833    2.500    0.000    3.333 
#    3.000    4.167    0.000    0.000    0.000    2.333 
#    0.000    5.333    0.000    0.000    0.000    0.000 
#
# Total GULP energy -297539.814227 kJ/mol
# GULP energy per Si atom -12397.492259 kJ/mol
# Density = 1.797097 g / cm^3
# Si number density = 18.011967 Si / 1000 Ang^3
#
#
#
# Elastic Constant Matrix: (Units=GPa)
#
#
# Indices 1 2 3 4 5 6 
#
# 1 112.5261 44.7281 52.6502 0.0000 -26.3365 0.0000
# 2 44.7281 89.4876 33.1402 0.0000 -19.3020 0.0000
# 3 52.6502 33.1402 72.0912 0.0000 -19.5103 0.0000
# 4 0.0000 0.0000 0.0000 15.9270 0.0000 -0.2017
# 5 -26.3365 -19.3020 -19.5103 0.0000 34.8305 0.0000
# 6 0.0000 0.0000 0.0000 -0.2017 0.0000 15.8759
#
#
#
# Elastic Compliance Matrix: (Units=1/GPa)
#
#
# Indices 1 2 3 4 5 6 
#
# 1 0.015298 -0.003529 -0.008190 0.000000 0.005023 0.000000
# 2 -0.003529 0.014971 -0.003278 0.000000 0.003791 0.000000
# 3 -0.008190 -0.003278 0.022622 0.000000 0.004662 0.000000
# 4 0.000000 0.000000 0.000000 0.062796 0.000000 0.000798
# 5 0.005023 0.003791 0.004662 0.000000 0.037221 0.000000
# 6 0.000000 0.000000 0.000000 0.000798 0.000000 0.062999
#
#
# Mechanical properties :
#
#
# Convention : Reuss Voigt Hill
#
# Bulk Modulus (GPa) = 43.68008 59.46021 51.57014
# Shear Modulus (GPa) = 19.72124 22.89910 21.31017
#
# Velocity S-wave (km/s) = 3.31251 3.56944 3.44337
# Velocity P-wave (km/s) = 6.23968 7.07609 6.67100
#
# Compressibility (1/GPa) = 0.02289373
#
# Stress axis : x y z
#
# Youngs Moduli (GPa) = 65.36943 66.79731 44.20550
#
# Poissons Ratio (x) = 0.23576 0.36206
# Poissons Ratio (y) = 0.23072 0.14492
# Poissons Ratio (z) = 0.53540 0.21898
#
# Static dielectric constant tensor:
#      x y z
#    x 3.563170 0.000000 -0.249680 
#    y 0.000000 3.296530 0.000000 
#    z -0.249680 0.000000 3.095350 
# 
# 
# High freq. dielectric constant tensor:
#      x y z
#    x 1.684100 0.000000 -0.012430 
#    y 0.000000 1.700610 0.000000 
#    z -0.012430 0.000000 1.662390 
# 
# From -- ./inp_files/54618.got.cif
#   From: 2010.06.25/outbox.cif.g09.slc.cpg/sg10_28_cif.got.tgz:54618.got - 2010.06.27 22:07:45.
