data_PCOD8060364
_publ_section_title
;
Structure prediction by ZEFSAII (Michael W. Deem and Ramdas Pophale) SiO2 
 PCOD8060364
Probable space group: P 2/M
;
_chemical_formula_sum "Si O2"
_cell_formula_units_Z 28
_cell_length_a 9.577157
_cell_length_b 17.743595
_cell_length_c 8.298984
_cell_angle_alpha 90.000000
_cell_angle_beta 91.040934
_cell_angle_gamma 90.000000
_cell_volume 1410.040132
_symmetry_space_group_name_H-M "P 2/M"
_symmetry_group_IT_number 10
_symmetry_cell_setting 'monoclinic'
loop_
_space_group_symop_operation_xyz
x,y,z
-x,y,-z
-x,-y,-z
x,-y,z
loop_
_atom_site_type_symbol
_atom_site_label
_atom_site_fract_x
_atom_site_fract_y
_atom_site_fract_z
Si Si1 0.010792 0.189746 0.676117
Si Si2 0.525607 0.293073 0.682075
Si Si3 0.742446 0.794430 0.884277
Si Si4 0.275126 0.413173 0.208647
Si Si5 0.018145 0.638211 0.680110
Si Si6 0.733245 0.657642 0.112729
Si Si7 0.851895 0.083951 0.085043
O O1 0.860655 0.194809 0.754246
O O2 0.065331 0.274909 0.664965
O O3 0.000000 0.153834 0.500000
O O4 0.125259 0.136203 0.759936
O O5 0.500000 0.263215 0.500000
O O6 0.598458 0.227810 0.792051
O O7 0.625646 0.366150 0.669726
O O8 0.384412 0.316819 0.765694
O O9 0.789522 0.731265 0.016223
O O10 0.732560 0.875355 0.973977
O O11 0.282231 0.500000 0.257997
O O12 0.119639 0.379734 0.221938
O O13 0.324904 0.399751 0.025194
O O14 0.000000 0.602681 0.500000
O O15 0.149446 0.609045 0.787780
O O16 0.799735 0.000000 0.129235
O O17 0.000000 0.079743 0.000000
#
# Coordination Sequence:
#
# PCOD8060364 Si02
#       7
#     4   4   4   4   4   4   4
#     4  10  19  31  56  88 121 153 186 240 286 333
#     4  11  24  40  60  86 112 151 197 242 287 346
#     4  10  19  35  57  83 115 153 194 237 277 337
#     4  11  24  41  60  84 114 151 190 239 298 348
#     4  11  21  36  59  87 117 147 193 239 289 339
#     4  11  22  37  60  84 113 149 198 238 281 343
#     4   9  18  32  55  88 121 155 190 233 289 338
#
# _framework density 19.857590999999999
#
# number of rings (size 3 to 8) (size 9 to 14) (size 15 to 20)
#    0.000    1.571    4.286    3.000    2.000    3.143 
#    0.000    1.429    0.000    2.143    0.000    0.000 
#    0.000    0.000    0.000    0.000    0.000    0.000 
#
# Total GULP energy -346987.366770 kJ/mol
# GULP energy per Si atom -12392.405956 kJ/mol
# Density = 1.981239 g / cm^3
# Si number density = 19.857591 Si / 1000 Ang^3
#
#
#
# Elastic Constant Matrix: (Units=GPa)
#
#
# Indices 1 2 3 4 5 6 
#
# 1 89.2906 12.6663 35.9944 0.0000 -1.2120 0.0000
# 2 12.6663 112.0335 23.4491 0.0000 11.6956 0.0000
# 3 35.9944 23.4491 112.6591 0.0000 8.1435 0.0000
# 4 0.0000 0.0000 0.0000 16.0058 0.0000 2.9993
# 5 -1.2120 11.6956 8.1435 0.0000 31.9082 0.0000
# 6 0.0000 0.0000 0.0000 2.9993 0.0000 9.6156
#
#
#
# Elastic Compliance Matrix: (Units=1/GPa)
#
#
# Indices 1 2 3 4 5 6 
#
# 1 0.012998 -0.000799 -0.004119 0.000000 0.001838 0.000000
# 2 -0.000799 0.009668 -0.001527 0.000000 -0.003184 0.000000
# 3 -0.004119 -0.001527 0.010678 0.000000 -0.002322 0.000000
# 4 0.000000 0.000000 0.000000 0.066356 0.000000 -0.020698
# 5 0.001838 -0.003184 -0.002322 0.000000 0.033170 0.000000
# 6 0.000000 0.000000 0.000000 -0.020698 0.000000 0.110454
#
#
# Mechanical properties :
#
#
# Convention : Reuss Voigt Hill
#
# Bulk Modulus (GPa) = 48.89088 50.91143 49.90116
# Shear Modulus (GPa) = 19.00899 27.63081 23.31990
#
# Velocity S-wave (km/s) = 3.09733 3.73426 3.43061
# Velocity P-wave (km/s) = 6.12090 6.65484 6.39345
#
# Compressibility (1/GPa) = 0.02045371
#
# Stress axis : x y z
#
# Youngs Moduli (GPa) = 76.93298 103.43102 93.64925
#
# Poissons Ratio (x) = 0.08266 0.38578
# Poissons Ratio (y) = 0.06149 0.14299
# Poissons Ratio (z) = 0.31692 0.15792
#
# Static dielectric constant tensor:
#      x y z
#    x 3.379770 0.000000 0.100480 
#    y 0.000000 3.623920 0.000000 
#    z 0.100480 0.000000 3.859740 
# 
# 
# High freq. dielectric constant tensor:
#      x y z
#    x 1.755720 0.000000 0.003810 
#    y 0.000000 1.744820 0.000000 
#    z 0.003810 0.000000 1.787940 
# 
# From -- ./inp_files/19692.got.cif
#   From: 2010.06.25/outbox.cif.g09.slc.cpg/sg10_10_cif.got.tgz:19692.got - 2010.06.27 22:07:45.
