data_PCOD8060761
_publ_section_title
;
Structure prediction by ZEFSAII (Michael W. Deem and Ramdas Pophale) SiO2 
 PCOD8060761
Probable space group: P 2/M
;
_chemical_formula_sum "Si O2"
_cell_formula_units_Z 32
_cell_length_a 25.200012
_cell_length_b 9.480484
_cell_length_c 15.330541
_cell_angle_alpha 90.000000
_cell_angle_beta 27.596937
_cell_angle_gamma 90.000000
_cell_volume 1696.691595
_symmetry_space_group_name_H-M "P 2/M"
_symmetry_group_IT_number 10
_symmetry_cell_setting 'monoclinic'
loop_
_space_group_symop_operation_xyz
x,y,z
-x,y,-z
-x,-y,-z
x,-y,z
loop_
_atom_site_type_symbol
_atom_site_label
_atom_site_fract_x
_atom_site_fract_y
_atom_site_fract_z
Si Si1 0.360079 0.332325 0.459520
Si Si2 0.538670 0.661645 0.344647
Si Si3 0.923236 0.338599 0.873033
Si Si4 0.763056 0.839576 0.988710
Si Si5 0.827365 0.338595 0.551753
Si Si6 0.879871 0.159460 0.640661
Si Si7 0.598719 0.667427 0.792885
Si Si8 0.115319 0.333133 0.874511
O O1 0.352588 0.500000 0.470339
O O2 0.440579 0.282129 0.421851
O O3 0.411505 0.277020 0.292211
O O4 0.231054 0.272024 0.661526
O O5 0.500000 0.675287 0.500000
O O6 0.570703 0.500000 0.275732
O O7 0.647506 0.758818 0.175889
O O8 0.887614 0.500000 0.903925
O O9 0.868832 0.235238 0.881987
O O10 0.059984 0.320986 0.671084
O O11 0.879634 0.293124 0.031299
O O12 0.785012 0.835767 0.853875
O O13 0.753540 0.000000 0.036334
O O14 0.808164 0.500000 0.607326
O O15 0.831685 0.251566 0.633421
O O16 0.721447 0.282354 0.649464
O O17 0.000000 0.222992 0.500000
O O18 0.900935 0.000000 0.576687
O O19 0.589251 0.500000 0.806201
O O20 0.500000 0.731118 0.000000
O O21 0.110734 0.500000 0.868836
O O22 0.000000 0.266675 0.000000
#
# Coordination Sequence:
#
# PCOD8060761 Si02
#       8
#     4   4   4   4   4   4   4   4
#     4   9  17  30  49  74 107 145 177 212 265 322
#     4  10  21  37  58  84 113 145 183 226 272 322
#     4  10  19  32  52  81 110 136 174 226 272 322
#     4  11  23  37  55  78 106 145 186 223 271 328
#     4  10  20  32  53  81 107 136 179 228 271 319
#     4  10  21  38  55  75 108 147 183 222 274 333
#     4   9  18  31  47  74 110 142 175 218 271 326
#     4   9  16  28  50  77 107 138 170 212 265 318
#
# _framework density 18.860233000000001
#
# number of rings (size 3 to 8) (size 9 to 14) (size 15 to 20)
#    0.000    2.250    1.250    1.875    1.750    6.500 
#    0.000    0.000    0.000    1.500    0.000    1.750 
#    0.000    0.000    0.000    0.000    0.000    0.000 
#
# Total GULP energy -396787.748073 kJ/mol
# GULP energy per Si atom -12399.617127 kJ/mol
# Density = 1.881731 g / cm^3
# Si number density = 18.860233 Si / 1000 Ang^3
#
#
#
# Elastic Constant Matrix: (Units=GPa)
#
#
# Indices 1 2 3 4 5 6 
#
# 1 130.4734 31.8181 52.2266 0.0000 -0.0809 0.0000
# 2 31.8181 50.3603 29.8495 0.0000 -1.1657 0.0000
# 3 52.2266 29.8495 118.3243 0.0000 1.5013 0.0000
# 4 0.0000 0.0000 0.0000 13.5356 0.0000 2.0515
# 5 -0.0809 -1.1657 1.5013 0.0000 34.5933 0.0000
# 6 0.0000 0.0000 0.0000 2.0515 0.0000 -0.6588
#
#
#
# Elastic Compliance Matrix: (Units=1/GPa)
#
#
# Indices 1 2 3 4 5 6 
#
# 1 0.010070 -0.004382 -0.003339 0.000000 0.000021 0.000000
# 2 -0.004382 0.025293 -0.004459 0.000000 0.001036 0.000000
# 3 -0.003339 -0.004459 0.011058 0.000000 -0.000638 0.000000
# 4 0.000000 0.000000 0.000000 0.050191 0.000000 0.156292
# 5 0.000021 0.001036 -0.000638 0.000000 0.028970 0.000000
# 6 0.000000 0.000000 0.000000 0.156292 0.000000 -1.031186
#
#
# Mechanical properties :
#
#
# Convention : Reuss Voigt Hill
#
# Bulk Modulus (GPa) = 45.33365 58.54961 51.94163
# Shear Modulus (GPa) = -5.72155 21.84494 8.06169
#
# Velocity S-wave (km/s) = -1.74363 3.40701 2.06971
# Velocity P-wave (km/s) = 4.47606 6.82556 5.77163
#
# Compressibility (1/GPa) = 0.02205867
#
# Stress axis : x y z
#
# Youngs Moduli (GPa) = 99.30639 39.53683 90.42917
#
# Poissons Ratio (x) = 0.17327 0.30198
# Poissons Ratio (y) = 0.43520 0.40326
# Poissons Ratio (z) = 0.33162 0.17631
#
# Static dielectric constant tensor:
#      x y z
#    x 3.992810 0.000000 0.195470 
#    y 0.000000 3.070130 0.000000 
#    z 0.195470 0.000000 3.743120 
# 
# 
# High freq. dielectric constant tensor:
#      x y z
#    x 1.741260 0.000000 0.001660 
#    y 0.000000 1.679070 0.000000 
#    z 0.001660 0.000000 1.747720 
# 
# From -- ./inp_files/71458.got.cif
#   From: 2010.06.25/outbox.cif.g09.slc.cpg/sg10_36_cif.got.tgz:71458.got - 2010.06.27 22:07:45.
