data_PCOD8060266
_publ_section_title
;
Structure prediction by ZEFSAII (Michael W. Deem and Ramdas Pophale) SiO2 
 PCOD8060266
Probable space group: P 2/M
;
_chemical_formula_sum "Si O2"
_cell_formula_units_Z 32
_cell_length_a 20.072383
_cell_length_b 8.852234
_cell_length_c 25.042047
_cell_angle_alpha 90.000000
_cell_angle_beta 157.223056
_cell_angle_gamma 90.000000
_cell_volume 1722.641267
_symmetry_space_group_name_H-M "P 2/M"
_symmetry_group_IT_number 10
_symmetry_cell_setting 'monoclinic'
loop_
_space_group_symop_operation_xyz
x,y,z
-x,y,-z
-x,-y,-z
x,-y,z
loop_
_atom_site_type_symbol
_atom_site_label
_atom_site_fract_x
_atom_site_fract_y
_atom_site_fract_z
Si Si1 0.841895 0.323818 0.348478
Si Si2 0.471555 0.675295 0.602989
Si Si3 0.167944 0.177481 0.878056
Si Si4 0.864426 0.324664 0.715636
Si Si5 0.337266 0.821019 0.605400
Si Si6 0.330408 0.829837 0.339203
Si Si7 0.030927 0.676790 0.674158
Si Si8 0.452497 0.176710 0.806340
O O1 0.826451 0.500000 0.348422
O O2 0.871504 0.287056 0.308502
O O3 0.663646 0.249249 0.233587
O O4 0.000000 0.256336 0.500000
O O5 0.514084 0.500000 0.639494
O O6 0.290764 0.703247 0.440018
O O7 0.464946 0.749145 0.656401
O O8 0.627838 0.752632 0.686467
O O9 0.153136 0.268750 0.811996
O O10 0.025399 0.228336 0.814910
O O11 0.149873 0.000000 0.853405
O O12 0.350895 0.220396 0.038310
O O13 0.913914 0.500000 0.755363
O O14 0.815699 0.266280 0.738599
O O15 0.397276 0.761451 0.707527
O O16 0.144687 0.768229 0.452136
O O17 0.347796 0.000000 0.608296
O O18 0.500000 0.829732 0.500000
O O19 0.263976 0.000000 0.280562
O O20 0.988548 0.500000 0.648958
O O21 0.421783 0.000000 0.786397
#
# Coordination Sequence:
#
# PCOD8060266 Si02
#       8
#     4   4   4   4   4   4   4   4
#     4  10  21  38  60  84 112 146 184 231 283 336
#     4  10  19  31  51  81 115 145 184 233 278 328
#     4  11  23  39  57  81 115 151 189 231 279 334
#     4  10  19  32  52  79 113 149 186 228 278 331
#     4  11  21  35  57  83 111 146 188 232 280 331
#     4   9  17  29  48  77 112 148 187 227 276 329
#     4  11  22  37  58  85 112 143 187 232 280 334
#     4  10  24  41  58  83 113 148 189 232 280 337
#
# _framework density 18.576125000000001
#
# number of rings (size 3 to 8) (size 9 to 14) (size 15 to 20)
#    0.000    1.750    2.500    2.250    0.000    5.750 
#    0.000    2.500    0.000    0.750    0.000    5.250 
#    0.000    0.000    0.000    0.000    0.000    0.000 
#
# Total GULP energy -396939.284834 kJ/mol
# GULP energy per Si atom -12404.352651 kJ/mol
# Density = 1.853384 g / cm^3
# Si number density = 18.576125 Si / 1000 Ang^3
#
#
#
# Elastic Constant Matrix: (Units=GPa)
#
#
# Indices 1 2 3 4 5 6 
#
# 1 140.2340 40.2398 39.9337 0.0000 9.1217 0.0000
# 2 40.2398 59.4564 20.4087 0.0000 1.3193 0.0000
# 3 39.9337 20.4087 45.6004 0.0000 6.3522 0.0000
# 4 0.0000 0.0000 0.0000 16.8939 0.0000 5.6698
# 5 9.1217 1.3193 6.3522 0.0000 21.5863 0.0000
# 6 0.0000 0.0000 0.0000 5.6698 0.0000 37.0164
#
#
#
# Elastic Compliance Matrix: (Units=1/GPa)
#
#
# Indices 1 2 3 4 5 6 
#
# 1 0.010587 -0.004772 -0.006834 0.000000 -0.002171 0.000000
# 2 -0.004772 0.022067 -0.006038 0.000000 0.002445 0.000000
# 3 -0.006834 -0.006038 0.031452 0.000000 -0.005999 0.000000
# 4 0.000000 0.000000 0.000000 0.062400 0.000000 -0.009558
# 5 -0.002171 0.002445 -0.005999 0.000000 0.048859 0.000000
# 6 0.000000 0.000000 0.000000 -0.009558 0.000000 0.028479
#
#
# Mechanical properties :
#
#
# Convention : Reuss Voigt Hill
#
# Bulk Modulus (GPa) = 34.69851 49.60615 42.15233
# Shear Modulus (GPa) = 20.10149 24.74658 22.42404
#
# Velocity S-wave (km/s) = 3.29312 3.65385 3.47817
# Velocity P-wave (km/s) = 5.76013 6.67556 6.23467
#
# Compressibility (1/GPa) = 0.02881968
#
# Stress axis : x y z
#
# Youngs Moduli (GPa) = 94.45236 45.31698 31.79442
#
# Poissons Ratio (x) = 0.21623 0.21727
# Poissons Ratio (y) = 0.45069 0.19198
# Poissons Ratio (z) = 0.64545 0.27362
#
# Static dielectric constant tensor:
#      x y z
#    x 3.647480 0.000000 0.020480 
#    y 0.000000 3.477860 0.000000 
#    z 0.020480 0.000000 3.156250 
# 
# 
# High freq. dielectric constant tensor:
#      x y z
#    x 1.738060 0.000000 0.009730 
#    y 0.000000 1.731370 0.000000 
#    z 0.009730 0.000000 1.686180 
# 
# From -- ./inp_files/93714.got.cif
#   From: 2010.06.25/outbox.cif.g09.slc.cpg/sg10_47_cif.got.tgz:93714.got - 2010.06.27 22:07:45.
