data_PCOD8060483
_publ_section_title
;
Structure prediction by ZEFSAII (Michael W. Deem and Ramdas Pophale) SiO2 
 PCOD8060483
Probable space group: P 2/M
;
_chemical_formula_sum "Si O2"
_cell_formula_units_Z 24
_cell_length_a 24.115111
_cell_length_b 8.600419
_cell_length_c 18.551718
_cell_angle_alpha 90.000000
_cell_angle_beta 159.870853
_cell_angle_gamma 90.000000
_cell_volume 1324.112406
_symmetry_space_group_name_H-M "P 2/M"
_symmetry_group_IT_number 10
_symmetry_cell_setting 'monoclinic'
loop_
_space_group_symop_operation_xyz
x,y,z
-x,y,-z
-x,-y,-z
x,-y,z
loop_
_atom_site_type_symbol
_atom_site_label
_atom_site_fract_x
_atom_site_fract_y
_atom_site_fract_z
Si Si1 0.838891 0.316069 0.077736
Si Si2 0.454015 0.179848 0.366782
Si Si3 0.524688 0.181774 0.111508
Si Si4 0.374558 0.820537 0.563549
Si Si5 0.817933 0.683552 0.557664
Si Si6 0.340139 0.679467 0.004959
O O1 0.829269 0.500000 0.063351
O O2 0.804326 0.261986 0.118667
O O3 0.013955 0.253660 0.269228
O O4 0.706761 0.254851 0.860763
O O5 0.500000 0.255628 0.500000
O O6 0.608383 0.202843 0.501688
O O7 0.413787 0.000000 0.328247
O O8 0.676743 0.272016 0.329921
O O9 0.560189 0.000000 0.158604
O O10 0.500000 0.239031 0.000000
O O11 0.360654 0.222357 0.956124
O O12 0.204596 0.767563 0.391264
O O13 0.411666 0.000000 0.629377
O O14 0.498778 0.703287 0.752315
O O15 0.822994 0.500000 0.574939
O O16 0.319138 0.500000 0.958190
#
# Coordination Sequence:
#
# PCOD8060483 Si02
#       6
#     4   4   4   4   4   4
#     4   9  19  33  49  72  97 123 157 195 234 277
#     4   9  18  32  50  72  96 124 159 196 234 278
#     4  10  20  33  49  71  97 123 155 193 232 278
#     4   9  16  28  47  69  93 122 157 193 230 276
#     4  10  19  32  50  71  96 124 157 194 232 279
#     4   9  16  29  49  69  91 121 157 192 228 275
#
# _framework density 18.125350000000001
#
# number of rings (size 3 to 8) (size 9 to 14) (size 15 to 20)
#    0.000    2.667    0.000    4.000    0.000    4.333 
#    0.000    1.667    0.000   10.000    0.000    0.000 
#    0.000    0.000    0.000    0.000    0.000    0.000 
#
# Total GULP energy -297356.360176 kJ/mol
# GULP energy per Si atom -12389.848341 kJ/mol
# Density = 1.808410 g / cm^3
# Si number density = 18.125350 Si / 1000 Ang^3
#
#
#
# Elastic Constant Matrix: (Units=GPa)
#
#
# Indices 1 2 3 4 5 6 
#
# 1 193.6887 31.0886 68.5935 0.0000 10.6565 0.0000
# 2 31.0886 32.2227 16.5851 0.0000 4.2868 0.0000
# 3 68.5935 16.5851 63.9799 0.0000 12.9087 0.0000
# 4 0.0000 0.0000 0.0000 13.6208 0.0000 -1.9469
# 5 10.6565 4.2868 12.9087 0.0000 34.8095 0.0000
# 6 0.0000 0.0000 0.0000 -1.9469 0.0000 10.5332
#
#
#
# Elastic Compliance Matrix: (Units=1/GPa)
#
#
# Indices 1 2 3 4 5 6 
#
# 1 0.008819 -0.004236 -0.008557 0.000000 0.000995 0.000000
# 2 -0.004236 0.037882 -0.004971 0.000000 -0.001525 0.000000
# 3 -0.008557 -0.004971 0.027498 0.000000 -0.006966 0.000000
# 4 0.000000 0.000000 0.000000 0.075409 0.000000 0.013938
# 5 0.000995 -0.001525 -0.006966 0.000000 0.031194 0.000000
# 6 0.000000 0.000000 0.000000 0.013938 0.000000 0.097515
#
#
# Mechanical properties :
#
#
# Convention : Reuss Voigt Hill
#
# Bulk Modulus (GPa) = 25.85917 58.04729 41.95323
# Shear Modulus (GPa) = 15.30291 23.36762 19.33527
#
# Velocity S-wave (km/s) = 2.90881 3.59447 3.26966
# Velocity P-wave (km/s) = 5.05760 7.02296 6.11969
#
# Compressibility (1/GPa) = 0.03867099
#
# Stress axis : x y z
#
# Youngs Moduli (GPa) = 113.39705 26.39742 36.36620
#
# Poissons Ratio (x) = 0.11183 0.31119
# Poissons Ratio (y) = 0.48037 0.18076
# Poissons Ratio (z) = 0.97036 0.13121
#
# Static dielectric constant tensor:
#      x y z
#    x 4.264730 0.000000 0.294140 
#    y 0.000000 3.274240 0.000000 
#    z 0.294140 0.000000 3.038120 
# 
# 
# High freq. dielectric constant tensor:
#      x y z
#    x 1.729450 0.000000 0.014770 
#    y 0.000000 1.704290 0.000000 
#    z 0.014770 0.000000 1.648200 
# 
# From -- ./inp_files/31224.got.cif
#   From: 2010.06.25/outbox.cif.g09.slc.cpg/sg10_16_cif.got.tgz:31224.got - 2010.06.27 22:07:45.
