data_PCOD8060753
_publ_section_title
;
Structure prediction by ZEFSAII (Michael W. Deem and Ramdas Pophale) SiO2 
 PCOD8060753
Probable space group: P 2/M
;
_chemical_formula_sum "Si O2"
_cell_formula_units_Z 28
_cell_length_a 19.856570
_cell_length_b 8.864680
_cell_length_c 9.197747
_cell_angle_alpha 90.000000
_cell_angle_beta 104.213234
_cell_angle_gamma 90.000000
_cell_volume 1569.447130
_symmetry_space_group_name_H-M "P 2/M"
_symmetry_group_IT_number 10
_symmetry_cell_setting 'monoclinic'
loop_
_space_group_symop_operation_xyz
x,y,z
-x,y,-z
-x,-y,-z
x,-y,z
loop_
_atom_site_type_symbol
_atom_site_label
_atom_site_fract_x
_atom_site_fract_y
_atom_site_fract_z
Si Si1 0.436511 0.324830 0.868414
Si Si2 0.924509 0.828426 0.494146
Si Si3 0.303205 0.178397 0.299244
Si Si4 0.304258 0.324561 0.994721
Si Si5 0.565550 0.178344 0.445105
Si Si6 0.791723 0.828402 0.267604
Si Si7 0.803490 0.321630 0.561301
O O1 0.446599 0.500000 0.839178
O O2 0.435884 0.237473 0.718146
O O3 0.500000 0.264655 0.000000
O O4 0.365302 0.292087 0.913916
O O5 0.876338 0.824997 0.322423
O O6 0.884678 0.731387 0.597727
O O7 0.000000 0.757447 0.500000
O O8 0.933124 0.000000 0.555288
O O9 0.321557 0.233606 0.148554
O O10 0.364880 0.232689 0.437196
O O11 0.231737 0.256506 0.312545
O O12 0.293368 0.000000 0.294346
O O13 0.295932 0.500000 0.027171
O O14 0.232924 0.262472 0.886796
O O15 0.500000 0.243184 0.500000
O O16 0.561942 0.000000 0.437335
O O17 0.762739 0.748020 0.399485
O O18 0.763768 0.000000 0.247373
O O19 0.798355 0.500000 0.556157
#
# Coordination Sequence:
#
# PCOD8060753 Si02
#       7
#     4   4   4   4   4   4   4
#     4  10  22  38  55  77 106 140 178 220 272 329
#     4   8  16  32  55  82 111 143 180 219 264 322
#     4  11  22  36  54  76 106 144 183 224 275 330
#     4  11  22  35  53  78 107 140 181 228 274 321
#     4  10  22  38  56  79 105 136 180 229 274 321
#     4   9  18  33  53  78 107 140 177 216 264 318
#     4  10  19  32  52  80 110 139 177 222 267 312
#
# _framework density 17.840676999999999
#
# number of rings (size 3 to 8) (size 9 to 14) (size 15 to 20)
#    0.857    1.286    0.000    3.857    0.000    5.429 
#    0.000    0.000    0.000    0.857    0.000    6.000 
#    0.000    0.000    0.000    0.000    0.000    0.000 
#
# Total GULP energy -347102.939751 kJ/mol
# GULP energy per Si atom -12396.533563 kJ/mol
# Density = 1.780007 g / cm^3
# Si number density = 17.840677 Si / 1000 Ang^3
#
#
#
# Elastic Constant Matrix: (Units=GPa)
#
#
# Indices 1 2 3 4 5 6 
#
# 1 107.0717 37.2705 35.4789 0.0000 -5.8848 0.0000
# 2 37.2705 72.4520 20.4976 0.0000 -4.4843 0.0000
# 3 35.4789 20.4976 86.2951 0.0000 -1.5461 0.0000
# 4 0.0000 0.0000 0.0000 30.5875 0.0000 -4.4224
# 5 -5.8848 -4.4843 -1.5461 0.0000 23.9256 0.0000
# 6 0.0000 0.0000 0.0000 -4.4224 0.0000 16.6155
#
#
#
# Elastic Compliance Matrix: (Units=1/GPa)
#
#
# Indices 1 2 3 4 5 6 
#
# 1 0.012553 -0.005245 -0.003882 0.000000 0.001854 0.000000
# 2 -0.005245 0.017145 -0.001884 0.000000 0.001802 0.000000
# 3 -0.003882 -0.001884 0.013624 0.000000 -0.000428 0.000000
# 4 0.000000 0.000000 0.000000 0.034002 0.000000 0.009050
# 5 0.001854 0.001802 -0.000428 0.000000 0.042562 0.000000
# 6 0.000000 0.000000 0.000000 0.009050 0.000000 0.062593
#
#
# Mechanical properties :
#
#
# Convention : Reuss Voigt Hill
#
# Bulk Modulus (GPa) = 46.94653 50.25699 48.60176
# Shear Modulus (GPa) = 23.62940 25.73051 24.67995
#
# Velocity S-wave (km/s) = 3.64327 3.80180 3.72338
# Velocity P-wave (km/s) = 6.63847 6.89222 6.76653
#
# Compressibility (1/GPa) = 0.02130083
#
# Stress axis : x y z
#
# Youngs Moduli (GPa) = 79.65971 58.32732 73.39970
#
# Poissons Ratio (x) = 0.30590 0.28495
# Poissons Ratio (y) = 0.41778 0.13827
# Poissons Ratio (z) = 0.30925 0.10988
#
# Static dielectric constant tensor:
#      x y z
#    x 3.350000 0.000000 0.039530 
#    y 0.000000 3.241280 0.000000 
#    z 0.039530 0.000000 3.127630 
# 
# 
# High freq. dielectric constant tensor:
#      x y z
#    x 1.684830 0.000000 -0.000760 
#    y 0.000000 1.695400 0.000000 
#    z -0.000760 0.000000 1.674180 
# 
# From -- ./inp_files/33480.got.cif
#   From: 2010.06.25/outbox.cif.g09.slc.cpg/sg10_17_cif.got.tgz:33480.got - 2010.06.27 22:07:45.
