data_PCOD8060235
_publ_section_title
;
Structure prediction by ZEFSAII (Michael W. Deem and Ramdas Pophale) SiO2 
 PCOD8060235
Probable space group: P 2/M
;
_chemical_formula_sum "Si O2"
_cell_formula_units_Z 22
_cell_length_a 26.395763
_cell_length_b 7.524003
_cell_length_c 5.230669
_cell_angle_alpha 90.000000
_cell_angle_beta 78.570355
_cell_angle_gamma 90.000000
_cell_volume 1018.219200
_symmetry_space_group_name_H-M "P 2/M"
_symmetry_group_IT_number 10
_symmetry_cell_setting 'monoclinic'
loop_
_space_group_symop_operation_xyz
x,y,z
-x,y,-z
-x,-y,-z
x,-y,z
loop_
_atom_site_type_symbol
_atom_site_label
_atom_site_fract_x
_atom_site_fract_y
_atom_site_fract_z
Si Si1 0.970040 0.789736 0.279959
Si Si2 0.317593 0.290705 0.932400
Si Si3 0.534555 0.000000 0.715444
Si Si4 0.147939 0.297943 0.602061
Si Si5 0.379547 0.288665 0.370444
Si Si6 0.201459 0.713089 0.048540
O O1 0.913494 0.708609 0.336508
O O2 0.000000 0.720330 0.500000
O O3 0.965500 0.000000 0.284494
O O4 0.000000 0.720326 0.000000
O O5 0.313322 0.500000 0.936688
O O6 0.347509 0.227013 0.650463
O O7 0.259818 0.211816 0.990180
O O8 0.347512 0.227005 0.154488
O O9 0.500000 0.000000 0.500000
O O10 0.567339 0.181339 0.682659
O O11 0.500000 0.000000 0.000000
O O12 0.166612 0.500000 0.583386
O O13 0.171743 0.207397 0.831478
O O14 0.171744 0.207397 0.325036
O O15 0.391311 0.500000 0.358678
O O16 0.199861 0.500000 0.050138
#
# Coordination Sequence:
#
# PCOD8060235 Si02
#       6
#     4   4   2   4   4   4
#     4  10  21  36  52  67  92 136 178 216 266 322
#     4   9  17  33  59  86 112 149 190 224 270 340
#     4  12  26  42  62  88 122 158 192 246 292 324
#     4  10  19  31  51  78 105 131 168 221 269 321
#     4  10  21  38  62  87 115 155 197 236 280 339
#     4   9  17  30  52  81 109 138 169 209 271 329
#
# _framework density 21.606352999999999
#
# number of rings (size 3 to 8) (size 9 to 14) (size 15 to 20)
#    0.000    2.182    0.000    3.273    0.000    5.818 
#    0.000    0.000   12.000    0.000    0.000    0.000 
#    0.000    0.000    0.000    0.000    0.000    0.000 
#
# Total GULP energy -272803.796349 kJ/mol
# GULP energy per Si atom -12400.172561 kJ/mol
# Density = 2.155718 g / cm^3
# Si number density = 21.606353 Si / 1000 Ang^3
#
#
#
# Elastic Constant Matrix: (Units=GPa)
#
#
# Indices 1 2 3 4 5 6 
#
# 1 189.3080 25.8312 112.7340 0.0000 10.5371 0.0000
# 2 25.8312 44.4172 21.9694 0.0000 -1.3618 0.0000
# 3 112.7340 21.9694 245.1910 0.0000 9.1517 0.0000
# 4 0.0000 0.0000 0.0000 -4.9007 0.0000 21.2100
# 5 10.5371 -1.3618 9.1517 0.0000 52.7570 0.0000
# 6 0.0000 0.0000 0.0000 21.2100 0.0000 -65.1329
#
#
#
# Elastic Compliance Matrix: (Units=1/GPa)
#
#
# Indices 1 2 3 4 5 6 
#
# 1 0.007653 -0.002890 -0.003221 0.000000 -0.001044 0.000000
# 2 -0.002890 0.024699 -0.000936 0.000000 0.001377 0.000000
# 3 -0.003221 -0.000936 0.005657 0.000000 -0.000362 0.000000
# 4 0.000000 0.000000 0.000000 0.498453 0.000000 0.162318
# 5 -0.001044 0.001377 -0.000362 0.000000 0.019262 0.000000
# 6 0.000000 0.000000 0.000000 0.162318 0.000000 0.037504
#
#
# Mechanical properties :
#
#
# Convention : Reuss Voigt Hill
#
# Bulk Modulus (GPa) = 41.81229 88.88727 65.34978
# Shear Modulus (GPa) = 8.12621 17.77012 12.94817
#
# Velocity S-wave (km/s) = 1.94144 2.87095 2.45067
# Velocity P-wave (km/s) = 4.94160 7.22624 6.19023
#
# Compressibility (1/GPa) = 0.02391641
#
# Stress axis : x y z
#
# Youngs Moduli (GPa) = 130.67202 40.48688 176.78329
#
# Poissons Ratio (x) = 0.11699 0.56937
# Poissons Ratio (y) = 0.37758 0.16546
# Poissons Ratio (z) = 0.42085 0.03789
#
# Static dielectric constant tensor:
#      x y z
#    x 3.947400 0.000000 0.186880 
#    y 0.000000 3.515780 0.000000 
#    z 0.186880 0.000000 4.478050 
# 
# 
# High freq. dielectric constant tensor:
#      x y z
#    x 1.854040 0.000000 0.005760 
#    y 0.000000 1.823170 0.000000 
#    z 0.005760 0.000000 1.870390 
# 
# From -- ./inp_files/12989.got.cif
#   From: 2010.06.25/outbox.cif.g09.slc.cpg/sg10_7_cif.got.tgz:12989.got - 2010.06.27 22:07:45.
