data_PCOD8060365
_publ_section_title
;
Structure prediction by ZEFSAII (Michael W. Deem and Ramdas Pophale) SiO2 
 PCOD8060365
Probable space group: P 2/M
;
_chemical_formula_sum "Si O2"
_cell_formula_units_Z 24
_cell_length_a 14.182014
_cell_length_b 14.315374
_cell_length_c 8.727127
_cell_angle_alpha 90.000000
_cell_angle_beta 136.320896
_cell_angle_gamma 90.000000
_cell_volume 1223.630337
_symmetry_space_group_name_H-M "P 2/M"
_symmetry_group_IT_number 10
_symmetry_cell_setting 'monoclinic'
loop_
_space_group_symop_operation_xyz
x,y,z
-x,y,-z
-x,-y,-z
x,-y,z
loop_
_atom_site_type_symbol
_atom_site_label
_atom_site_fract_x
_atom_site_fract_y
_atom_site_fract_z
Si Si1 0.289185 0.282433 0.990246
Si Si2 0.812436 0.390079 0.425956
Si Si3 0.972318 0.280775 0.141945
Si Si4 0.072783 0.105304 0.426440
Si Si5 0.534840 0.396836 0.219944
Si Si6 0.644142 0.105404 0.099257
O O1 0.216659 0.331023 0.760377
O O2 0.189661 0.290015 0.018603
O O3 0.316792 0.173096 0.993650
O O4 0.435656 0.329342 0.199850
O O5 0.818231 0.500000 0.391121
O O6 0.694820 0.369571 0.415824
O O7 0.954150 0.356719 0.663887
O O8 0.024569 0.176179 0.239008
O O9 0.000000 0.305781 0.000000
O O10 0.236959 0.111778 0.633369
O O11 0.000000 0.134089 0.500000
O O12 0.028831 0.000000 0.328983
O O13 0.509992 0.500000 0.257037
O O14 0.500000 0.392631 0.000000
O O15 0.632715 0.000000 0.021186
O O16 0.500000 0.138605 0.000000
#
# Coordination Sequence:
#
# PCOD8060365 Si02
#       6
#     4   4   4   4   4   4
#     4  11  19  34  58  82 108 141 179 226 269 318
#     4  10  20  37  60  82 105 137 182 231 276 320
#     4  12  25  37  50  78 116 151 184 216 264 320
#     4  10  19  37  61  82 107 140 182 225 264 313
#     4   8  16  31  56  85 104 128 175 231 279 320
#     4  10  19  31  57  92 113 129 167 228 282 317
#
# _framework density 19.613765999999998
#
# number of rings (size 3 to 8) (size 9 to 14) (size 15 to 20)
#    0.000    1.833    3.333    3.500    0.000    2.667 
#    0.000    0.833    0.000    2.000    0.000    3.500 
#    0.000    0.000    0.000    0.000    0.000    0.000 
#
# Total GULP energy -297543.247249 kJ/mol
# GULP energy per Si atom -12397.635302 kJ/mol
# Density = 1.956912 g / cm^3
# Si number density = 19.613766 Si / 1000 Ang^3
#
#
#
# Elastic Constant Matrix: (Units=GPa)
#
#
# Indices 1 2 3 4 5 6 
#
# 1 123.6678 36.5187 20.5497 0.0000 24.3850 0.0000
# 2 36.5187 96.1437 7.2504 0.0000 5.2233 0.0000
# 3 20.5497 7.2504 19.7179 0.0000 12.1775 0.0000
# 4 0.0000 0.0000 0.0000 20.8728 0.0000 13.2110
# 5 24.3850 5.2233 12.1775 0.0000 32.3712 0.0000
# 6 0.0000 0.0000 0.0000 13.2110 0.0000 21.7539
#
#
#
# Elastic Compliance Matrix: (Units=1/GPa)
#
#
# Indices 1 2 3 4 5 6 
#
# 1 0.011365 -0.003479 -0.007327 0.000000 -0.005244 0.000000
# 2 -0.003479 0.011766 -0.001493 0.000000 0.001284 0.000000
# 3 -0.007327 -0.001493 0.072091 0.000000 -0.021360 0.000000
# 4 0.000000 0.000000 0.000000 0.077822 0.000000 -0.047261
# 5 -0.005244 0.001284 -0.021360 0.000000 0.042669 0.000000
# 6 0.000000 0.000000 0.000000 -0.047261 0.000000 0.074670
#
#
# Mechanical properties :
#
#
# Convention : Reuss Voigt Hill
#
# Bulk Modulus (GPa) = 14.15962 40.90746 27.53354
# Shear Modulus (GPa) = 14.77005 26.68030 20.72517
#
# Velocity S-wave (km/s) = 2.74714 3.69220 3.25416
# Velocity P-wave (km/s) = 4.15900 6.25126 5.30922
#
# Compressibility (1/GPa) = 0.07062337
#
# Stress axis : x y z
#
# Youngs Moduli (GPa) = 87.98905 84.99397 13.87127
#
# Poissons Ratio (x) = 0.29573 0.10163
# Poissons Ratio (y) = 0.30615 0.02071
# Poissons Ratio (z) = 0.64467 0.12691
#
# Static dielectric constant tensor:
#      x y z
#    x 3.658780 0.000000 0.627250 
#    y 0.000000 3.774170 0.000000 
#    z 0.627250 0.000000 3.314130 
# 
# 
# High freq. dielectric constant tensor:
#      x y z
#    x 1.754200 0.000000 0.052290 
#    y 0.000000 1.781200 0.000000 
#    z 0.052290 0.000000 1.718510 
# 
# From -- ./inp_files/29659.got.cif
#   From: 2010.06.25/outbox.cif.g09.slc.cpg/sg10_15_cif.got.tgz:29659.got - 2010.06.27 22:07:45.
