data_PCOD8060462
_publ_section_title
;
Structure prediction by ZEFSAII (Michael W. Deem and Ramdas Pophale) SiO2 
 PCOD8060462
Probable space group: P 2/M
;
_chemical_formula_sum "Si O2"
_cell_formula_units_Z 24
_cell_length_a 24.592175
_cell_length_b 8.360131
_cell_length_c 18.158384
_cell_angle_alpha 90.000000
_cell_angle_beta 160.865763
_cell_angle_gamma 90.000000
_cell_volume 1223.694403
_symmetry_space_group_name_H-M "P 2/M"
_symmetry_group_IT_number 10
_symmetry_cell_setting 'monoclinic'
loop_
_space_group_symop_operation_xyz
x,y,z
-x,y,-z
-x,-y,-z
x,-y,z
loop_
_atom_site_type_symbol
_atom_site_label
_atom_site_fract_x
_atom_site_fract_y
_atom_site_fract_z
Si Si1 0.070215 0.690415 0.978139
Si Si2 0.904852 0.309634 0.153496
Si Si3 0.254458 0.313188 0.662093
Si Si4 0.551872 0.185390 0.957254
Si Si5 0.746974 0.690046 0.646416
Si Si6 0.401600 0.690518 0.142410
O O1 0.067974 0.500000 0.973115
O O2 0.209299 0.748979 0.214690
O O3 0.110674 0.760336 0.949259
O O4 0.888949 0.751575 0.772085
O O5 0.904720 0.500000 0.150330
O O6 0.075504 0.248847 0.408026
O O7 0.751045 0.245255 0.004170
O O8 0.250185 0.500000 0.675504
O O9 0.305313 0.217286 0.800073
O O10 0.386080 0.284022 0.764988
O O11 0.506219 0.000000 0.898472
O O12 0.621344 0.240094 0.967995
O O13 0.741216 0.500000 0.637946
O O14 0.569996 0.758991 0.394551
O O15 0.402935 0.500000 0.140161
#
# Coordination Sequence:
#
# PCOD8060462 Si02
#       6
#     4   4   4   4   4   4
#     4   8  13  24  41  70 104 132 162 203 248 291
#     4   9  18  29  47  75 106 133 164 203 249 299
#     4  10  19  35  57  78  98 127 164 208 252 297
#     4  11  22  36  53  75  99 129 167 210 251 296
#     4   8  14  24  44  70 101 134 165 202 247 290
#     4  10  19  32  49  74 104 137 169 202 244 295
#
# _framework density 19.612741
#
# number of rings (size 3 to 8) (size 9 to 14) (size 15 to 20)
#    0.000    2.667    0.000    5.000    0.000    4.000 
#    0.000    8.333    0.000    0.000    0.000   12.833 
#    0.000    0.000    0.000    0.000    0.000    0.000 
#
# Total GULP energy -297555.987636 kJ/mol
# GULP energy per Si atom -12398.166151 kJ/mol
# Density = 1.956810 g / cm^3
# Si number density = 19.612741 Si / 1000 Ang^3
#
#
#
# Elastic Constant Matrix: (Units=GPa)
#
#
# Indices 1 2 3 4 5 6 
#
# 1 184.4216 8.9288 99.2995 0.0000 -2.2171 0.0000
# 2 8.9288 25.0554 7.8028 0.0000 -0.5755 0.0000
# 3 99.2995 7.8028 123.0873 0.0000 -0.8968 0.0000
# 4 0.0000 0.0000 0.0000 -0.1082 0.0000 2.7045
# 5 -2.2171 -0.5755 -0.8968 0.0000 21.5469 0.0000
# 6 0.0000 0.0000 0.0000 2.7045 0.0000 1.7110
#
#
#
# Elastic Compliance Matrix: (Units=1/GPa)
#
#
# Indices 1 2 3 4 5 6 
#
# 1 0.009621 -0.001018 -0.007693 0.000000 0.000643 0.000000
# 2 -0.001018 0.040844 -0.001761 0.000000 0.000913 0.000000
# 3 -0.007693 -0.001761 0.014440 0.000000 -0.000238 0.000000
# 4 0.000000 0.000000 0.000000 -0.228144 0.000000 0.360621
# 5 0.000643 0.000913 -0.000238 0.000000 0.046491 0.000000
# 6 0.000000 0.000000 0.000000 0.360621 0.000000 0.014433
#
#
# Mechanical properties :
#
#
# Convention : Reuss Voigt Hill
#
# Bulk Modulus (GPa) = 22.74728 62.73627 42.74177
# Shear Modulus (GPa) = -74.94400 19.06548 -27.93926
#
# Velocity S-wave (km/s) = -6.18828 3.12123 -3.77841
# Velocity P-wave (km/s) = 6.27984 6.71166 1.67481
#
# Compressibility (1/GPa) = 0.04396130
#
# Stress axis : x y z
#
# Youngs Moduli (GPa) = 103.93420 24.48354 69.25059
#
# Poissons Ratio (x) = 0.02493 0.53273
# Poissons Ratio (y) = 0.10583 0.12196
# Poissons Ratio (z) = 0.79954 0.04312
#
# Static dielectric constant tensor:
#      x y z
#    x 3.773290 0.000000 -0.076560 
#    y 0.000000 2.985540 0.000000 
#    z -0.076560 0.000000 3.826480 
# 
# 
# High freq. dielectric constant tensor:
#      x y z
#    x 1.769650 0.000000 -0.010130 
#    y 0.000000 1.711670 0.000000 
#    z -0.010130 0.000000 1.769290 
# 
# From -- ./inp_files/80122.got.cif
#   From: 2010.06.25/outbox.cif.g09.slc.cpg/sg10_41_cif.got.tgz:80122.got - 2010.06.27 22:07:45.
