data_PCOD8061085
_publ_section_title
;
Structure prediction by ZEFSAII (Michael W. Deem and Ramdas Pophale) SiO2 
 PCOD8061085
Probable space group: P 2/M
;
_chemical_formula_sum "Si O2"
_cell_formula_units_Z 28
_cell_length_a 31.575153
_cell_length_b 8.653139
_cell_length_c 31.575152
_cell_angle_alpha 90.000000
_cell_angle_beta 170.529520
_cell_angle_gamma 90.000000
_cell_volume 1419.497326
_symmetry_space_group_name_H-M "P 2/M"
_symmetry_group_IT_number 10
_symmetry_cell_setting 'monoclinic'
loop_
_space_group_symop_operation_xyz
x,y,z
-x,y,-z
-x,-y,-z
x,-y,z
loop_
_atom_site_type_symbol
_atom_site_label
_atom_site_fract_x
_atom_site_fract_y
_atom_site_fract_z
Si Si1 0.762114 0.684344 0.237887
Si Si2 0.953826 0.182291 0.046168
Si Si3 0.665630 0.684448 0.334363
Si Si4 0.907188 0.683659 0.092802
Si Si5 0.382141 0.316764 0.617850
Si Si6 0.525044 0.321321 0.474963
Si Si7 0.189892 0.315745 0.810102
O O1 0.762238 0.500000 0.237770
O O2 0.786111 0.748340 0.213889
O O3 0.000000 0.747746 0.500000
O O4 0.500000 0.747743 0.000000
O O5 0.929741 0.236038 0.070266
O O6 0.214806 0.243943 0.283702
O O7 0.954873 0.000000 0.045112
O O8 0.716285 0.243943 0.785183
O O9 0.665355 0.500000 0.334642
O O10 0.641700 0.750878 0.358298
O O11 0.927721 0.747591 0.572152
O O12 0.427837 0.747592 0.072270
O O13 0.910292 0.500000 0.089704
O O14 0.142980 0.741898 0.354178
O O15 0.645806 0.741899 0.857003
O O16 0.381000 0.500000 0.618991
O O17 0.500000 0.297655 0.500000
O O18 0.531552 0.500000 0.468461
O O19 0.190056 0.500000 0.809948
#
# Coordination Sequence:
#
# PCOD8061085 Si02
#       7
#     4   4   4   4   4   4   4
#     4   9  15  21  27  36  53  82 124 169 218 282
#     4  12  25  40  61  90 122 153 188 234 284 329
#     4   9  15  23  34  51  73  95 129 179 240 297
#     4  10  19  33  52  73 100 135 173 210 257 316
#     4   9  17  28  45  67  89 118 157 203 252 308
#     4  11  24  43  66  90 118 155 196 234 276 331
#     4   9  15  21  30  43  63  92 124 172 237 293
#
# _framework density 19.725293000000001
#
# number of rings (size 3 to 8) (size 9 to 14) (size 15 to 20)
#    0.000    2.143    0.000    4.714    0.000   10.857 
#    0.000    0.000    0.000    0.000    0.000    0.000 
#    0.000    0.000    0.000    0.000    0.000    0.000 
#
# Total GULP energy -347244.407555 kJ/mol
# GULP energy per Si atom -12401.585984 kJ/mol
# Density = 1.968040 g / cm^3
# Si number density = 19.725293 Si / 1000 Ang^3
#
#
#
# Elastic Constant Matrix: (Units=GPa)
#
#
# Indices 1 2 3 4 5 6 
#
# 1 151.1443 52.7326 90.0940 0.0000 3.3770 0.0000
# 2 52.7326 52.8256 44.0685 0.0000 -0.7642 0.0000
# 3 90.0940 44.0685 215.6944 0.0000 2.3125 0.0000
# 4 0.0000 0.0000 0.0000 13.9475 0.0000 1.8863
# 5 3.3770 -0.7642 2.3125 0.0000 49.5883 0.0000
# 6 0.0000 0.0000 0.0000 1.8863 0.0000 -7.4395
#
#
#
# Elastic Compliance Matrix: (Units=1/GPa)
#
#
# Indices 1 2 3 4 5 6 
#
# 1 0.011575 -0.009089 -0.002969 0.000000 -0.000790 0.000000
# 2 -0.009089 0.029972 -0.002340 0.000000 0.001190 0.000000
# 3 -0.002969 -0.002340 0.006356 0.000000 -0.000130 0.000000
# 4 0.000000 0.000000 0.000000 0.069321 0.000000 0.017576
# 5 -0.000790 0.001190 -0.000130 0.000000 0.020244 0.000000
# 6 0.000000 0.000000 0.000000 0.017576 0.000000 -0.129961
#
#
# Mechanical properties :
#
#
# Convention : Reuss Voigt Hill
#
# Bulk Modulus (GPa) = 52.33753 88.16163 70.24958
# Shear Modulus (GPa) = 117.17408 26.73720 71.95564
#
# Velocity S-wave (km/s) = 7.71569 3.68568 6.04633
# Velocity P-wave (km/s) = 10.29401 7.93121 9.18887
#
# Compressibility (1/GPa) = 0.01910675
#
# Stress axis : x y z
#
# Youngs Moduli (GPa) = 86.39505 33.36412 157.33289
#
# Poissons Ratio (x) = 0.30324 0.46717
# Poissons Ratio (y) = 0.78522 0.36818
# Poissons Ratio (z) = 0.25653 0.07808
#
# Static dielectric constant tensor:
#      x y z
#    x 3.872500 0.000000 0.005730 
#    y 0.000000 2.961230 0.000000 
#    z 0.005730 0.000000 3.937520 
# 
# 
# High freq. dielectric constant tensor:
#      x y z
#    x 1.791990 0.000000 0.000080 
#    y 0.000000 1.701240 0.000000 
#    z 0.000080 0.000000 1.792860 
# 
# From -- ./inp_files/94279.got.cif
#   From: 2010.06.25/outbox.cif.g09.slc.cpg/sg10_48_cif.got.tgz:94279.got - 2010.06.27 22:07:45.
