data_PCOD8061305
_publ_section_title
;
Structure prediction by ZEFSAII (Michael W. Deem and Ramdas Pophale) SiO2 
 PCOD8061305
Probable space group: P 2/M
;
_chemical_formula_sum "Si O2"
_cell_formula_units_Z 24
_cell_length_a 25.160944
_cell_length_b 8.827054
_cell_length_c 9.257264
_cell_angle_alpha 90.000000
_cell_angle_beta 41.228085
_cell_angle_gamma 90.000000
_cell_volume 1355.030683
_symmetry_space_group_name_H-M "P 2/M"
_symmetry_group_IT_number 10
_symmetry_cell_setting 'monoclinic'
loop_
_space_group_symop_operation_xyz
x,y,z
-x,y,-z
-x,-y,-z
x,-y,z
loop_
_atom_site_type_symbol
_atom_site_label
_atom_site_fract_x
_atom_site_fract_y
_atom_site_fract_z
Si Si1 0.148288 0.821942 0.854336
Si Si2 0.272885 0.678823 0.794434
Si Si3 0.587243 0.827877 0.357195
Si Si4 0.742541 0.827779 0.887804
Si Si5 0.009331 0.325586 0.315230
Si Si6 0.147543 0.324805 0.551973
O O1 0.231794 0.746105 0.735608
O O2 0.126671 0.762557 0.740300
O O3 0.160481 0.000000 0.825029
O O4 0.076103 0.780553 0.108593
O O5 0.267080 0.500000 0.804003
O O6 0.366932 0.732374 0.610703
O O7 0.224824 0.743365 0.033709
O O8 0.500000 0.755406 0.500000
O O9 0.576028 0.000000 0.435660
O O10 0.644235 0.824368 0.096954
O O11 0.771315 0.741213 0.686060
O O12 0.774931 0.000000 0.820300
O O13 0.037143 0.500000 0.242500
O O14 0.000000 0.278433 0.500000
O O15 0.924667 0.297222 0.411053
O O16 0.160774 0.500000 0.561215
#
# Coordination Sequence:
#
# PCOD8061305 Si02
#       6
#     4   4   4   4   4   4
#     4  12  24  37  54  77 108 146 186 228 274 322
#     4  10  19  33  54  80 109 140 180 224 269 317
#     4   8  16  32  55  83 113 142 175 218 268 321
#     4   9  18  33  54  81 110 141 179 219 265 319
#     4  10  22  39  58  79 106 140 181 227 275 323
#     4  11  22  36  55  79 110 147 183 224 273 322
#
# _framework density 17.711777000000001
#
# number of rings (size 3 to 8) (size 9 to 14) (size 15 to 20)
#    1.000    1.000    0.000    5.000    0.000    5.333 
#    0.000    0.000    0.000    1.000    0.000    7.000 
#    0.000    0.000    0.000    0.000    0.000    0.000 
#
# Total GULP energy -297505.374226 kJ/mol
# GULP energy per Si atom -12396.057259 kJ/mol
# Density = 1.767146 g / cm^3
# Si number density = 17.711777 Si / 1000 Ang^3
#
#
#
# Elastic Constant Matrix: (Units=GPa)
#
#
# Indices 1 2 3 4 5 6 
#
# 1 92.8276 50.7483 55.9553 0.0000 1.3332 0.0000
# 2 50.7483 132.9284 39.8452 0.0000 -0.1976 0.0000
# 3 55.9553 39.8452 69.7800 0.0000 3.7324 0.0000
# 4 0.0000 0.0000 0.0000 30.3969 0.0000 2.5894
# 5 1.3332 -0.1976 3.7324 0.0000 29.4517 0.0000
# 6 0.0000 0.0000 0.0000 2.5894 0.0000 24.3412
#
#
#
# Elastic Compliance Matrix: (Units=1/GPa)
#
#
# Indices 1 2 3 4 5 6 
#
# 1 0.022373 -0.003797 -0.015824 0.000000 0.000967 0.000000
# 2 -0.003797 0.009736 -0.002545 0.000000 0.000560 0.000000
# 3 -0.015824 -0.002545 0.028630 0.000000 -0.002929 0.000000
# 4 0.000000 0.000000 0.000000 0.033199 0.000000 -0.003532
# 5 0.000967 0.000560 -0.002929 0.000000 0.034285 0.000000
# 6 0.000000 0.000000 0.000000 -0.003532 0.000000 0.041458
#
#
# Mechanical properties :
#
#
# Convention : Reuss Voigt Hill
#
# Bulk Modulus (GPa) = 60.94893 65.40374 63.17634
# Shear Modulus (GPa) = 22.78091 26.77046 24.77569
#
# Velocity S-wave (km/s) = 3.59026 3.89195 3.74414
# Velocity P-wave (km/s) = 7.18838 7.56328 7.37821
#
# Compressibility (1/GPa) = 0.01640718
#
# Stress axis : x y z
#
# Youngs Moduli (GPa) = 44.69643 102.71228 34.92856
#
# Poissons Ratio (x) = 0.38996 0.55272
# Poissons Ratio (y) = 0.16970 0.08889
# Poissons Ratio (z) = 0.70730 0.26138
#
# Static dielectric constant tensor:
#      x y z
#    x 3.255020 0.000000 -0.050350 
#    y 0.000000 3.289810 0.000000 
#    z -0.050350 0.000000 3.128410 
# 
# 
# High freq. dielectric constant tensor:
#      x y z
#    x 1.674900 0.000000 -0.003750 
#    y 0.000000 1.695550 0.000000 
#    z -0.003750 0.000000 1.664700 
# 
# From -- ./inp_files/35633.got.cif
#   From: 2010.06.25/outbox.cif.g09.slc.cpg/sg10_18_cif.got.tgz:35633.got - 2010.06.27 22:07:45.
