data_PCOD8061582
_publ_section_title
;
Structure prediction by ZEFSAII (Michael W. Deem and Ramdas Pophale) SiO2 
 PCOD8061582
Probable space group: P 2/M
;
_chemical_formula_sum "Si O2"
_cell_formula_units_Z 32
_cell_length_a 30.161693
_cell_length_b 11.087271
_cell_length_c 9.261244
_cell_angle_alpha 90.000000
_cell_angle_beta 149.607465
_cell_angle_gamma 90.000000
_cell_volume 1566.869189
_symmetry_space_group_name_H-M "P 2/M"
_symmetry_group_IT_number 10
_symmetry_cell_setting 'monoclinic'
loop_
_space_group_symop_operation_xyz
x,y,z
-x,y,-z
-x,-y,-z
x,-y,z
loop_
_atom_site_type_symbol
_atom_site_label
_atom_site_fract_x
_atom_site_fract_y
_atom_site_fract_z
Si Si1 0.902975 0.863588 0.247090
Si Si2 0.429034 0.640319 0.153721
Si Si3 0.098419 0.360592 0.256938
Si Si4 0.617112 0.638773 0.595963
Si Si5 0.797324 0.213235 0.685018
Si Si6 0.689384 0.868469 0.128436
Si Si7 0.794422 0.753230 0.198878
Si Si8 0.356898 0.637377 0.642362
O O1 0.853074 0.789242 0.228772
O O2 0.000000 0.807736 0.500000
O O3 0.910035 0.000000 0.322493
O O4 0.854769 0.863575 0.957360
O O5 0.401100 0.500000 0.118361
O O6 0.534312 0.660908 0.474458
O O7 0.371815 0.748225 0.064684
O O8 0.419569 0.656985 0.955086
O O9 0.098006 0.500000 0.214440
O O10 0.140788 0.291761 0.242800
O O11 0.152625 0.343519 0.557029
O O12 0.000000 0.310963 0.000000
O O13 0.639893 0.500000 0.662667
O O14 0.593891 0.680136 0.366539
O O15 0.702481 0.705325 0.886016
O O16 0.734899 0.128647 0.412957
O O17 0.735743 0.297389 0.607256
O O18 0.766680 0.863842 0.225690
O O19 0.640820 0.000000 0.975373
O O20 0.330234 0.500000 0.552831
#
# Coordination Sequence:
#
# PCOD8061582 Si02
#       8
#     4   4   4   4   4   4   4   4
#     4  11  23  39  59  83 111 145 193 249 302 356
#     4   9  19  35  59  87 117 155 197 239 287 345
#     4  10  21  37  57  84 118 154 193 240 295 359
#     4  10  19  33  56  87 119 150 190 238 289 347
#     4  10  19  36  60  81 111 150 197 237 294 346
#     4  10  22  39  60  84 118 158 200 242 287 352
#     4  11  22  38  58  84 118 154 192 238 302 352
#     4   9  16  30  55  84 114 147 188 233 281 340
#
# _framework density 20.422892000000001
#
# number of rings (size 3 to 8) (size 9 to 14) (size 15 to 20)
#    0.000    2.000    1.250    2.625    0.000    5.500 
#    0.000    3.125    0.000   10.500    0.000    0.000 
#    0.000    0.000    0.000    0.000    0.000    0.000 
#
# Total GULP energy -396528.957531 kJ/mol
# GULP energy per Si atom -12391.529923 kJ/mol
# Density = 2.037641 g / cm^3
# Si number density = 20.422892 Si / 1000 Ang^3
#
#
#
# Elastic Constant Matrix: (Units=GPa)
#
#
# Indices 1 2 3 4 5 6 
#
# 1 122.4808 43.5281 13.6963 0.0000 14.8120 0.0000
# 2 43.5281 93.0122 28.5814 0.0000 16.9940 0.0000
# 3 13.6963 28.5814 67.4230 0.0000 13.4620 0.0000
# 4 0.0000 0.0000 0.0000 18.5714 0.0000 6.5573
# 5 14.8120 16.9940 13.4620 0.0000 33.2578 0.0000
# 6 0.0000 0.0000 0.0000 6.5573 0.0000 12.2263
#
#
#
# Elastic Compliance Matrix: (Units=1/GPa)
#
#
# Indices 1 2 3 4 5 6 
#
# 1 0.009950 -0.004313 0.000274 0.000000 -0.002338 0.000000
# 2 -0.004313 0.014903 -0.004683 0.000000 -0.003798 0.000000
# 3 0.000274 -0.004683 0.017742 0.000000 -0.004911 0.000000
# 4 0.000000 0.000000 0.000000 0.066425 0.000000 -0.035626
# 5 -0.002338 -0.003798 -0.004911 0.000000 0.035038 0.000000
# 6 0.000000 0.000000 0.000000 -0.035626 0.000000 0.100898
#
#
# Mechanical properties :
#
#
# Convention : Reuss Voigt Hill
#
# Bulk Modulus (GPa) = 39.76127 50.50305 45.13216
# Shear Modulus (GPa) = 18.46501 25.95180 22.20840
#
# Velocity S-wave (km/s) = 3.01014 3.56858 3.30119
# Velocity P-wave (km/s) = 5.62072 6.46236 6.05618
#
# Compressibility (1/GPa) = 0.02515010
#
# Stress axis : x y z
#
# Youngs Moduli (GPa) = 100.50736 67.10161 56.36454
#
# Poissons Ratio (x) = 0.28942 -0.01545
# Poissons Ratio (y) = 0.43351 0.26395
# Poissons Ratio (z) = -0.02755 0.31423
#
# Static dielectric constant tensor:
#      x y z
#    x 4.077650 0.000000 -0.100420 
#    y 0.000000 3.422890 0.000000 
#    z -0.100420 0.000000 3.823890 
# 
# 
# High freq. dielectric constant tensor:
#      x y z
#    x 1.819650 0.000000 -0.010260 
#    y 0.000000 1.773250 0.000000 
#    z -0.010260 0.000000 1.806730 
# 
# From -- ./inp_files/38245.got.cif
#   From: 2010.06.25/outbox.cif.g09.slc.cpg/sg10_20_cif.got.tgz:38245.got - 2010.06.27 22:07:45.
