data_PCOD8061293
_publ_section_title
;
Structure prediction by ZEFSAII (Michael W. Deem and Ramdas Pophale) SiO2 
 PCOD8061293
Probable space group: P 2/M
;
_chemical_formula_sum "Si O2"
_cell_formula_units_Z 28
_cell_length_a 9.539374
_cell_length_b 8.555568
_cell_length_c 26.408005
_cell_angle_alpha 90.000000
_cell_angle_beta 140.540509
_cell_angle_gamma 90.000000
_cell_volume 1369.752460
_symmetry_space_group_name_H-M "P 2/M"
_symmetry_group_IT_number 10
_symmetry_cell_setting 'monoclinic'
loop_
_space_group_symop_operation_xyz
x,y,z
-x,y,-z
-x,-y,-z
x,-y,z
loop_
_atom_site_type_symbol
_atom_site_label
_atom_site_fract_x
_atom_site_fract_y
_atom_site_fract_z
Si Si1 0.810677 0.680875 0.811998
Si Si2 0.725265 0.177952 0.683909
Si Si3 0.717598 0.685216 0.086397
Si Si4 0.929341 0.681959 0.425027
Si Si5 0.148303 0.316308 0.765626
Si Si6 0.650642 0.179279 0.497065
Si Si7 0.599927 0.181072 0.258118
O O1 0.786837 0.500000 0.819731
O O2 0.729712 0.704525 0.732021
O O3 0.659798 0.779324 0.808666
O O4 0.066092 0.737610 0.885479
O O5 0.485008 0.194355 0.592591
O O6 0.914561 0.226362 0.696183
O O7 0.765729 0.000000 0.713190
O O8 0.702603 0.500000 0.080768
O O9 0.734251 0.739972 0.149440
O O10 0.500000 0.760458 0.000000
O O11 0.870950 0.500000 0.410832
O O12 0.718216 0.772635 0.343998
O O13 0.000000 0.746814 0.500000
O O14 0.133585 0.713203 0.444483
O O15 0.102188 0.500000 0.753651
O O16 0.302348 0.277107 0.761318
O O17 0.500000 0.243860 0.500000
O O18 0.721495 0.000000 0.527183
O O19 0.631359 0.000000 0.255779
#
# Coordination Sequence:
#
# PCOD8061293 Si02
#       7
#     4   4   4   4   4   4   4
#     4  10  20  35  57  82 109 142 183 227 268 321
#     4  10  19  33  54  79 109 145 185 226 273 332
#     4   8  16  34  61  90 115 141 177 221 269 324
#     4  11  24  39  56  79 107 141 185 236 285 331
#     4  10  20  35  58  85 113 146 186 231 275 324
#     4  10  21  35  51  74 104 140 181 224 273 327
#     4  12  24  38  56  78 111 150 188 231 280 335
#
# _framework density 20.441651
#
# number of rings (size 3 to 8) (size 9 to 14) (size 15 to 20)
#    0.000    1.857    0.000    5.571    0.000    6.000 
#    0.000    0.714    0.000   19.714    0.000    0.000 
#    0.000    0.000    0.000    0.000    0.000    0.000 
#
# Total GULP energy -347234.778236 kJ/mol
# GULP energy per Si atom -12401.242080 kJ/mol
# Density = 2.039512 g / cm^3
# Si number density = 20.441651 Si / 1000 Ang^3
#
#
#
# Elastic Constant Matrix: (Units=GPa)
#
#
# Indices 1 2 3 4 5 6 
#
# 1 82.7236 -0.3430 15.6709 0.0000 16.5278 0.0000
# 2 -0.3430 55.6385 19.1979 0.0000 5.0227 0.0000
# 3 15.6709 19.1979 79.2455 0.0000 17.1215 0.0000
# 4 0.0000 0.0000 0.0000 12.2522 0.0000 5.2061
# 5 16.5278 5.0227 17.1215 0.0000 28.7987 0.0000
# 6 0.0000 0.0000 0.0000 5.2061 0.0000 28.1697
#
#
#
# Elastic Compliance Matrix: (Units=1/GPa)
#
#
# Indices 1 2 3 4 5 6 
#
# 1 0.013826 0.001247 -0.001463 0.000000 -0.007283 0.000000
# 2 0.001247 0.019737 -0.004738 0.000000 -0.001341 0.000000
# 3 -0.001463 -0.004738 0.015715 0.000000 -0.007677 0.000000
# 4 0.000000 0.000000 0.000000 0.088574 0.000000 -0.016369
# 5 -0.007283 -0.001341 -0.007677 0.000000 0.043701 0.000000
# 6 0.000000 0.000000 0.000000 -0.016369 0.000000 0.038524
#
#
# Mechanical properties :
#
#
# Convention : Reuss Voigt Hill
#
# Bulk Modulus (GPa) = 25.40003 31.85100 28.62551
# Shear Modulus (GPa) = 20.56700 26.04957 23.30828
#
# Velocity S-wave (km/s) = 3.17540 3.57366 3.38040
# Velocity P-wave (km/s) = 5.08889 5.71343 5.41018
#
# Compressibility (1/GPa) = 0.03937003
#
# Stress axis : x y z
#
# Youngs Moduli (GPa) = 72.32873 50.66663 63.63418
#
# Poissons Ratio (x) = -0.06320 0.09308
# Poissons Ratio (y) = -0.09022 0.30152
# Poissons Ratio (z) = 0.10580 0.24008
#
# Static dielectric constant tensor:
#      x y z
#    x 3.762820 0.000000 0.184550 
#    y 0.000000 3.488440 0.000000 
#    z 0.184550 0.000000 3.863200 
# 
# 
# High freq. dielectric constant tensor:
#      x y z
#    x 1.805800 0.000000 0.013910 
#    y 0.000000 1.786340 0.000000 
#    z 0.013910 0.000000 1.781240 
# 
# From -- ./inp_files/91980.got.cif
#   From: 2010.06.25/outbox.cif.g09.slc.cpg/sg10_46_cif.got.tgz:91980.got - 2010.06.27 22:07:45.
