data_PCOD8061918
_publ_section_title
;
Structure prediction by ZEFSAII (Michael W. Deem and Ramdas Pophale) SiO2 
 PCOD8061918
Probable space group: P 2/M
;
_chemical_formula_sum "Si O2"
_cell_formula_units_Z 22
_cell_length_a 5.029705
_cell_length_b 18.963648
_cell_length_c 12.920888
_cell_angle_alpha 90.000000
_cell_angle_beta 74.441483
_cell_angle_gamma 90.000000
_cell_volume 1187.255051
_symmetry_space_group_name_H-M "P 2/M"
_symmetry_group_IT_number 10
_symmetry_cell_setting 'monoclinic'
loop_
_space_group_symop_operation_xyz
x,y,z
-x,y,-z
-x,-y,-z
x,-y,z
loop_
_atom_site_type_symbol
_atom_site_label
_atom_site_fract_x
_atom_site_fract_y
_atom_site_fract_z
Si Si1 0.099264 0.500000 0.178242
Si Si2 0.500644 0.500000 0.320884
Si Si3 0.006531 0.286476 0.707824
Si Si4 0.199615 0.000000 0.574409
Si Si5 0.558790 0.650756 0.609121
Si Si6 0.807873 0.351021 0.928752
Si Si7 0.195961 0.152584 0.577252
O O1 0.373892 0.500000 0.219255
O O2 0.100064 0.430243 0.108745
O O3 0.830990 0.500000 0.279186
O O4 0.389695 0.567209 0.395548
O O5 0.828385 0.311999 0.627744
O O6 0.826719 0.296598 0.830112
O O7 0.279081 0.333332 0.701269
O O8 0.108049 0.206925 0.676263
O O9 0.500000 0.000000 0.500000
O O10 0.163381 0.075162 0.637110
O O11 0.000000 0.000000 0.500000
O O12 0.500000 0.679740 0.500000
O O13 0.500000 0.351052 0.000000
O O14 0.000000 0.322102 0.000000
O O15 0.500000 0.166981 0.500000
O O16 0.000000 0.159291 0.500000
#
# Coordination Sequence:
#
# PCOD8061918 Si02
#       7
#     2   2   4   2   4   4   4
#     4  12  22  41  59  73  98 133 183 241 292 326
#     4  12  21  39  54  75 104 141 176 221 273 322
#     4  12  23  38  55  80 110 139 183 224 269 328
#     4   8  16  30  52  82 116 144 176 204 240 308
#     4  12  23  37  55  77 109 145 177 216 266 328
#     4  12  24  40  58  77  99 136 183 238 292 323
#     4  10  19  34  56  85 116 148 173 207 256 314
#
# _framework density 18.530138000000001
#
# number of rings (size 3 to 8) (size 9 to 14) (size 15 to 20)
#    0.000    0.727    3.636    6.273    0.000    0.000 
#    0.000    2.727    0.000    0.000    0.000    1.273 
#    0.000    0.000    0.000    0.000    0.000    0.000 
#
# Total GULP energy -272727.711838 kJ/mol
# GULP energy per Si atom -12396.714174 kJ/mol
# Density = 1.848796 g / cm^3
# Si number density = 18.530138 Si / 1000 Ang^3
#
#
#
# Elastic Constant Matrix: (Units=GPa)
#
#
# Indices 1 2 3 4 5 6 
#
# 1 104.2562 30.0866 9.1185 0.0000 0.6484 0.0000
# 2 30.0866 150.5921 49.4038 0.0000 -3.6191 0.0000
# 3 9.1185 49.4038 73.5729 0.0000 -0.1181 0.0000
# 4 0.0000 0.0000 0.0000 22.1016 0.0000 -7.1318
# 5 0.6484 -3.6191 -0.1181 0.0000 30.9469 0.0000
# 6 0.0000 0.0000 0.0000 -7.1318 0.0000 24.0647
#
#
#
# Elastic Compliance Matrix: (Units=1/GPa)
#
#
# Indices 1 2 3 4 5 6 
#
# 1 0.010186 -0.002093 0.000142 0.000000 -0.000458 0.000000
# 2 -0.002093 0.008976 -0.005766 0.000000 0.001072 0.000000
# 3 0.000142 -0.005766 0.017445 0.000000 -0.000611 0.000000
# 4 0.000000 0.000000 0.000000 0.050030 0.000000 0.014827
# 5 -0.000458 0.001072 -0.000611 0.000000 0.032446 0.000000
# 6 0.000000 0.000000 0.000000 0.014827 0.000000 0.045949
#
#
# Mechanical properties :
#
#
# Convention : Reuss Voigt Hill
#
# Bulk Modulus (GPa) = 47.22844 56.18213 51.70528
# Shear Modulus (GPa) = 26.66329 31.41012 29.03671
#
# Velocity S-wave (km/s) = 3.79742 4.12161 3.96283
# Velocity P-wave (km/s) = 6.69103 7.28254 6.99304
#
# Compressibility (1/GPa) = 0.02117368
#
# Stress axis : x y z
#
# Youngs Moduli (GPa) = 98.17320 111.40835 57.32178
#
# Poissons Ratio (x) = 0.23314 -0.00814
# Poissons Ratio (y) = 0.20544 0.33053
# Poissons Ratio (z) = -0.01394 0.64241
#
# Static dielectric constant tensor:
#      x y z
#    x 3.548630 0.000000 -0.074630 
#    y 0.000000 3.714190 0.000000 
#    z -0.074630 0.000000 3.069060 
# 
# 
# High freq. dielectric constant tensor:
#      x y z
#    x 1.749720 0.000000 -0.002460 
#    y 0.000000 1.711500 0.000000 
#    z -0.002460 0.000000 1.679940 
# 
# From -- ./inp_files/39368.got.cif
#   From: 2010.06.25/outbox.cif.g09.slc.cpg/sg10_20_cif.got.tgz:39368.got - 2010.06.27 22:07:45.
