data_PCOD8061417
_publ_section_title
;
Structure prediction by ZEFSAII (Michael W. Deem and Ramdas Pophale) SiO2 
 PCOD8061417
Probable space group: P 2/M
;
_chemical_formula_sum "Si O2"
_cell_formula_units_Z 28
_cell_length_a 31.638245
_cell_length_b 8.527438
_cell_length_c 31.638156
_cell_angle_alpha 90.000000
_cell_angle_beta 9.452155
_cell_angle_gamma 90.000000
_cell_volume 1401.775956
_symmetry_space_group_name_H-M "P 2/M"
_symmetry_group_IT_number 10
_symmetry_cell_setting 'monoclinic'
loop_
_space_group_symop_operation_xyz
x,y,z
-x,y,-z
-x,-y,-z
x,-y,z
loop_
_atom_site_type_symbol
_atom_site_label
_atom_site_fract_x
_atom_site_fract_y
_atom_site_fract_z
Si Si1 0.381972 0.185850 0.382153
Si Si2 0.762067 0.186973 0.762071
Si Si3 0.523457 0.814302 0.523916
Si Si4 0.809864 0.187034 0.810084
Si Si5 0.333940 0.813176 0.334163
Si Si6 0.095646 0.683881 0.095448
Si Si7 0.951335 0.813728 0.950760
O O1 0.358023 0.250105 0.358064
O O2 0.143371 0.244349 0.644313
O O3 0.382257 0.000000 0.382500
O O4 0.644085 0.244329 0.143616
O O5 0.786018 0.251856 0.786021
O O6 0.000000 0.251647 0.500000
O O7 0.762153 0.000000 0.762148
O O8 0.500000 0.251644 0.000000
O O9 0.500000 0.742004 0.500000
O O10 0.787325 0.756752 0.284735
O O11 0.522203 0.000000 0.522091
O O12 0.283795 0.756887 0.788163
O O13 0.071708 0.252122 0.572394
O O14 0.809800 0.000000 0.810030
O O15 0.572055 0.252129 0.072019
O O16 0.333749 0.000000 0.333946
O O17 0.099058 0.500000 0.098804
O O18 0.071046 0.724360 0.070865
O O19 0.947414 0.000000 0.946752
#
# Coordination Sequence:
#
# PCOD8061417 Si02
#       7
#     4   4   4   4   4   4   4
#     4  11  22  39  61  83 108 143 192 238 280 336
#     4   9  15  21  30  47  76 118 163 201 241 301
#     4   9  17  30  52  82 110 137 178 230 272 309
#     4   9  15  24  37  57  86 118 161 215 262 303
#     4   9  17  28  45  67  89 119 165 223 270 307
#     4  12  25  40  58  84 118 151 185 230 287 339
#     4  10  19  33  55  80 108 145 186 224 266 321
#
# _framework density 19.97466
#
# number of rings (size 3 to 8) (size 9 to 14) (size 15 to 20)
#    0.000    2.143    0.000    4.714    0.000    8.571 
#    0.000    0.000    0.000    2.571    0.000    0.000 
#    0.000    0.000    0.000    0.000    0.000  180.000 
#
# Total GULP energy -347249.793640 kJ/mol
# GULP energy per Si atom -12401.778344 kJ/mol
# Density = 1.992920 g / cm^3
# Si number density = 19.974660 Si / 1000 Ang^3
#
#
#
# Elastic Constant Matrix: (Units=GPa)
#
#
# Indices 1 2 3 4 5 6 
#
# 1 209.4273 22.2741 115.4583 0.0000 -0.3715 0.0000
# 2 22.2741 38.6920 20.8129 0.0000 0.1291 0.0000
# 3 115.4583 20.8129 225.5513 0.0000 -1.7258 0.0000
# 4 0.0000 0.0000 0.0000 8.2424 0.0000 -1.1617
# 5 -0.3715 0.1291 -1.7258 0.0000 47.3569 0.0000
# 6 0.0000 0.0000 0.0000 -1.1617 0.0000 -4.9896
#
#
#
# Elastic Compliance Matrix: (Units=1/GPa)
#
#
# Indices 1 2 3 4 5 6 
#
# 1 0.006819 -0.002154 -0.003292 0.000000 -0.000061 0.000000
# 2 -0.002154 0.027877 -0.001471 0.000000 -0.000146 0.000000
# 3 -0.003292 -0.001471 0.006256 0.000000 0.000206 0.000000
# 4 0.000000 0.000000 0.000000 0.117469 0.000000 -0.027351
# 5 -0.000061 -0.000146 0.000206 0.000000 0.021124 0.000000
# 6 0.000000 0.000000 0.000000 -0.027351 0.000000 -0.194049
#
#
# Mechanical properties :
#
#
# Convention : Reuss Voigt Hill
#
# Bulk Modulus (GPa) = 36.87660 87.86236 62.36948
# Shear Modulus (GPa) = 597.40550 31.13030 314.26790
#
# Velocity S-wave (km/s) = 17.31274 3.95205 12.55686
# Velocity P-wave (km/s) = 20.44855 8.05651 15.54108
#
# Compressibility (1/GPa) = 0.02711747
#
# Stress axis : x y z
#
# Youngs Moduli (GPa) = 146.64916 35.87190 159.84248
#
# Poissons Ratio (x) = 0.07728 0.52624
# Poissons Ratio (y) = 0.31594 0.23508
# Poissons Ratio (z) = 0.48281 0.05276
#
# Static dielectric constant tensor:
#      x y z
#    x 3.944170 0.000000 -0.001240 
#    y 0.000000 2.988050 0.000000 
#    z -0.001240 0.000000 3.959920 
# 
# 
# High freq. dielectric constant tensor:
#      x y z
#    x 1.802050 0.000000 -0.000050 
#    y 0.000000 1.714730 0.000000 
#    z -0.000050 0.000000 1.802610 
# 
# From -- ./inp_files/13595.got.cif
#   From: 2010.06.25/outbox.cif.g09.slc.cpg/sg10_7_cif.got.tgz:13595.got - 2010.06.27 22:07:45.
