data_PCOD8061181
_publ_section_title
;
Structure prediction by ZEFSAII (Michael W. Deem and Ramdas Pophale) SiO2 
 PCOD8061181
Probable space group: P 2/M
;
_chemical_formula_sum "Si O2"
_cell_formula_units_Z 28
_cell_length_a 30.303646
_cell_length_b 7.878262
_cell_length_c 10.346919
_cell_angle_alpha 90.000000
_cell_angle_beta 142.083727
_cell_angle_gamma 90.000000
_cell_volume 1517.975650
_symmetry_space_group_name_H-M "P 2/M"
_symmetry_group_IT_number 10
_symmetry_cell_setting 'monoclinic'
loop_
_space_group_symop_operation_xyz
x,y,z
-x,y,-z
-x,-y,-z
x,-y,z
loop_
_atom_site_type_symbol
_atom_site_label
_atom_site_fract_x
_atom_site_fract_y
_atom_site_fract_z
Si Si1 0.114291 0.000000 0.321506
Si Si2 0.795985 0.304603 0.368099
Si Si3 0.801431 0.694317 0.086848
Si Si4 0.967810 0.000000 0.130114
Si Si5 0.646677 0.805473 0.003083
Si Si6 0.501049 0.697283 0.357940
Si Si7 0.061920 0.303967 0.748062
Si Si8 0.650457 0.802646 0.716389
O O1 0.158776 0.825464 0.441176
O O2 0.049177 0.000000 0.270606
O O3 0.088565 0.000000 0.115583
O O4 0.823402 0.500000 0.446968
O O5 0.800623 0.232482 0.231160
O O6 0.712012 0.298657 0.219205
O O7 0.820071 0.500000 0.145017
O O8 0.865072 0.771196 0.147216
O O9 0.724919 0.721440 0.837450
O O10 0.957071 0.824487 0.181726
O O11 0.667898 0.000000 0.064866
O O12 0.567169 0.772090 0.880423
O O13 0.641147 0.743035 0.842334
O O14 0.500000 0.778569 0.500000
O O15 0.489140 0.500000 0.335993
O O16 0.578736 0.741575 0.473345
O O17 0.070180 0.500000 0.817907
O O18 0.000000 0.296532 0.500000
O O19 0.659036 0.000000 0.719207
#
# Coordination Sequence:
#
# PCOD8061181 Si02
#       8
#     2   4   4   2   4   4   4   4
#     4  11  24  40  54  78 102 135 177 211 252 307
#     4  10  19  33  53  76 105 139 174 214 257 300
#     4   9  18  30  49  75 103 134 171 212 256 311
#     4  11  25  40  58  78 106 136 170 211 257 306
#     4   9  15  25  40  62  94 130 173 213 245 295
#     4   9  15  22  33  53  89 134 173 205 244 295
#     4  10  21  38  59  84 108 134 168 209 258 311
#     4   9  16  23  36  60  93 133 170 204 249 301
#
# _framework density 18.445618
#
# number of rings (size 3 to 8) (size 9 to 14) (size 15 to 20)
#    0.000    2.429    0.714    2.357    2.000    7.429 
#    0.000    1.429    0.000    0.000    0.000    0.000 
#    0.000    2.286    0.000    6.000    0.000    1.857 
#
# Total GULP energy -346924.339905 kJ/mol
# GULP energy per Si atom -12390.154997 kJ/mol
# Density = 1.840363 g / cm^3
# Si number density = 18.445618 Si / 1000 Ang^3
#
#
#
# Elastic Constant Matrix: (Units=GPa)
#
#
# Indices 1 2 3 4 5 6 
#
# 1 61.5447 27.9215 52.0681 0.0000 23.1939 0.0000
# 2 27.9215 91.3426 44.9039 0.0000 5.6196 0.0000
# 3 52.0681 44.9039 100.3215 0.0000 29.8954 0.0000
# 4 0.0000 0.0000 0.0000 21.1405 0.0000 13.6348
# 5 23.1939 5.6196 29.8954 0.0000 31.0934 0.0000
# 6 0.0000 0.0000 0.0000 13.6348 0.0000 16.3239
#
#
#
# Elastic Compliance Matrix: (Units=1/GPa)
#
#
# Indices 1 2 3 4 5 6 
#
# 1 0.032169 -0.003428 -0.011487 0.000000 -0.012333 0.000000
# 2 -0.003428 0.014958 -0.006829 0.000000 0.006419 0.000000
# 3 -0.011487 -0.006829 0.022517 0.000000 -0.011846 0.000000
# 4 0.000000 0.000000 0.000000 0.102546 0.000000 -0.085653
# 5 -0.012333 0.006419 -0.011846 0.000000 0.051590 0.000000
# 6 0.000000 0.000000 0.000000 -0.085653 0.000000 0.132804
#
#
# Mechanical properties :
#
#
# Convention : Reuss Voigt Hill
#
# Bulk Modulus (GPa) = 38.23171 55.88843 47.06007
# Shear Modulus (GPa) = 12.23122 22.26590 17.24856
#
# Velocity S-wave (km/s) = 2.57786 3.47812 3.06126
# Velocity P-wave (km/s) = 5.44355 6.81869 6.16955
#
# Compressibility (1/GPa) = 0.02615630
#
# Stress axis : x y z
#
# Youngs Moduli (GPa) = 31.08546 66.85475 44.41156
#
# Poissons Ratio (x) = 0.22916 0.51015
# Poissons Ratio (y) = 0.10655 0.30329
# Poissons Ratio (z) = 0.35708 0.45655
#
# Static dielectric constant tensor:
#      x y z
#    x 3.292060 0.000000 0.597970 
#    y 0.000000 3.342250 0.000000 
#    z 0.597970 0.000000 3.396700 
# 
# 
# High freq. dielectric constant tensor:
#      x y z
#    x 1.669640 0.000000 0.064720 
#    y 0.000000 1.726060 0.000000 
#    z 0.064720 0.000000 1.696330 
# 
# From -- ./inp_files/37361.got.cif
#   From: 2010.06.25/outbox.cif.g09.slc.cpg/sg10_19_cif.got.tgz:37361.got - 2010.06.27 22:07:45.
