data_PCOD8061873
_publ_section_title
;
Structure prediction by ZEFSAII (Michael W. Deem and Ramdas Pophale) SiO2 
 PCOD8061873
Probable space group: P 2/M
;
_chemical_formula_sum "Si O2"
_cell_formula_units_Z 32
_cell_length_a 16.258959
_cell_length_b 19.156672
_cell_length_c 10.067844
_cell_angle_alpha 90.000000
_cell_angle_beta 36.148945
_cell_angle_gamma 90.000000
_cell_volume 1849.769598
_symmetry_space_group_name_H-M "P 2/M"
_symmetry_group_IT_number 10
_symmetry_cell_setting 'monoclinic'
loop_
_space_group_symop_operation_xyz
x,y,z
-x,y,-z
-x,-y,-z
x,-y,z
loop_
_atom_site_type_symbol
_atom_site_label
_atom_site_fract_x
_atom_site_fract_y
_atom_site_fract_z
Si Si1 0.638727 0.669440 0.992960
Si Si2 0.368320 0.830569 0.992952
Si Si3 0.686574 0.830322 0.640793
Si Si4 0.354228 0.081854 0.754640
Si Si5 0.672634 0.330322 0.640815
Si Si6 0.108874 0.418148 0.245368
Si Si7 0.928441 0.419533 0.231056
Si Si8 0.159537 0.080453 0.768886
O O1 0.662480 0.750005 0.999966
O O2 0.476301 0.652262 0.233687
O O3 0.667849 0.652405 0.802101
O O4 0.743964 0.622163 0.940569
O O5 0.530075 0.847587 0.802035
O O6 0.315472 0.877844 0.940564
O O7 0.290038 0.847763 0.233653
O O8 0.715571 0.749998 0.568903
O O9 0.792974 0.876958 0.420766
O O10 0.500000 0.106034 0.500000
O O11 0.237566 0.102947 0.800912
O O12 0.356186 0.000000 0.785623
O O13 0.786241 0.376977 0.420842
O O14 0.141822 0.500000 0.214431
O O15 0.000000 0.393955 0.500000
O O16 0.038480 0.397083 0.199093
O O17 0.887410 0.500000 0.301548
O O18 0.000000 0.402742 0.000000
O O19 0.189218 0.000000 0.698128
O O20 0.000000 0.097134 0.000000
#
# Coordination Sequence:
#
# PCOD8061873 Si02
#       8
#     4   4   4   4   4   4   4   4
#     4   9  18  34  54  80 109 136 175 228 267 309
#     4   9  18  34  54  80 109 136 175 228 267 309
#     4   9  18  34  55  77 106 141 177 219 268 316
#     4  10  19  34  56  80 106 139 180 221 261 313
#     4   9  18  34  55  77 106 141 177 219 268 316
#     4  10  19  34  56  80 106 139 180 221 261 313
#     4  10  21  37  54  76 109 142 175 221 269 316
#     4  10  21  37  54  76 109 142 175 221 269 316
#
# _framework density 17.299451999999999
#
# number of rings (size 3 to 8) (size 9 to 14) (size 15 to 20)
#    0.000    2.500    2.500    1.500    0.000    1.500 
#    4.500    3.750    0.000    4.500    0.000    0.000 
#    0.000    0.000    0.000    0.000    0.000    0.000 
#
# Total GULP energy -396777.081700 kJ/mol
# GULP energy per Si atom -12399.283803 kJ/mol
# Density = 1.726008 g / cm^3
# Si number density = 17.299452 Si / 1000 Ang^3
#
#
#
# Elastic Constant Matrix: (Units=GPa)
#
#
# Indices 1 2 3 4 5 6 
#
# 1 125.2573 59.6855 77.9886 0.0000 0.0846 0.0000
# 2 59.6855 72.2767 63.0405 0.0000 -0.1082 0.0000
# 3 77.9886 63.0405 71.5979 0.0000 3.0581 0.0000
# 4 0.0000 0.0000 0.0000 17.8454 0.0000 -0.1899
# 5 0.0846 -0.1082 3.0581 0.0000 23.6290 0.0000
# 6 0.0000 0.0000 0.0000 -0.1899 0.0000 13.7263
#
#
#
# Elastic Compliance Matrix: (Units=1/GPa)
#
#
# Indices 1 2 3 4 5 6 
#
# 1 0.028970 0.016512 -0.046349 0.000000 0.005970 0.000000
# 2 0.016512 0.070250 -0.080295 0.000000 0.010654 0.000000
# 3 -0.046349 -0.080295 0.135910 0.000000 -0.017791 0.000000
# 4 0.000000 0.000000 0.000000 0.056045 0.000000 0.000775
# 5 0.005970 0.010654 -0.017791 0.000000 0.044651 0.000000
# 6 0.000000 0.000000 0.000000 0.000775 0.000000 0.072864
#
#
# Mechanical properties :
#
#
# Convention : Reuss Voigt Hill
#
# Bulk Modulus (GPa) = 67.26256 74.50678 70.88467
# Shear Modulus (GPa) = 7.88758 15.60129 11.74444
#
# Velocity S-wave (km/s) = 2.13760 3.00632 2.60838
# Velocity P-wave (km/s) = 6.71254 7.43054 7.08065
#
# Compressibility (1/GPa) = 0.01486711
#
# Stress axis : x y z
#
# Youngs Moduli (GPa) = 34.51906 14.23491 7.35779
#
# Poissons Ratio (x) = -0.23505 0.34103
# Poissons Ratio (y) = -0.56998 0.59079
# Poissons Ratio (z) = 1.59992 1.14299
#
# Static dielectric constant tensor:
#      x y z
#    x 3.285270 0.000000 0.005850 
#    y 0.000000 3.132000 0.000000 
#    z 0.005850 0.000000 3.181740 
# 
# 
# High freq. dielectric constant tensor:
#      x y z
#    x 1.667120 0.000000 0.000340 
#    y 0.000000 1.662570 0.000000 
#    z 0.000340 0.000000 1.660830 
# 
# From -- ./inp_files/30297.got.cif
#   From: 2010.06.25/outbox.cif.g09.slc.cpg/sg10_16_cif.got.tgz:30297.got - 2010.06.27 22:07:45.
