data_PCOD8061120
_publ_section_title
;
Structure prediction by ZEFSAII (Michael W. Deem and Ramdas Pophale) SiO2 
 PCOD8061120
Probable space group: P 2/M
;
_chemical_formula_sum "Si O2"
_cell_formula_units_Z 22
_cell_length_a 9.544836
_cell_length_b 25.338047
_cell_length_c 8.684708
_cell_angle_alpha 90.000000
_cell_angle_beta 32.036485
_cell_angle_gamma 90.000000
_cell_volume 1114.163171
_symmetry_space_group_name_H-M "P 2/M"
_symmetry_group_IT_number 10
_symmetry_cell_setting 'monoclinic'
loop_
_space_group_symop_operation_xyz
x,y,z
-x,y,-z
-x,-y,-z
x,-y,z
loop_
_atom_site_type_symbol
_atom_site_label
_atom_site_fract_x
_atom_site_fract_y
_atom_site_fract_z
Si Si1 0.230505 0.000000 0.663903
Si Si2 0.463601 0.390877 0.852813
Si Si3 0.772920 0.885919 0.335962
Si Si4 0.054055 0.789200 0.629872
Si Si5 0.951260 0.560986 0.218209
Si Si6 0.449356 0.727265 0.866777
O O1 0.500000 0.000000 0.500000
O O2 0.223805 0.056269 0.580042
O O3 0.000000 0.000000 0.000000
O O4 0.724077 0.406858 0.516459
O O5 0.384436 0.331969 0.871119
O O6 0.500000 0.391700 0.000000
O O7 0.228372 0.431713 0.044925
O O8 0.500000 0.874221 0.500000
O O9 0.842599 0.844643 0.403323
O O10 0.000000 0.883359 0.000000
O O11 0.280213 0.746948 0.461679
O O12 0.000000 0.796370 0.500000
O O13 0.788812 0.766872 0.957243
O O14 0.867334 0.500000 0.296811
O O15 0.000000 0.581922 0.000000
O O16 0.500000 0.727378 0.000000
#
# Coordination Sequence:
#
# PCOD8061120 Si02
#       6
#     2   4   4   4   4   4
#     4   8  16  30  49  70  99 138 172 210 264 316
#     4  11  22  39  63  86 108 143 193 234 262 317
#     4  10  19  33  52  76 104 136 177 220 262 310
#     4  10  19  34  54  76 105 141 175 213 268 324
#     4  11  24  41  59  83 118 151 176 218 286 341
#     4   9  19  35  55  78 107 141 175 216 270 321
#
# _framework density 19.745761000000002
#
# number of rings (size 3 to 8) (size 9 to 14) (size 15 to 20)
#    0.000    2.000    0.000    3.818    0.000    6.545 
#    0.000    9.545    0.000    0.000    0.000   11.455 
#    0.000    0.000    0.000    0.000    0.000    0.000 
#
# Total GULP energy -272616.989785 kJ/mol
# GULP energy per Si atom -12391.681354 kJ/mol
# Density = 1.970082 g / cm^3
# Si number density = 19.745761 Si / 1000 Ang^3
#
#
#
# Elastic Constant Matrix: (Units=GPa)
#
#
# Indices 1 2 3 4 5 6 
#
# 1 61.3911 51.0963 41.5908 0.0000 -11.4107 0.0000
# 2 51.0963 116.5973 41.2737 0.0000 4.5341 0.0000
# 3 41.5908 41.2737 137.1413 0.0000 -18.5879 0.0000
# 4 0.0000 0.0000 0.0000 33.3721 0.0000 -3.5440
# 5 -11.4107 4.5341 -18.5879 0.0000 28.4689 0.0000
# 6 0.0000 0.0000 0.0000 -3.5440 0.0000 32.6953
#
#
#
# Elastic Compliance Matrix: (Units=1/GPa)
#
#
# Indices 1 2 3 4 5 6 
#
# 1 0.032407 -0.013203 -0.004179 0.000000 0.012364 0.000000
# 2 -0.013203 0.015357 -0.001828 0.000000 -0.008932 0.000000
# 3 -0.004179 -0.001828 0.009788 0.000000 0.005007 0.000000
# 4 0.000000 0.000000 0.000000 0.030314 0.000000 0.003286
# 5 0.012364 -0.008932 0.005007 0.000000 0.044773 0.000000
# 6 0.000000 0.000000 0.000000 0.003286 0.000000 0.030942
#
#
# Mechanical properties :
#
#
# Convention : Reuss Voigt Hill
#
# Bulk Modulus (GPa) = 52.26952 64.78345 58.52649
# Shear Modulus (GPa) = 23.99472 30.98519 27.48995
#
# Velocity S-wave (km/s) = 3.48973 3.96562 3.73526
# Velocity P-wave (km/s) = 6.53960 7.33813 6.95034
#
# Compressibility (1/GPa) = 0.01913161
#
# Stress axis : x y z
#
# Youngs Moduli (GPa) = 30.85727 65.11635 102.16711
#
# Poissons Ratio (x) = 0.85976 0.42693
# Poissons Ratio (y) = 0.40742 0.18679
# Poissons Ratio (z) = 0.12894 0.11905
#
# Static dielectric constant tensor:
#      x y z
#    x 3.311890 0.000000 -0.175060 
#    y 0.000000 4.537180 0.000000 
#    z -0.175060 0.000000 3.789360 
# 
# 
# High freq. dielectric constant tensor:
#      x y z
#    x 1.738910 0.000000 -0.022520 
#    y 0.000000 1.786300 0.000000 
#    z -0.022520 0.000000 1.785540 
# 
# From -- ./inp_files/20885.got.cif
#   From: 2010.06.25/outbox.cif.g09.slc.cpg/sg10_11_cif.got.tgz:20885.got - 2010.06.27 22:07:45.
