data_PCOD8061176
_publ_section_title
;
Structure prediction by ZEFSAII (Michael W. Deem and Ramdas Pophale) SiO2 
 PCOD8061176
Probable space group: P 2/M
;
_chemical_formula_sum "Si O2"
_cell_formula_units_Z 28
_cell_length_a 9.690674
_cell_length_b 17.463564
_cell_length_c 15.706951
_cell_angle_alpha 90.000000
_cell_angle_beta 37.214697
_cell_angle_gamma 90.000000
_cell_volume 1607.655485
_symmetry_space_group_name_H-M "P 2/M"
_symmetry_group_IT_number 10
_symmetry_cell_setting 'monoclinic'
loop_
_space_group_symop_operation_xyz
x,y,z
-x,y,-z
-x,-y,-z
x,-y,z
loop_
_atom_site_type_symbol
_atom_site_label
_atom_site_fract_x
_atom_site_fract_y
_atom_site_fract_z
Si Si1 0.065065 0.368429 0.104411
Si Si2 0.248521 0.912955 0.340902
Si Si3 0.129092 0.500000 0.699960
Si Si4 0.369079 0.631375 0.803598
Si Si5 0.757814 0.912044 0.847019
Si Si6 0.434180 0.500000 0.393195
Si Si7 0.043769 0.196167 0.116161
Si Si8 0.630694 0.196370 0.201261
O O1 0.088531 0.282232 0.128337
O O2 0.025939 0.425598 0.202949
O O3 0.852531 0.371655 0.145941
O O4 0.289891 0.391706 0.938616
O O5 0.227298 0.881601 0.255977
O O6 0.420567 0.861712 0.311558
O O7 0.000000 0.907008 0.500000
O O8 0.341544 0.000000 0.296220
O O9 0.203898 0.500000 0.563718
O O10 0.350990 0.500000 0.649895
O O11 0.559460 0.574055 0.672033
O O12 0.468155 0.717354 0.755086
O O13 0.927377 0.862257 0.820856
O O14 0.836146 0.000000 0.816817
O O15 0.500000 0.899800 0.000000
O O16 0.786392 0.186793 0.208432
O O17 0.221643 0.176572 0.954392
#
# Coordination Sequence:
#
# PCOD8061176 Si02
#       8
#     4   4   2   4   4   2   4   4
#     4   8  14  25  41  63  93 125 156 196 243 287
#     4  10  21  37  53  71 100 136 169 201 244 302
#     4   9  15  23  37  61  95 127 155 193 243 285
#     4   8  14  25  42  63  90 125 162 196 235 286
#     4  10  19  33  53  76 100 128 167 209 246 290
#     4   9  15  23  37  61  93 127 161 194 231 284
#     4   9  17  30  51  79 103 125 164 214 253 287
#     4   9  17  31  51  76 103 130 165 208 251 293
#
# _framework density 17.416665999999999
#
# number of rings (size 3 to 8) (size 9 to 14) (size 15 to 20)
#    0.000    3.000    1.429    2.143    0.000    2.286 
#    2.571    2.143    0.000    2.571    0.000    2.000 
#    0.000    0.000    0.000    0.000    0.000    0.000 
#
# Total GULP energy -347076.160100 kJ/mol
# GULP energy per Si atom -12395.577146 kJ/mol
# Density = 1.737702 g / cm^3
# Si number density = 17.416666 Si / 1000 Ang^3
#
#
#
# Elastic Constant Matrix: (Units=GPa)
#
#
# Indices 1 2 3 4 5 6 
#
# 1 53.0409 44.7026 28.3128 0.0000 5.9387 0.0000
# 2 44.7026 108.1522 47.1292 0.0000 3.7295 0.0000
# 3 28.3128 47.1292 79.0594 0.0000 16.4822 0.0000
# 4 0.0000 0.0000 0.0000 24.4054 0.0000 4.3590
# 5 5.9387 3.7295 16.4822 0.0000 17.5237 0.0000
# 6 0.0000 0.0000 0.0000 4.3590 0.0000 3.9533
#
#
#
# Elastic Compliance Matrix: (Units=1/GPa)
#
#
# Indices 1 2 3 4 5 6 
#
# 1 0.030404 -0.010934 -0.003368 0.000000 -0.004809 0.000000
# 2 -0.010934 0.016848 -0.007654 0.000000 0.007319 0.000000
# 3 -0.003368 -0.007654 0.022192 0.000000 -0.018102 0.000000
# 4 0.000000 0.000000 0.000000 0.051023 0.000000 -0.056258
# 5 -0.004809 0.007319 -0.018102 0.000000 0.074164 0.000000
# 6 0.000000 0.000000 0.000000 -0.056258 0.000000 0.314984
#
#
# Mechanical properties :
#
#
# Convention : Reuss Voigt Hill
#
# Bulk Modulus (GPa) = 39.16492 53.39353 46.27922
# Shear Modulus (GPa) = 8.89620 17.18366 13.03993
#
# Velocity S-wave (km/s) = 2.26251 3.14446 2.73921
# Velocity P-wave (km/s) = 5.41859 6.62621 6.05259
#
# Compressibility (1/GPa) = 0.02553306
#
# Stress axis : x y z
#
# Youngs Moduli (GPa) = 32.88996 59.35301 45.06222
#
# Poissons Ratio (x) = 0.64894 0.15178
# Poissons Ratio (y) = 0.35960 0.34490
# Poissons Ratio (z) = 0.11078 0.45428
#
# Static dielectric constant tensor:
#      x y z
#    x 2.823250 0.000000 0.170290 
#    y 0.000000 3.440250 0.000000 
#    z 0.170290 0.000000 3.229310 
# 
# 
# High freq. dielectric constant tensor:
#      x y z
#    x 1.627950 0.000000 0.014470 
#    y 0.000000 1.679980 0.000000 
#    z 0.014470 0.000000 1.659420 
# 
# From -- ./inp_files/62350.got.cif
#   From: 2010.06.25/outbox.cif.g09.slc.cpg/sg10_32_cif.got.tgz:62350.got - 2010.06.27 22:07:45.
