data_PCOD8061547
_publ_section_title
;
Structure prediction by ZEFSAII (Michael W. Deem and Ramdas Pophale) SiO2 
 PCOD8061547
Probable space group: P 2/M
;
_chemical_formula_sum "Si O2"
_cell_formula_units_Z 32
_cell_length_a 14.313369
_cell_length_b 9.055728
_cell_length_c 12.502416
_cell_angle_alpha 90.000000
_cell_angle_beta 94.732022
_cell_angle_gamma 90.000000
_cell_volume 1615.014156
_symmetry_space_group_name_H-M "P 2/M"
_symmetry_group_IT_number 10
_symmetry_cell_setting 'monoclinic'
loop_
_space_group_symop_operation_xyz
x,y,z
-x,y,-z
-x,-y,-z
x,-y,z
loop_
_atom_site_type_symbol
_atom_site_label
_atom_site_fract_x
_atom_site_fract_y
_atom_site_fract_z
Si Si1 0.678632 0.824801 0.265212
Si Si2 0.597774 0.327759 0.456056
Si Si3 0.863268 0.672328 0.238782
Si Si4 0.740864 0.174533 0.858989
Si Si5 0.891893 0.670187 0.998442
Si Si6 0.961771 0.325468 0.608020
Si Si7 0.754861 0.673472 0.643082
Si Si8 0.603236 0.824495 0.030456
O O1 0.608864 0.764477 0.348715
O O2 0.783052 0.761655 0.293567
O O3 0.640890 0.766350 0.147574
O O4 0.681743 0.000000 0.271326
O O5 0.500000 0.279259 0.500000
O O6 0.596488 0.500000 0.426968
O O7 0.684295 0.288496 0.541040
O O8 0.846927 0.500000 0.260091
O O9 0.965398 0.719908 0.292101
O O10 0.856776 0.710778 0.113387
O O11 0.842971 0.227464 0.906207
O O12 0.714833 0.245454 0.743503
O O13 0.738792 0.000000 0.847483
O O14 0.667837 0.233871 0.940382
O O15 0.871407 0.500000 0.968513
O O16 0.000000 0.706388 0.000000
O O17 0.952587 0.500000 0.596680
O O18 0.858286 0.262836 0.624477
O O19 0.000000 0.258993 0.500000
O O20 0.758160 0.500000 0.667163
O O21 0.602281 0.000000 0.031157
O O22 0.500000 0.760110 0.000000
#
# Coordination Sequence:
#
# PCOD8061547 Si02
#       8
#     4   4   4   4   4   4   4   4
#     4  11  22  38  62  88 117 152 195 241 290 353
#     4  10  23  42  63  88 119 153 192 245 300 346
#     4  10  19  33  56  83 113 148 189 238 286 337
#     4  11  22  37  59  86 120 154 193 243 294 347
#     4  10  20  35  56  82 115 157 201 238 281 345
#     4   9  17  32  57  84 108 147 196 235 281 341
#     4  10  21  39  61  85 118 154 194 240 290 355
#     4   9  20  38  58  82 114 155 195 236 288 347
#
# _framework density 19.814067999999999
#
# number of rings (size 3 to 8) (size 9 to 14) (size 15 to 20)
#    0.000    2.000    1.250    2.250    1.750    5.000 
#    0.000    1.875    0.000    4.500    0.000    0.000 
#    0.000    0.000    0.000    0.000    0.000    0.000 
#
# Total GULP energy -396903.245214 kJ/mol
# GULP energy per Si atom -12403.226413 kJ/mol
# Density = 1.976897 g / cm^3
# Si number density = 19.814068 Si / 1000 Ang^3
#
#
#
# Elastic Constant Matrix: (Units=GPa)
#
#
# Indices 1 2 3 4 5 6 
#
# 1 131.4759 33.6599 57.0495 0.0000 -8.5023 0.0000
# 2 33.6599 46.2191 40.4472 0.0000 -5.2704 0.0000
# 3 57.0495 40.4472 115.9291 0.0000 -13.5966 0.0000
# 4 0.0000 0.0000 0.0000 29.3558 0.0000 -6.6697
# 5 -8.5023 -5.2704 -13.5966 0.0000 34.5430 0.0000
# 6 0.0000 0.0000 0.0000 -6.6697 0.0000 16.3705
#
#
#
# Elastic Compliance Matrix: (Units=1/GPa)
#
#
# Indices 1 2 3 4 5 6 
#
# 1 0.010264 -0.004389 -0.003461 0.000000 0.000494 0.000000
# 2 -0.004389 0.033031 -0.009331 0.000000 0.000287 0.000000
# 3 -0.003461 -0.009331 0.013963 0.000000 0.003220 0.000000
# 4 0.000000 0.000000 0.000000 0.037540 0.000000 0.015295
# 5 0.000494 0.000287 0.003220 0.000000 0.030382 0.000000
# 6 0.000000 0.000000 0.000000 0.015295 0.000000 0.067317
#
#
# Mechanical properties :
#
#
# Convention : Reuss Voigt Hill
#
# Bulk Modulus (GPa) = 43.67932 61.77081 52.72507
# Shear Modulus (GPa) = 21.32288 26.88504 24.10396
#
# Velocity S-wave (km/s) = 3.28403 3.68756 3.49163
# Velocity P-wave (km/s) = 6.03923 7.02664 6.55156
#
# Compressibility (1/GPa) = 0.02289413
#
# Stress axis : x y z
#
# Youngs Moduli (GPa) = 97.43194 30.27490 71.62027
#
# Poissons Ratio (x) = 0.13288 0.24791
# Poissons Ratio (y) = 0.42764 0.66827
# Poissons Ratio (z) = 0.33726 0.28249
#
# Static dielectric constant tensor:
#      x y z
#    x 3.754930 0.000000 -0.050790 
#    y 0.000000 3.225270 0.000000 
#    z -0.050790 0.000000 3.746790 
# 
# 
# High freq. dielectric constant tensor:
#      x y z
#    x 1.783910 0.000000 -0.002510 
#    y 0.000000 1.736570 0.000000 
#    z -0.002510 0.000000 1.784610 
# 
# From -- ./inp_files/49816.got.cif
#   From: 2010.06.25/outbox.cif.g09.slc.cpg/sg10_25_cif.got.tgz:49816.got - 2010.06.27 22:07:45.
