data_PCOD8061279
_publ_section_title
;
Structure prediction by ZEFSAII (Michael W. Deem and Ramdas Pophale) SiO2 
 PCOD8061279
Probable space group: P 2/M
;
_chemical_formula_sum "Si O2"
_cell_formula_units_Z 32
_cell_length_a 28.914889
_cell_length_b 9.094691
_cell_length_c 12.034339
_cell_angle_alpha 90.000000
_cell_angle_beta 149.131837
_cell_angle_gamma 90.000000
_cell_volume 1623.691747
_symmetry_space_group_name_H-M "P 2/M"
_symmetry_group_IT_number 10
_symmetry_cell_setting 'monoclinic'
loop_
_space_group_symop_operation_xyz
x,y,z
-x,y,-z
-x,-y,-z
x,-y,z
loop_
_atom_site_type_symbol
_atom_site_label
_atom_site_fract_x
_atom_site_fract_y
_atom_site_fract_z
Si Si1 0.670936 0.828822 0.117685
Si Si2 0.504090 0.824800 0.634765
Si Si3 0.077039 0.831084 0.067863
Si Si4 0.829978 0.829438 0.283752
Si Si5 0.329461 0.172759 0.409066
Si Si6 0.275358 0.827296 0.537102
Si Si7 0.990635 0.332754 0.284073
Si Si8 0.192263 0.667053 0.979360
O O1 0.767337 0.801722 0.260459
O O2 0.677622 0.758041 0.255542
O O3 0.648085 0.000000 0.079527
O O4 0.591031 0.758171 0.878437
O O5 0.500000 0.762656 0.500000
O O6 0.417406 0.770915 0.525465
O O7 0.508404 0.000000 0.638866
O O8 0.172211 0.772573 0.312327
O O9 0.085852 0.000000 0.044080
O O10 0.051510 0.724649 0.915994
O O11 0.000000 0.817990 0.000000
O O12 0.783466 0.748959 0.084305
O O13 0.927924 0.768743 0.511287
O O14 0.837913 0.000000 0.270394
O O15 0.335386 0.211866 0.552530
O O16 0.315352 0.000000 0.362828
O O17 0.241759 0.253867 0.182740
O O18 0.271098 0.000000 0.547820
O O19 0.024356 0.500000 0.337840
O O20 0.914940 0.325444 0.223315
O O21 0.226059 0.500000 0.041109
#
# Coordination Sequence:
#
# PCOD8061279 Si02
#       8
#     4   4   4   4   4   4   4   4
#     4   9  18  33  53  82 116 143 175 228 287 332
#     4   9  17  30  51  82 116 145 179 227 281 334
#     4  10  19  33  54  78 109 148 190 237 281 324
#     4  11  22  36  58  82 108 146 189 232 282 336
#     4  10  19  33  57  84 109 144 188 231 275 331
#     4   9  17  30  50  79 112 142 181 228 272 327
#     4  11  23  37  53  78 112 148 186 230 283 338
#     4  11  23  38  55  78 113 150 185 231 285 335
#
# _framework density 19.708172999999999
#
# number of rings (size 3 to 8) (size 9 to 14) (size 15 to 20)
#    0.000    2.000    1.250    3.000    0.000    7.750 
#    0.000    2.500    0.000    4.875    0.000    0.875 
#    0.000    0.000    0.000    0.000    0.000    0.000 
#
# Total GULP energy -396787.738669 kJ/mol
# GULP energy per Si atom -12399.616833 kJ/mol
# Density = 1.966332 g / cm^3
# Si number density = 19.708173 Si / 1000 Ang^3
#
#
#
# Elastic Constant Matrix: (Units=GPa)
#
#
# Indices 1 2 3 4 5 6 
#
# 1 119.4311 39.8854 55.6718 0.0000 -15.4807 0.0000
# 2 39.8854 48.8874 28.6577 0.0000 -2.4765 0.0000
# 3 55.6718 28.6577 121.4885 0.0000 -17.4013 0.0000
# 4 0.0000 0.0000 0.0000 -0.4808 0.0000 0.6703
# 5 -15.4807 -2.4765 -17.4013 0.0000 39.3471 0.0000
# 6 0.0000 0.0000 0.0000 0.6703 0.0000 12.4527
#
#
#
# Elastic Compliance Matrix: (Units=1/GPa)
#
#
# Indices 1 2 3 4 5 6 
#
# 1 0.013343 -0.008593 -0.003644 0.000000 0.003097 0.000000
# 2 -0.008593 0.029312 -0.003413 0.000000 -0.003045 0.000000
# 3 -0.003644 -0.003413 0.011178 0.000000 0.003295 0.000000
# 4 0.000000 0.000000 0.000000 -1.934544 0.000000 0.104134
# 5 0.003097 -0.003045 0.003295 0.000000 0.027899 0.000000
# 6 0.000000 0.000000 0.000000 0.104134 0.000000 0.074699
#
#
# Mechanical properties :
#
#
# Convention : Reuss Voigt Hill
#
# Bulk Modulus (GPa) = 44.37763 59.80409 52.09086
# Shear Modulus (GPa) = -2.87471 21.30326 9.21427
#
# Velocity S-wave (km/s) = -1.20905 3.29132 2.16460
# Velocity P-wave (km/s) = 4.54061 6.69735 5.72152
#
# Compressibility (1/GPa) = 0.02253388
#
# Stress axis : x y z
#
# Youngs Moduli (GPa) = 74.94741 34.11541 89.46194
#
# Poissons Ratio (x) = 0.29315 0.32597
# Poissons Ratio (y) = 0.64402 0.30532
# Poissons Ratio (z) = 0.27308 0.11643
#
# Static dielectric constant tensor:
#      x y z
#    x 3.788930 0.000000 -0.131680 
#    y 0.000000 3.211640 0.000000 
#    z -0.131680 0.000000 3.803750 
# 
# 
# High freq. dielectric constant tensor:
#      x y z
#    x 1.780150 0.000000 -0.006720 
#    y 0.000000 1.721500 0.000000 
#    z -0.006720 0.000000 1.775360 
# 
# From -- ./inp_files/49803.got.cif
#   From: 2010.06.25/outbox.cif.g09.slc.cpg/sg10_25_cif.got.tgz:49803.got - 2010.06.27 22:07:45.
