data_PCOD8061057
_publ_section_title
;
Structure prediction by ZEFSAII (Michael W. Deem and Ramdas Pophale) SiO2 
 PCOD8061057
Probable space group: P 2/M
;
_chemical_formula_sum "Si O2"
_cell_formula_units_Z 32
_cell_length_a 12.429644
_cell_length_b 8.599563
_cell_length_c 23.645004
_cell_angle_alpha 90.000000
_cell_angle_beta 46.057509
_cell_angle_gamma 90.000000
_cell_volume 1819.822733
_symmetry_space_group_name_H-M "P 2/M"
_symmetry_group_IT_number 10
_symmetry_cell_setting 'monoclinic'
loop_
_space_group_symop_operation_xyz
x,y,z
-x,y,-z
-x,-y,-z
x,-y,z
loop_
_atom_site_type_symbol
_atom_site_label
_atom_site_fract_x
_atom_site_fract_y
_atom_site_fract_z
Si Si1 0.039306 0.681741 0.592386
Si Si2 0.274776 0.180467 0.318146
Si Si3 0.125444 0.680963 0.687698
Si Si4 0.632499 0.671727 0.996554
Si Si5 0.842166 0.179702 0.837939
Si Si6 0.557756 0.181322 0.417595
Si Si7 0.386024 0.317456 0.166302
Si Si8 0.670469 0.318688 0.583835
O O1 0.002682 0.500000 0.600226
O O2 0.071132 0.728603 0.645135
O O3 0.180349 0.731105 0.503600
O O4 0.899149 0.776425 0.620472
O O5 0.371002 0.275569 0.237232
O O6 0.341726 0.221215 0.354518
O O7 0.295577 0.000000 0.298151
O O8 0.167154 0.500000 0.675657
O O9 0.267964 0.782697 0.652062
O O10 0.994198 0.721439 0.779492
O O11 0.702956 0.500000 0.977670
O O12 0.554373 0.726881 0.083788
O O13 0.500000 0.666580 0.000000
O O14 0.762124 0.786236 0.927432
O O15 0.737123 0.223481 0.823829
O O16 0.883029 0.000000 0.819469
O O17 0.500000 0.235203 0.500000
O O18 0.472137 0.280928 0.402124
O O19 0.527098 0.000000 0.418731
O O20 0.356059 0.500000 0.167171
O O21 0.672951 0.500000 0.597659
#
# Coordination Sequence:
#
# PCOD8061057 Si02
#       8
#     4   4   4   4   4   4   4   4
#     4  10  21  36  55  76 103 141 182 220 259 315
#     4  12  24  35  52  79 110 141 177 222 272 316
#     4  11  21  35  56  78 105 142 182 219 261 316
#     4   8  16  30  48  70 100 139 176 210 253 312
#     4  11  20  30  48  77 109 138 172 217 267 313
#     4  11  23  38  57  80 107 134 172 226 277 316
#     4  10  19  33  51  72 103 143 180 212 256 316
#     4  11  23  40  58  75 101 140 186 223 262 318
#
# _framework density 17.584129999999998
#
# number of rings (size 3 to 8) (size 9 to 14) (size 15 to 20)
#    0.000    1.500    2.500    4.875    0.000    6.250 
#    0.000    0.000    0.000    0.000    0.000    0.875 
#    0.000    7.000    0.000    0.000    0.000    0.000 
#
# Total GULP energy -396900.378600 kJ/mol
# GULP energy per Si atom -12403.136831 kJ/mol
# Density = 1.754411 g / cm^3
# Si number density = 17.584130 Si / 1000 Ang^3
#
#
#
# Elastic Constant Matrix: (Units=GPa)
#
#
# Indices 1 2 3 4 5 6 
#
# 1 67.2657 12.1725 33.0199 0.0000 0.4514 0.0000
# 2 12.1725 54.2599 19.0470 0.0000 -0.6205 0.0000
# 3 33.0199 19.0470 115.9794 0.0000 -9.9387 0.0000
# 4 0.0000 0.0000 0.0000 24.6778 0.0000 -0.5726
# 5 0.4514 -0.6205 -9.9387 0.0000 13.3607 0.0000
# 6 0.0000 0.0000 0.0000 -0.5726 0.0000 25.4241
#
#
#
# Elastic Compliance Matrix: (Units=1/GPa)
#
#
# Indices 1 2 3 4 5 6 
#
# 1 0.017800 -0.002261 -0.005081 0.000000 -0.004486 0.000000
# 2 -0.002261 0.019876 -0.002707 0.000000 -0.001014 0.000000
# 3 -0.005081 -0.002707 0.011233 0.000000 0.008402 0.000000
# 4 0.000000 0.000000 0.000000 0.040543 0.000000 0.000913
# 5 -0.004486 -0.001014 0.008402 0.000000 0.081201 0.000000
# 6 0.000000 0.000000 0.000000 0.000913 0.000000 0.039353
#
#
# Mechanical properties :
#
#
# Convention : Reuss Voigt Hill
#
# Bulk Modulus (GPa) = 34.70929 40.66490 37.68709
# Shear Modulus (GPa) = 20.85864 24.24355 22.55110
#
# Velocity S-wave (km/s) = 3.44789 3.71714 3.58504
# Velocity P-wave (km/s) = 5.96929 6.44972 6.21415
#
# Compressibility (1/GPa) = 0.02881073
#
# Stress axis : x y z
#
# Youngs Moduli (GPa) = 56.18051 50.31244 89.02027
#
# Poissons Ratio (x) = 0.11375 0.45229
# Poissons Ratio (y) = 0.12702 0.24101
# Poissons Ratio (z) = 0.28544 0.13622
#
# Static dielectric constant tensor:
#      x y z
#    x 2.921490 0.000000 -0.023890 
#    y 0.000000 3.243060 0.000000 
#    z -0.023890 0.000000 3.593770 
# 
# 
# High freq. dielectric constant tensor:
#      x y z
#    x 1.637720 0.000000 -0.006070 
#    y 0.000000 1.687310 0.000000 
#    z -0.006070 0.000000 1.689880 
# 
# From -- ./inp_files/83524.got.cif
#   From: 2010.06.25/outbox.cif.g09.slc.cpg/sg10_42_cif.got.tgz:83524.got - 2010.06.27 22:07:45.
