data_PCOD8061669
_publ_section_title
;
Structure prediction by ZEFSAII (Michael W. Deem and Ramdas Pophale) SiO2 
 PCOD8061669
Probable space group: P 2/M
;
_chemical_formula_sum "Si O2"
_cell_formula_units_Z 32
_cell_length_a 14.373277
_cell_length_b 9.219888
_cell_length_c 13.991695
_cell_angle_alpha 90.000000
_cell_angle_beta 86.833345
_cell_angle_gamma 90.000000
_cell_volume 1851.348299
_symmetry_space_group_name_H-M "P 2/M"
_symmetry_group_IT_number 10
_symmetry_cell_setting 'monoclinic'
loop_
_space_group_symop_operation_xyz
x,y,z
-x,y,-z
-x,-y,-z
x,-y,z
loop_
_atom_site_type_symbol
_atom_site_label
_atom_site_fract_x
_atom_site_fract_y
_atom_site_fract_z
Si Si1 0.276129 0.832920 0.887048
Si Si2 0.899162 0.167453 0.990379
Si Si3 0.614949 0.669151 0.975757
Si Si4 0.359728 0.164280 0.693501
Si Si5 0.393333 0.327979 0.507434
Si Si6 0.503427 0.339959 0.190790
Si Si7 0.235461 0.832752 0.161396
Si Si8 0.312926 0.660515 0.313610
O O1 0.272367 0.824226 0.771581
O O2 0.290545 0.000000 0.920303
O O3 0.179448 0.767468 0.933464
O O4 0.366808 0.736727 0.917643
O O5 0.866015 0.186576 0.882218
O O6 0.909357 0.000000 0.017749
O O7 0.000000 0.244335 0.000000
O O8 0.641200 0.500000 0.975258
O O9 0.513622 0.688308 0.924477
O O10 0.690206 0.760239 0.912589
O O11 0.340861 0.260570 0.601475
O O12 0.447879 0.216348 0.750411
O O13 0.378111 0.000000 0.659645
O O14 0.500000 0.273099 0.500000
O O15 0.390666 0.500000 0.516247
O O16 0.341829 0.273588 0.414743
O O17 0.550514 0.500000 0.200882
O O18 0.399956 0.348137 0.238288
O O19 0.235042 0.760178 0.266718
O O20 0.262302 0.000000 0.171825
O O21 0.270863 0.500000 0.330894
#
# Coordination Sequence:
#
# PCOD8061669 Si02
#       8
#     4   4   4   4   4   4   4   4
#     4   9  19  33  45  64  94 119 144 186 232 272
#     4   8  14  28  51  73  92 119 150 176 214 274
#     4   9  17  29  45  62  84 119 159 189 216 259
#     4  11  22  31  42  64  92 119 149 191 240 274
#     4  10  19  34  50  63  84 119 164 203 227 259
#     4   9  17  30  44  60  84 119 160 193 220 259
#     4   9  16  26  44  71  98 118 142 184 231 272
#     4   9  17  30  47  64  87 120 156 194 229 260
#
# _framework density 17.284700000000001
#
# number of rings (size 3 to 8) (size 9 to 14) (size 15 to 20)
#    0.000    2.750    1.250    2.625    0.000    4.750 
#    0.000    2.500    0.000    9.375    0.000    0.875 
#    0.000    7.000    0.000    0.000    0.000    0.000 
#
# Total GULP energy -396541.515904 kJ/mol
# GULP energy per Si atom -12391.922372 kJ/mol
# Density = 1.724536 g / cm^3
# Si number density = 17.284700 Si / 1000 Ang^3
#
#
#
# Elastic Constant Matrix: (Units=GPa)
#
#
# Indices 1 2 3 4 5 6 
#
# 1 71.1925 25.1002 32.8266 0.0000 8.7599 0.0000
# 2 25.1002 60.4498 37.4019 0.0000 8.9391 0.0000
# 3 32.8266 37.4019 132.7508 0.0000 16.3343 0.0000
# 4 0.0000 0.0000 0.0000 30.5667 0.0000 6.1175
# 5 8.7599 8.9391 16.3343 0.0000 17.2199 0.0000
# 6 0.0000 0.0000 0.0000 6.1175 0.0000 7.9024
#
#
#
# Elastic Compliance Matrix: (Units=1/GPa)
#
#
# Indices 1 2 3 4 5 6 
#
# 1 0.017456 -0.005202 -0.002367 0.000000 -0.003935 0.000000
# 2 -0.005202 0.022094 -0.004362 0.000000 -0.004685 0.000000
# 3 -0.002367 -0.004362 0.010099 0.000000 -0.006111 0.000000
# 4 0.000000 0.000000 0.000000 0.038713 0.000000 -0.029969
# 5 -0.003935 -0.004685 -0.006111 0.000000 0.068303 0.000000
# 6 0.000000 0.000000 0.000000 -0.029969 0.000000 0.149744
#
#
# Mechanical properties :
#
#
# Convention : Reuss Voigt Hill
#
# Bulk Modulus (GPa) = 38.77796 50.56116 44.66956
# Shear Modulus (GPa) = 14.75504 22.40875 18.58190
#
# Velocity S-wave (km/s) = 2.92489 3.60453 3.28235
# Velocity P-wave (km/s) = 5.82153 6.82928 6.34544
#
# Compressibility (1/GPa) = 0.02578784
#
# Stress axis : x y z
#
# Youngs Moduli (GPa) = 57.28737 45.26029 99.01830
#
# Poissons Ratio (x) = 0.23544 0.23435
# Poissons Ratio (y) = 0.29800 0.43193
# Poissons Ratio (z) = 0.13559 0.19743
#
# Static dielectric constant tensor:
#      x y z
#    x 3.128310 0.000000 0.108710 
#    y 0.000000 3.274640 0.000000 
#    z 0.108710 0.000000 3.574710 
# 
# 
# High freq. dielectric constant tensor:
#      x y z
#    x 1.620310 0.000000 0.006810 
#    y 0.000000 1.660200 0.000000 
#    z 0.006810 0.000000 1.680160 
# 
# From -- ./inp_files/66135.got.cif
#   From: 2010.06.25/outbox.cif.g09.slc.cpg/sg10_34_cif.got.tgz:66135.got - 2010.06.27 22:07:45.
