data_PCOD8061559
_publ_section_title
;
Structure prediction by ZEFSAII (Michael W. Deem and Ramdas Pophale) SiO2 
 PCOD8061559
Probable space group: P 2/M
;
_chemical_formula_sum "Si O2"
_cell_formula_units_Z 32
_cell_length_a 14.338066
_cell_length_b 8.961553
_cell_length_c 12.628695
_cell_angle_alpha 90.000000
_cell_angle_beta 84.482444
_cell_angle_gamma 90.000000
_cell_volume 1615.159704
_symmetry_space_group_name_H-M "P 2/M"
_symmetry_group_IT_number 10
_symmetry_cell_setting 'monoclinic'
loop_
_space_group_symop_operation_xyz
x,y,z
-x,y,-z
-x,-y,-z
x,-y,z
loop_
_atom_site_type_symbol
_atom_site_label
_atom_site_fract_x
_atom_site_fract_y
_atom_site_fract_z
Si Si1 0.269923 0.169325 0.365504
Si Si2 0.967283 0.823028 0.888912
Si Si3 0.241376 0.821832 0.137917
Si Si4 0.401315 0.823390 0.960996
Si Si5 0.874538 0.673686 0.264205
Si Si6 0.607531 0.171231 0.460478
Si Si7 0.666713 0.674496 0.239675
Si Si8 0.901166 0.169858 0.473293
O O1 0.272751 0.244846 0.248929
O O2 0.337581 0.244790 0.445453
O O3 0.163715 0.178045 0.416825
O O4 0.304851 0.000000 0.348849
O O5 0.862155 0.762286 0.880450
O O6 0.038293 0.759524 0.795010
O O7 0.970694 0.000000 0.880405
O O8 0.000000 0.766263 0.000000
O O9 0.238932 0.000000 0.143200
O O10 0.316600 0.765319 0.044153
O O11 0.391112 0.751730 0.847225
O O12 0.397594 0.000000 0.947926
O O13 0.500000 0.772453 0.000000
O O14 0.897780 0.500000 0.261348
O O15 0.777600 0.707976 0.213256
O O16 0.859053 0.728823 0.385470
O O17 0.500000 0.179888 0.500000
O O18 0.628869 0.264152 0.354145
O O19 0.640906 0.000000 0.438326
O O20 0.646469 0.500000 0.238890
O O21 0.000000 0.235062 0.500000
O O22 0.910836 0.000000 0.430608
#
# Coordination Sequence:
#
# PCOD8061559 Si02
#       8
#     4   4   4   4   4   4   4   4
#     4   9  17  31  53  83 117 146 179 235 292 341
#     4  10  20  35  58  84 112 152 198 244 294 348
#     4   9  18  34  56  87 121 148 186 242 301 353
#     4  10  22  39  65  94 118 149 195 250 298 345
#     4  11  23  37  55  82 117 156 195 239 288 343
#     4  10  21  36  61  90 113 146 195 248 296 342
#     4  11  24  41  60  84 122 162 196 238 293 358
#     4  10  19  33  56  84 112 149 193 236 287 344
#
# _framework density 19.812283000000001
#
# number of rings (size 3 to 8) (size 9 to 14) (size 15 to 20)
#    0.000    2.000    1.250    2.250    1.750    5.500 
#    0.000    0.625    0.000    0.750    0.000    0.000 
#    0.000    0.000    0.000    0.000    0.000    0.000 
#
# Total GULP energy -396819.926619 kJ/mol
# GULP energy per Si atom -12400.622707 kJ/mol
# Density = 1.976719 g / cm^3
# Si number density = 19.812283 Si / 1000 Ang^3
#
#
#
# Elastic Constant Matrix: (Units=GPa)
#
#
# Indices 1 2 3 4 5 6 
#
# 1 121.6515 28.8283 56.3577 0.0000 14.9968 0.0000
# 2 28.8283 30.5876 26.0944 0.0000 6.3833 0.0000
# 3 56.3577 26.0944 145.4298 0.0000 19.4506 0.0000
# 4 0.0000 0.0000 0.0000 2.6076 0.0000 5.3736
# 5 14.9968 6.3833 19.4506 0.0000 38.5359 0.0000
# 6 0.0000 0.0000 0.0000 5.3736 0.0000 11.1374
#
#
#
# Elastic Compliance Matrix: (Units=1/GPa)
#
#
# Indices 1 2 3 4 5 6 
#
# 1 0.011699 -0.008255 -0.002816 0.000000 -0.001764 0.000000
# 2 -0.008255 0.044777 -0.004582 0.000000 -0.001892 0.000000
# 3 -0.002816 -0.004582 0.009160 0.000000 -0.002768 0.000000
# 4 0.000000 0.000000 0.000000 67.082365 0.000000-32.366111
# 5 -0.001764 -0.001892 -0.002768 0.000000 0.028347 0.000000
# 6 0.000000 0.000000 0.000000-32.366111 0.000000 15.705891
#
#
# Mechanical properties :
#
#
# Convention : Reuss Voigt Hill
#
# Bulk Modulus (GPa) = 29.13044 57.80330 43.46687
# Shear Modulus (GPa) = 0.06030 22.88208 11.47119
#
# Velocity S-wave (km/s) = 0.17464 3.40213 2.40884
# Velocity P-wave (km/s) = 3.84393 6.68367 5.45194
#
# Compressibility (1/GPa) = 0.03432836
#
# Stress axis : x y z
#
# Youngs Moduli (GPa) = 85.48020 22.33284 109.16958
#
# Poissons Ratio (x) = 0.18436 0.30747
# Poissons Ratio (y) = 0.70564 0.50025
# Poissons Ratio (z) = 0.24075 0.10234
#
# Static dielectric constant tensor:
#      x y z
#    x 3.817680 0.000000 0.158100 
#    y 0.000000 3.238290 0.000000 
#    z 0.158100 0.000000 3.738310 
# 
# 
# High freq. dielectric constant tensor:
#      x y z
#    x 1.787150 0.000000 0.005000 
#    y 0.000000 1.728710 0.000000 
#    z 0.005000 0.000000 1.784940 
# 
# From -- ./inp_files/49927.got.cif
#   From: 2010.06.25/outbox.cif.g09.slc.cpg/sg10_25_cif.got.tgz:49927.got - 2010.06.27 22:07:45.
