data_PCOD8061761
_publ_section_title
;
Structure prediction by ZEFSAII (Michael W. Deem and Ramdas Pophale) SiO2 
 PCOD8061761
Probable space group: P 2/M
;
_chemical_formula_sum "Si O2"
_cell_formula_units_Z 28
_cell_length_a 13.568720
_cell_length_b 23.465757
_cell_length_c 8.524533
_cell_angle_alpha 90.000000
_cell_angle_beta 148.773451
_cell_angle_gamma 90.000000
_cell_volume 1407.111653
_symmetry_space_group_name_H-M "P 2/M"
_symmetry_group_IT_number 10
_symmetry_cell_setting 'monoclinic'
loop_
_space_group_symop_operation_xyz
x,y,z
-x,y,-z
-x,-y,-z
x,-y,z
loop_
_atom_site_type_symbol
_atom_site_label
_atom_site_fract_x
_atom_site_fract_y
_atom_site_fract_z
Si Si1 0.854492 0.435025 0.172334
Si Si2 0.043231 0.143267 0.733171
Si Si3 0.202149 0.774752 0.194192
Si Si4 0.447439 0.560949 0.612222
Si Si5 0.368788 0.849490 0.681764
Si Si6 0.814096 0.650319 0.834724
Si Si7 0.606166 0.066049 0.806601
O O1 0.896507 0.500000 0.170048
O O2 0.000000 0.414556 0.500000
O O3 0.647450 0.432765 0.974365
O O4 0.866621 0.389536 0.051034
O O5 0.000000 0.166133 0.500000
O O6 0.843147 0.131781 0.549981
O O7 0.176853 0.189683 0.000367
O O8 0.173960 0.086770 0.902383
O O9 0.352027 0.803362 0.518469
O O10 0.280292 0.711455 0.251763
O O11 0.000000 0.771864 0.000000
O O12 0.500000 0.561636 0.500000
O O13 0.350105 0.500000 0.523391
O O14 0.313136 0.614476 0.462963
O O15 0.483939 0.904170 0.776879
O O16 0.500000 0.823178 0.000000
O O17 0.000000 0.668644 0.000000
O O18 0.500000 0.077997 0.500000
O O19 0.613266 0.000000 0.858676
#
# Coordination Sequence:
#
# PCOD8061761 Si02
#       7
#     4   4   4   4   4   4   4
#     4   9  18  34  53  76 111 148 185 235 290 344
#     4  11  22  41  63  88 122 162 200 244 302 358
#     4   9  21  39  58  81 118 154 195 248 294 348
#     4   8  15  30  49  73 105 140 180 222 275 337
#     4  11  22  42  64  87 124 162 197 248 307 352
#     4  10  19  34  54  81 109 141 190 240 281 340
#     4  11  24  42  65  95 123 155 203 248 293 363
#
# _framework density 19.898917999999998
#
# number of rings (size 3 to 8) (size 9 to 14) (size 15 to 20)
#    0.000    2.143    2.857    1.286    0.000    2.857 
#    7.714    6.429    0.000    2.571    0.000    0.000 
#    0.000    0.000    0.000    0.000    0.000    0.000 
#
# Total GULP energy -346915.467027 kJ/mol
# GULP energy per Si atom -12389.838108 kJ/mol
# Density = 1.985363 g / cm^3
# Si number density = 19.898918 Si / 1000 Ang^3
#
#
#
# Elastic Constant Matrix: (Units=GPa)
#
#
# Indices 1 2 3 4 5 6 
#
# 1 59.5806 41.2800 34.3866 0.0000 0.2915 0.0000
# 2 41.2800 151.3968 70.6796 0.0000 -9.1754 0.0000
# 3 34.3866 70.6796 152.6278 0.0000 -11.7831 0.0000
# 4 0.0000 0.0000 0.0000 -248.1104 0.0000 265.9209
# 5 0.2915 -9.1754 -11.7831 0.0000 38.5551 0.0000
# 6 0.0000 0.0000 0.0000 265.9209 0.0000 -272.0083
#
#
#
# Elastic Compliance Matrix: (Units=1/GPa)
#
#
# Indices 1 2 3 4 5 6 
#
# 1 0.021719 -0.004709 -0.002880 0.000000 -0.002165 0.000000
# 2 -0.004709 0.009474 -0.003226 0.000000 0.001304 0.000000
# 3 -0.002880 -0.003226 0.008846 0.000000 0.001957 0.000000
# 4 0.000000 0.000000 0.000000 0.084322 0.000000 0.082435
# 5 -0.002165 0.001304 0.001957 0.000000 0.026862 0.000000
# 6 0.000000 0.000000 0.000000 0.082435 0.000000 0.076914
#
#
# Mechanical properties :
#
#
# Convention : Reuss Voigt Hill
#
# Bulk Modulus (GPa) = 54.31781 72.92196 63.61989
# Shear Modulus (GPa) = 19.53876 -81.82881 -31.14502
#
# Velocity S-wave (km/s) = 3.13693 -6.41962 -3.96050
# Velocity P-wave (km/s) = 6.36212 4.26883 3.33569
#
# Compressibility (1/GPa) = 0.01841017
#
# Stress axis : x y z
#
# Youngs Moduli (GPa) = 46.04250 105.55184 113.05038
#
# Poissons Ratio (x) = 0.49701 0.32557
# Poissons Ratio (y) = 0.21680 0.36467
# Poissons Ratio (z) = 0.13260 0.34048
#
# Static dielectric constant tensor:
#      x y z
#    x 3.394520 0.000000 0.144380 
#    y 0.000000 3.744930 0.000000 
#    z 0.144380 0.000000 4.175870 
# 
# 
# High freq. dielectric constant tensor:
#      x y z
#    x 1.750090 0.000000 0.008630 
#    y 0.000000 1.772240 0.000000 
#    z 0.008630 0.000000 1.791510 
# 
# From -- ./inp_files/30476.got.cif
#   From: 2010.06.25/outbox.cif.g09.slc.cpg/sg10_16_cif.got.tgz:30476.got - 2010.06.27 22:07:45.
