data_PCOD8061718
_publ_section_title
;
Structure prediction by ZEFSAII (Michael W. Deem and Ramdas Pophale) SiO2 
 PCOD8061718
Probable space group: P 2/M
;
_chemical_formula_sum "Si O2"
_cell_formula_units_Z 32
_cell_length_a 12.472486
_cell_length_b 19.399661
_cell_length_c 8.884203
_cell_angle_alpha 90.000000
_cell_angle_beta 126.804163
_cell_angle_gamma 90.000000
_cell_volume 1721.190241
_symmetry_space_group_name_H-M "P 2/M"
_symmetry_group_IT_number 10
_symmetry_cell_setting 'monoclinic'
loop_
_space_group_symop_operation_xyz
x,y,z
-x,y,-z
-x,-y,-z
x,-y,z
loop_
_atom_site_type_symbol
_atom_site_label
_atom_site_fract_x
_atom_site_fract_y
_atom_site_fract_z
Si Si1 0.702788 0.577985 0.537068
Si Si2 0.606960 0.922718 0.710308
Si Si3 0.863166 0.674654 0.472334
Si Si4 0.600689 0.422534 0.779155
Si Si5 0.646099 0.317087 0.055767
Si Si6 0.641681 0.163427 0.042738
Si Si7 0.865033 0.164255 0.470128
Si Si8 0.889245 0.077367 0.791006
O O1 0.735589 0.500000 0.511357
O O2 0.825420 0.627897 0.586519
O O3 0.554394 0.601029 0.359735
O O4 0.689804 0.580642 0.705115
O O5 0.500000 0.890006 0.500000
O O6 0.749686 0.924550 0.756003
O O7 0.557466 0.000000 0.709592
O O8 0.626744 0.881729 0.881362
O O9 0.743557 0.655355 0.263642
O O10 0.856687 0.755406 0.508438
O O11 0.000000 0.655118 0.500000
O O12 0.604625 0.500000 0.847648
O O13 0.674322 0.368839 0.945792
O O14 0.684052 0.240556 0.030154
O O15 0.500000 0.320365 0.000000
O O16 0.747515 0.137938 0.258586
O O17 0.500000 0.164260 0.000000
O O18 0.867439 0.123132 0.626584
O O19 0.000000 0.146620 0.500000
O O20 0.933552 0.000000 0.780503
O O21 0.000000 0.108387 0.000000
#
# Coordination Sequence:
#
# PCOD8061718 Si02
#       8
#     4   4   4   4   4   4   4   4
#     4   9  18  34  54  79 109 138 177 223 269 320
#     4  10  21  37  54  77 110 143 177 221 272 324
#     4  10  21  36  53  77 111 145 176 216 270 326
#     4   9  18  33  55  81 106 136 177 227 272 313
#     4  10  19  34  53  79 106 134 181 228 261 314
#     4  10  21  35  53  80 109 140 183 225 264 320
#     4  10  21  37  56  78 111 146 178 220 271 326
#     4  10  21  37  58  83 108 137 182 231 269 316
#
# _framework density 18.591785999999999
#
# number of rings (size 3 to 8) (size 9 to 14) (size 15 to 20)
#    0.000    2.250    1.250    2.250    0.000    3.000 
#    2.250    0.625    0.000    1.500    0.000    0.000 
#    0.000    0.000    0.000    0.000    0.000    0.000 
#
# Total GULP energy -396519.964197 kJ/mol
# GULP energy per Si atom -12391.248881 kJ/mol
# Density = 1.854947 g / cm^3
# Si number density = 18.591786 Si / 1000 Ang^3
#
#
#
# Elastic Constant Matrix: (Units=GPa)
#
#
# Indices 1 2 3 4 5 6 
#
# 1 80.5533 38.9427 33.6756 0.0000 0.3156 0.0000
# 2 38.9427 80.6968 49.4420 0.0000 -20.8354 0.0000
# 3 33.6756 49.4420 131.6078 0.0000 -3.3997 0.0000
# 4 0.0000 0.0000 0.0000 38.3022 0.0000 -21.5560
# 5 0.3156 -20.8354 -3.3997 0.0000 33.7587 0.0000
# 6 0.0000 0.0000 0.0000 -21.5560 0.0000 99.3397
#
#
#
# Elastic Compliance Matrix: (Units=1/GPa)
#
#
# Indices 1 2 3 4 5 6 
#
# 1 0.017375 -0.009235 -0.001131 0.000000 -0.005976 0.000000
# 2 -0.009235 0.024608 -0.006504 0.000000 0.014619 0.000000
# 3 -0.001131 -0.006504 0.010254 0.000000 -0.002971 0.000000
# 4 0.000000 0.000000 0.000000 0.029740 0.000000 0.006453
# 5 -0.005976 0.014619 -0.002971 0.000000 0.038401 0.000000
# 6 0.000000 0.000000 0.000000 0.006453 0.000000 0.011467
#
#
# Mechanical properties :
#
#
# Convention : Reuss Voigt Hill
#
# Bulk Modulus (GPa) = 54.06058 59.66429 56.86244
# Shear Modulus (GPa) = 29.11190 45.66662 37.38926
#
# Velocity S-wave (km/s) = 3.96137 4.96146 4.48935
# Velocity P-wave (km/s) = 7.07560 8.06120 7.58442
#
# Compressibility (1/GPa) = 0.01849777
#
# Stress axis : x y z
#
# Youngs Moduli (GPa) = 57.55463 40.63698 97.51917
#
# Poissons Ratio (x) = 0.37527 0.11029
# Poissons Ratio (y) = 0.53150 0.63427
# Poissons Ratio (z) = 0.06509 0.26431
#
# Static dielectric constant tensor:
#      x y z
#    x 3.184850 0.000000 0.156590 
#    y 0.000000 3.616740 0.000000 
#    z 0.156590 0.000000 3.445380 
# 
# 
# High freq. dielectric constant tensor:
#      x y z
#    x 1.721110 0.000000 0.001850 
#    y 0.000000 1.718050 0.000000 
#    z 0.001850 0.000000 1.722130 
# 
# From -- ./inp_files/26084.got.cif
#   From: 2010.06.25/outbox.cif.g09.slc.cpg/sg10_14_cif.got.tgz:26084.got - 2010.06.27 22:07:45.
