data_PCOD8061349
_publ_section_title
;
Structure prediction by ZEFSAII (Michael W. Deem and Ramdas Pophale) SiO2 
 PCOD8061349
Probable space group: P 2/M
;
_chemical_formula_sum "Si O2"
_cell_formula_units_Z 32
_cell_length_a 14.275739
_cell_length_b 8.950903
_cell_length_c 20.968055
_cell_angle_alpha 90.000000
_cell_angle_beta 40.141727
_cell_angle_gamma 90.000000
_cell_volume 1727.301507
_symmetry_space_group_name_H-M "P 2/M"
_symmetry_group_IT_number 10
_symmetry_cell_setting 'monoclinic'
loop_
_space_group_symop_operation_xyz
x,y,z
-x,y,-z
-x,-y,-z
x,-y,z
loop_
_atom_site_type_symbol
_atom_site_label
_atom_site_fract_x
_atom_site_fract_y
_atom_site_fract_z
Si Si1 0.668714 0.174490 0.919273
Si Si2 0.338812 0.321910 0.571380
Si Si3 0.145873 0.677816 0.785474
Si Si4 0.810705 0.677594 0.963445
Si Si5 0.157090 0.675774 0.285088
Si Si6 0.178559 0.675366 0.529210
Si Si7 0.827748 0.168681 0.594795
Si Si8 0.166789 0.324616 0.910654
O O1 0.712073 0.232839 0.966075
O O2 0.760391 0.259250 0.818265
O O3 0.701803 0.000000 0.895971
O O4 0.500000 0.211144 0.000000
O O5 0.500000 0.260108 0.500000
O O6 0.335426 0.500000 0.575363
O O7 0.235692 0.253998 0.680043
O O8 0.280211 0.266804 0.533631
O O9 0.154846 0.500000 0.780478
O O10 0.220003 0.737338 0.813781
O O11 0.978206 0.724782 0.865653
O O12 0.790828 0.500000 0.964211
O O13 0.759256 0.731408 0.061780
O O14 0.181355 0.500000 0.274371
O O15 0.224009 0.744204 0.315132
O O16 0.987263 0.717427 0.367463
O O17 0.193304 0.500000 0.510109
O O18 0.236651 0.754822 0.435037
O O19 0.000000 0.175742 0.500000
O O20 0.769949 0.000000 0.629310
O O21 0.185509 0.500000 0.901195
O O22 0.000000 0.279720 0.000000
#
# Coordination Sequence:
#
# PCOD8061349 Si02
#       8
#     4   4   4   4   4   4   4   4
#     4  11  24  38  49  66  98 135 164 197 247 303
#     4   9  16  25  39  63  98 134 162 193 236 283
#     4   8  13  24  44  70  96 121 153 196 244 285
#     4   9  16  29  51  74  92 116 157 204 242 281
#     4  10  19  33  55  77  96 123 163 211 252 288
#     4   9  17  30  49  75 103 130 165 208 249 286
#     4   9  17  30  50  76 103 130 161 199 246 299
#     4   7  11  21  41  68  92 113 145 195 246 283
#
# _framework density 18.526008000000001
#
# number of rings (size 3 to 8) (size 9 to 14) (size 15 to 20)
#    0.000    3.000    0.000    3.375    0.000    5.000 
#    0.000    1.250    0.000    6.750    0.000    0.000 
#    0.000    0.000    0.000    0.000    0.000    0.000 
#
# Total GULP energy -396509.250907 kJ/mol
# GULP energy per Si atom -12390.914091 kJ/mol
# Density = 1.848384 g / cm^3
# Si number density = 18.526008 Si / 1000 Ang^3
#
#
#
# Elastic Constant Matrix: (Units=GPa)
#
#
# Indices 1 2 3 4 5 6 
#
# 1 163.0109 42.9215 72.4205 0.0000 33.5959 0.0000
# 2 42.9215 51.5188 23.4152 0.0000 6.3465 0.0000
# 3 72.4205 23.4152 41.3974 0.0000 16.3278 0.0000
# 4 0.0000 0.0000 0.0000 14.9035 0.0000 -3.9004
# 5 33.5959 6.3465 16.3278 0.0000 32.2566 0.0000
# 6 0.0000 0.0000 0.0000 -3.9004 0.0000 0.3197
#
#
#
# Elastic Compliance Matrix: (Units=1/GPa)
#
#
# Indices 1 2 3 4 5 6 
#
# 1 0.028433 -0.001890 -0.046402 0.000000 -0.005754 0.000000
# 2 -0.001890 0.026475 -0.012983 0.000000 0.003331 0.000000
# 3 -0.046402 -0.012983 0.115707 0.000000 -0.007686 0.000000
# 4 0.000000 0.000000 0.000000 -0.030595 0.000000 -0.373291
# 5 -0.005754 0.003331 -0.007686 0.000000 0.040229 0.000000
# 6 0.000000 0.000000 0.000000 -0.373291 0.000000 -1.426356
#
#
# Mechanical properties :
#
#
# Convention : Reuss Voigt Hill
#
# Bulk Modulus (GPa) = 20.80508 59.27127 40.03817
# Shear Modulus (GPa) = -4.51453 17.30730 6.39639
#
# Velocity S-wave (km/s) = -1.56274 3.05981 1.86015
# Velocity P-wave (km/s) = 2.82814 6.67430 5.12565
#
# Compressibility (1/GPa) = 0.04806518
#
# Stress axis : x y z
#
# Youngs Moduli (GPa) = 35.17043 37.77147 8.64252
#
# Poissons Ratio (x) = 0.07137 0.40103
# Poissons Ratio (y) = 0.06646 0.11220
# Poissons Ratio (z) = 1.63199 0.49038
#
# Static dielectric constant tensor:
#      x y z
#    x 3.637260 0.000000 0.411340 
#    y 0.000000 3.040910 0.000000 
#    z 0.411340 0.000000 3.525550 
# 
# 
# High freq. dielectric constant tensor:
#      x y z
#    x 1.723150 0.000000 0.032930 
#    y 0.000000 1.676940 0.000000 
#    z 0.032930 0.000000 1.707340 
# 
# From -- ./inp_files/84714.got.cif
#   From: 2010.06.25/outbox.cif.g09.slc.cpg/sg10_43_cif.got.tgz:84714.got - 2010.06.27 22:07:45.
