data_PCOD8061431
_publ_section_title
;
Structure prediction by ZEFSAII (Michael W. Deem and Ramdas Pophale) SiO2 
 PCOD8061431
Probable space group: P 2/M
;
_chemical_formula_sum "Si O2"
_cell_formula_units_Z 32
_cell_length_a 24.126302
_cell_length_b 9.731922
_cell_length_c 15.604826
_cell_angle_alpha 90.000000
_cell_angle_beta 151.999098
_cell_angle_gamma 90.000000
_cell_volume 1720.166395
_symmetry_space_group_name_H-M "P 2/M"
_symmetry_group_IT_number 10
_symmetry_cell_setting 'monoclinic'
loop_
_space_group_symop_operation_xyz
x,y,z
-x,y,-z
-x,-y,-z
x,-y,z
loop_
_atom_site_type_symbol
_atom_site_label
_atom_site_fract_x
_atom_site_fract_y
_atom_site_fract_z
Si Si1 0.371407 0.838284 0.310360
Si Si2 0.406585 0.661978 0.799870
Si Si3 0.140022 0.338874 0.448814
Si Si4 0.261916 0.160005 0.987565
Si Si5 0.038435 0.657524 0.650124
Si Si6 0.897460 0.661142 0.794830
Si Si7 0.708609 0.153110 0.618496
Si Si8 0.496444 0.151913 0.213182
O O1 0.500000 0.769777 0.500000
O O2 0.287314 0.805004 0.276315
O O3 0.388263 0.000000 0.320433
O O4 0.307933 0.778043 0.140210
O O5 0.403735 0.500000 0.779490
O O6 0.274463 0.718811 0.640223
O O7 0.452945 0.731791 0.777978
O O8 0.500000 0.702673 0.000000
O O9 0.149739 0.500000 0.472523
O O10 0.079272 0.301822 0.273685
O O11 0.060539 0.282682 0.418904
O O12 0.151134 0.247908 0.809856
O O13 0.226678 0.000000 0.946981
O O14 0.361100 0.182640 0.050819
O O15 0.068953 0.500000 0.716001
O O16 0.000000 0.667680 0.500000
O O17 0.874897 0.500000 0.774928
O O18 0.779005 0.738375 0.658532
O O19 0.000000 0.710709 0.000000
O O20 0.571608 0.153929 0.403527
O O21 0.762314 0.000000 0.678521
O O22 0.507226 0.000000 0.185309
#
# Coordination Sequence:
#
# PCOD8061431 Si02
#       8
#     4   4   4   4   4   4   4   4
#     4   9  16  31  54  79 110 147 179 212 266 331
#     4  10  21  36  60  85 107 141 185 229 277 339
#     4   9  19  38  56  79 113 143 180 229 277 328
#     4  10  21  37  58  84 114 149 189 230 277 332
#     4  10  23  41  61  81 108 149 193 238 283 329
#     4  10  21  36  55  77 108 150 183 218 277 336
#     4  10  19  33  55  81 110 143 183 226 269 325
#     4  10  20  35  56  84 116 145 179 229 284 331
#
# _framework density 18.602851999999999
#
# number of rings (size 3 to 8) (size 9 to 14) (size 15 to 20)
#    0.000    2.250    2.500    0.000    3.500    1.250 
#    0.000    1.250    0.000    0.750    0.000    0.000 
#    0.000    0.000    0.000    0.000    0.000    0.000 
#
# Total GULP energy -396680.162874 kJ/mol
# GULP energy per Si atom -12396.255090 kJ/mol
# Density = 1.856051 g / cm^3
# Si number density = 18.602852 Si / 1000 Ang^3
#
#
#
# Elastic Constant Matrix: (Units=GPa)
#
#
# Indices 1 2 3 4 5 6 
#
# 1 114.9446 36.4482 51.2421 0.0000 4.9047 0.0000
# 2 36.4482 40.6615 35.7975 0.0000 6.4761 0.0000
# 3 51.2421 35.7975 107.8310 0.0000 7.8992 0.0000
# 4 0.0000 0.0000 0.0000 7.1203 0.0000 2.1408
# 5 4.9047 6.4761 7.8992 0.0000 28.2022 0.0000
# 6 0.0000 0.0000 0.0000 2.1408 0.0000 24.4112
#
#
#
# Elastic Compliance Matrix: (Units=1/GPa)
#
#
# Indices 1 2 3 4 5 6 
#
# 1 0.012922 -0.008820 -0.003263 0.000000 0.000692 0.000000
# 2 -0.008820 0.041432 -0.009166 0.000000 -0.005413 0.000000
# 3 -0.003263 -0.009166 0.013958 0.000000 -0.001237 0.000000
# 4 0.000000 0.000000 0.000000 0.144247 0.000000 -0.012650
# 5 0.000692 -0.005413 -0.001237 0.000000 0.036927 0.000000
# 6 0.000000 0.000000 0.000000 -0.012650 0.000000 0.042074
#
#
# Mechanical properties :
#
#
# Convention : Reuss Voigt Hill
#
# Bulk Modulus (GPa) = 38.74187 56.71253 47.72720
# Shear Modulus (GPa) = 14.59158 21.27669 17.93414
#
# Velocity S-wave (km/s) = 2.80370 3.38558 3.10829
# Velocity P-wave (km/s) = 5.59929 6.77015 6.21237
#
# Compressibility (1/GPa) = 0.02581187
#
# Stress axis : x y z
#
# Youngs Moduli (GPa) = 77.38807 24.13616 71.64317
#
# Poissons Ratio (x) = 0.21289 0.23378
# Poissons Ratio (y) = 0.68260 0.65670
# Poissons Ratio (z) = 0.25252 0.22124
#
# Static dielectric constant tensor:
#      x y z
#    x 3.583530 0.000000 -0.179610 
#    y 0.000000 3.118220 0.000000 
#    z -0.179610 0.000000 3.745370 
# 
# 
# High freq. dielectric constant tensor:
#      x y z
#    x 1.728360 0.000000 -0.004640 
#    y 0.000000 1.691200 0.000000 
#    z -0.004640 0.000000 1.726530 
# 
# From -- ./inp_files/71565.got.cif
#   From: 2010.06.25/outbox.cif.g09.slc.cpg/sg10_36_cif.got.tgz:71565.got - 2010.06.27 22:07:45.
