data_PCOD8061910
_publ_section_title
;
Structure prediction by ZEFSAII (Michael W. Deem and Ramdas Pophale) SiO2 
 PCOD8061910
Probable space group: P 2/M
;
_chemical_formula_sum "Si O2"
_cell_formula_units_Z 28
_cell_length_a 15.087982
_cell_length_b 21.776967
_cell_length_c 8.559511
_cell_angle_alpha 90.000000
_cell_angle_beta 29.785386
_cell_angle_gamma 90.000000
_cell_volume 1397.068378
_symmetry_space_group_name_H-M "P 2/M"
_symmetry_group_IT_number 10
_symmetry_cell_setting 'monoclinic'
loop_
_space_group_symop_operation_xyz
x,y,z
-x,y,-z
-x,-y,-z
x,-y,z
loop_
_atom_site_type_symbol
_atom_site_label
_atom_site_fract_x
_atom_site_fract_y
_atom_site_fract_z
Si Si1 0.673876 0.000000 0.114749
Si Si2 0.495354 0.211918 0.822308
Si Si3 0.799914 0.882532 0.741283
Si Si4 0.808258 0.000000 0.221424
Si Si5 0.190336 0.570080 0.147837
Si Si6 0.191316 0.569070 0.778390
Si Si7 0.198052 0.122737 0.633296
Si Si8 0.499828 0.650732 0.815848
O O1 0.500000 0.000000 0.500000
O O2 0.835276 0.000000 0.992663
O O3 0.695203 0.940795 0.972691
O O4 0.678119 0.177821 0.494099
O O5 0.493244 0.280503 0.755020
O O6 0.500000 0.214745 0.000000
O O7 0.318565 0.176872 0.031161
O O8 0.806500 0.887382 0.544769
O O9 0.000000 0.875215 0.500000
O O10 0.711052 0.061580 0.430555
O O11 0.000000 0.000000 0.000000
O O12 0.229854 0.500000 0.138164
O O13 0.000000 0.592081 0.500000
O O14 0.191805 0.577328 0.961575
O O15 0.333961 0.613411 0.005689
O O16 0.253142 0.500000 0.639193
O O17 0.319525 0.618946 0.510810
O O18 0.000000 0.583037 0.000000
O O19 0.000000 0.135237 0.000000
O O20 0.500000 0.652522 0.000000
#
# Coordination Sequence:
#
# PCOD8061910 Si02
#       8
#     2   4   4   2   4   4   4   4
#     4  12  24  38  59  89 119 145 186 241 291 338
#     4   9  22  40  57  81 115 155 196 234 279 341
#     4  11  22  39  61  86 115 149 191 239 288 337
#     4  10  19  34  56  83 110 139 177 223 280 336
#     4  10  21  38  60  87 117 150 192 241 291 343
#     4  10  21  38  60  88 119 152 193 240 291 347
#     4  10  20  39  62  84 113 151 191 234 288 346
#     4  11  22  38  59  85 119 156 195 238 288 345
#
# _framework density 20.041969000000002
#
# number of rings (size 3 to 8) (size 9 to 14) (size 15 to 20)
#    0.000    1.714    0.000    4.929    0.000    4.571 
#    0.000   12.857    0.000    0.000    0.000    0.000 
#    0.000    0.000    0.000    0.000    0.000    0.000 
#
# Total GULP energy -347102.371087 kJ/mol
# GULP energy per Si atom -12396.513253 kJ/mol
# Density = 1.999635 g / cm^3
# Si number density = 20.041969 Si / 1000 Ang^3
#
#
#
# Elastic Constant Matrix: (Units=GPa)
#
#
# Indices 1 2 3 4 5 6 
#
# 1 94.1373 56.8015 39.3812 0.0000 -8.7944 0.0000
# 2 56.8015 176.0831 83.1419 0.0000 -14.5642 0.0000
# 3 39.3812 83.1419 133.1217 0.0000 -7.0459 0.0000
# 4 0.0000 0.0000 0.0000 48.3919 0.0000 -12.8009
# 5 -8.7944 -14.5642 -7.0459 0.0000 31.2837 0.0000
# 6 0.0000 0.0000 0.0000 -12.8009 0.0000 31.5847
#
#
#
# Elastic Compliance Matrix: (Units=1/GPa)
#
#
# Indices 1 2 3 4 5 6 
#
# 1 0.013590 -0.003375 -0.001815 0.000000 0.001841 0.000000
# 2 -0.003375 0.009115 -0.004575 0.000000 0.002265 0.000000
# 3 -0.001815 -0.004575 0.010896 0.000000 -0.000186 0.000000
# 4 0.000000 0.000000 0.000000 0.023146 0.000000 0.009381
# 5 0.001841 0.002265 -0.000186 0.000000 0.033495 0.000000
# 6 0.000000 0.000000 0.000000 0.009381 0.000000 0.035463
#
#
# Mechanical properties :
#
#
# Convention : Reuss Voigt Hill
#
# Bulk Modulus (GPa) = 71.06134 84.66570 77.86352
# Shear Modulus (GPa) = 33.34975 37.18657 35.26816
#
# Velocity S-wave (km/s) = 4.08364 4.31215 4.19945
# Velocity P-wave (km/s) = 7.60053 8.19321 7.90243
#
# Compressibility (1/GPa) = 0.01407235
#
# Stress axis : x y z
#
# Youngs Moduli (GPa) = 73.58147 109.70799 91.77451
#
# Poissons Ratio (x) = 0.37022 0.16660
# Poissons Ratio (y) = 0.24831 0.41984
# Poissons Ratio (z) = 0.13358 0.50188
#
# Static dielectric constant tensor:
#      x y z
#    x 4.093710 0.000000 0.078270 
#    y 0.000000 4.395480 0.000000 
#    z 0.078270 0.000000 4.097150 
# 
# 
# High freq. dielectric constant tensor:
#      x y z
#    x 1.791090 0.000000 -0.005380 
#    y 0.000000 1.785240 0.000000 
#    z -0.005380 0.000000 1.789750 
# 
# From -- ./inp_files/30461.got.cif
#   From: 2010.06.25/outbox.cif.g09.slc.cpg/sg10_16_cif.got.tgz:30461.got - 2010.06.27 22:07:45.
