data_PCOD8061316
_publ_section_title
;
Structure prediction by ZEFSAII (Michael W. Deem and Ramdas Pophale) SiO2 
 PCOD8061316
Probable space group: P 2/M
;
_chemical_formula_sum "Si O2"
_cell_formula_units_Z 32
_cell_length_a 19.906444
_cell_length_b 8.882516
_cell_length_c 24.776924
_cell_angle_alpha 90.000000
_cell_angle_beta 156.799182
_cell_angle_gamma 90.000000
_cell_volume 1725.932177
_symmetry_space_group_name_H-M "P 2/M"
_symmetry_group_IT_number 10
_symmetry_cell_setting 'monoclinic'
loop_
_space_group_symop_operation_xyz
x,y,z
-x,y,-z
-x,-y,-z
x,-y,z
loop_
_atom_site_type_symbol
_atom_site_label
_atom_site_fract_x
_atom_site_fract_y
_atom_site_fract_z
Si Si1 0.833058 0.172727 0.344070
Si Si2 0.435472 0.823188 0.575278
Si Si3 0.169956 0.176068 0.884621
Si Si4 0.864505 0.321686 0.713341
Si Si5 0.349527 0.675379 0.618195
Si Si6 0.345670 0.665957 0.344506
Si Si7 0.008099 0.827840 0.651672
Si Si8 0.477175 0.324494 0.830610
O O1 0.863019 0.194144 0.302678
O O2 0.679381 0.280498 0.246831
O O3 0.000000 0.223776 0.500000
O O4 0.787462 0.000000 0.324721
O O5 0.264409 0.752462 0.424368
O O6 0.453986 0.766475 0.650059
O O7 0.606585 0.777781 0.668860
O O8 0.414807 0.000000 0.558394
O O9 0.109568 0.218007 0.780060
O O10 0.054022 0.262879 0.842625
O O11 0.155868 0.000000 0.885741
O O12 0.362315 0.228228 0.032658
O O13 0.852599 0.500000 0.696758
O O14 0.816206 0.277541 0.739708
O O15 0.362589 0.500000 0.614648
O O16 0.434613 0.716568 0.737691
O O17 0.152324 0.720279 0.474026
O O18 0.500000 0.656927 0.500000
O O19 0.311181 0.500000 0.294509
O O20 0.942213 0.000000 0.605897
O O21 0.516244 0.500000 0.866714
#
# Coordination Sequence:
#
# PCOD8061316 Si02
#       8
#     4   4   4   4   4   4   4   4
#     4  10  20  37  62  86 113 148 184 233 289 338
#     4  11  20  30  51  83 115 146 187 236 281 331
#     4  11  23  38  58  84 116 153 191 234 283 337
#     4  10  19  33  54  80 114 152 188 230 280 333
#     4  11  22  36  57  82 111 149 190 237 286 335
#     4   8  16  30  48  75 112 150 185 226 279 332
#     4  10  21  37  59  87 113 144 188 233 283 341
#     4  11  25  41  58  83 114 150 193 236 284 342
#
# _framework density 18.540707000000001
#
# number of rings (size 3 to 8) (size 9 to 14) (size 15 to 20)
#    0.000    1.750    2.500    3.375    0.000    6.000 
#    0.000    2.500    0.000    0.750    0.000    5.250 
#    0.000    0.000    0.000    0.000    0.000    0.000 
#
# Total GULP energy -396879.633166 kJ/mol
# GULP energy per Si atom -12402.488536 kJ/mol
# Density = 1.849851 g / cm^3
# Si number density = 18.540707 Si / 1000 Ang^3
#
#
#
# Elastic Constant Matrix: (Units=GPa)
#
#
# Indices 1 2 3 4 5 6 
#
# 1 106.1127 45.0527 34.5108 0.0000 14.6664 0.0000
# 2 45.0527 88.2911 32.7937 0.0000 0.6003 0.0000
# 3 34.5108 32.7937 74.8008 0.0000 3.2569 0.0000
# 4 0.0000 0.0000 0.0000 25.9003 0.0000 5.7835
# 5 14.6664 0.6003 3.2569 0.0000 23.6730 0.0000
# 6 0.0000 0.0000 0.0000 5.7835 0.0000 32.1815
#
#
#
# Elastic Compliance Matrix: (Units=1/GPa)
#
#
# Indices 1 2 3 4 5 6 
#
# 1 0.014219 -0.005848 -0.003641 0.000000 -0.008160 0.000000
# 2 -0.005848 0.015939 -0.004457 0.000000 0.003832 0.000000
# 3 -0.003641 -0.004457 0.017001 0.000000 0.000030 0.000000
# 4 0.000000 0.000000 0.000000 0.040224 0.000000 -0.007229
# 5 -0.008160 0.003832 0.000030 0.000000 0.047196 0.000000
# 6 0.000000 0.000000 0.000000 -0.007229 0.000000 0.032373
#
#
# Mechanical properties :
#
#
# Convention : Reuss Voigt Hill
#
# Bulk Modulus (GPa) = 51.89905 54.87989 53.38947
# Shear Modulus (GPa) = 24.84267 26.80745 25.82506
#
# Velocity S-wave (km/s) = 3.66443 3.80658 3.73619
# Velocity P-wave (km/s) = 6.77915 6.99886 6.88988
#
# Compressibility (1/GPa) = 0.01926817
#
# Stress axis : x y z
#
# Youngs Moduli (GPa) = 70.33010 62.73760 58.81844
#
# Poissons Ratio (x) = 0.36686 0.21417
# Poissons Ratio (y) = 0.41126 0.26215
# Poissons Ratio (z) = 0.25608 0.27962
#
# Static dielectric constant tensor:
#      x y z
#    x 3.762570 0.000000 0.122860 
#    y 0.000000 3.441250 0.000000 
#    z 0.122860 0.000000 3.143070 
# 
# 
# High freq. dielectric constant tensor:
#      x y z
#    x 1.736070 0.000000 0.012350 
#    y 0.000000 1.725530 0.000000 
#    z 0.012350 0.000000 1.685380 
# 
# From -- ./inp_files/93721.got.cif
#   From: 2010.06.25/outbox.cif.g09.slc.cpg/sg10_47_cif.got.tgz:93721.got - 2010.06.27 22:07:45.
