data_PCOD8061712
_publ_section_title
;
Structure prediction by ZEFSAII (Michael W. Deem and Ramdas Pophale) SiO2 
 PCOD8061712
Probable space group: P 2/M
;
_chemical_formula_sum "Si O2"
_cell_formula_units_Z 22
_cell_length_a 5.098044
_cell_length_b 8.130499
_cell_length_c 26.199036
_cell_angle_alpha 90.000000
_cell_angle_beta 59.252575
_cell_angle_gamma 90.000000
_cell_volume 933.289313
_symmetry_space_group_name_H-M "P 2/M"
_symmetry_group_IT_number 10
_symmetry_cell_setting 'monoclinic'
loop_
_space_group_symop_operation_xyz
x,y,z
-x,y,-z
-x,-y,-z
x,-y,z
loop_
_atom_site_type_symbol
_atom_site_label
_atom_site_fract_x
_atom_site_fract_y
_atom_site_fract_z
Si Si1 0.066345 0.189904 0.343005
Si Si2 0.780736 0.188412 0.269380
Si Si3 0.837598 0.196107 0.066749
Si Si4 0.636564 0.000000 0.541841
Si Si5 0.849499 0.803626 0.862740
Si Si6 0.222059 0.321907 0.430314
O O1 0.878953 0.269548 0.314095
O O2 0.016412 0.290475 0.400428
O O3 0.424358 0.206070 0.293793
O O4 0.971715 0.000000 0.363728
O O5 0.964734 0.269539 0.204082
O O6 0.885887 0.000000 0.263517
O O7 0.494031 0.261564 0.104701
O O8 0.008883 0.265333 0.099188
O O9 0.843299 0.000000 0.064656
O O10 0.000000 0.266975 0.000000
O O11 0.500000 0.000000 0.500000
O O12 0.542297 0.833639 0.583521
O O13 0.000000 0.000000 0.500000
O O14 0.868477 0.000000 0.860334
O O15 0.389680 0.500000 0.408938
O O16 0.000000 0.328438 0.500000
#
# Coordination Sequence:
#
# PCOD8061712 Si02
#       6
#     4   4   4   2   4   4
#     4  10  19  34  53  76 103 135 179 228 277 333
#     4   9  18  30  48  70  95 132 179 229 277 327
#     4   9  15  21  32  52  82 122 168 217 266 317
#     4  10  22  40  62  86 116 150 186 228 277 338
#     4   9  15  24  36  54  83 120 168 220 264 316
#     4  10  22  41  63  89 118 151 189 234 292 353
#
# _framework density 23.572538000000002
#
# number of rings (size 3 to 8) (size 9 to 14) (size 15 to 20)
#    0.000    2.545    0.909    1.636    0.000    9.818 
#    0.000    4.545    0.000    0.000    0.000    0.000 
#    0.000    0.000    0.000    0.000    0.000   63.636 
#
# Total GULP energy -272718.882451 kJ/mol
# GULP energy per Si atom -12396.312839 kJ/mol
# Density = 2.351889 g / cm^3
# Si number density = 23.572538 Si / 1000 Ang^3
#
#
#
# Elastic Constant Matrix: (Units=GPa)
#
#
# Indices 1 2 3 4 5 6 
#
# 1 73.4065 16.4437 11.2652 0.0000 32.4121 0.0000
# 2 16.4437 101.0362 15.9168 0.0000 11.8511 0.0000
# 3 11.2652 15.9168 153.4536 0.0000 24.1639 0.0000
# 4 0.0000 0.0000 0.0000 -8.0823 0.0000 -0.6394
# 5 32.4121 11.8511 24.1639 0.0000 43.8994 0.0000
# 6 0.0000 0.0000 0.0000 -0.6394 0.0000 9.2469
#
#
#
# Elastic Compliance Matrix: (Units=1/GPa)
#
#
# Indices 1 2 3 4 5 6 
#
# 1 0.020624 -0.001726 0.001083 0.000000 -0.015358 0.000000
# 2 -0.001726 0.010432 -0.000780 0.000000 -0.001112 0.000000
# 3 0.001083 -0.000780 0.007238 0.000000 -0.004573 0.000000
# 4 0.000000 0.000000 0.000000 -0.123055 0.000000 -0.008509
# 5 -0.015358 -0.001112 -0.004573 0.000000 0.036936 0.000000
# 6 0.000000 0.000000 0.000000 -0.008509 0.000000 0.107556
#
#
# Mechanical properties :
#
#
# Convention : Reuss Voigt Hill
#
# Bulk Modulus (GPa) = 28.20975 46.12752 37.16864
# Shear Modulus (GPa) = 67.21035 27.96418 47.58727
#
# Velocity S-wave (km/s) = 5.34547 3.44801 4.49793
# Velocity P-wave (km/s) = 7.07756 5.95504 6.54043
#
# Compressibility (1/GPa) = 0.03544873
#
# Stress axis : x y z
#
# Youngs Moduli (GPa) = 48.48663 95.86147 138.15631
#
# Poissons Ratio (x) = 0.16544 -0.14967
# Poissons Ratio (y) = 0.08368 0.10778
# Poissons Ratio (z) = -0.05253 0.07479
#
# Static dielectric constant tensor:
#      x y z
#    x 4.395930 0.000000 0.138670 
#    y 0.000000 5.184830 0.000000 
#    z 0.138670 0.000000 4.513500 
# 
# 
# High freq. dielectric constant tensor:
#      x y z
#    x 1.940990 0.000000 0.003860 
#    y 0.000000 1.866760 0.000000 
#    z 0.003860 0.000000 1.953190 
# 
# From -- ./inp_files/87337.got.cif
#   From: 2010.06.25/outbox.cif.g09.slc.cpg/sg10_44_cif.got.tgz:87337.got - 2010.06.27 22:07:45.
