data_PCOD8061573
_publ_section_title
;
Structure prediction by ZEFSAII (Michael W. Deem and Ramdas Pophale) SiO2 
 PCOD8061573
Probable space group: P 2/M
;
_chemical_formula_sum "Si O2"
_cell_formula_units_Z 24
_cell_length_a 17.476757
_cell_length_b 8.608627
_cell_length_c 24.960074
_cell_angle_alpha 90.000000
_cell_angle_beta 160.687874
_cell_angle_gamma 90.000000
_cell_volume 1241.919248
_symmetry_space_group_name_H-M "P 2/M"
_symmetry_group_IT_number 10
_symmetry_cell_setting 'monoclinic'
loop_
_space_group_symop_operation_xyz
x,y,z
-x,y,-z
-x,-y,-z
x,-y,z
loop_
_atom_site_type_symbol
_atom_site_label
_atom_site_fract_x
_atom_site_fract_y
_atom_site_fract_z
Si Si1 0.169496 0.820786 0.269332
Si Si2 0.171010 0.817909 0.453844
Si Si3 0.282419 0.679190 0.892500
Si Si4 0.342760 0.820176 0.045348
Si Si5 0.801370 0.183980 0.407545
Si Si6 0.542507 0.318263 0.446910
O O1 0.256854 0.723612 0.378118
O O2 0.302225 0.765992 0.303636
O O3 0.225511 0.000000 0.317955
O O4 0.896693 0.793074 0.081019
O O5 0.164713 0.750540 0.510056
O O6 0.380317 0.734931 0.560942
O O7 0.928776 0.786242 0.265012
O O8 0.220755 0.000000 0.486077
O O9 0.208873 0.500000 0.838320
O O10 0.500000 0.721294 0.000000
O O11 0.351650 0.715316 0.998772
O O12 0.549909 0.764529 0.220462
O O13 0.372616 0.000000 0.048399
O O14 0.000000 0.254176 0.500000
O O15 0.825168 0.000000 0.424676
O O16 0.498565 0.500000 0.418750
#
# Coordination Sequence:
#
# PCOD8061573 Si02
#       6
#     4   4   4   4   4   4
#     4  10  19  33  56  85 114 144 188 234 284 339
#     4  11  21  36  59  84 112 148 190 236 282 334
#     4  11  23  36  53  81 115 147 185 234 284 338
#     4  10  20  36  59  85 111 145 188 236 285 334
#     4   9  19  36  58  84 113 147 189 235 284 336
#     4  11  21  34  55  82 116 150 185 229 287 342
#
# _framework density 19.324926999999999
#
# number of rings (size 3 to 8) (size 9 to 14) (size 15 to 20)
#    0.000    1.667    1.667    5.000    0.000    3.333 
#    0.000    2.500    0.000    9.500    0.000    0.000 
#    0.000    0.000    0.000    0.000    0.000    0.000 
#
# Total GULP energy -297688.779655 kJ/mol
# GULP energy per Si atom -12403.699152 kJ/mol
# Density = 1.928094 g / cm^3
# Si number density = 19.324927 Si / 1000 Ang^3
#
#
#
# Elastic Constant Matrix: (Units=GPa)
#
#
# Indices 1 2 3 4 5 6 
#
# 1 146.8656 21.9018 45.0725 0.0000 8.9520 0.0000
# 2 21.9018 49.8551 9.7175 0.0000 8.1727 0.0000
# 3 45.0725 9.7175 95.0460 0.0000 12.1859 0.0000
# 4 0.0000 0.0000 0.0000 4.9608 0.0000 3.8756
# 5 8.9520 8.1727 12.1859 0.0000 34.9025 0.0000
# 6 0.0000 0.0000 0.0000 3.8756 0.0000 25.3064
#
#
#
# Elastic Compliance Matrix: (Units=1/GPa)
#
#
# Indices 1 2 3 4 5 6 
#
# 1 0.008378 -0.002939 -0.003649 0.000000 -0.000187 0.000000
# 2 -0.002939 0.022118 -0.000314 0.000000 -0.004316 0.000000
# 3 -0.003649 -0.000314 0.012724 0.000000 -0.003433 0.000000
# 4 0.000000 0.000000 0.000000 0.228974 0.000000 -0.035067
# 5 -0.000187 -0.004316 -0.003433 0.000000 0.030908 0.000000
# 6 0.000000 0.000000 0.000000 -0.035067 0.000000 0.044886
#
#
# Mechanical properties :
#
#
# Convention : Reuss Voigt Hill
#
# Bulk Modulus (GPa) = 33.99495 49.46113 41.72804
# Shear Modulus (GPa) = 13.45542 27.37228 20.41385
#
# Velocity S-wave (km/s) = 2.64156 3.76762 3.25368
# Velocity P-wave (km/s) = 5.18972 6.67658 5.97954
#
# Compressibility (1/GPa) = 0.02941613
#
# Stress axis : x y z
#
# Youngs Moduli (GPa) = 119.35461 45.21219 78.59281
#
# Poissons Ratio (x) = 0.13287 0.28677
# Poissons Ratio (y) = 0.35077 0.02471
# Poissons Ratio (z) = 0.43550 0.01421
#
# Static dielectric constant tensor:
#      x y z
#    x 3.816530 0.000000 0.163090 
#    y 0.000000 3.373420 0.000000 
#    z 0.163090 0.000000 3.457250 
# 
# 
# High freq. dielectric constant tensor:
#      x y z
#    x 1.763010 0.000000 0.018690 
#    y 0.000000 1.741830 0.000000 
#    z 0.018690 0.000000 1.738620 
# 
# From -- ./inp_files/90059.got.cif
#   From: 2010.06.25/outbox.cif.g09.slc.cpg/sg10_46_cif.got.tgz:90059.got - 2010.06.27 22:07:45.
