data_PCOD8061388
_publ_section_title
;
Structure prediction by ZEFSAII (Michael W. Deem and Ramdas Pophale) SiO2 
 PCOD8061388
Probable space group: P 2/M
;
_chemical_formula_sum "Si O2"
_cell_formula_units_Z 32
_cell_length_a 11.827836
_cell_length_b 9.337108
_cell_length_c 30.830604
_cell_angle_alpha 90.000000
_cell_angle_beta 30.086102
_cell_angle_gamma 90.000000
_cell_volume 1706.861036
_symmetry_space_group_name_H-M "P 2/M"
_symmetry_group_IT_number 10
_symmetry_cell_setting 'monoclinic'
loop_
_space_group_symop_operation_xyz
x,y,z
-x,y,-z
-x,-y,-z
x,-y,z
loop_
_atom_site_type_symbol
_atom_site_label
_atom_site_fract_x
_atom_site_fract_y
_atom_site_fract_z
Si Si1 0.440661 0.837962 0.138422
Si Si2 0.043875 0.165029 0.033366
Si Si3 0.277603 0.330695 0.274836
Si Si4 0.275626 0.165482 0.098769
Si Si5 0.837388 0.835151 0.415135
Si Si6 0.833113 0.335233 0.243884
Si Si7 0.356798 0.835011 0.612920
Si Si8 0.677890 0.662991 0.203245
O O1 0.364958 0.727933 0.200058
O O2 0.291932 0.815100 0.145113
O O3 0.411673 0.000000 0.165988
O O4 0.697936 0.810641 0.039217
O O5 0.892155 0.247112 0.117684
O O6 0.972330 0.000000 0.058920
O O7 0.000000 0.227123 0.000000
O O8 0.251736 0.500000 0.279800
O O9 0.448901 0.283849 0.256164
O O10 0.036560 0.263931 0.366883
O O11 0.065242 0.258845 0.153038
O O12 0.232491 0.000000 0.100586
O O13 0.500000 0.220840 0.000000
O O14 0.614039 0.797520 0.516106
O O15 0.799827 0.805039 0.376657
O O16 0.904128 0.000000 0.399809
O O17 0.885703 0.500000 0.237115
O O18 0.718790 0.264904 0.323231
O O19 0.658371 0.321251 0.261726
O O20 0.333197 0.000000 0.635011
O O21 0.724037 0.500000 0.174238
#
# Coordination Sequence:
#
# PCOD8061388 Si02
#       8
#     4   4   4   4   4   4   4   4
#     4  10  20  34  53  79 109 138 175 226 278 322
#     4  10  19  33  55  80 103 136 186 232 267 312
#     4  11  22  35  53  79 109 142 180 219 267 322
#     4  10  21  37  56  78 108 145 181 221 273 325
#     4   9  19  37  61  86 112 137 169 218 273 325
#     4  11  23  38  56  79 110 147 187 225 264 316
#     4   9  19  38  62  86 110 140 174 214 270 329
#     4  10  23  39  52  73 110 152 185 220 269 321
#
# _framework density 18.747865000000001
#
# number of rings (size 3 to 8) (size 9 to 14) (size 15 to 20)
#    0.000    2.000    1.250    3.000    0.000    8.000 
#    0.000    1.875    0.000    3.750    0.000    0.000 
#    0.000    0.000    0.000    0.000    0.000    0.000 
#
# Total GULP energy -396892.693469 kJ/mol
# GULP energy per Si atom -12402.896671 kJ/mol
# Density = 1.870519 g / cm^3
# Si number density = 18.747865 Si / 1000 Ang^3
#
#
#
# Elastic Constant Matrix: (Units=GPa)
#
#
# Indices 1 2 3 4 5 6 
#
# 1 87.9465 44.5063 42.3203 0.0000 -7.6001 0.0000
# 2 44.5063 84.7438 55.1105 0.0000 -3.6664 0.0000
# 3 42.3203 55.1105 96.8701 0.0000 -0.8907 0.0000
# 4 0.0000 0.0000 0.0000 -59.4833 0.0000 3.3296
# 5 -7.6001 -3.6664 -0.8907 0.0000 29.5245 0.0000
# 6 0.0000 0.0000 0.0000 3.3296 0.0000 26.9150
#
#
#
# Elastic Compliance Matrix: (Units=1/GPa)
#
#
# Indices 1 2 3 4 5 6 
#
# 1 0.016553 -0.006133 -0.003711 0.000000 0.003387 0.000000
# 2 -0.006133 0.021122 -0.009330 0.000000 0.000763 0.000000
# 3 -0.003711 -0.009330 0.017238 0.000000 -0.001594 0.000000
# 4 0.000000 0.000000 0.000000 -0.016696 0.000000 0.002065
# 5 0.003387 0.000763 -0.001594 0.000000 0.034789 0.000000
# 6 0.000000 0.000000 0.000000 0.002065 0.000000 0.036898
#
#
# Mechanical properties :
#
#
# Convention : Reuss Voigt Hill
#
# Bulk Modulus (GPa) = 60.37330 61.49273 60.93301
# Shear Modulus (GPa) = 32.51525 7.89947 20.20736
#
# Velocity S-wave (km/s) = 4.16906 2.05491 3.28662
# Velocity P-wave (km/s) = 7.44630 6.20494 6.85379
#
# Compressibility (1/GPa) = 0.01656361
#
# Stress axis : x y z
#
# Youngs Moduli (GPa) = 60.41214 47.34420 58.01261
#
# Poissons Ratio (x) = 0.29038 0.21529
# Poissons Ratio (y) = 0.37054 0.54125
# Poissons Ratio (z) = 0.22419 0.44172
#
# Static dielectric constant tensor:
#      x y z
#    x 3.531960 0.000000 -0.113430 
#    y 0.000000 3.372710 0.000000 
#    z -0.113430 0.000000 3.322320 
# 
# 
# High freq. dielectric constant tensor:
#      x y z
#    x 1.732950 0.000000 -0.005500 
#    y 0.000000 1.723260 0.000000 
#    z -0.005500 0.000000 1.723780 
# 
# From -- ./inp_files/94932.got.cif
#   From: 2010.06.25/outbox.cif.g09.slc.cpg/sg10_48_cif.got.tgz:94932.got - 2010.06.27 22:07:45.
