data_PCOD8061437
_publ_section_title
;
Structure prediction by ZEFSAII (Michael W. Deem and Ramdas Pophale) SiO2 
 PCOD8061437
Probable space group: P 2/M
;
_chemical_formula_sum "Si O2"
_cell_formula_units_Z 28
_cell_length_a 10.066965
_cell_length_b 8.688390
_cell_length_c 29.496529
_cell_angle_alpha 90.000000
_cell_angle_beta 145.951084
_cell_angle_gamma 90.000000
_cell_volume 1444.506911
_symmetry_space_group_name_H-M "P 2/M"
_symmetry_group_IT_number 10
_symmetry_cell_setting 'monoclinic'
loop_
_space_group_symop_operation_xyz
x,y,z
-x,y,-z
-x,-y,-z
x,-y,z
loop_
_atom_site_type_symbol
_atom_site_label
_atom_site_fract_x
_atom_site_fract_y
_atom_site_fract_z
Si Si1 0.890475 0.679067 0.165467
Si Si2 0.030829 0.823195 0.906778
Si Si3 0.346340 0.169755 0.501784
Si Si4 0.597343 0.320543 0.925344
Si Si5 0.937999 0.321001 0.339252
Si Si6 0.461306 0.177353 0.187610
Si Si7 0.188191 0.180894 0.324157
O O1 0.938516 0.500000 0.186760
O O2 0.891919 0.716884 0.112977
O O3 0.637699 0.728662 0.114051
O O4 0.098320 0.774710 0.248952
O O5 0.755745 0.795236 0.839796
O O6 0.080371 0.000000 0.908479
O O7 0.182854 0.776554 0.993571
O O8 0.500000 0.163255 0.500000
O O9 0.530747 0.224570 0.593039
O O10 0.125426 0.284292 0.432505
O O11 0.244672 0.000000 0.484057
O O12 0.651878 0.500000 0.946830
O O13 0.566041 0.283481 0.863969
O O14 0.880707 0.500000 0.323175
O O15 0.697640 0.227610 0.281202
O O16 0.036474 0.274568 0.317930
O O17 0.477493 0.000000 0.176943
O O18 0.154184 0.000000 0.324146
#
# Coordination Sequence:
#
# PCOD8061437 Si02
#       7
#     4   4   4   4   4   4   4
#     4  11  23  38  58  85 116 149 187 232 282 336
#     4  11  25  41  58  82 111 150 194 233 281 335
#     4   8  16  30  49  77 111 146 182 224 275 327
#     4  11  23  39  60  86 113 144 186 236 287 335
#     4  11  20  31  52  83 114 146 184 229 282 331
#     4  11  23  39  59  82 112 150 192 235 278 333
#     4  10  19  33  55  81 112 149 187 228 274 328
#
# _framework density 19.383778
#
# number of rings (size 3 to 8) (size 9 to 14) (size 15 to 20)
#    0.000    1.571    1.429    5.143    0.000   10.571 
#    0.000    0.000    0.000    0.857    0.000    6.000 
#    0.000    0.000    0.000    0.000    0.000    0.000 
#
# Total GULP energy -347293.709383 kJ/mol
# GULP energy per Si atom -12403.346764 kJ/mol
# Density = 1.933966 g / cm^3
# Si number density = 19.383778 Si / 1000 Ang^3
#
#
#
# Elastic Constant Matrix: (Units=GPa)
#
#
# Indices 1 2 3 4 5 6 
#
# 1 49.6673 29.4519 13.6547 0.0000 8.6149 0.0000
# 2 29.4519 66.7662 34.8694 0.0000 8.3229 0.0000
# 3 13.6547 34.8694 109.8173 0.0000 19.4065 0.0000
# 4 0.0000 0.0000 0.0000 33.7374 0.0000 -3.8925
# 5 8.6149 8.3229 19.4065 0.0000 16.1962 0.0000
# 6 0.0000 0.0000 0.0000 -3.8925 0.0000 18.1696
#
#
#
# Elastic Compliance Matrix: (Units=1/GPa)
#
#
# Indices 1 2 3 4 5 6 
#
# 1 0.028995 -0.012612 0.002511 0.000000 -0.011951 0.000000
# 2 -0.012612 0.023560 -0.006291 0.000000 0.002139 0.000000
# 3 0.002511 -0.006291 0.013265 0.000000 -0.013997 0.000000
# 4 0.000000 0.000000 0.000000 0.030392 0.000000 0.006511
# 5 -0.011951 0.002139 -0.013997 0.000000 0.083772 0.000000
# 6 0.000000 0.000000 0.000000 0.006511 0.000000 0.056432
#
#
# Mechanical properties :
#
#
# Convention : Reuss Voigt Hill
#
# Bulk Modulus (GPa) = 30.26930 42.46699 36.36814
# Shear Modulus (GPa) = 17.84372 23.50561 20.67467
#
# Velocity S-wave (km/s) = 3.03735 3.48608 3.26942
# Velocity P-wave (km/s) = 5.28681 6.17736 5.74935
#
# Compressibility (1/GPa) = 0.03303678
#
# Stress axis : x y z
#
# Youngs Moduli (GPa) = 34.48835 42.44512 75.38800
#
# Poissons Ratio (x) = 0.53533 -0.18932
# Poissons Ratio (y) = 0.43497 0.47423
# Poissons Ratio (z) = -0.08661 0.26700
#
# Static dielectric constant tensor:
#      x y z
#    x 3.160960 0.000000 0.168380 
#    y 0.000000 3.531310 0.000000 
#    z 0.168380 0.000000 3.909180 
# 
# 
# High freq. dielectric constant tensor:
#      x y z
#    x 1.712070 0.000000 0.011190 
#    y 0.000000 1.762890 0.000000 
#    z 0.011190 0.000000 1.772930 
# 
# From -- ./inp_files/52454.got.cif
#   From: 2010.06.25/outbox.cif.g09.slc.cpg/sg10_27_cif.got.tgz:52454.got - 2010.06.27 22:07:45.
