data_PCOD8061819
_publ_section_title
;
Structure prediction by ZEFSAII (Michael W. Deem and Ramdas Pophale) SiO2 
 PCOD8061819
Probable space group: P 2/M
;
_chemical_formula_sum "Si O2"
_cell_formula_units_Z 30
_cell_length_a 9.322286
_cell_length_b 14.605979
_cell_length_c 12.865204
_cell_angle_alpha 90.000000
_cell_angle_beta 64.319877
_cell_angle_gamma 90.000000
_cell_volume 1578.716559
_symmetry_space_group_name_H-M "P 2/M"
_symmetry_group_IT_number 10
_symmetry_cell_setting 'monoclinic'
loop_
_space_group_symop_operation_xyz
x,y,z
-x,y,-z
-x,-y,-z
x,-y,z
loop_
_atom_site_type_symbol
_atom_site_label
_atom_site_fract_x
_atom_site_fract_y
_atom_site_fract_z
Si Si1 0.701059 0.098528 0.781493
Si Si2 0.527912 0.684790 0.182467
Si Si3 0.492687 0.846359 0.335408
Si Si4 0.965469 0.232428 0.631361
Si Si5 0.164412 0.606596 0.991106
Si Si6 0.500000 0.186598 0.000000
Si Si7 0.198868 0.606744 0.215925
Si Si8 0.249751 0.106392 0.590289
O O1 0.547998 0.092833 0.753082
O O2 0.801246 0.179540 0.699538
O O3 0.788982 0.000000 0.755752
O O4 0.646721 0.123084 0.915417
O O5 0.512606 0.739526 0.296004
O O6 0.371450 0.623110 0.213654
O O7 0.688674 0.624602 0.133612
O O8 0.556839 0.754347 0.079089
O O9 0.655638 0.885602 0.331547
O O10 0.353337 0.855023 0.463476
O O11 0.941400 0.334164 0.685356
O O12 0.000000 0.241684 0.500000
O O13 0.096986 0.171748 0.648654
O O14 0.135692 0.500000 0.007249
O O15 0.206179 0.640863 0.094333
O O16 0.000000 0.652442 0.000000
O O17 0.154399 0.500000 0.241580
O O18 0.202445 0.000000 0.585143
#
# Coordination Sequence:
#
# PCOD8061819 Si02
#       8
#     4   4   4   4   4   2   4   4
#     4  11  20  35  57  83 115 149 192 238 284 341
#     4  11  18  37  58  85 113 155 194 239 286 347
#     4  10  21  35  57  82 115 149 194 235 283 348
#     4  12  23  38  58  89 117 150 198 246 295 345
#     4  10  21  35  57  88 115 147 194 246 297 345
#     4  10  19  34  55  80 112 144 193 228 285 334
#     4  11  22  39  61  84 117 156 195 239 293 353
#     4  11  22  38  58  84 118 156 194 240 294 346
#
# _framework density 19.002777999999999
#
# number of rings (size 3 to 8) (size 9 to 14) (size 15 to 20)
#    0.000    1.200    5.333    2.600    1.867    1.867 
#    0.000    0.000    0.000    0.000    0.000    9.333 
#    0.000    0.000    0.000    0.000    0.000    0.000 
#
# Total GULP energy -371860.205899 kJ/mol
# GULP energy per Si atom -12395.340197 kJ/mol
# Density = 1.895953 g / cm^3
# Si number density = 19.002778 Si / 1000 Ang^3
#
#
#
# Elastic Constant Matrix: (Units=GPa)
#
#
# Indices 1 2 3 4 5 6 
#
# 1 93.3739 31.9732 26.6435 0.0000 -8.6058 0.0000
# 2 31.9732 105.3822 49.7760 0.0000 -7.7588 0.0000
# 3 26.6435 49.7760 91.0745 0.0000 -9.8046 0.0000
# 4 0.0000 0.0000 0.0000 16.7264 0.0000 -2.5664
# 5 -8.6058 -7.7588 -9.8046 0.0000 23.5172 0.0000
# 6 0.0000 0.0000 0.0000 -2.5664 0.0000 28.6479
#
#
#
# Elastic Compliance Matrix: (Units=1/GPa)
#
#
# Indices 1 2 3 4 5 6 
#
# 1 0.012424 -0.002678 -0.001860 0.000000 0.002887 0.000000
# 2 -0.002678 0.013411 -0.006465 0.000000 0.000749 0.000000
# 3 -0.001860 -0.006465 0.015448 0.000000 0.003627 0.000000
# 4 0.000000 0.000000 0.000000 0.060619 0.000000 0.005430
# 5 0.002887 0.000749 0.003627 0.000000 0.045338 0.000000
# 6 0.000000 0.000000 0.000000 0.005430 0.000000 0.035393
#
#
# Mechanical properties :
#
#
# Convention : Reuss Voigt Hill
#
# Bulk Modulus (GPa) = 51.87944 56.29064 54.08504
# Shear Modulus (GPa) = 23.68940 25.87414 24.78177
#
# Velocity S-wave (km/s) = 3.53459 3.69399 3.61517
# Velocity P-wave (km/s) = 6.63461 6.91959 6.77860
#
# Compressibility (1/GPa) = 0.01927546
#
# Stress axis : x y z
#
# Youngs Moduli (GPa) = 80.49249 74.56628 64.73244
#
# Poissons Ratio (x) = 0.19971 0.12039
# Poissons Ratio (y) = 0.21558 0.41853
# Poissons Ratio (z) = 0.14970 0.48211
#
# Static dielectric constant tensor:
#      x y z
#    x 3.600560 0.000000 0.023150 
#    y 0.000000 3.498970 0.000000 
#    z 0.023150 0.000000 3.604360 
# 
# 
# High freq. dielectric constant tensor:
#      x y z
#    x 1.731110 0.000000 -0.001980 
#    y 0.000000 1.737710 0.000000 
#    z -0.001980 0.000000 1.731030 
# 
# From -- ./inp_files/42927.got.cif
#   From: 2010.06.25/outbox.cif.g09.slc.cpg/sg10_22_cif.got.tgz:42927.got - 2010.06.27 22:07:45.
