data_PCOD8061744
_publ_section_title
;
Structure prediction by ZEFSAII (Michael W. Deem and Ramdas Pophale) SiO2 
 PCOD8061744
Probable space group: P 2/M
;
_chemical_formula_sum "Si O2"
_cell_formula_units_Z 32
_cell_length_a 23.536393
_cell_length_b 8.509621
_cell_length_c 19.915475
_cell_angle_alpha 90.000000
_cell_angle_beta 154.603307
_cell_angle_gamma 90.000000
_cell_volume 1710.722708
_symmetry_space_group_name_H-M "P 2/M"
_symmetry_group_IT_number 10
_symmetry_cell_setting 'monoclinic'
loop_
_space_group_symop_operation_xyz
x,y,z
-x,y,-z
-x,-y,-z
x,-y,z
loop_
_atom_site_type_symbol
_atom_site_label
_atom_site_fract_x
_atom_site_fract_y
_atom_site_fract_z
Si Si1 0.598583 0.187137 0.914893
Si Si2 0.697770 0.813896 0.382329
Si Si3 0.831113 0.813340 0.257517
Si Si4 0.368509 0.182539 0.321834
Si Si5 0.731615 0.816149 0.567640
Si Si6 0.123384 0.812804 0.545667
Si Si7 0.553228 0.317217 0.726775
Si Si8 0.148088 0.681409 0.178033
O O1 0.709119 0.253625 0.084005
O O2 0.604911 0.000000 0.914396
O O3 0.454444 0.242482 0.787765
O O4 0.627857 0.263073 0.873883
O O5 0.755350 0.760974 0.516067
O O6 0.787826 0.739305 0.419437
O O7 0.701382 0.000000 0.381272
O O8 0.818642 0.753531 0.321038
O O9 0.971042 0.755918 0.375449
O O10 0.826941 0.000000 0.252598
O O11 0.500000 0.241956 0.500000
O O12 0.352167 0.279668 0.235283
O O13 0.242931 0.212144 0.234439
O O14 0.377726 0.000000 0.313979
O O15 0.580713 0.781502 0.427048
O O16 0.831802 0.721067 0.721961
O O17 0.758227 0.000000 0.605080
O O18 0.128525 0.000000 0.548531
O O19 0.518713 0.500000 0.693672
O O20 0.180495 0.500000 0.199369
O O21 0.000000 0.724970 0.000000
#
# Coordination Sequence:
#
# PCOD8061744 Si02
#       8
#     4   4   4   4   4   4   4   4
#     4   9  17  30  46  71 102 131 165 212 256 302
#     4   8  15  26  43  66  97 128 164 208 254 302
#     4   8  14  24  42  67 101 133 162 204 257 304
#     4  11  22  37  61  86 106 136 180 226 265 314
#     4  10  19  34  54  77 105 138 177 221 265 313
#     4   8  13  24  41  67  99 132 164 203 254 308
#     4  11  21  34  55  79 105 138 174 216 268 321
#     4  11  24  40  57  80 112 146 178 217 265 319
#
# _framework density 18.705544
#
# number of rings (size 3 to 8) (size 9 to 14) (size 15 to 20)
#    0.000    2.500    1.250    3.750    0.000    2.000 
#    2.250    2.500    0.000    0.000    0.000    9.625 
#    0.000    0.000    0.000    0.000    0.000    0.000 
#
# Total GULP energy -396758.848305 kJ/mol
# GULP energy per Si atom -12398.714010 kJ/mol
# Density = 1.866297 g / cm^3
# Si number density = 18.705544 Si / 1000 Ang^3
#
#
#
# Elastic Constant Matrix: (Units=GPa)
#
#
# Indices 1 2 3 4 5 6 
#
# 1 159.7053 17.4199 81.5484 0.0000 -4.8176 0.0000
# 2 17.4199 30.0318 17.0151 0.0000 -0.7489 0.0000
# 3 81.5484 17.0151 138.4705 0.0000 -18.1492 0.0000
# 4 0.0000 0.0000 0.0000 12.3586 0.0000 0.5321
# 5 -4.8176 -0.7489 -18.1492 0.0000 26.4093 0.0000
# 6 0.0000 0.0000 0.0000 0.5321 0.0000 6.3867
#
#
#
# Elastic Compliance Matrix: (Units=1/GPa)
#
#
# Indices 1 2 3 4 5 6 
#
# 1 0.009219 -0.002330 -0.005420 0.000000 -0.002109 0.000000
# 2 -0.002330 0.036496 -0.003333 0.000000 -0.001680 0.000000
# 3 -0.005420 -0.003333 0.011738 0.000000 0.006984 0.000000
# 4 0.000000 0.000000 0.000000 0.081206 0.000000 -0.006766
# 5 -0.002109 -0.001680 0.006984 0.000000 0.042233 0.000000
# 6 0.000000 0.000000 0.000000 -0.006766 0.000000 0.157138
#
#
# Mechanical properties :
#
#
# Convention : Reuss Voigt Hill
#
# Bulk Modulus (GPa) = 28.33728 62.24162 45.28945
# Shear Modulus (GPa) = 13.44238 23.17921 18.31079
#
# Velocity S-wave (km/s) = 2.68364 3.52399 3.13213
# Velocity P-wave (km/s) = 4.97841 7.06433 6.11103
#
# Compressibility (1/GPa) = 0.03528921
#
# Stress axis : x y z
#
# Youngs Moduli (GPa) = 108.46694 27.40051 85.19054
#
# Poissons Ratio (x) = 0.06383 0.46170
# Poissons Ratio (y) = 0.25269 0.28392
# Poissons Ratio (z) = 0.58785 0.09132
#
# Static dielectric constant tensor:
#      x y z
#    x 3.748130 0.000000 -0.117070 
#    y 0.000000 3.013080 0.000000 
#    z -0.117070 0.000000 3.542020 
# 
# 
# High freq. dielectric constant tensor:
#      x y z
#    x 1.733880 0.000000 -0.009550 
#    y 0.000000 1.691810 0.000000 
#    z -0.009550 0.000000 1.715050 
# 
# From -- ./inp_files/91226.got.cif
#   From: 2010.06.25/outbox.cif.g09.slc.cpg/sg10_46_cif.got.tgz:91226.got - 2010.06.27 22:07:45.
