data_PCOD8061707
_publ_section_title
;
Structure prediction by ZEFSAII (Michael W. Deem and Ramdas Pophale) SiO2 
 PCOD8061707
Probable space group: P 2/M
;
_chemical_formula_sum "Si O2"
_cell_formula_units_Z 32
_cell_length_a 21.104848
_cell_length_b 8.835802
_cell_length_c 12.195785
_cell_angle_alpha 90.000000
_cell_angle_beta 128.813691
_cell_angle_gamma 90.000000
_cell_volume 1772.067816
_symmetry_space_group_name_H-M "P 2/M"
_symmetry_group_IT_number 10
_symmetry_cell_setting 'monoclinic'
loop_
_space_group_symop_operation_xyz
x,y,z
-x,y,-z
-x,-y,-z
x,-y,z
loop_
_atom_site_type_symbol
_atom_site_label
_atom_site_fract_x
_atom_site_fract_y
_atom_site_fract_z
Si Si1 0.398256 0.177463 0.471435
Si Si2 0.444453 0.321809 0.295137
Si Si3 0.050946 0.322388 0.753670
Si Si4 0.865174 0.677324 0.544378
Si Si5 0.696322 0.173541 0.967336
Si Si6 0.161120 0.826583 0.042513
Si Si7 0.828726 0.178246 0.281765
Si Si8 0.217506 0.824716 0.342357
O O1 0.404042 0.268879 0.364727
O O2 0.469525 0.236532 0.629272
O O3 0.312827 0.211059 0.436056
O O4 0.408503 0.000000 0.456725
O O5 0.459248 0.500000 0.312199
O O6 0.383754 0.276973 0.130518
O O7 0.058334 0.500000 0.746668
O O8 0.093620 0.246741 0.695738
O O9 0.958020 0.267952 0.655007
O O10 0.091656 0.275832 0.912908
O O11 0.859722 0.500000 0.517837
O O12 0.821776 0.760888 0.396734
O O13 0.818043 0.718487 0.603158
O O14 0.752638 0.199304 0.922267
O O15 0.668389 0.000000 0.944861
O O16 0.745760 0.223830 0.129071
O O17 0.170898 0.782555 0.179744
O O18 0.133983 0.000000 0.998323
O O19 0.840176 0.000000 0.293450
O O20 0.203337 0.000000 0.356555
#
# Coordination Sequence:
#
# PCOD8061707 Si02
#       8
#     4   4   4   4   4   4   4   4
#     4  10  19  34  53  74 107 145 176 215 258 304
#     4  11  20  29  49  83 113 138 172 211 258 316
#     4  10  21  36  54  79 109 139 172 218 275 324
#     4  11  24  38  53  76 108 143 177 217 271 325
#     4   9  17  33  54  78 107 137 172 217 267 311
#     4   9  18  34  54  78 105 138 181 222 261 310
#     4  10  21  37  59  81 102 134 182 229 264 307
#     4  10  21  37  56  76 104 143 185 220 257 312
#
# _framework density 18.058001000000001
#
# number of rings (size 3 to 8) (size 9 to 14) (size 15 to 20)
#    0.000    2.000    1.250    4.500    0.000    8.000 
#    0.000    2.500    0.000    0.750    0.000    5.250 
#    0.000    0.000    0.000    0.000    0.000    0.000 
#
# Total GULP energy -396874.130420 kJ/mol
# GULP energy per Si atom -12402.316576 kJ/mol
# Density = 1.801690 g / cm^3
# Si number density = 18.058001 Si / 1000 Ang^3
#
#
#
# Elastic Constant Matrix: (Units=GPa)
#
#
# Indices 1 2 3 4 5 6 
#
# 1 46.3096 17.1066 40.0175 0.0000 -7.4596 0.0000
# 2 17.1066 58.8821 30.2447 0.0000 1.5118 0.0000
# 3 40.0175 30.2447 105.4949 0.0000 -1.6195 0.0000
# 4 0.0000 0.0000 0.0000 29.2223 0.0000 -0.5000
# 5 -7.4596 1.5118 -1.6195 0.0000 24.8980 0.0000
# 6 0.0000 0.0000 0.0000 -0.5000 0.0000 22.7587
#
#
#
# Elastic Compliance Matrix: (Units=1/GPa)
#
#
# Indices 1 2 3 4 5 6 
#
# 1 0.035108 -0.004333 -0.011922 0.000000 0.010006 0.000000
# 2 -0.004333 0.020513 -0.004281 0.000000 -0.002822 0.000000
# 3 -0.011922 -0.004281 0.015193 0.000000 -0.002324 0.000000
# 4 0.000000 0.000000 0.000000 0.034233 0.000000 0.000752
# 5 0.010006 -0.002822 -0.002324 0.000000 0.043182 0.000000
# 6 0.000000 0.000000 0.000000 0.000752 0.000000 0.043956
#
#
# Mechanical properties :
#
#
# Convention : Reuss Voigt Hill
#
# Bulk Modulus (GPa) = 33.62092 42.82492 38.22292
# Shear Modulus (GPa) = 20.56167 23.59698 22.07933
#
# Velocity S-wave (km/s) = 3.37804 3.61880 3.50049
# Velocity P-wave (km/s) = 5.82010 6.42087 6.12786
#
# Compressibility (1/GPa) = 0.02974338
#
# Stress axis : x y z
#
# Youngs Moduli (GPa) = 28.48337 48.74919 65.81977
#
# Poissons Ratio (x) = 0.21123 0.78469
# Poissons Ratio (y) = 0.12342 0.28175
# Poissons Ratio (z) = 0.33957 0.20868
#
# Static dielectric constant tensor:
#      x y z
#    x 3.102190 0.000000 0.173440 
#    y 0.000000 3.317190 0.000000 
#    z 0.173440 0.000000 3.581830 
# 
# 
# High freq. dielectric constant tensor:
#      x y z
#    x 1.669800 0.000000 0.014110 
#    y 0.000000 1.704380 0.000000 
#    z 0.014110 0.000000 1.709460 
# 
# From -- ./inp_files/55325.got.cif
#   From: 2010.06.25/outbox.cif.g09.slc.cpg/sg10_28_cif.got.tgz:55325.got - 2010.06.27 22:07:45.
