data_PCOD8061529
_publ_section_title
;
Structure prediction by ZEFSAII (Michael W. Deem and Ramdas Pophale) SiO2 
 PCOD8061529
Probable space group: P 2/M
;
_chemical_formula_sum "Si O2"
_cell_formula_units_Z 32
_cell_length_a 20.508403
_cell_length_b 8.579035
_cell_length_c 25.175539
_cell_angle_alpha 90.000000
_cell_angle_beta 157.514719
_cell_angle_gamma 90.000000
_cell_volume 1694.022887
_symmetry_space_group_name_H-M "P 2/M"
_symmetry_group_IT_number 10
_symmetry_cell_setting 'monoclinic'
loop_
_space_group_symop_operation_xyz
x,y,z
-x,y,-z
-x,-y,-z
x,-y,z
loop_
_atom_site_type_symbol
_atom_site_label
_atom_site_fract_x
_atom_site_fract_y
_atom_site_fract_z
Si Si1 0.154373 0.818758 0.577740
Si Si2 0.496257 0.317280 0.143125
Si Si3 0.431620 0.316318 0.609905
Si Si4 0.826209 0.816454 0.146832
Si Si5 0.342397 0.817124 0.133068
Si Si6 0.901660 0.681950 0.578086
Si Si7 0.621242 0.814690 0.543931
Si Si8 0.001595 0.182448 0.172931
O O1 0.328201 0.771081 0.738265
O O2 0.000000 0.775696 0.500000
O O3 0.138534 0.718193 0.512745
O O4 0.155393 0.000000 0.563438
O O5 0.526900 0.500000 0.162244
O O6 0.440132 0.274451 0.160481
O O7 0.358424 0.264549 0.995398
O O8 0.452071 0.500000 0.630448
O O9 0.589153 0.235183 0.758515
O O10 0.444373 0.263840 0.559022
O O11 0.254733 0.258872 0.503007
O O12 0.924932 0.770467 0.274707
O O13 0.938207 0.751473 0.181830
O O14 0.796943 0.000000 0.121766
O O15 0.372282 0.000000 0.145926
O O16 0.139742 0.776464 0.978144
O O17 0.931162 0.500000 0.608056
O O18 0.500000 0.757991 0.500000
O O19 0.811831 0.750659 0.700811
O O20 0.614899 0.000000 0.532266
O O21 0.021945 0.000000 0.194513
#
# Coordination Sequence:
#
# PCOD8061529 Si02
#       8
#     4   4   4   4   4   4   4   4
#     4  11  24  41  61  85 115 154 195 233 281 342
#     4  11  21  35  56  85 119 150 186 233 288 341
#     4  11  22  35  54  84 116 147 187 235 288 342
#     4  10  19  34  58  84 114 149 189 237 283 336
#     4  10  19  33  56  82 110 145 189 238 284 333
#     4  11  22  36  57  87 117 148 188 238 290 338
#     4  10  20  36  58  82 111 150 193 237 287 343
#     4   8  16  31  52  81 109 139 183 232 282 329
#
# _framework density 18.889945000000001
#
# number of rings (size 3 to 8) (size 9 to 14) (size 15 to 20)
#    0.000    1.750    2.500    3.750    0.000    2.250 
#    0.000    1.875    0.000    7.500    0.000    0.000 
#    0.000    0.000    0.000    0.000    0.000    0.000 
#
# Total GULP energy -396851.606445 kJ/mol
# GULP energy per Si atom -12401.612701 kJ/mol
# Density = 1.884695 g / cm^3
# Si number density = 18.889945 Si / 1000 Ang^3
#
#
#
# Elastic Constant Matrix: (Units=GPa)
#
#
# Indices 1 2 3 4 5 6 
#
# 1 55.4765 15.9498 26.6799 0.0000 3.8009 0.0000
# 2 15.9498 46.3776 18.0682 0.0000 2.1106 0.0000
# 3 26.6799 18.0682 129.7481 0.0000 -0.4982 0.0000
# 4 0.0000 0.0000 0.0000 26.9746 0.0000 -5.7537
# 5 3.8009 2.1106 -0.4982 0.0000 30.7083 0.0000
# 6 0.0000 0.0000 0.0000 -5.7537 0.0000 21.8088
#
#
#
# Elastic Compliance Matrix: (Units=1/GPa)
#
#
# Indices 1 2 3 4 5 6 
#
# 1 0.021634 -0.005919 -0.003633 0.000000 -0.002330 0.000000
# 2 -0.005919 0.024499 -0.002198 0.000000 -0.000987 0.000000
# 3 -0.003633 -0.002198 0.008763 0.000000 0.000743 0.000000
# 4 0.000000 0.000000 0.000000 0.039282 0.000000 0.010364
# 5 -0.002330 -0.000987 0.000743 0.000000 0.032933 0.000000
# 6 0.000000 0.000000 0.000000 0.010364 0.000000 0.048587
#
#
# Mechanical properties :
#
#
# Convention : Reuss Voigt Hill
#
# Bulk Modulus (GPa) = 31.85141 39.22199 35.53670
# Shear Modulus (GPa) = 23.84755 27.29196 25.56976
#
# Velocity S-wave (km/s) = 3.55695 3.80516 3.68315
# Velocity P-wave (km/s) = 5.81097 6.33357 6.07789
#
# Compressibility (1/GPa) = 0.03139579
#
# Stress axis : x y z
#
# Youngs Moduli (GPa) = 46.22295 40.81793 114.11166
#
# Poissons Ratio (x) = 0.24159 0.41461
# Poissons Ratio (y) = 0.27358 0.25086
# Poissons Ratio (z) = 0.16794 0.08973
#
# Static dielectric constant tensor:
#      x y z
#    x 3.203860 0.000000 0.071830 
#    y 0.000000 3.331690 0.000000 
#    z 0.071830 0.000000 3.854160 
# 
# 
# High freq. dielectric constant tensor:
#      x y z
#    x 1.698650 0.000000 -0.008730 
#    y 0.000000 1.731410 0.000000 
#    z -0.008730 0.000000 1.753470 
# 
# From -- ./inp_files/93718.got.cif
#   From: 2010.06.25/outbox.cif.g09.slc.cpg/sg10_47_cif.got.tgz:93718.got - 2010.06.27 22:07:45.
