data_PCOD8061004
_publ_section_title
;
Structure prediction by ZEFSAII (Michael W. Deem and Ramdas Pophale) SiO2 
 PCOD8061004
Probable space group: P 2/M
;
_chemical_formula_sum "Si O2"
_cell_formula_units_Z 32
_cell_length_a 14.959747
_cell_length_b 8.596212
_cell_length_c 11.998750
_cell_angle_alpha 90.000000
_cell_angle_beta 86.829928
_cell_angle_gamma 90.000000
_cell_volume 1540.644005
_symmetry_space_group_name_H-M "P 2/M"
_symmetry_group_IT_number 10
_symmetry_cell_setting 'monoclinic'
loop_
_space_group_symop_operation_xyz
x,y,z
-x,y,-z
-x,-y,-z
x,-y,z
loop_
_atom_site_type_symbol
_atom_site_label
_atom_site_fract_x
_atom_site_fract_y
_atom_site_fract_z
Si Si1 0.685882 0.676639 0.403881
Si Si2 0.003411 0.684052 0.626878
Si Si3 0.167317 0.819578 0.748247
Si Si4 0.162739 0.315879 0.220211
Si Si5 0.521337 0.676836 0.276797
Si Si6 0.780612 0.682862 0.023979
Si Si7 0.411263 0.181368 0.942947
Si Si8 0.672558 0.314696 0.651394
O O1 0.722923 0.500000 0.390442
O O2 0.737255 0.786026 0.313748
O O3 0.579903 0.679824 0.385329
O O4 0.699507 0.743758 0.526682
O O5 0.995401 0.500000 0.622179
O O6 0.922123 0.753826 0.707163
O O7 0.000000 0.750541 0.500000
O O8 0.094405 0.727921 0.681754
O O9 0.171409 0.767248 0.876483
O O10 0.144118 0.000000 0.746334
O O11 0.163360 0.500000 0.233347
O O12 0.253511 0.249416 0.268964
O O13 0.162090 0.270238 0.089854
O O14 0.514115 0.500000 0.231318
O O15 0.573987 0.784775 0.187212
O O16 0.424029 0.751045 0.305883
O O17 0.783554 0.500000 0.046356
O O18 0.677583 0.730277 0.009951
O O19 0.395622 0.000000 0.965100
O O20 0.500000 0.243083 0.000000
O O21 0.666036 0.500000 0.648961
#
# Coordination Sequence:
#
# PCOD8061004 Si02
#       8
#     4   4   4   4   4   4   4   4
#     4  10  19  34  58  87 119 156 198 244 295 355
#     4  10  21  41  69  96 121 153 194 242 299 362
#     4  12  25  40  60  87 123 162 200 248 302 357
#     4   9  19  35  59  90 119 149 192 249 300 347
#     4  10  19  32  55  86 117 154 199 245 293 349
#     4  11  22  39  62  87 117 155 204 252 295 348
#     4  11  23  37  54  80 119 164 205 247 297 352
#     4   9  17  32  56  89 122 150 191 247 303 353
#
# _framework density 20.770534000000001
#
# number of rings (size 3 to 8) (size 9 to 14) (size 15 to 20)
#    0.000    1.750    1.250    3.750    0.000    6.250 
#    0.000    4.375    0.000    5.250    0.000    0.000 
#    0.000    0.000    0.000    0.000    0.000    0.000 
#
# Total GULP energy -396803.243906 kJ/mol
# GULP energy per Si atom -12400.101372 kJ/mol
# Density = 2.072326 g / cm^3
# Si number density = 20.770534 Si / 1000 Ang^3
#
#
#
# Elastic Constant Matrix: (Units=GPa)
#
#
# Indices 1 2 3 4 5 6 
#
# 1 118.4143 5.0846 54.9820 0.0000 -2.6022 0.0000
# 2 5.0846 22.7117 16.7388 0.0000 -7.0812 0.0000
# 3 54.9820 16.7388 137.6634 0.0000 -7.3971 0.0000
# 4 0.0000 0.0000 0.0000 6.7079 0.0000 8.4276
# 5 -2.6022 -7.0812 -7.3971 0.0000 40.8892 0.0000
# 6 0.0000 0.0000 0.0000 8.4276 0.0000 13.0393
#
#
#
# Elastic Compliance Matrix: (Units=1/GPa)
#
#
# Indices 1 2 3 4 5 6 
#
# 1 0.010381 0.000814 -0.004243 0.000000 0.000034 0.000000
# 2 0.000814 0.050741 -0.006079 0.000000 0.007740 0.000000
# 3 -0.004243 -0.006079 0.009721 0.000000 0.000436 0.000000
# 4 0.000000 0.000000 0.000000 0.793071 0.000000 -0.512584
# 5 0.000034 0.007740 0.000436 0.000000 0.025878 0.000000
# 6 0.000000 0.000000 0.000000 -0.512584 0.000000 0.407988
#
#
# Mechanical properties :
#
#
# Convention : Reuss Voigt Hill
#
# Bulk Modulus (GPa) = 19.29496 48.04447 33.66971
# Shear Modulus (GPa) = 3.74792 25.59289 14.67041
#
# Velocity S-wave (km/s) = 1.34475 3.51404 2.66053
# Velocity P-wave (km/s) = 3.42358 6.29650 5.06788
#
# Compressibility (1/GPa) = 0.05182700
#
# Stress axis : x y z
#
# Youngs Moduli (GPa) = 96.33048 19.70783 102.86600
#
# Poissons Ratio (x) = -0.01604 0.43648
# Poissons Ratio (y) = -0.07840 0.62531
# Poissons Ratio (z) = 0.40875 0.11980
#
# Static dielectric constant tensor:
#      x y z
#    x 3.856570 0.000000 -0.022340 
#    y 0.000000 3.321950 0.000000 
#    z -0.022340 0.000000 3.909910 
# 
# 
# High freq. dielectric constant tensor:
#      x y z
#    x 1.818640 0.000000 0.003290 
#    y 0.000000 1.771170 0.000000 
#    z 0.003290 0.000000 1.825710 
# 
# From -- ./inp_files/49841.got.cif
#   From: 2010.06.25/outbox.cif.g09.slc.cpg/sg10_25_cif.got.tgz:49841.got - 2010.06.27 22:07:45.
