data_PCOD8061865
_publ_section_title
;
Structure prediction by ZEFSAII (Michael W. Deem and Ramdas Pophale) SiO2 
 PCOD8061865
Probable space group: P 2/M
;
_chemical_formula_sum "Si O2"
_cell_formula_units_Z 32
_cell_length_a 18.975191
_cell_length_b 9.042694
_cell_length_c 12.651630
_cell_angle_alpha 90.000000
_cell_angle_beta 50.139748
_cell_angle_gamma 90.000000
_cell_volume 1666.368609
_symmetry_space_group_name_H-M "P 2/M"
_symmetry_group_IT_number 10
_symmetry_cell_setting 'monoclinic'
loop_
_space_group_symop_operation_xyz
x,y,z
-x,y,-z
-x,-y,-z
x,-y,z
loop_
_atom_site_type_symbol
_atom_site_label
_atom_site_fract_x
_atom_site_fract_y
_atom_site_fract_z
Si Si1 0.721254 0.824371 0.599169
Si Si2 0.991559 0.676812 0.840362
Si Si3 0.764460 0.333076 0.758983
Si Si4 0.475425 0.827958 0.139237
Si Si5 0.333616 0.171251 0.968562
Si Si6 0.824840 0.830050 0.291030
Si Si7 0.195262 0.829497 0.922574
Si Si8 0.036958 0.667118 0.360320
O O1 0.783932 0.751277 0.630070
O O2 0.617836 0.762415 0.719399
O O3 0.759139 0.771110 0.448467
O O4 0.726634 0.000000 0.602154
O O5 0.988741 0.500000 0.850024
O O6 0.998910 0.738871 0.713149
O O7 0.081276 0.737314 0.812355
O O8 0.897561 0.736503 0.979114
O O9 0.733815 0.500000 0.763659
O O10 0.687990 0.252103 0.900967
O O11 0.853747 0.329221 0.746564
O O12 0.457892 0.000000 0.137522
O O13 0.500000 0.757775 0.000000
O O14 0.556808 0.801915 0.147445
O O15 0.310930 0.000000 0.007053
O O16 0.276565 0.230722 0.921738
O O17 0.770633 0.813375 0.231799
O O18 0.852066 0.000000 0.285572
O O19 0.173303 0.000000 0.970378
O O20 0.998301 0.500000 0.401077
O O21 0.000000 0.752819 0.500000
#
# Coordination Sequence:
#
# PCOD8061865 Si02
#       8
#     4   4   4   4   4   4   4   4
#     4  10  20  36  56  78 108 144 180 218 267 326
#     4  11  21  35  56  80 106 142 186 222 261 317
#     4  11  20  32  52  78 110 140 172 218 269 316
#     4   9  16  30  55  82 106 136 176 220 265 318
#     4  10  19  34  56  79 105 139 178 216 265 321
#     4  10  22  38  54  77 109 144 181 225 271 311
#     4  10  21  37  56  78 109 144 181 226 268 309
#     4   9  18  31  46  69 104 138 167 208 261 309
#
# _framework density 19.203434000000001
#
# number of rings (size 3 to 8) (size 9 to 14) (size 15 to 20)
#    0.000    2.000    2.500    1.875    0.000    3.500 
#    0.000    1.875    0.000    6.750    0.000    0.000 
#    0.000    4.000    0.000    0.000    0.000    0.000 
#
# Total GULP energy -396591.558483 kJ/mol
# GULP energy per Si atom -12393.486203 kJ/mol
# Density = 1.915973 g / cm^3
# Si number density = 19.203434 Si / 1000 Ang^3
#
#
#
# Elastic Constant Matrix: (Units=GPa)
#
#
# Indices 1 2 3 4 5 6 
#
# 1 103.1718 22.6915 49.3251 0.0000 9.1155 0.0000
# 2 22.6915 42.0758 20.7276 0.0000 2.8868 0.0000
# 3 49.3251 20.7276 82.3617 0.0000 16.0196 0.0000
# 4 0.0000 0.0000 0.0000 14.1119 0.0000 2.6255
# 5 9.1155 2.8868 16.0196 0.0000 32.6879 0.0000
# 6 0.0000 0.0000 0.0000 2.6255 0.0000 14.6194
#
#
#
# Elastic Compliance Matrix: (Units=1/GPa)
#
#
# Indices 1 2 3 4 5 6 
#
# 1 0.014131 -0.003938 -0.007487 0.000000 0.000076 0.000000
# 2 -0.003938 0.028260 -0.004954 0.000000 0.001030 0.000000
# 3 -0.007487 -0.004954 0.019212 0.000000 -0.006890 0.000000
# 4 0.000000 0.000000 0.000000 0.073312 0.000000 -0.013166
# 5 0.000076 0.001030 -0.006890 0.000000 0.033857 0.000000
# 6 0.000000 0.000000 0.000000 -0.013166 0.000000 0.070767
#
#
# Mechanical properties :
#
#
# Convention : Reuss Voigt Hill
#
# Bulk Modulus (GPa) = 34.66689 45.89975 40.28332
# Shear Modulus (GPa) = 17.73601 21.27484 19.50543
#
# Velocity S-wave (km/s) = 3.04235 3.33207 3.19050
# Velocity P-wave (km/s) = 5.51660 6.22554 5.88176
#
# Compressibility (1/GPa) = 0.02884597
#
# Stress axis : x y z
#
# Youngs Moduli (GPa) = 70.76486 35.38538 52.05033
#
# Poissons Ratio (x) = 0.13935 0.38969
# Poissons Ratio (y) = 0.27868 0.25786
# Poissons Ratio (z) = 0.52980 0.17530
#
# Static dielectric constant tensor:
#      x y z
#    x 3.608550 0.000000 0.120800 
#    y 0.000000 3.237310 0.000000 
#    z 0.120800 0.000000 3.668090 
# 
# 
# High freq. dielectric constant tensor:
#      x y z
#    x 1.751090 0.000000 0.007930 
#    y 0.000000 1.715220 0.000000 
#    z 0.007930 0.000000 1.742350 
# 
# From -- ./inp_files/55255.got.cif
#   From: 2010.06.25/outbox.cif.g09.slc.cpg/sg10_28_cif.got.tgz:55255.got - 2010.06.27 22:07:45.
