data_PCOD8061894
_publ_section_title
;
Structure prediction by ZEFSAII (Michael W. Deem and Ramdas Pophale) SiO2 
 PCOD8061894
Probable space group: P 2/M
;
_chemical_formula_sum "Si O2"
_cell_formula_units_Z 28
_cell_length_a 17.676081
_cell_length_b 10.253393
_cell_length_c 10.339566
_cell_angle_alpha 90.000000
_cell_angle_beta 129.014245
_cell_angle_gamma 90.000000
_cell_volume 1456.032377
_symmetry_space_group_name_H-M "P 2/M"
_symmetry_group_IT_number 10
_symmetry_cell_setting 'monoclinic'
loop_
_space_group_symop_operation_xyz
x,y,z
-x,y,-z
-x,-y,-z
x,-y,z
loop_
_atom_site_type_symbol
_atom_site_label
_atom_site_fract_x
_atom_site_fract_y
_atom_site_fract_z
Si Si1 0.216450 0.352867 0.295844
Si Si2 0.359412 0.346424 0.670075
Si Si3 0.099706 0.143097 0.532402
Si Si4 0.520860 0.857392 0.872999
Si Si5 0.956456 0.648452 0.719380
Si Si6 0.827660 0.350881 0.022764
Si Si7 0.720593 0.750615 0.145175
O O1 0.254363 0.500000 0.329470
O O2 0.283858 0.291132 0.480978
O O3 0.101390 0.347115 0.207514
O O4 0.225101 0.287193 0.161528
O O5 0.384575 0.500000 0.683091
O O6 0.455599 0.259962 0.745849
O O7 0.317863 0.326132 0.770191
O O8 0.109013 0.261553 0.443408
O O9 0.193664 0.149029 0.726615
O O10 0.000000 0.163476 0.500000
O O11 0.100536 0.000000 0.466337
O O12 0.498460 0.000000 0.784263
O O13 0.500000 0.869829 0.000000
O O14 0.634773 0.826506 0.979194
O O15 0.957538 0.500000 0.665092
O O16 0.064388 0.710385 0.843659
O O17 0.847223 0.500000 0.006200
O O18 0.764086 0.345906 0.083616
#
# Coordination Sequence:
#
# PCOD8061894 Si02
#       7
#     4   4   4   4   4   4   4
#     4   9  18  34  54  81 115 149 181 223 276 326
#     4  10  20  35  58  84 110 137 179 232 278 323
#     4  11  22  35  53  81 115 149 182 225 278 326
#     4   9  20  37  57  80 107 141 182 224 275 333
#     4  10  19  34  56  81 110 148 190 227 265 321
#     4  10  20  32  53  84 117 148 182 223 275 329
#     4  11  20  34  56  83 109 145 183 228 272 325
#
# _framework density 19.230342
#
# number of rings (size 3 to 8) (size 9 to 14) (size 15 to 20)
#    0.000    2.000    2.857    1.286    0.000    6.286 
#    0.000    0.714    0.000    9.429    0.000    0.000 
#    0.000    0.000    0.000    0.000    0.000    0.000 
#
# Total GULP energy -346871.294621 kJ/mol
# GULP energy per Si atom -12388.260522 kJ/mol
# Density = 1.918657 g / cm^3
# Si number density = 19.230342 Si / 1000 Ang^3
#
#
#
# Elastic Constant Matrix: (Units=GPa)
#
#
# Indices 1 2 3 4 5 6 
#
# 1 80.8451 25.8614 56.7026 0.0000 17.3714 0.0000
# 2 25.8614 90.4825 39.2950 0.0000 7.0654 0.0000
# 3 56.7026 39.2950 114.9829 0.0000 6.1860 0.0000
# 4 0.0000 0.0000 0.0000 5.9464 0.0000 10.2308
# 5 17.3714 7.0654 6.1860 0.0000 35.4941 0.0000
# 6 0.0000 0.0000 0.0000 10.2308 0.0000 0.2241
#
#
#
# Elastic Compliance Matrix: (Units=1/GPa)
#
#
# Indices 1 2 3 4 5 6 
#
# 1 0.021373 -0.001250 -0.009654 0.000000 -0.008529 0.000000
# 2 -0.001250 0.013170 -0.003812 0.000000 -0.001345 0.000000
# 3 -0.009654 -0.003812 0.014602 0.000000 0.002939 0.000000
# 4 0.000000 0.000000 0.000000 -0.002168 0.000000 0.099004
# 5 -0.008529 -0.001345 0.002939 0.000000 0.032104 0.000000
# 6 0.000000 0.000000 0.000000 0.099004 0.000000 -0.057543
#
#
# Mechanical properties :
#
#
# Convention : Reuss Voigt Hill
#
# Bulk Modulus (GPa) = 50.72753 58.89205 54.80979
# Shear Modulus (GPa) = 86.89777 19.29634 53.09705
#
# Velocity S-wave (km/s) = 6.72948 3.17114 5.26033
# Velocity P-wave (km/s) = 9.31759 6.64072 8.09063
#
# Compressibility (1/GPa) = 0.01971316
#
# Stress axis : x y z
#
# Youngs Moduli (GPa) = 46.78869 75.93221 68.48348
#
# Poissons Ratio (x) = 0.09494 0.66111
# Poissons Ratio (y) = 0.05850 0.26104
# Poissons Ratio (z) = 0.45168 0.28943
#
# Static dielectric constant tensor:
#      x y z
#    x 3.500230 0.000000 0.194030 
#    y 0.000000 3.404990 0.000000 
#    z 0.194030 0.000000 3.690690 
# 
# 
# High freq. dielectric constant tensor:
#      x y z
#    x 1.740280 0.000000 0.017090 
#    y 0.000000 1.721200 0.000000 
#    z 0.017090 0.000000 1.742390 
# 
# From -- ./inp_files/28694.got.cif
#   From: 2010.06.25/outbox.cif.g09.slc.cpg/sg10_15_cif.got.tgz:28694.got - 2010.06.27 22:07:45.
