data_PCOD8061809
_publ_section_title
;
Structure prediction by ZEFSAII (Michael W. Deem and Ramdas Pophale) SiO2 
 PCOD8061809
Probable space group: P 2/M
;
_chemical_formula_sum "Si O2"
_cell_formula_units_Z 32
_cell_length_a 24.238848
_cell_length_b 9.463800
_cell_length_c 14.147240
_cell_angle_alpha 90.000000
_cell_angle_beta 30.597929
_cell_angle_gamma 90.000000
_cell_volume 1651.869838
_symmetry_space_group_name_H-M "P 2/M"
_symmetry_group_IT_number 10
_symmetry_cell_setting 'monoclinic'
loop_
_space_group_symop_operation_xyz
x,y,z
-x,y,-z
-x,-y,-z
x,-y,z
loop_
_atom_site_type_symbol
_atom_site_label
_atom_site_fract_x
_atom_site_fract_y
_atom_site_fract_z
Si Si1 0.375081 0.163090 0.703051
Si Si2 0.384769 0.159663 0.199869
Si Si3 0.891086 0.336161 0.612525
Si Si4 0.307424 0.667282 0.635682
Si Si5 0.693495 0.839450 0.983311
Si Si6 0.110061 0.332504 0.793869
Si Si7 0.541236 0.842652 0.705764
Si Si8 0.820836 0.663529 0.512646
O O1 0.500000 0.203500 0.500000
O O2 0.296703 0.259794 0.753640
O O3 0.341541 0.198797 0.858887
O O4 0.353655 0.000000 0.710139
O O5 0.381064 0.161731 0.318562
O O6 0.288795 0.253906 0.300764
O O7 0.372032 0.000000 0.178996
O O8 0.500000 0.224874 0.000000
O O9 0.877477 0.500000 0.657412
O O10 0.899758 0.313384 0.486107
O O11 0.000000 0.275239 0.500000
O O12 0.787854 0.260245 0.808479
O O13 0.313477 0.500000 0.638152
O O14 0.208025 0.715996 0.716320
O O15 0.418519 0.724769 0.426307
O O16 0.584752 0.814669 0.080582
O O17 0.734976 0.000000 0.913925
O O18 0.101979 0.500000 0.803430
O O19 0.124932 0.277304 0.663870
O O20 0.000000 0.267563 0.000000
O O21 0.547332 0.000000 0.649219
O O22 0.789933 0.500000 0.544987
#
# Coordination Sequence:
#
# PCOD8061809 Si02
#       8
#     4   4   4   4   4   4   4   4
#     4  10  20  37  58  80 114 158 192 229 290 350
#     4  10  20  33  54  83 113 148 189 231 279 336
#     4  10  23  41  60  84 115 152 191 239 293 337
#     4  11  21  33  55  85 113 147 192 238 280 333
#     4  10  21  38  61  85 111 152 197 234 282 344
#     4   9  19  36  57  82 113 151 191 229 279 340
#     4  10  19  34  55  79 114 152 183 228 289 343
#     4  10  20  37  59  82 112 149 187 232 285 338
#
# _framework density 19.371987000000001
#
# number of rings (size 3 to 8) (size 9 to 14) (size 15 to 20)
#    0.000    2.000    2.500    1.125    0.000    4.250 
#    0.000    2.500    0.000    3.375    0.000    0.000 
#    0.000    0.000    0.000    0.000    0.000    0.000 
#
# Total GULP energy -396769.505017 kJ/mol
# GULP energy per Si atom -12399.047032 kJ/mol
# Density = 1.932790 g / cm^3
# Si number density = 19.371987 Si / 1000 Ang^3
#
#
#
# Elastic Constant Matrix: (Units=GPa)
#
#
# Indices 1 2 3 4 5 6 
#
# 1 115.7300 39.8911 40.9377 0.0000 -10.6408 0.0000
# 2 39.8911 58.2592 34.4892 0.0000 -6.8381 0.0000
# 3 40.9377 34.4892 101.6125 0.0000 -7.6844 0.0000
# 4 0.0000 0.0000 0.0000 17.9959 0.0000 8.6570
# 5 -10.6408 -6.8381 -7.6844 0.0000 27.6385 0.0000
# 6 0.0000 0.0000 0.0000 8.6570 0.0000 23.3459
#
#
#
# Elastic Compliance Matrix: (Units=1/GPa)
#
#
# Indices 1 2 3 4 5 6 
#
# 1 0.011946 -0.006460 -0.002445 0.000000 0.002321 0.000000
# 2 -0.006460 0.025284 -0.005817 0.000000 0.002151 0.000000
# 3 -0.002445 -0.005817 0.012891 0.000000 0.001204 0.000000
# 4 0.000000 0.000000 0.000000 0.067632 0.000000 -0.025079
# 5 0.002321 0.002151 0.001204 0.000000 0.037942 0.000000
# 6 0.000000 0.000000 0.000000 -0.025079 0.000000 0.052134
#
#
# Mechanical properties :
#
#
# Convention : Reuss Voigt Hill
#
# Bulk Modulus (GPa) = 48.35821 56.24862 52.30341
# Shear Modulus (GPa) = 20.47808 24.48164 22.47986
#
# Velocity S-wave (km/s) = 3.25483 3.55880 3.41021
# Velocity P-wave (km/s) = 6.25639 6.78129 6.52412
#
# Compressibility (1/GPa) = 0.02067901
#
# Stress axis : x y z
#
# Youngs Moduli (GPa) = 83.71311 39.55125 77.57066
#
# Poissons Ratio (x) = 0.25549 0.18962
# Poissons Ratio (y) = 0.54076 0.45119
# Poissons Ratio (z) = 0.20464 0.23005
#
# Static dielectric constant tensor:
#      x y z
#    x 3.806320 0.000000 0.048830 
#    y 0.000000 3.321900 0.000000 
#    z 0.048830 0.000000 3.457430 
# 
# 
# High freq. dielectric constant tensor:
#      x y z
#    x 1.770970 0.000000 0.008520 
#    y 0.000000 1.731920 0.000000 
#    z 0.008520 0.000000 1.740960 
# 
# From -- ./inp_files/66504.got.cif
#   From: 2010.06.25/outbox.cif.g09.slc.cpg/sg10_34_cif.got.tgz:66504.got - 2010.06.27 22:07:45.
