data_PCOD8061954
_publ_section_title
;
Structure prediction by ZEFSAII (Michael W. Deem and Ramdas Pophale) SiO2 
 PCOD8061954
Probable space group: P 2/M
;
_chemical_formula_sum "Si O2"
_cell_formula_units_Z 28
_cell_length_a 17.846139
_cell_length_b 14.486436
_cell_length_c 9.481660
_cell_angle_alpha 90.000000
_cell_angle_beta 143.475157
_cell_angle_gamma 90.000000
_cell_volume 1458.922309
_symmetry_space_group_name_H-M "P 2/M"
_symmetry_group_IT_number 10
_symmetry_cell_setting 'monoclinic'
loop_
_space_group_symop_operation_xyz
x,y,z
-x,y,-z
-x,-y,-z
x,-y,z
loop_
_atom_site_type_symbol
_atom_site_label
_atom_site_fract_x
_atom_site_fract_y
_atom_site_fract_z
Si Si1 0.406139 0.330761 0.156044
Si Si2 0.635396 0.400476 0.381821
Si Si3 0.588088 0.167644 0.513643
Si Si4 0.990519 0.390691 0.653178
Si Si5 0.368666 0.895978 0.727254
Si Si6 0.744944 0.722620 0.327674
Si Si7 0.247400 0.675821 0.168885
O O1 0.488633 0.409972 0.206690
O O2 0.510800 0.255303 0.346358
O O3 0.341182 0.371632 0.197062
O O4 0.296601 0.284669 0.896929
O O5 0.678597 0.500000 0.391340
O O6 0.640638 0.327847 0.264085
O O7 0.732676 0.372000 0.651429
O O8 0.500000 0.116215 0.500000
O O9 0.618441 0.104966 0.424203
O O10 0.717817 0.213199 0.772933
O O11 0.977554 0.500000 0.670341
O O12 0.000000 0.377922 0.500000
O O13 0.876591 0.330235 0.544083
O O14 0.106741 0.342986 0.906698
O O15 0.258023 0.828846 0.620107
O O16 0.331017 0.000000 0.713039
O O17 0.500000 0.867537 0.000000
#
# Coordination Sequence:
#
# PCOD8061954 Si02
#       7
#     4   4   4   4   4   4   4
#     4  10  19  34  57  81 116 155 186 234 290 354
#     4  11  22  33  53  85 116 151 190 238 294 345
#     4   9  18  35  60  87 119 153 190 234 298 352
#     4  11  24  39  58  83 113 161 211 243 276 336
#     4  11  21  37  64  94 121 150 187 239 302 361
#     4  12  21  39  57  81 122 152 188 243 291 345
#     4  10  20  38  57  80 114 158 197 239 282 333
#
# _framework density 19.192249
#
# number of rings (size 3 to 8) (size 9 to 14) (size 15 to 20)
#    0.000    1.429    5.714    2.571    0.000    4.286 
#    0.000    1.429    0.000    2.143    0.000    0.000 
#    0.000    0.000    0.000    0.000    0.000    0.000 
#
# Total GULP energy -346937.538756 kJ/mol
# GULP energy per Si atom -12390.626384 kJ/mol
# Density = 1.914857 g / cm^3
# Si number density = 19.192249 Si / 1000 Ang^3
#
#
#
# Elastic Constant Matrix: (Units=GPa)
#
#
# Indices 1 2 3 4 5 6 
#
# 1 66.3072 30.6216 22.6652 0.0000 0.3957 0.0000
# 2 30.6216 95.2487 25.1710 0.0000 5.3779 0.0000
# 3 22.6652 25.1710 93.1932 0.0000 6.7549 0.0000
# 4 0.0000 0.0000 0.0000 14.9510 0.0000 1.7621
# 5 0.3957 5.3779 6.7549 0.0000 33.1196 0.0000
# 6 0.0000 0.0000 0.0000 1.7621 0.0000 20.5808
#
#
#
# Elastic Compliance Matrix: (Units=1/GPa)
#
#
# Indices 1 2 3 4 5 6 
#
# 1 0.018568 -0.005194 -0.003205 0.000000 0.001275 0.000000
# 2 -0.005194 0.012809 -0.002081 0.000000 -0.001593 0.000000
# 3 -0.003205 -0.002081 0.012225 0.000000 -0.002117 0.000000
# 4 0.000000 0.000000 0.000000 0.067567 0.000000 -0.005785
# 5 0.001275 -0.001593 -0.002117 0.000000 0.030869 0.000000
# 6 0.000000 0.000000 0.000000 -0.005785 0.000000 0.049084
#
#
# Mechanical properties :
#
#
# Convention : Reuss Voigt Hill
#
# Bulk Modulus (GPa) = 44.16728 45.74053 44.95390
# Shear Modulus (GPa) = 22.76547 25.48302 24.12425
#
# Velocity S-wave (km/s) = 3.44783 3.64782 3.54924
# Velocity P-wave (km/s) = 6.23804 6.45187 6.34586
#
# Compressibility (1/GPa) = 0.02264119
#
# Stress axis : x y z
#
# Youngs Moduli (GPa) = 53.85535 78.07232 81.79678
#
# Poissons Ratio (x) = 0.40554 0.26219
# Poissons Ratio (y) = 0.27975 0.17020
# Poissons Ratio (z) = 0.17263 0.16245
#
# Static dielectric constant tensor:
#      x y z
#    x 3.740250 0.000000 -0.228060 
#    y 0.000000 3.293290 0.000000 
#    z -0.228060 0.000000 3.625080 
# 
# 
# High freq. dielectric constant tensor:
#      x y z
#    x 1.745340 0.000000 -0.021600 
#    y 0.000000 1.718080 0.000000 
#    z -0.021600 0.000000 1.743170 
# 
# From -- ./inp_files/32838.got.cif
#   From: 2010.06.25/outbox.cif.g09.slc.cpg/sg10_17_cif.got.tgz:32838.got - 2010.06.27 22:07:45.
