data_PCOD8061835
_publ_section_title
;
Structure prediction by ZEFSAII (Michael W. Deem and Ramdas Pophale) SiO2 
 PCOD8061835
Probable space group: P 2/M
;
_chemical_formula_sum "Si O2"
_cell_formula_units_Z 28
_cell_length_a 15.223397
_cell_length_b 12.651959
_cell_length_c 9.154513
_cell_angle_alpha 90.000000
_cell_angle_beta 51.268088
_cell_angle_gamma 90.000000
_cell_volume 1375.450219
_symmetry_space_group_name_H-M "P 2/M"
_symmetry_group_IT_number 10
_symmetry_cell_setting 'monoclinic'
loop_
_space_group_symop_operation_xyz
x,y,z
-x,y,-z
-x,-y,-z
x,-y,z
loop_
_atom_site_type_symbol
_atom_site_label
_atom_site_fract_x
_atom_site_fract_y
_atom_site_fract_z
Si Si1 0.321298 0.325174 0.948998
Si Si2 0.090890 0.314050 0.302981
Si Si3 0.942200 0.756018 0.205770
Si Si4 0.568394 0.615958 0.736271
Si Si5 0.850296 0.117766 0.557822
Si Si6 0.619736 0.816623 0.877514
Si Si7 0.262452 0.623388 0.693334
O O1 0.434236 0.393257 0.847480
O O2 0.287263 0.313682 0.816242
O O3 0.212298 0.370792 0.155274
O O4 0.345204 0.207894 0.990735
O O5 0.106091 0.199478 0.366088
O O6 0.000000 0.377575 0.500000
O O7 0.039878 0.301460 0.195550
O O8 0.889365 0.851097 0.354512
O O9 0.848422 0.668637 0.268099
O O10 0.000000 0.802614 0.000000
O O11 0.607064 0.500000 0.752239
O O12 0.602990 0.701215 0.820374
O O13 0.630031 0.642899 0.520934
O O14 0.713770 0.115677 0.698126
O O15 0.893731 0.000000 0.549298
O O16 0.500000 0.878190 0.000000
O O17 0.243629 0.500000 0.747754
#
# Coordination Sequence:
#
# PCOD8061835 Si02
#       7
#     4   4   4   4   4   4   4
#     4  10  19  34  55  83 115 151 188 233 274 325
#     4   9  20  37  59  79 113 151 189 231 284 336
#     4  11  21  38  60  82 117 151 188 236 282 335
#     4  10  20  35  57  85 116 150 193 237 279 331
#     4  10  21  39  63  87 111 143 188 241 293 345
#     4   9  19  35  59  86 117 149 186 233 288 336
#     4  11  22  36  57  84 115 156 195 228 277 338
#
# _framework density 20.356971000000001
#
# number of rings (size 3 to 8) (size 9 to 14) (size 15 to 20)
#    0.000    2.000    2.857    0.857    0.000    7.714 
#    0.000    0.000    0.000    5.571    0.000    2.000 
#    0.000    0.000    0.000    0.000    0.000    0.000 
#
# Total GULP energy -346909.553104 kJ/mol
# GULP energy per Si atom -12389.626897 kJ/mol
# Density = 2.031064 g / cm^3
# Si number density = 20.356971 Si / 1000 Ang^3
#
#
#
# Elastic Constant Matrix: (Units=GPa)
#
#
# Indices 1 2 3 4 5 6 
#
# 1 113.7267 23.5872 59.6646 0.0000 -6.6968 0.0000
# 2 23.5872 57.8771 26.4382 0.0000 3.7772 0.0000
# 3 59.6646 26.4382 152.5596 0.0000 -12.4640 0.0000
# 4 0.0000 0.0000 0.0000 -4.3539 0.0000 5.5210
# 5 -6.6968 3.7772 -12.4640 0.0000 46.5639 0.0000
# 6 0.0000 0.0000 0.0000 5.5210 0.0000 9.6418
#
#
#
# Elastic Compliance Matrix: (Units=1/GPa)
#
#
# Indices 1 2 3 4 5 6 
#
# 1 0.011513 -0.002956 -0.003921 0.000000 0.000846 0.000000
# 2 -0.002956 0.019799 -0.002496 0.000000 -0.002699 0.000000
# 3 -0.003921 -0.002496 0.008681 0.000000 0.001962 0.000000
# 4 0.000000 0.000000 0.000000 -0.133063 0.000000 0.076193
# 5 0.000846 -0.002699 0.001962 0.000000 0.022342 0.000000
# 6 0.000000 0.000000 0.000000 0.076193 0.000000 0.060086
#
#
# Mechanical properties :
#
#
# Convention : Reuss Voigt Hill
#
# Bulk Modulus (GPa) = 47.06457 60.39373 53.72915
# Shear Modulus (GPa) = 329.25221 24.66861 176.96041
#
# Velocity S-wave (km/s) = 12.73147 3.48487 9.33367
# Velocity P-wave (km/s) = 15.46901 6.77674 11.94183
#
# Compressibility (1/GPa) = 0.02124741
#
# Stress axis : x y z
#
# Youngs Moduli (GPa) = 86.85724 50.50814 115.19183
#
# Poissons Ratio (x) = 0.14930 0.45170
# Poissons Ratio (y) = 0.25675 0.28746
# Poissons Ratio (z) = 0.34059 0.12604
#
# Static dielectric constant tensor:
#      x y z
#    x 3.944470 0.000000 -0.332290 
#    y 0.000000 3.102090 0.000000 
#    z -0.332290 0.000000 4.205330 
# 
# 
# High freq. dielectric constant tensor:
#      x y z
#    x 1.811690 0.000000 -0.018860 
#    y 0.000000 1.737010 0.000000 
#    z -0.018860 0.000000 1.819380 
# 
# From -- ./inp_files/28936.got.cif
#   From: 2010.06.25/outbox.cif.g09.slc.cpg/sg10_15_cif.got.tgz:28936.got - 2010.06.27 22:07:45.
