data_PCOD8061191
_publ_section_title
;
Structure prediction by ZEFSAII (Michael W. Deem and Ramdas Pophale) SiO2 
 PCOD8061191
Probable space group: P 2/M
;
_chemical_formula_sum "Si O2"
_cell_formula_units_Z 28
_cell_length_a 18.915434
_cell_length_b 8.657753
_cell_length_c 18.161014
_cell_angle_alpha 90.000000
_cell_angle_beta 29.943843
_cell_angle_gamma 90.000000
_cell_volume 1484.545438
_symmetry_space_group_name_H-M "P 2/M"
_symmetry_group_IT_number 10
_symmetry_cell_setting 'monoclinic'
loop_
_space_group_symop_operation_xyz
x,y,z
-x,y,-z
-x,-y,-z
x,-y,z
loop_
_atom_site_type_symbol
_atom_site_label
_atom_site_fract_x
_atom_site_fract_y
_atom_site_fract_z
Si Si1 0.152187 0.318866 0.149361
Si Si2 0.887117 0.678844 0.294487
Si Si3 0.726404 0.175920 0.567159
Si Si4 0.703296 0.180243 0.346566
Si Si5 0.433648 0.680675 0.663714
Si Si6 0.407841 0.821784 0.841662
Si Si7 0.013887 0.820772 0.570243
O O1 0.179562 0.500000 0.122887
O O2 0.039406 0.268867 0.188254
O O3 0.095204 0.272760 0.280796
O O4 0.297835 0.230309 0.003097
O O5 0.884662 0.500000 0.276516
O O6 0.768822 0.710173 0.463197
O O7 0.850374 0.773967 0.253713
O O8 0.563655 0.207663 0.735031
O O9 0.824286 0.207309 0.549940
O O10 0.747737 0.000000 0.519834
O O11 0.689930 0.273042 0.282110
O O12 0.574450 0.223456 0.517335
O O13 0.700470 0.000000 0.331876
O O14 0.466523 0.500000 0.627281
O O15 0.382044 0.721400 0.791837
O O16 0.385113 0.000000 0.842070
O O17 0.000000 0.757398 0.500000
O O18 0.971802 0.000000 0.612559
#
# Coordination Sequence:
#
# PCOD8061191 Si02
#       7
#     4   4   4   4   4   4   4
#     4  10  22  37  55  80 111 145 180 220 272 326
#     4  10  19  33  53  77 104 139 183 229 272 320
#     4   9  18  32  54  81 107 138 178 223 267 319
#     4  11  20  32  51  77 107 140 183 229 272 319
#     4  11  21  33  51  76 108 143 181 227 274 318
#     4  11  21  35  54  79 110 144 182 224 272 324
#     4   9  18  36  61  86 110 139 177 220 267 321
#
# _framework density 18.860990999999999
#
# number of rings (size 3 to 8) (size 9 to 14) (size 15 to 20)
#    0.000    1.857    1.429    4.714    0.000    2.571 
#    0.000    1.429    0.000    8.571    0.000    0.000 
#    0.000    0.000    0.000    0.000    0.000    0.000 
#
# Total GULP energy -347273.489523 kJ/mol
# GULP energy per Si atom -12402.624626 kJ/mol
# Density = 1.881806 g / cm^3
# Si number density = 18.860991 Si / 1000 Ang^3
#
#
#
# Elastic Constant Matrix: (Units=GPa)
#
#
# Indices 1 2 3 4 5 6 
#
# 1 106.5079 24.5298 41.0767 0.0000 5.4990 0.0000
# 2 24.5298 71.7675 24.9647 0.0000 -2.7861 0.0000
# 3 41.0767 24.9647 93.3479 0.0000 -8.6488 0.0000
# 4 0.0000 0.0000 0.0000 24.9828 0.0000 1.5574
# 5 5.4990 -2.7861 -8.6488 0.0000 23.5143 0.0000
# 6 0.0000 0.0000 0.0000 1.5574 0.0000 24.9527
#
#
#
# Elastic Compliance Matrix: (Units=1/GPa)
#
#
# Indices 1 2 3 4 5 6 
#
# 1 0.012237 -0.002583 -0.005163 0.000000 -0.005067 0.000000
# 2 -0.002583 0.015911 -0.002990 0.000000 0.001390 0.000000
# 3 -0.005163 -0.002990 0.014352 0.000000 0.006132 0.000000
# 4 0.000000 0.000000 0.000000 0.040184 0.000000 -0.002508
# 5 -0.005067 0.001390 0.006132 0.000000 0.046132 0.000000
# 6 0.000000 0.000000 0.000000 -0.002508 0.000000 0.040232
#
#
# Mechanical properties :
#
#
# Convention : Reuss Voigt Hill
#
# Bulk Modulus (GPa) = 47.55634 50.30729 48.93181
# Shear Modulus (GPa) = 25.31261 26.76009 26.03635
#
# Velocity S-wave (km/s) = 3.66739 3.77079 3.71945
# Velocity P-wave (km/s) = 6.57281 6.75937 6.66674
#
# Compressibility (1/GPa) = 0.02102769
#
# Stress axis : x y z
#
# Youngs Moduli (GPa) = 81.72064 62.85077 69.67489
#
# Poissons Ratio (x) = 0.16235 0.35975
# Poissons Ratio (y) = 0.21109 0.20831
# Poissons Ratio (z) = 0.42195 0.18790
#
# Static dielectric constant tensor:
#      x y z
#    x 3.644540 0.000000 -0.108780 
#    y 0.000000 3.468230 0.000000 
#    z -0.108780 0.000000 3.171400 
# 
# 
# High freq. dielectric constant tensor:
#      x y z
#    x 1.734090 0.000000 -0.008130 
#    y 0.000000 1.740360 0.000000 
#    z -0.008130 0.000000 1.701330 
# 
# From -- ./inp_files/79229.got.cif
#   From: 2010.06.25/outbox.cif.g09.slc.cpg/sg10_40_cif.got.tgz:79229.got - 2010.06.27 22:07:45.
