data_PCOD8061763
_publ_section_title
;
Structure prediction by ZEFSAII (Michael W. Deem and Ramdas Pophale) SiO2 
 PCOD8061763
Probable space group: P 2/M
;
_chemical_formula_sum "Si O2"
_cell_formula_units_Z 28
_cell_length_a 13.826630
_cell_length_b 16.529923
_cell_length_c 8.626105
_cell_angle_alpha 90.000000
_cell_angle_beta 45.609591
_cell_angle_gamma 90.000000
_cell_volume 1408.830413
_symmetry_space_group_name_H-M "P 2/M"
_symmetry_group_IT_number 10
_symmetry_cell_setting 'monoclinic'
loop_
_space_group_symop_operation_xyz
x,y,z
-x,y,-z
-x,-y,-z
x,-y,z
loop_
_atom_site_type_symbol
_atom_site_label
_atom_site_fract_x
_atom_site_fract_y
_atom_site_fract_z
Si Si1 0.374510 0.500000 0.030511
Si Si2 0.958824 0.659014 0.223029
Si Si3 0.211301 0.755227 0.000845
Si Si4 0.888705 0.912269 0.002165
Si Si5 0.382532 0.913127 0.511728
Si Si6 0.896472 0.500000 0.477563
Si Si7 0.306622 0.254482 0.543374
Si Si8 0.552906 0.671052 0.114564
O O1 0.249368 0.500000 0.284753
O O2 0.500000 0.500000 0.000000
O O3 0.381986 0.582456 0.920640
O O4 0.914020 0.576223 0.348500
O O5 0.833625 0.721415 0.381863
O O6 0.000000 0.643915 0.000000
O O7 0.089524 0.692624 0.166314
O O8 0.143000 0.844702 0.093423
O O9 0.281999 0.745874 0.754622
O O10 0.328817 0.738053 0.994081
O O11 0.752929 0.928490 0.244464
O O12 0.936245 0.000000 0.878540
O O13 0.000000 0.878285 0.000000
O O14 0.500000 0.890003 0.500000
O O15 0.357276 0.835220 0.428783
O O16 0.416622 0.000000 0.388172
O O17 0.000000 0.500000 0.500000
O O18 0.425700 0.317511 0.371419
O O19 0.500000 0.679814 0.000000
#
# Coordination Sequence:
#
# PCOD8061763 Si02
#       8
#     2   4   4   4   4   2   4   4
#     4  10  22  39  55  73  99 133 181 226 258 306
#     4  10  21  35  55  82 110 136 170 220 274 319
#     4  10  19  34  54  81 111 138 173 218 266 316
#     4   9  16  28  50  80 110 139 172 212 257 307
#     4   9  16  27  47  76 106 137 173 210 251 304
#     4  12  23  39  58  77 104 141 180 218 265 320
#     4  10  19  34  55  79 108 141 174 217 268 313
#     4  11  22  37  55  76 103 140 182 224 265 313
#
# _framework density 19.874642000000001
#
# number of rings (size 3 to 8) (size 9 to 14) (size 15 to 20)
#    0.000    2.000    0.000    7.071    0.000    0.000 
#    0.000    2.857    0.000    1.714    0.000    0.000 
#    0.000   14.857    0.000    0.000    0.000    0.000 
#
# Total GULP energy -346897.511015 kJ/mol
# GULP energy per Si atom -12389.196822 kJ/mol
# Density = 1.982941 g / cm^3
# Si number density = 19.874642 Si / 1000 Ang^3
#
#
#
# Elastic Constant Matrix: (Units=GPa)
#
#
# Indices 1 2 3 4 5 6 
#
# 1 114.1639 50.7104 26.3622 0.0000 -28.7213 0.0000
# 2 50.7104 163.8483 50.6136 0.0000 -6.4484 0.0000
# 3 26.3622 50.6136 77.1806 0.0000 -27.8071 0.0000
# 4 0.0000 0.0000 0.0000 50.6013 0.0000 20.2276
# 5 -28.7213 -6.4484 -27.8071 0.0000 27.7895 0.0000
# 6 0.0000 0.0000 0.0000 20.2276 0.0000 57.1082
#
#
#
# Elastic Compliance Matrix: (Units=1/GPa)
#
#
# Indices 1 2 3 4 5 6 
#
# 1 0.014923 -0.005609 0.005738 0.000000 0.019863 0.000000
# 2 -0.005609 0.010249 -0.009441 0.000000 -0.012866 0.000000
# 3 0.005738 -0.009441 0.028984 0.000000 0.032742 0.000000
# 4 0.000000 0.000000 0.000000 0.023022 0.000000 -0.008154
# 5 0.019863 -0.012866 0.032742 0.000000 0.086292 0.000000
# 6 0.000000 0.000000 0.000000 -0.008154 0.000000 0.020399
#
#
# Mechanical properties :
#
#
# Convention : Reuss Voigt Hill
#
# Bulk Modulus (GPa) = 28.14343 67.84059 47.99201
# Shear Modulus (GPa) = 23.32767 42.26691 32.79729
#
# Velocity S-wave (km/s) = 3.42971 4.61659 4.06668
# Velocity P-wave (km/s) = 5.46581 7.91363 6.80076
#
# Compressibility (1/GPa) = 0.03553227
#
# Stress axis : x y z
#
# Youngs Moduli (GPa) = 67.00964 97.56861 34.50139
#
# Poissons Ratio (x) = 0.54730 -0.19796
# Poissons Ratio (y) = 0.37588 0.32571
# Poissons Ratio (z) = -0.38448 0.92111
#
# Static dielectric constant tensor:
#      x y z
#    x 3.512060 0.000000 -0.381630 
#    y 0.000000 4.798980 0.000000 
#    z -0.381630 0.000000 3.410260 
# 
# 
# High freq. dielectric constant tensor:
#      x y z
#    x 1.762280 0.000000 -0.051760 
#    y 0.000000 1.797700 0.000000 
#    z -0.051760 0.000000 1.746280 
# 
# From -- ./inp_files/30128.got.cif
#   From: 2010.06.25/outbox.cif.g09.slc.cpg/sg10_16_cif.got.tgz:30128.got - 2010.06.27 22:07:45.
