data_PCOD8061082
_publ_section_title
;
Structure prediction by ZEFSAII (Michael W. Deem and Ramdas Pophale) SiO2 
 PCOD8061082
Probable space group: P 2/M
;
_chemical_formula_sum "Si O2"
_cell_formula_units_Z 30
_cell_length_a 14.687919
_cell_length_b 21.355926
_cell_length_c 14.183331
_cell_angle_alpha 90.000000
_cell_angle_beta 159.849771
_cell_angle_gamma 90.000000
_cell_volume 1532.584733
_symmetry_space_group_name_H-M "P 2/M"
_symmetry_group_IT_number 10
_symmetry_cell_setting 'monoclinic'
loop_
_space_group_symop_operation_xyz
x,y,z
-x,y,-z
-x,-y,-z
x,-y,z
loop_
_atom_site_type_symbol
_atom_site_label
_atom_site_fract_x
_atom_site_fract_y
_atom_site_fract_z
Si Si1 0.525006 0.676443 0.920186
Si Si2 0.679479 0.431593 0.936218
Si Si3 0.794806 0.569776 0.657754
Si Si4 0.770542 0.702586 0.712223
Si Si5 0.732881 0.000000 0.798367
Si Si6 0.581722 0.867405 0.688992
Si Si7 0.023880 0.238789 0.416510
Si Si8 0.921945 0.808620 0.729110
O O1 0.548056 0.617061 0.877387
O O2 0.278836 0.718570 0.653856
O O3 0.500000 0.648789 0.000000
O O4 0.778145 0.718537 0.155410
O O5 0.666062 0.500000 0.971154
O O6 0.501041 0.430229 0.669559
O O7 0.982129 0.416227 0.204261
O O8 0.848659 0.500000 0.755244
O O9 0.801580 0.627298 0.736574
O O10 0.500000 0.721140 0.500000
O O11 0.801867 0.740394 0.643926
O O12 0.000000 0.729442 0.000000
O O13 0.500000 0.000000 0.500000
O O14 0.700700 0.063558 0.827065
O O15 0.000000 0.000000 0.000000
O O16 0.500000 0.855398 0.500000
O O17 0.306661 0.859952 0.477118
O O18 0.810604 0.821474 0.951085
O O19 0.026009 0.188529 0.333448
O O20 0.000000 0.209189 0.500000
#
# Coordination Sequence:
#
# PCOD8061082 Si02
#       8
#     4   4   4   4   2   4   4   4
#     4  10  19  33  52  74 103 134 170 225 286 345
#     4  10  19  33  52  72  94 125 170 221 274 333
#     4  10  22  38  53  68  94 137 183 223 264 322
#     4  12  24  35  52  78 107 139 178 225 278 333
#     4  10  20  36  58  84 121 164 195 224 258 316
#     4  11  22  37  58  88 123 157 189 222 268 326
#     4  10  22  38  57  81 108 144 188 228 276 333
#     4  12  22  36  58  84 117 151 184 234 285 326
#
# _framework density 19.574774000000001
#
# number of rings (size 3 to 8) (size 9 to 14) (size 15 to 20)
#    0.000    1.333    0.000    8.000    0.000    0.800 
#    0.000    0.000    0.000    4.800    0.000    2.800 
#    0.000    0.000    0.000    0.000    0.000    0.000 
#
# Total GULP energy -371761.719978 kJ/mol
# GULP energy per Si atom -12392.057333 kJ/mol
# Density = 1.953022 g / cm^3
# Si number density = 19.574774 Si / 1000 Ang^3
#
#
#
# Elastic Constant Matrix: (Units=GPa)
#
#
# Indices 1 2 3 4 5 6 
#
# 1 114.6069 46.4331 39.5477 0.0000 1.0193 0.0000
# 2 46.4331 81.0310 26.7471 0.0000 -0.9890 0.0000
# 3 39.5477 26.7471 128.8827 0.0000 14.3016 0.0000
# 4 0.0000 0.0000 0.0000 35.5085 0.0000 11.2703
# 5 1.0193 -0.9890 14.3016 0.0000 29.1106 0.0000
# 6 0.0000 0.0000 0.0000 11.2703 0.0000 23.6468
#
#
#
# Elastic Compliance Matrix: (Units=1/GPa)
#
#
# Indices 1 2 3 4 5 6 
#
# 1 0.012042 -0.006067 -0.002503 0.000000 0.000602 0.000000
# 2 -0.006067 0.016406 -0.001722 0.000000 0.001616 0.000000
# 3 -0.002503 -0.001722 0.009393 0.000000 -0.004586 0.000000
# 4 0.000000 0.000000 0.000000 0.033182 0.000000 -0.015815
# 5 0.000602 0.001616 -0.004586 0.000000 0.036638 0.000000
# 6 0.000000 0.000000 0.000000 -0.015815 0.000000 0.049827
#
#
# Mechanical properties :
#
#
# Convention : Reuss Voigt Hill
#
# Bulk Modulus (GPa) = 57.94823 61.10849 59.52836
# Shear Modulus (GPa) = 27.19996 31.77268 29.48632
#
# Velocity S-wave (km/s) = 3.73170 4.03320 3.88537
# Velocity P-wave (km/s) = 6.94516 7.27837 7.11371
#
# Compressibility (1/GPa) = 0.01725678
#
# Stress axis : x y z
#
# Youngs Moduli (GPa) = 83.04465 60.95461 106.45925
#
# Poissons Ratio (x) = 0.36980 0.26644
# Poissons Ratio (y) = 0.50381 0.18337
# Poissons Ratio (z) = 0.20784 0.10499
#
# Static dielectric constant tensor:
#      x y z
#    x 3.450880 0.000000 0.103970 
#    y 0.000000 14.686310 0.000000 
#    z 0.103970 0.000000 3.791420 
# 
# 
# High freq. dielectric constant tensor:
#      x y z
#    x 1.741200 0.000000 0.016940 
#    y 0.000000 1.744790 0.000000 
#    z 0.016940 0.000000 1.789840 
# 
# From -- ./inp_files/67869.got.cif
#   From: 2010.06.25/outbox.cif.g09.slc.cpg/sg10_34_cif.got.tgz:67869.got - 2010.06.27 22:07:45.
