data_PCOD8061104
_publ_section_title
;
Structure prediction by ZEFSAII (Michael W. Deem and Ramdas Pophale) SiO2 
 PCOD8061104
Probable space group: P 2/M
;
_chemical_formula_sum "Si O2"
_cell_formula_units_Z 28
_cell_length_a 14.274299
_cell_length_b 9.345554
_cell_length_c 14.305017
_cell_angle_alpha 90.000000
_cell_angle_beta 120.564074
_cell_angle_gamma 90.000000
_cell_volume 1643.168719
_symmetry_space_group_name_H-M "P 2/M"
_symmetry_group_IT_number 10
_symmetry_cell_setting 'monoclinic'
loop_
_space_group_symop_operation_xyz
x,y,z
-x,y,-z
-x,-y,-z
x,-y,z
loop_
_atom_site_type_symbol
_atom_site_label
_atom_site_fract_x
_atom_site_fract_y
_atom_site_fract_z
Si Si1 0.728429 0.162821 0.298219
Si Si2 0.291386 0.335475 0.046896
Si Si3 0.887197 0.333323 0.902901
Si Si4 0.832560 0.838311 0.156918
Si Si5 0.527555 0.336263 0.119981
Si Si6 0.109256 0.332489 0.500857
Si Si7 0.046724 0.334877 0.262259
O O1 0.814385 0.166804 0.257981
O O2 0.616051 0.234843 0.211474
O O3 0.785012 0.247520 0.411215
O O4 0.704250 0.000000 0.316792
O O5 0.262314 0.500000 0.010214
O O6 0.219557 0.273844 0.097170
O O7 0.420128 0.320285 0.130553
O O8 0.266567 0.242938 0.942494
O O9 0.892625 0.500000 0.926602
O O10 0.872476 0.305158 0.784178
O O11 0.000000 0.264487 0.000000
O O12 0.942588 0.759079 0.187230
O O13 0.838833 0.000000 0.123011
O O14 0.570089 0.500000 0.141447
O O15 0.500000 0.288899 0.000000
O O16 0.129830 0.500000 0.527447
O O17 0.101485 0.292114 0.387615
O O18 0.000000 0.284429 0.500000
O O19 0.009591 0.500000 0.246666
#
# Coordination Sequence:
#
# PCOD8061104 Si02
#       7
#     4   4   4   4   4   4   4
#     4  11  23  35  50  73 106 140 169 206 253 306
#     4  10  19  33  52  75 103 136 169 204 248 300
#     4   9  16  28  52  79 102 131 165 204 250 300
#     4  11  21  30  46  75 107 137 166 204 247 298
#     4  10  20  33  53  77 101 131 170 213 252 296
#     4  10  20  33  53  77 101 131 170 213 252 296
#     4  10  19  33  52  75 103 136 169 204 248 300
#
# _framework density 17.040247000000001
#
# number of rings (size 3 to 8) (size 9 to 14) (size 15 to 20)
#    0.000    1.857    4.286    0.857    0.000    2.857 
#    0.000    1.429    0.000    0.857    0.000    6.000 
#    0.000    0.000    0.000    0.000    0.000    0.000 
#
# Total GULP energy -347134.389845 kJ/mol
# GULP energy per Si atom -12397.656780 kJ/mol
# Density = 1.700146 g / cm^3
# Si number density = 17.040247 Si / 1000 Ang^3
#
#
#
# Elastic Constant Matrix: (Units=GPa)
#
#
# Indices 1 2 3 4 5 6 
#
# 1 91.0748 22.5597 38.7931 0.0000 -0.7889 0.0000
# 2 22.5597 73.1093 45.7333 0.0000 9.0932 0.0000
# 3 38.7931 45.7333 104.9332 0.0000 0.6162 0.0000
# 4 0.0000 0.0000 0.0000 10.4069 0.0000 -3.0187
# 5 -0.7889 9.0932 0.6162 0.0000 27.4480 0.0000
# 6 0.0000 0.0000 0.0000 -3.0187 0.0000 9.1166
#
#
#
# Elastic Compliance Matrix: (Units=1/GPa)
#
#
# Indices 1 2 3 4 5 6 
#
# 1 0.013160 -0.001563 -0.004190 0.000000 0.000990 0.000000
# 2 -0.001563 0.020051 -0.008123 0.000000 -0.006505 0.000000
# 3 -0.004190 -0.008123 0.014606 0.000000 0.002243 0.000000
# 4 0.000000 0.000000 0.000000 0.106300 0.000000 0.035198
# 5 0.000990 -0.006505 0.002243 0.000000 0.038566 0.000000
# 6 0.000000 0.000000 0.000000 0.035198 0.000000 0.121345
#
#
# Mechanical properties :
#
#
# Convention : Reuss Voigt Hill
#
# Bulk Modulus (GPa) = 49.83667 53.69884 51.76775
# Shear Modulus (GPa) = 14.34852 20.19637 17.27245
#
# Velocity S-wave (km/s) = 2.90494 3.44643 3.18720
# Velocity P-wave (km/s) = 6.36879 6.88611 6.63250
#
# Compressibility (1/GPa) = 0.02006555
#
# Stress axis : x y z
#
# Youngs Moduli (GPa) = 75.98536 49.87349 68.46601
#
# Poissons Ratio (x) = 0.07796 0.28686
# Poissons Ratio (y) = 0.11878 0.55613
# Poissons Ratio (z) = 0.31837 0.40511
#
# Static dielectric constant tensor:
#      x y z
#    x 3.281680 0.000000 -0.092260 
#    y 0.000000 3.102960 0.000000 
#    z -0.092260 0.000000 3.066290 
# 
# 
# High freq. dielectric constant tensor:
#      x y z
#    x 1.649780 0.000000 -0.003250 
#    y 0.000000 1.644080 0.000000 
#    z -0.003250 0.000000 1.641100 
# 
# From -- ./inp_files/49389.got.cif
#   From: 2010.06.25/outbox.cif.g09.slc.cpg/sg10_25_cif.got.tgz:49389.got - 2010.06.27 22:07:45.
