data_PCOD8061133
_publ_section_title
;
Structure prediction by ZEFSAII (Michael W. Deem and Ramdas Pophale) SiO2 
 PCOD8061133
Probable space group: P 2/M
;
_chemical_formula_sum "Si O2"
_cell_formula_units_Z 32
_cell_length_a 27.233640
_cell_length_b 9.095534
_cell_length_c 21.270442
_cell_angle_alpha 90.000000
_cell_angle_beta 160.575922
_cell_angle_gamma 90.000000
_cell_volume 1752.173601
_symmetry_space_group_name_H-M "P 2/M"
_symmetry_group_IT_number 10
_symmetry_cell_setting 'monoclinic'
loop_
_space_group_symop_operation_xyz
x,y,z
-x,y,-z
-x,-y,-z
x,-y,z
loop_
_atom_site_type_symbol
_atom_site_label
_atom_site_fract_x
_atom_site_fract_y
_atom_site_fract_z
Si Si1 0.654685 0.325144 0.712699
Si Si2 0.950306 0.674531 0.007166
Si Si3 0.711847 0.673864 0.923733
Si Si4 0.499333 0.825088 0.764752
Si Si5 0.807491 0.327104 0.599566
Si Si6 0.733161 0.826329 0.299344
Si Si7 0.044562 0.328360 0.352196
Si Si8 0.454165 0.173717 0.039978
O O1 0.500000 0.260972 0.500000
O O2 0.654020 0.500000 0.709080
O O3 0.788800 0.264044 0.831585
O O4 0.678346 0.273621 0.812649
O O5 0.942312 0.500000 0.993692
O O6 0.000000 0.740792 0.000000
O O7 0.067442 0.722971 0.200763
O O8 0.688502 0.500000 0.903011
O O9 0.602417 0.759582 0.836354
O O10 0.876727 0.722384 0.140717
O O11 0.336023 0.765121 0.556615
O O12 0.560572 0.769487 0.906516
O O13 0.497602 0.000000 0.758310
O O14 0.773228 0.500000 0.563859
O O15 0.862934 0.283766 0.597508
O O16 0.887304 0.751899 0.504678
O O17 0.605403 0.766539 0.191787
O O18 0.753383 0.000000 0.328680
O O19 0.687329 0.778163 0.172912
O O20 0.052387 0.500000 0.373869
O O21 0.465743 0.000000 0.052111
#
# Coordination Sequence:
#
# PCOD8061133 Si02
#       8
#     4   4   4   4   4   4   4   4
#     4   9  17  30  50  78 107 136 173 215 256 302
#     4   9  17  29  49  81 110 132 169 220 261 301
#     4  10  21  37  54  76 110 145 175 214 263 312
#     4  11  22  36  54  79 107 138 179 221 262 311
#     4  10  19  33  54  80 109 138 172 219 269 310
#     4   9  16  31  55  77 100 135 176 217 265 309
#     4  10  19  33  52  78 110 139 171 213 265 319
#     4   8  16  31  51  76 104 133 172 224 263 301
#
# _framework density 18.263031000000002
#
# number of rings (size 3 to 8) (size 9 to 14) (size 15 to 20)
#    0.000    2.500    2.500    1.125    1.750    0.500 
#    0.000    3.125    0.000    4.500    0.000    0.000 
#    0.000    0.000    0.000    0.000    0.000    0.000 
#
# Total GULP energy -396721.690738 kJ/mol
# GULP energy per Si atom -12397.552836 kJ/mol
# Density = 1.822146 g / cm^3
# Si number density = 18.263031 Si / 1000 Ang^3
#
#
#
# Elastic Constant Matrix: (Units=GPa)
#
#
# Indices 1 2 3 4 5 6 
#
# 1 124.2838 25.1630 80.5390 0.0000 6.3308 0.0000
# 2 25.1630 25.0965 35.8113 0.0000 6.7308 0.0000
# 3 80.5390 35.8113 177.5968 0.0000 -2.9923 0.0000
# 4 0.0000 0.0000 0.0000 -4.3880 0.0000 -12.6940
# 5 6.3308 6.7308 -2.9923 0.0000 31.3519 0.0000
# 6 0.0000 0.0000 0.0000 -12.6940 0.0000 10.9631
#
#
#
# Elastic Compliance Matrix: (Units=1/GPa)
#
#
# Indices 1 2 3 4 5 6 
#
# 1 0.012087 -0.005328 -0.004436 0.000000 -0.001720 0.000000
# 2 -0.005328 0.064241 -0.010769 0.000000 -0.013744 0.000000
# 3 -0.004436 -0.010769 0.009884 0.000000 0.004151 0.000000
# 4 0.000000 0.000000 0.000000 -0.052394 0.000000 -0.060666
# 5 -0.001720 -0.013744 0.004151 0.000000 0.035590 0.000000
# 6 0.000000 0.000000 0.000000 -0.060666 0.000000 0.020971
#
#
# Mechanical properties :
#
#
# Convention : Reuss Voigt Hill
#
# Bulk Modulus (GPa) = 22.15031 67.77819 44.96425
# Shear Modulus (GPa) = 34.13108 19.94967 27.04038
#
# Velocity S-wave (km/s) = 4.32772 3.30866 3.85204
# Velocity P-wave (km/s) = 6.09320 7.19647 6.66769
#
# Compressibility (1/GPa) = 0.04514610
#
# Stress axis : x y z
#
# Youngs Moduli (GPa) = 82.73281 15.56632 101.17347
#
# Poissons Ratio (x) = 0.08293 0.44882
# Poissons Ratio (y) = 0.44077 1.08958
# Poissons Ratio (z) = 0.36701 0.16764
#
# Static dielectric constant tensor:
#      x y z
#    x 3.533320 0.000000 -0.129180 
#    y 0.000000 2.899540 0.000000 
#    z -0.129180 0.000000 3.620380 
# 
# 
# High freq. dielectric constant tensor:
#      x y z
#    x 1.707200 0.000000 -0.010620 
#    y 0.000000 1.661860 0.000000 
#    z -0.010620 0.000000 1.721030 
# 
# From -- ./inp_files/86966.got.cif
#   From: 2010.06.25/outbox.cif.g09.slc.cpg/sg10_44_cif.got.tgz:86966.got - 2010.06.27 22:07:45.
