data_PCOD8061646
_publ_section_title
;
Structure prediction by ZEFSAII (Michael W. Deem and Ramdas Pophale) SiO2 
 PCOD8061646
Probable space group: P 2/M
;
_chemical_formula_sum "Si O2"
_cell_formula_units_Z 32
_cell_length_a 20.002581
_cell_length_b 9.141060
_cell_length_c 10.841031
_cell_angle_alpha 90.000000
_cell_angle_beta 126.679528
_cell_angle_gamma 90.000000
_cell_volume 1589.723755
_symmetry_space_group_name_H-M "P 2/M"
_symmetry_group_IT_number 10
_symmetry_cell_setting 'monoclinic'
loop_
_space_group_symop_operation_xyz
x,y,z
-x,y,-z
-x,-y,-z
x,-y,z
loop_
_atom_site_type_symbol
_atom_site_label
_atom_site_fract_x
_atom_site_fract_y
_atom_site_fract_z
Si Si1 0.452231 0.826488 0.825757
Si Si2 0.858935 0.666687 0.899978
Si Si3 0.738217 0.833799 0.357864
Si Si4 0.974179 0.664377 0.263805
Si Si5 0.272820 0.171439 0.099705
Si Si6 0.534492 0.828391 0.666283
Si Si7 0.113549 0.165319 0.308786
Si Si8 0.188586 0.671401 0.784517
O O1 0.355629 0.778977 0.723337
O O2 0.491202 0.761093 0.741891
O O3 0.461629 0.000000 0.834944
O O4 0.500000 0.764107 0.000000
O O5 0.833442 0.500000 0.846145
O O6 0.776066 0.757581 0.840126
O O7 0.900710 0.733424 0.824898
O O8 0.924692 0.678176 0.081588
O O9 0.790241 0.828413 0.542065
O O10 0.785377 0.722117 0.321174
O O11 0.738189 0.000000 0.304561
O O12 0.008533 0.500000 0.320228
O O13 0.909759 0.705025 0.302617
O O14 0.051872 0.775295 0.348351
O O15 0.368817 0.207902 0.222915
O O16 0.254267 0.000000 0.077418
O O17 0.245585 0.239920 0.941178
O O18 0.500000 0.759515 0.500000
O O19 0.516079 0.000000 0.645680
O O20 0.087839 0.000000 0.248318
O O21 0.205488 0.500000 0.823111
#
# Coordination Sequence:
#
# PCOD8061646 Si02
#       8
#     4   4   4   4   4   4   4   4
#     4   9  17  32  55  81 111 148 189 234 284 340
#     4  10  21  37  57  80 112 154 194 228 274 342
#     4  10  22  37  56  83 114 144 184 237 287 333
#     4   9  20  38  57  78 106 147 191 231 276 339
#     4  10  19  33  58  87 112 141 186 238 286 331
#     4   9  18  30  52  85 116 148 187 236 290 345
#     4  11  23  35  53  84 116 146 183 237 292 334
#     4  10  21  38  59  81 109 147 191 229 277 342
#
# _framework density 20.129284999999999
#
# number of rings (size 3 to 8) (size 9 to 14) (size 15 to 20)
#    0.000    2.250    0.000    3.375    1.750    8.000 
#    0.000    2.500    0.000    5.625    0.000    0.000 
#    0.000    0.000    0.000    0.000    0.000    0.000 
#
# Total GULP energy -396799.829892 kJ/mol
# GULP energy per Si atom -12399.994684 kJ/mol
# Density = 2.008347 g / cm^3
# Si number density = 20.129285 Si / 1000 Ang^3
#
#
#
# Elastic Constant Matrix: (Units=GPa)
#
#
# Indices 1 2 3 4 5 6 
#
# 1 122.2911 40.3568 38.5222 0.0000 0.0708 0.0000
# 2 40.3568 76.4829 16.9403 0.0000 14.3055 0.0000
# 3 38.5222 16.9403 46.7108 0.0000 7.4690 0.0000
# 4 0.0000 0.0000 0.0000 2.8385 0.0000 -6.1202
# 5 0.0708 14.3055 7.4690 0.0000 28.4065 0.0000
# 6 0.0000 0.0000 0.0000 -6.1202 0.0000 26.6888
#
#
#
# Elastic Compliance Matrix: (Units=1/GPa)
#
#
# Indices 1 2 3 4 5 6 
#
# 1 0.013103 -0.005807 -0.009565 0.000000 0.005407 0.000000
# 2 -0.005807 0.017865 -0.000265 0.000000 -0.008912 0.000000
# 3 -0.009565 -0.000265 0.030656 0.000000 -0.007903 0.000000
# 4 0.000000 0.000000 0.000000 0.696839 0.000000 0.159796
# 5 0.005407 -0.008912 -0.007903 0.000000 0.041756 0.000000
# 6 0.000000 0.000000 0.000000 0.159796 0.000000 0.074113
#
#
# Mechanical properties :
#
#
# Convention : Reuss Voigt Hill
#
# Bulk Modulus (GPa) = 32.94785 48.56927 40.75856
# Shear Modulus (GPa) = 5.46017 21.56446 13.51232
#
# Velocity S-wave (km/s) = 1.64877 3.27662 2.59371
# Velocity P-wave (km/s) = 4.47529 6.20452 5.40945
#
# Compressibility (1/GPa) = 0.03035100
#
# Stress axis : x y z
#
# Youngs Moduli (GPa) = 76.31650 55.97690 32.61983
#
# Poissons Ratio (x) = 0.32505 0.31200
# Poissons Ratio (y) = 0.44316 0.00864
# Poissons Ratio (z) = 0.72995 0.01483
#
# Static dielectric constant tensor:
#      x y z
#    x 3.846210 0.000000 -0.022200 
#    y 0.000000 3.431240 0.000000 
#    z -0.022200 0.000000 3.582380 
# 
# 
# High freq. dielectric constant tensor:
#      x y z
#    x 1.797370 0.000000 0.001180 
#    y 0.000000 1.758240 0.000000 
#    z 0.001180 0.000000 1.784600 
# 
# From -- ./inp_files/55356.got.cif
#   From: 2010.06.25/outbox.cif.g09.slc.cpg/sg10_28_cif.got.tgz:55356.got - 2010.06.27 22:07:45.
