data_PCOD8061705
_publ_section_title
;
Structure prediction by ZEFSAII (Michael W. Deem and Ramdas Pophale) SiO2 
 PCOD8061705
Probable space group: P 2/M
;
_chemical_formula_sum "Si O2"
_cell_formula_units_Z 28
_cell_length_a 9.288593
_cell_length_b 9.236305
_cell_length_c 27.453319
_cell_angle_alpha 90.000000
_cell_angle_beta 39.328051
_cell_angle_gamma 90.000000
_cell_volume 1492.683199
_symmetry_space_group_name_H-M "P 2/M"
_symmetry_group_IT_number 10
_symmetry_cell_setting 'monoclinic'
loop_
_space_group_symop_operation_xyz
x,y,z
-x,y,-z
-x,-y,-z
x,-y,z
loop_
_atom_site_type_symbol
_atom_site_label
_atom_site_fract_x
_atom_site_fract_y
_atom_site_fract_z
Si Si1 0.645181 0.172047 0.301216
Si Si2 0.757641 0.839885 0.447060
Si Si3 0.487875 0.172727 0.857960
Si Si4 0.003728 0.828060 0.286579
Si Si5 0.676062 0.172587 0.994330
Si Si6 0.750391 0.662473 0.544907
Si Si7 0.185180 0.172049 0.847970
O O1 0.409015 0.241999 0.378946
O O2 0.698797 0.223620 0.232428
O O3 0.847891 0.228214 0.282991
O O4 0.617528 0.000000 0.312030
O O5 0.500000 0.859038 0.500000
O O6 0.773512 0.726243 0.485487
O O7 0.900646 0.774846 0.364649
O O8 0.851031 0.000000 0.437727
O O9 0.742426 0.234372 0.785009
O O10 0.329455 0.233126 0.855858
O O11 0.489443 0.000000 0.856432
O O12 0.393963 0.229762 0.934042
O O13 0.006818 0.000000 0.284161
O O14 0.928033 0.232235 0.917113
O O15 0.673096 0.000000 0.994039
O O16 0.500000 0.232951 0.000000
O O17 0.651508 0.500000 0.567746
O O18 0.000000 0.662664 0.500000
O O19 0.178329 0.000000 0.852060
#
# Coordination Sequence:
#
# PCOD8061705 Si02
#       7
#     4   4   4   4   4   4   4
#     4  10  19  34  53  74 101 133 173 217 260 307
#     4  10  19  35  57  80 103 133 175 219 265 311
#     4   9  16  25  39  64  99 134 167 206 252 305
#     4   9  17  29  46  71 100 129 166 213 258 305
#     4   9  15  24  38  59  95 140 171 198 248 306
#     4  11  25  40  53  74 106 140 175 215 265 317
#     4   9  17  26  41  67  97 132 171 209 250 301
#
# _framework density 18.758165999999999
#
# number of rings (size 3 to 8) (size 9 to 14) (size 15 to 20)
#    0.000    2.429    1.429    1.714    2.000    6.571 
#    0.000    0.000    0.000    0.000    0.000    0.000 
#    0.000    8.571    0.000    0.000    0.000    0.286 
#
# Total GULP energy -347154.282783 kJ/mol
# GULP energy per Si atom -12398.367242 kJ/mol
# Density = 1.871547 g / cm^3
# Si number density = 18.758166 Si / 1000 Ang^3
#
#
#
# Elastic Constant Matrix: (Units=GPa)
#
#
# Indices 1 2 3 4 5 6 
#
# 1 141.9462 27.5897 86.0067 0.0000 11.1954 0.0000
# 2 27.5897 31.5007 27.2062 0.0000 3.1473 0.0000
# 3 86.0067 27.2062 164.5840 0.0000 18.5945 0.0000
# 4 0.0000 0.0000 0.0000 4.5919 0.0000 -1.7610
# 5 11.1954 3.1473 18.5945 0.0000 36.4666 0.0000
# 6 0.0000 0.0000 0.0000 -1.7610 0.0000 9.1287
#
#
#
# Elastic Compliance Matrix: (Units=1/GPa)
#
#
# Indices 1 2 3 4 5 6 
#
# 1 0.011072 -0.005482 -0.004827 0.000000 -0.000465 0.000000
# 2 -0.005482 0.039747 -0.003723 0.000000 0.000151 0.000000
# 3 -0.004827 -0.003723 0.009561 0.000000 -0.003072 0.000000
# 4 0.000000 0.000000 0.000000 0.235174 0.000000 0.045366
# 5 -0.000465 0.000151 -0.003072 0.000000 0.029118 0.000000
# 6 0.000000 0.000000 0.000000 0.045366 0.000000 0.118296
#
#
# Mechanical properties :
#
#
# Convention : Reuss Voigt Hill
#
# Bulk Modulus (GPa) = 30.94423 68.84843 49.89633
# Shear Modulus (GPa) = 10.37768 23.18599 16.78184
#
# Velocity S-wave (km/s) = 2.35465 3.51956 2.99430
# Velocity P-wave (km/s) = 4.89129 7.30064 6.21385
#
# Compressibility (1/GPa) = 0.03231620
#
# Stress axis : x y z
#
# Youngs Moduli (GPa) = 90.31888 25.15940 104.59263
#
# Poissons Ratio (x) = 0.13792 0.50489
# Poissons Ratio (y) = 0.49510 0.38936
# Poissons Ratio (z) = 0.43599 0.09366
#
# Static dielectric constant tensor:
#      x y z
#    x 3.595780 0.000000 -0.010600 
#    y 0.000000 2.870750 0.000000 
#    z -0.010600 0.000000 3.700400 
# 
# 
# High freq. dielectric constant tensor:
#      x y z
#    x 1.741260 0.000000 0.001890 
#    y 0.000000 1.650570 0.000000 
#    z 0.001890 0.000000 1.747900 
# 
# From -- ./inp_files/36984.got.cif
#   From: 2010.06.25/outbox.cif.g09.slc.cpg/sg10_19_cif.got.tgz:36984.got - 2010.06.27 22:07:45.
