data_PCOD8061608
_publ_section_title
;
Structure prediction by ZEFSAII (Michael W. Deem and Ramdas Pophale) SiO2 
 PCOD8061608
Probable space group: P 2/M
;
_chemical_formula_sum "Si O2"
_cell_formula_units_Z 28
_cell_length_a 31.258468
_cell_length_b 7.742686
_cell_length_c 10.220605
_cell_angle_alpha 90.000000
_cell_angle_beta 144.634528
_cell_angle_gamma 90.000000
_cell_volume 1431.715894
_symmetry_space_group_name_H-M "P 2/M"
_symmetry_group_IT_number 10
_symmetry_cell_setting 'monoclinic'
loop_
_space_group_symop_operation_xyz
x,y,z
-x,y,-z
-x,-y,-z
x,-y,z
loop_
_atom_site_type_symbol
_atom_site_label
_atom_site_fract_x
_atom_site_fract_y
_atom_site_fract_z
Si Si1 0.821744 0.697939 0.153622
Si Si2 0.931029 0.000000 0.731748
Si Si3 0.331361 0.195058 0.821573
Si Si4 0.933072 0.000000 0.432448
Si Si5 0.333062 0.704733 0.332664
Si Si6 0.820591 0.692943 0.451737
Si Si7 0.418509 0.302238 0.791312
Si Si8 0.585980 0.297911 0.721183
O O1 0.846072 0.500000 0.184638
O O2 0.888424 0.826020 0.288592
O O3 0.796333 0.717535 0.240740
O O4 0.752906 0.757632 0.892563
O O5 0.883418 0.170038 0.645702
O O6 0.957471 0.000000 0.646007
O O7 0.000000 0.000000 0.000000
O O8 0.251788 0.283621 0.640329
O O9 0.376933 0.293977 0.824780
O O10 0.318479 0.000000 0.744024
O O11 0.378710 0.195921 0.071159
O O12 0.000000 0.000000 0.500000
O O13 0.338125 0.500000 0.345364
O O14 0.368580 0.785337 0.553014
O O15 0.378377 0.776238 0.322291
O O16 0.852342 0.500000 0.554648
O O17 0.430413 0.500000 0.781030
O O18 0.500000 0.213389 0.000000
O O19 0.500000 0.257611 0.500000
O O20 0.602530 0.500000 0.782554
#
# Coordination Sequence:
#
# PCOD8061608 Si02
#       8
#     4   2   4   2   4   4   4   4
#     4   9  18  35  61  88 116 150 192 239 284 343
#     4  10  22  42  64  92 125 148 188 238 287 360
#     4  12  23  36  55  83 120 159 203 248 295 355
#     4  10  22  40  62  90 117 152 182 222 291 354
#     4   9  17  33  56  82 110 145 195 245 291 344
#     4  10  19  37  64  89 118 158 196 239 296 351
#     4  10  21  38  57  78 112 159 203 250 307 357
#     4  10  19  33  57  85 110 144 197 255 299 345
#
# _framework density 19.556953
#
# number of rings (size 3 to 8) (size 9 to 14) (size 15 to 20)
#    0.000    2.000    2.143    2.143    0.000    3.429 
#    3.857    0.000    0.000    0.000    0.000    0.000 
#    0.000    0.000    0.000    0.000    0.000    0.000 
#
# Total GULP energy -347198.599026 kJ/mol
# GULP energy per Si atom -12399.949965 kJ/mol
# Density = 1.951244 g / cm^3
# Si number density = 19.556953 Si / 1000 Ang^3
#
#
#
# Elastic Constant Matrix: (Units=GPa)
#
#
# Indices 1 2 3 4 5 6 
#
# 1 141.8936 26.7745 67.0090 0.0000 13.4000 0.0000
# 2 26.7745 87.9951 45.4569 0.0000 15.1862 0.0000
# 3 67.0090 45.4569 159.0406 0.0000 3.5243 0.0000
# 4 0.0000 0.0000 0.0000 5.9298 0.0000 4.2462
# 5 13.4000 15.1862 3.5243 0.0000 28.6131 0.0000
# 6 0.0000 0.0000 0.0000 4.2462 0.0000 12.1190
#
#
#
# Elastic Compliance Matrix: (Units=1/GPa)
#
#
# Indices 1 2 3 4 5 6 
#
# 1 0.009204 -0.000230 -0.003730 0.000000 -0.003729 0.000000
# 2 -0.000230 0.014721 -0.003950 0.000000 -0.007219 0.000000
# 3 -0.003730 -0.003950 0.008927 0.000000 0.002744 0.000000
# 4 0.000000 0.000000 0.000000 0.225120 0.000000 -0.078877
# 5 -0.003729 -0.007219 0.002744 0.000000 0.040189 0.000000
# 6 0.000000 0.000000 0.000000 -0.078877 0.000000 0.110152
#
#
# Mechanical properties :
#
#
# Convention : Reuss Voigt Hill
#
# Bulk Modulus (GPa) = 58.71403 74.15667 66.43535
# Shear Modulus (GPa) = 11.63300 25.97830 18.80565
#
# Velocity S-wave (km/s) = 2.44155 3.64860 3.10431
# Velocity P-wave (km/s) = 6.16729 7.46661 6.84784
#
# Compressibility (1/GPa) = 0.01703170
#
# Stress axis : x y z
#
# Youngs Moduli (GPa) = 108.64266 67.93057 112.01418
#
# Poissons Ratio (x) = 0.01566 0.41777
# Poissons Ratio (y) = 0.02504 0.44251
# Poissons Ratio (z) = 0.40520 0.26836
#
# Static dielectric constant tensor:
#      x y z
#    x 3.438940 0.000000 -0.044600 
#    y 0.000000 3.527470 0.000000 
#    z -0.044600 0.000000 3.626530 
# 
# 
# High freq. dielectric constant tensor:
#      x y z
#    x 1.750850 0.000000 0.000840 
#    y 0.000000 1.757700 0.000000 
#    z 0.000840 0.000000 1.755160 
# 
# From -- ./inp_files/37410.got.cif
#   From: 2010.06.25/outbox.cif.g09.slc.cpg/sg10_19_cif.got.tgz:37410.got - 2010.06.27 22:07:45.
