data_PCOD8061649
_publ_section_title
;
Structure prediction by ZEFSAII (Michael W. Deem and Ramdas Pophale) SiO2 
 PCOD8061649
Probable space group: P 2/M
;
_chemical_formula_sum "Si O2"
_cell_formula_units_Z 28
_cell_length_a 28.736336
_cell_length_b 8.986704
_cell_length_c 12.060804
_cell_angle_alpha 90.000000
_cell_angle_beta 152.135881
_cell_angle_gamma 90.000000
_cell_volume 1455.709613
_symmetry_space_group_name_H-M "P 2/M"
_symmetry_group_IT_number 10
_symmetry_cell_setting 'monoclinic'
loop_
_space_group_symop_operation_xyz
x,y,z
-x,y,-z
-x,-y,-z
x,-y,z
loop_
_atom_site_type_symbol
_atom_site_label
_atom_site_fract_x
_atom_site_fract_y
_atom_site_fract_z
Si Si1 0.749312 0.171738 0.364705
Si Si2 0.046898 0.169332 0.782519
Si Si3 0.651716 0.670067 0.559742
Si Si4 0.157497 0.675195 0.646608
Si Si5 0.202529 0.830404 0.287882
Si Si6 0.545832 0.670702 0.980023
Si Si7 0.231214 0.827844 0.012047
O O1 0.808280 0.267819 0.400298
O O2 0.808066 0.195123 0.603719
O O3 0.749816 0.000000 0.329654
O O4 0.636171 0.223945 0.137623
O O5 0.956315 0.279777 0.571522
O O6 0.006998 0.000000 0.692351
O O7 0.096470 0.202655 0.006571
O O8 0.127623 0.198904 0.857301
O O9 0.680689 0.500000 0.644057
O O10 0.712589 0.723161 0.580321
O O11 0.535232 0.687188 0.288173
O O12 0.677888 0.765464 0.723379
O O13 0.167684 0.500000 0.672476
O O14 0.228990 0.743614 0.890726
O O15 0.234383 0.000000 0.326694
O O16 0.582377 0.500000 0.067430
O O17 0.500000 0.724681 0.000000
O O18 0.251241 0.000000 0.031726
#
# Coordination Sequence:
#
# PCOD8061649 Si02
#       7
#     4   4   4   4   4   4   4
#     4  11  23  38  58  83 115 154 195 235 279 335
#     4   9  19  37  60  84 112 147 188 234 283 333
#     4  10  19  33  58  88 118 148 183 231 283 332
#     4  12  25  39  56  81 115 152 191 236 287 340
#     4   9  19  35  56  84 115 149 189 234 280 331
#     4  10  20  36  58  87 120 152 183 226 284 339
#     4  10  21  39  62  85 113 148 191 237 280 331
#
# _framework density 19.234604000000001
#
# number of rings (size 3 to 8) (size 9 to 14) (size 15 to 20)
#    0.000    1.857    1.429    3.857    0.000    7.143 
#    0.000    3.571    0.000    4.286    0.000    0.000 
#    0.000    0.000    0.000    0.000    0.000    0.000 
#
# Total GULP energy -347321.051162 kJ/mol
# GULP energy per Si atom -12404.323256 kJ/mol
# Density = 1.919083 g / cm^3
# Si number density = 19.234604 Si / 1000 Ang^3
#
#
#
# Elastic Constant Matrix: (Units=GPa)
#
#
# Indices 1 2 3 4 5 6 
#
# 1 56.3513 31.0701 18.9921 0.0000 -22.2825 0.0000
# 2 31.0701 118.5831 35.9031 0.0000 -15.1663 0.0000
# 3 18.9921 35.9031 69.5117 0.0000 -19.6624 0.0000
# 4 0.0000 0.0000 0.0000 32.4655 0.0000 -1.6107
# 5 -22.2825 -15.1663 -19.6624 0.0000 26.9561 0.0000
# 6 0.0000 0.0000 0.0000 -1.6107 0.0000 31.1725
#
#
#
# Elastic Compliance Matrix: (Units=1/GPa)
#
#
# Indices 1 2 3 4 5 6 
#
# 1 0.028761 -0.005033 0.000838 0.000000 0.021554 0.000000
# 2 -0.005033 0.010995 -0.004701 0.000000 -0.001403 0.000000
# 3 0.000838 -0.004701 0.020201 0.000000 0.012783 0.000000
# 4 0.000000 0.000000 0.000000 0.030881 0.000000 0.001596
# 5 0.021554 -0.001403 0.012783 0.000000 0.063450 0.000000
# 6 0.000000 0.000000 0.000000 0.001596 0.000000 0.032162
#
#
# Mechanical properties :
#
#
# Convention : Reuss Voigt Hill
#
# Bulk Modulus (GPa) = 23.71540 46.26407 34.98973
# Shear Modulus (GPa) = 22.90459 28.68422 25.79441
#
# Velocity S-wave (km/s) = 3.45454 3.86590 3.66600
# Velocity P-wave (km/s) = 5.31678 6.63564 6.01248
#
# Compressibility (1/GPa) = 0.04216670
#
# Stress axis : x y z
#
# Youngs Moduli (GPa) = 34.76896 90.94687 49.50261
#
# Poissons Ratio (x) = 0.45772 -0.04150
# Poissons Ratio (y) = 0.17499 0.23271
# Poissons Ratio (z) = -0.02915 0.42753
#
# Static dielectric constant tensor:
#      x y z
#    x 3.418740 0.000000 -0.244380 
#    y 0.000000 3.560620 0.000000 
#    z -0.244380 0.000000 3.564040 
# 
# 
# High freq. dielectric constant tensor:
#      x y z
#    x 1.731550 0.000000 -0.020920 
#    y 0.000000 1.754160 0.000000 
#    z -0.020920 0.000000 1.753550 
# 
# From -- ./inp_files/57481.got.cif
#   From: 2010.06.25/outbox.cif.g09.slc.cpg/sg10_29_cif.got.tgz:57481.got - 2010.06.27 22:07:45.
