data_PCOD8061555
_publ_section_title
;
Structure prediction by ZEFSAII (Michael W. Deem and Ramdas Pophale) SiO2 
 PCOD8061555
Probable space group: P 2/M
;
_chemical_formula_sum "Si O2"
_cell_formula_units_Z 32
_cell_length_a 20.083102
_cell_length_b 8.697496
_cell_length_c 12.379510
_cell_angle_alpha 90.000000
_cell_angle_beta 49.179862
_cell_angle_gamma 90.000000
_cell_volume 1636.400956
_symmetry_space_group_name_H-M "P 2/M"
_symmetry_group_IT_number 10
_symmetry_cell_setting 'monoclinic'
loop_
_space_group_symop_operation_xyz
x,y,z
-x,y,-z
-x,-y,-z
x,-y,z
loop_
_atom_site_type_symbol
_atom_site_label
_atom_site_fract_x
_atom_site_fract_y
_atom_site_fract_z
Si Si1 0.063319 0.816677 0.338140
Si Si2 0.125404 0.678469 0.849347
Si Si3 0.740641 0.180402 0.860291
Si Si4 0.593027 0.817971 0.857866
Si Si5 0.014883 0.817546 0.150414
Si Si6 0.560819 0.320969 0.671831
Si Si7 0.672857 0.677375 0.347678
Si Si8 0.377917 0.822322 0.818323
O O1 0.161443 0.748941 0.254412
O O2 0.000000 0.753210 0.500000
O O3 0.028639 0.759570 0.258411
O O4 0.065487 0.000000 0.336952
O O5 0.102074 0.500000 0.886043
O O6 0.075540 0.746424 0.798330
O O7 0.227821 0.706519 0.720568
O O8 0.096119 0.762859 0.990281
O O9 0.673558 0.251262 0.842984
O O10 0.747048 0.000000 0.834170
O O11 0.704784 0.217040 0.017937
O O12 0.607445 0.768952 0.719552
O O13 0.592136 0.000000 0.869276
O O14 0.500000 0.751228 0.000000
O O15 0.009011 0.000000 0.150739
O O16 0.571687 0.500000 0.682595
O O17 0.609494 0.271321 0.511151
O O18 0.458944 0.279604 0.771200
O O19 0.657130 0.500000 0.331404
O O20 0.649362 0.786162 0.273825
O O21 0.405402 0.000000 0.800151
#
# Coordination Sequence:
#
# PCOD8061555 Si02
#       8
#     4   4   4   4   4   4   4   4
#     4   9  18  32  51  79 112 143 174 216 275 330
#     4  10  20  36  57  78 107 148 185 220 274 336
#     4   9  18  33  54  78 108 142 176 223 275 320
#     4  10  19  36  58  80 108 141 184 230 272 324
#     4  10  19  33  56  84 111 137 181 235 274 320
#     4  11  23  38  55  78 112 148 182 226 279 329
#     4  10  23  39  53  77 113 148 182 225 276 333
#     4  11  21  36  58  82 108 142 185 228 277 330
#
# _framework density 19.555109999999999
#
# number of rings (size 3 to 8) (size 9 to 14) (size 15 to 20)
#    0.000    2.000    1.250    3.375    0.000    5.750 
#    0.000    1.250    0.000    3.000    0.000    0.000 
#    0.000    0.000    0.000    0.000    0.000    0.000 
#
# Total GULP energy -396855.371043 kJ/mol
# GULP energy per Si atom -12401.730345 kJ/mol
# Density = 1.951060 g / cm^3
# Si number density = 19.555110 Si / 1000 Ang^3
#
#
#
# Elastic Constant Matrix: (Units=GPa)
#
#
# Indices 1 2 3 4 5 6 
#
# 1 137.0705 13.9088 70.7410 0.0000 19.4615 0.0000
# 2 13.9088 2.5057 2.2832 0.0000 12.0988 0.0000
# 3 70.7410 2.2832 119.5363 0.0000 10.1002 0.0000
# 4 0.0000 0.0000 0.0000 18.1460 0.0000 -5.6030
# 5 19.4615 12.0988 10.1002 0.0000 21.7587 0.0000
# 6 0.0000 0.0000 0.0000 -5.6030 0.0000 16.2314
#
#
#
# Elastic Compliance Matrix: (Units=1/GPa)
#
#
# Indices 1 2 3 4 5 6 
#
# 1 0.010867 0.012276 -0.005483 0.000000 -0.014001 0.000000
# 2 0.012276 -0.217694 -0.012913 0.000000 0.116063 0.000000
# 3 -0.005483 -0.012913 0.011278 0.000000 0.006849 0.000000
# 4 0.000000 0.000000 0.000000 0.061683 0.000000 0.021293
# 5 -0.014001 0.116063 0.006849 0.000000 -0.009234 0.000000
# 6 0.000000 0.000000 0.000000 0.021293 0.000000 0.068959
#
#
# Mechanical properties :
#
#
# Convention : Reuss Voigt Hill
#
# Bulk Modulus (GPa) = -4.81256 48.10875 21.64809
# Shear Modulus (GPa) = -38.12046 22.70585 -7.70731
#
# Velocity S-wave (km/s) = -4.41998 3.41122 -1.98743
# Velocity P-wave (km/s) = 5.33991 6.33800 2.41409
#
# Compressibility (1/GPa) = -0.20778953
#
# Stress axis : x y z
#
# Youngs Moduli (GPa) = 92.01900 -4.59359 88.66614
#
# Poissons Ratio (x) = 0.05639 0.48613
# Poissons Ratio (y) = -1.12958 1.14496
# Poissons Ratio (z) = 0.50451 -0.05932
#
# Static dielectric constant tensor:
#      x y z
#    x 3.835130 0.000000 -0.031400 
#    y 0.000000 3.387420 0.000000 
#    z -0.031400 0.000000 3.668740 
# 
# 
# High freq. dielectric constant tensor:
#      x y z
#    x 1.775060 0.000000 0.001140 
#    y 0.000000 1.736230 0.000000 
#    z 0.001140 0.000000 1.763750 
# 
# From -- ./inp_files/55198.got.cif
#   From: 2010.06.25/outbox.cif.g09.slc.cpg/sg10_28_cif.got.tgz:55198.got - 2010.06.27 22:07:45.
