data_PCOD8061014
_publ_section_title
;
Structure prediction by ZEFSAII (Michael W. Deem and Ramdas Pophale) SiO2 
 PCOD8061014
Probable space group: P 2/M
;
_chemical_formula_sum "Si O2"
_cell_formula_units_Z 32
_cell_length_a 14.341600
_cell_length_b 8.947506
_cell_length_c 14.322915
_cell_angle_alpha 90.000000
_cell_angle_beta 113.776566
_cell_angle_gamma 90.000000
_cell_volume 1681.942978
_symmetry_space_group_name_H-M "P 2/M"
_symmetry_group_IT_number 10
_symmetry_cell_setting 'monoclinic'
loop_
_space_group_symop_operation_xyz
x,y,z
-x,y,-z
-x,-y,-z
x,-y,z
loop_
_atom_site_type_symbol
_atom_site_label
_atom_site_fract_x
_atom_site_fract_y
_atom_site_fract_z
Si Si1 0.614028 0.672655 0.069360
Si Si2 0.587701 0.177731 0.412888
Si Si3 0.975491 0.174515 0.196776
Si Si4 0.290720 0.177921 0.714663
Si Si5 0.177030 0.822560 0.171321
Si Si6 0.634953 0.177755 0.635088
Si Si7 0.062788 0.174770 0.611560
Si Si8 0.800162 0.327041 0.017548
O O1 0.615647 0.500000 0.100238
O O2 0.654056 0.770295 0.170159
O O3 0.685326 0.699295 0.007746
O O4 0.500000 0.726249 0.000000
O O5 0.648518 0.243586 0.349713
O O6 0.640270 0.234247 0.530055
O O7 0.470602 0.233346 0.361056
O O8 0.589766 0.000000 0.412043
O O9 0.995704 0.205007 0.314686
O O10 0.877428 0.267726 0.126792
O O11 0.073069 0.230204 0.178408
O O12 0.953147 0.000000 0.170009
O O13 0.176309 0.243448 0.662927
O O14 0.290042 0.000000 0.714791
O O15 0.270949 0.755120 0.268651
O O16 0.182174 0.000000 0.169573
O O17 0.181526 0.762408 0.069248
O O18 0.640030 0.000000 0.638570
O O19 0.000000 0.248064 0.500000
O O20 0.073867 0.000000 0.596482
O O21 0.822100 0.500000 0.007593
#
# Coordination Sequence:
#
# PCOD8061014 Si02
#       8
#     4   4   4   4   4   4   4   4
#     4  10  23  41  57  75 105 145 181 218 275 333
#     4   8  15  27  47  75 109 138 166 206 258 308
#     4  10  20  36  55  79 109 139 173 215 264 313
#     4  10  19  32  56  86 108 135 178 225 265 311
#     4  10  21  33  54  81 106 137 175 217 262 311
#     4   8  15  29  46  74 111 140 164 205 259 312
#     4   9  18  31  51  81 114 142 171 213 264 316
#     4  11  23  39  57  75 101 138 178 220 266 317
#
# _framework density 19.025615999999999
#
# number of rings (size 3 to 8) (size 9 to 14) (size 15 to 20)
#    0.000    2.500    1.250    1.500    3.500    2.750 
#    0.000    0.000    0.000    2.250    0.000    1.750 
#    0.000    0.000    0.000    0.000    0.000    0.000 
#
# Total GULP energy -396757.738121 kJ/mol
# GULP energy per Si atom -12398.679316 kJ/mol
# Density = 1.898231 g / cm^3
# Si number density = 19.025616 Si / 1000 Ang^3
#
#
#
# Elastic Constant Matrix: (Units=GPa)
#
#
# Indices 1 2 3 4 5 6 
#
# 1 139.9999 20.7299 67.5350 0.0000 -4.4317 0.0000
# 2 20.7299 14.2986 14.6825 0.0000 1.4528 0.0000
# 3 67.5350 14.6825 125.5063 0.0000 6.7608 0.0000
# 4 0.0000 0.0000 0.0000 -1.7290 0.0000 3.6879
# 5 -4.4317 1.4528 6.7608 0.0000 38.4797 0.0000
# 6 0.0000 0.0000 0.0000 3.6879 0.0000 17.0470
#
#
#
# Elastic Compliance Matrix: (Units=1/GPa)
#
#
# Indices 1 2 3 4 5 6 
#
# 1 0.011291 -0.011650 -0.004852 0.000000 0.002593 0.000000
# 2 -0.011650 0.091579 -0.004226 0.000000 -0.004057 0.000000
# 3 -0.004852 -0.004226 0.011201 0.000000 -0.002367 0.000000
# 4 0.000000 0.000000 0.000000 -0.395753 0.000000 0.085616
# 5 0.002593 -0.004057 -0.002367 0.000000 0.026855 0.000000
# 6 0.000000 0.000000 0.000000 0.085616 0.000000 0.040139
#
#
# Mechanical properties :
#
#
# Convention : Reuss Voigt Hill
#
# Bulk Modulus (GPa) = 13.77153 53.96662 33.86908
# Shear Modulus (GPa) = -33.55114 22.55003 -5.50056
#
# Velocity S-wave (km/s) = -4.20393 3.44647 -1.70218
# Velocity P-wave (km/s) = 4.03855 6.65315 3.73862
#
# Compressibility (1/GPa) = 0.07261359
#
# Stress axis : x y z
#
# Youngs Moduli (GPa) = 88.56871 10.91954 89.28050
#
# Poissons Ratio (x) = 0.12721 0.43321
# Poissons Ratio (y) = 1.03182 0.37731
# Poissons Ratio (z) = 0.42976 0.04615
#
# Static dielectric constant tensor:
#      x y z
#    x 3.859010 0.000000 0.061600 
#    y 0.000000 2.997090 0.000000 
#    z 0.061600 0.000000 3.638810 
# 
# 
# High freq. dielectric constant tensor:
#      x y z
#    x 1.755740 0.000000 -0.002240 
#    y 0.000000 1.686270 0.000000 
#    z -0.002240 0.000000 1.749470 
# 
# From -- ./inp_files/66574.got.cif
#   From: 2010.06.25/outbox.cif.g09.slc.cpg/sg10_34_cif.got.tgz:66574.got - 2010.06.27 22:07:45.
