data_PCOD8061790
_publ_section_title
;
Structure prediction by ZEFSAII (Michael W. Deem and Ramdas Pophale) SiO2 
 PCOD8061790
Probable space group: P 2/M
;
_chemical_formula_sum "Si O2"
_cell_formula_units_Z 20
_cell_length_a 15.574093
_cell_length_b 8.709358
_cell_length_c 26.709663
_cell_angle_alpha 90.000000
_cell_angle_beta 17.054668
_cell_angle_gamma 90.000000
_cell_volume 1062.541033
_symmetry_space_group_name_H-M "P 2/M"
_symmetry_group_IT_number 10
_symmetry_cell_setting 'monoclinic'
loop_
_space_group_symop_operation_xyz
x,y,z
-x,y,-z
-x,-y,-z
x,-y,z
loop_
_atom_site_type_symbol
_atom_site_label
_atom_site_fract_x
_atom_site_fract_y
_atom_site_fract_z
Si Si1 0.528737 0.320958 0.602207
Si Si2 0.805327 0.172445 0.358254
Si Si3 0.370226 0.681604 0.253627
Si Si4 0.936166 0.320667 0.876939
Si Si5 0.765871 0.180710 0.567320
O O1 0.555098 0.500000 0.599614
O O2 0.780746 0.275167 0.421890
O O3 0.566075 0.224483 0.631811
O O4 0.210700 0.275370 0.758542
O O5 0.500000 0.179100 0.500000
O O6 0.052697 0.237387 0.183101
O O7 0.888788 0.000000 0.327503
O O8 0.366179 0.500000 0.264872
O O9 0.400432 0.765327 0.290030
O O10 0.076254 0.733255 0.389359
O O11 0.643025 0.733383 0.067905
O O12 0.938507 0.500000 0.864486
O O13 0.820274 0.000000 0.539231
#
# Coordination Sequence:
#
# PCOD8061790 Si02
#       5
#     4   4   4   4   4
#     4  10  19  34  55  78 105 137 173 212 253 301
#     4   9  17  30  50  77 108 138 167 205 256 307
#     4  10  20  37  57  76 101 136 175 212 256 308
#     4   9  19  34  55  80 104 134 173 213 253 303
#     4  11  22  36  53  76 105 137 173 212 259 308
#
# _framework density 18.822801999999999
#
# number of rings (size 3 to 8) (size 9 to 14) (size 15 to 20)
#    0.000    2.200    0.000    4.800    0.000    5.600 
#    0.000    5.000    0.000    6.000    0.000    0.000 
#    0.000    0.000    0.000    0.000    0.000    0.000 
#
# Total GULP energy -248048.619569 kJ/mol
# GULP energy per Si atom -12402.430978 kJ/mol
# Density = 1.877996 g / cm^3
# Si number density = 18.822802 Si / 1000 Ang^3
#
#
#
# Elastic Constant Matrix: (Units=GPa)
#
#
# Indices 1 2 3 4 5 6 
#
# 1 18.3630 9.5600 4.1833 0.0000 2.6607 0.0000
# 2 9.5600 63.1724 21.5015 0.0000 5.0421 0.0000
# 3 4.1833 21.5015 116.4221 0.0000 15.7267 0.0000
# 4 0.0000 0.0000 0.0000 15.9546 0.0000 2.4617
# 5 2.6607 5.0421 15.7267 0.0000 15.3555 0.0000
# 6 0.0000 0.0000 0.0000 2.4617 0.0000 30.2320
#
#
#
# Elastic Compliance Matrix: (Units=1/GPa)
#
#
# Indices 1 2 3 4 5 6 
#
# 1 0.059995 -0.008612 0.000531 0.000000 -0.008111 0.000000
# 2 -0.008612 0.018227 -0.002843 0.000000 -0.001581 0.000000
# 3 0.000531 -0.002843 0.010424 0.000000 -0.009834 0.000000
# 4 0.000000 0.000000 0.000000 0.063475 0.000000 -0.005168
# 5 -0.008111 -0.001581 -0.009834 0.000000 0.077120 0.000000
# 6 0.000000 0.000000 0.000000 -0.005168 0.000000 0.033498
#
#
# Mechanical properties :
#
#
# Convention : Reuss Voigt Hill
#
# Bulk Modulus (GPa) = 14.97096 29.82745 22.39920
# Shear Modulus (GPa) = 16.29433 23.15593 19.72513
#
# Velocity S-wave (km/s) = 2.94542 3.51123 3.24070
# Velocity P-wave (km/s) = 4.42021 5.68500 5.09202
#
# Compressibility (1/GPa) = 0.06679600
#
# Stress axis : x y z
#
# Youngs Moduli (GPa) = 16.66795 54.86385 95.93319
#
# Poissons Ratio (x) = 0.47251 -0.05090
# Poissons Ratio (y) = 0.14355 0.27277
# Poissons Ratio (z) = -0.00884 0.15599
#
# Static dielectric constant tensor:
#      x y z
#    x 3.338940 0.000000 0.192200 
#    y 0.000000 3.524400 0.000000 
#    z 0.192200 0.000000 3.496480 
# 
# 
# High freq. dielectric constant tensor:
#      x y z
#    x 1.719660 0.000000 0.020080 
#    y 0.000000 1.741700 0.000000 
#    z 0.020080 0.000000 1.723830 
# 
# From -- ./inp_files/22292.got.cif
#   From: 2010.06.25/outbox.cif.g09.slc.cpg/sg10_12_cif.got.tgz:22292.got - 2010.06.27 22:07:45.
