data_PCOD8061194
_publ_section_title
;
Structure prediction by ZEFSAII (Michael W. Deem and Ramdas Pophale) SiO2 
 PCOD8061194
Probable space group: P 2/M
;
_chemical_formula_sum "Si O2"
_cell_formula_units_Z 28
_cell_length_a 23.937843
_cell_length_b 11.605461
_cell_length_c 12.295920
_cell_angle_alpha 90.000000
_cell_angle_beta 29.312739
_cell_angle_gamma 90.000000
_cell_volume 1672.356471
_symmetry_space_group_name_H-M "P 2/M"
_symmetry_group_IT_number 10
_symmetry_cell_setting 'monoclinic'
loop_
_space_group_symop_operation_xyz
x,y,z
-x,y,-z
-x,-y,-z
x,-y,z
loop_
_atom_site_type_symbol
_atom_site_label
_atom_site_fract_x
_atom_site_fract_y
_atom_site_fract_z
Si Si1 0.118251 0.136704 0.645275
Si Si2 0.896523 0.259260 0.949601
Si Si3 0.877259 0.134308 0.760002
Si Si4 0.514558 0.134326 0.848190
Si Si5 0.183212 0.500000 0.656796
Si Si6 0.270030 0.863795 0.189920
Si Si7 0.976830 0.500000 0.863144
Si Si8 0.257311 0.740734 0.588889
O O1 0.194441 0.186258 0.416798
O O2 0.169844 0.180779 0.670154
O O3 0.990164 0.180676 0.849704
O O4 0.116607 0.000000 0.650324
O O5 0.858666 0.207796 0.899245
O O6 0.947105 0.386924 0.843652
O O7 0.785098 0.263303 0.214867
O O8 0.780880 0.176583 0.838838
O O9 0.000000 0.158733 0.500000
O O10 0.864528 0.000000 0.810949
O O11 0.616639 0.207737 0.625381
O O12 0.540077 0.000000 0.784619
O O13 0.500000 0.158938 0.000000
O O14 0.400647 0.176484 0.979556
O O15 0.262165 0.613064 0.528645
O O16 0.110884 0.500000 0.667395
O O17 0.095040 0.500000 0.904976
O O18 0.262679 0.000000 0.211811
#
# Coordination Sequence:
#
# PCOD8061194 Si02
#       8
#     4   4   4   4   2   4   2   4
#     4  11  19  29  51  81 108 132 163 213 265 309
#     4  11  21  33  52  77 106 136 172 218 260 306
#     4  10  19  33  53  77 106 139 171 206 256 314
#     4  10  19  33  53  77 106 139 171 206 256 314
#     4   9  18  34  51  71 103 143 174 204 263 320
#     4   9  18  33  52  73 104 144 173 196 245 319
#     4   9  18  34  51  71 103 143 174 204 263 320
#     4  11  21  33  52  77 106 136 172 218 260 306
#
# _framework density 16.742842
#
# number of rings (size 3 to 8) (size 9 to 14) (size 15 to 20)
#    0.000    1.857    4.286    1.286    0.000    2.857 
#    0.000    1.429    0.000    3.429    0.000    3.000 
#    0.000    0.000    0.000    0.000    0.000    0.000 
#
# Total GULP energy -347229.274810 kJ/mol
# GULP energy per Si atom -12401.045529 kJ/mol
# Density = 1.670473 g / cm^3
# Si number density = 16.742842 Si / 1000 Ang^3
#
#
#
# Elastic Constant Matrix: (Units=GPa)
#
#
# Indices 1 2 3 4 5 6 
#
# 1 119.0439 44.0810 53.9535 0.0000 -12.3874 0.0000
# 2 44.0810 95.5705 43.8011 0.0000 0.1268 0.0000
# 3 53.9535 43.8011 85.5284 0.0000 -4.2424 0.0000
# 4 0.0000 0.0000 0.0000 9.6390 0.0000 -6.0622
# 5 -12.3874 0.1268 -4.2424 0.0000 24.2000 0.0000
# 6 0.0000 0.0000 0.0000 -6.0622 0.0000 21.5424
#
#
#
# Elastic Compliance Matrix: (Units=1/GPa)
#
#
# Indices 1 2 3 4 5 6 
#
# 1 0.012998 -0.003098 -0.006337 0.000000 0.005559 0.000000
# 2 -0.003098 0.014452 -0.005578 0.000000 -0.002640 0.000000
# 3 -0.006337 -0.005578 0.018548 0.000000 0.000037 0.000000
# 4 0.000000 0.000000 0.000000 0.126055 0.000000 0.035473
# 5 0.005559 -0.002640 0.000037 0.000000 0.044188 0.000000
# 6 0.000000 0.000000 0.000000 0.035473 0.000000 0.056403
#
#
# Mechanical properties :
#
#
# Convention : Reuss Voigt Hill
#
# Bulk Modulus (GPa) = 62.60940 64.86822 63.73881
# Shear Modulus (GPa) = 16.23407 21.63009 18.93208
#
# Velocity S-wave (km/s) = 3.11724 3.59820 3.36632
# Velocity P-wave (km/s) = 7.10156 7.48937 7.29804
#
# Compressibility (1/GPa) = 0.01597204
#
# Stress axis : x y z
#
# Youngs Moduli (GPa) = 76.93442 69.19246 53.91404
#
# Poissons Ratio (x) = 0.21438 0.34166
# Poissons Ratio (y) = 0.23836 0.30073
# Poissons Ratio (z) = 0.48754 0.38595
#
# Static dielectric constant tensor:
#      x y z
#    x 3.379480 0.000000 -0.152520 
#    y 0.000000 3.156530 0.000000 
#    z -0.152520 0.000000 3.078240 
# 
# 
# High freq. dielectric constant tensor:
#      x y z
#    x 1.639290 0.000000 -0.003920 
#    y 0.000000 1.632760 0.000000 
#    z -0.003920 0.000000 1.631570 
# 
# From -- ./inp_files/46070.got.cif
#   From: 2010.06.25/outbox.cif.g09.slc.cpg/sg10_24_cif.got.tgz:46070.got - 2010.06.27 22:07:45.
