data_PCOD8061836
_publ_section_title
;
Structure prediction by ZEFSAII (Michael W. Deem and Ramdas Pophale) SiO2 
 PCOD8061836
Probable space group: P 2/M
;
_chemical_formula_sum "Si O2"
_cell_formula_units_Z 32
_cell_length_a 9.332586
_cell_length_b 23.912776
_cell_length_c 15.209877
_cell_angle_alpha 90.000000
_cell_angle_beta 150.399515
_cell_angle_gamma 90.000000
_cell_volume 1676.640715
_symmetry_space_group_name_H-M "P 2/M"
_symmetry_group_IT_number 10
_symmetry_cell_setting 'monoclinic'
loop_
_space_group_symop_operation_xyz
x,y,z
-x,y,-z
-x,-y,-z
x,-y,z
loop_
_atom_site_type_symbol
_atom_site_label
_atom_site_fract_x
_atom_site_fract_y
_atom_site_fract_z
Si Si1 0.284987 0.867914 0.966684
Si Si2 0.663823 0.149362 0.814470
Si Si3 0.164708 0.751348 0.839529
Si Si4 0.273475 0.064914 0.303025
Si Si5 0.161416 0.355002 0.315586
Si Si6 0.770162 0.563239 0.800771
Si Si7 0.205286 0.759908 0.532300
Si Si8 0.786465 0.367568 0.462658
O O1 0.138476 0.806498 0.884744
O O2 0.040906 0.915173 0.831636
O O3 0.500000 0.877593 0.000000
O O4 0.449179 0.869289 0.148654
O O5 0.625050 0.096272 0.730615
O O6 0.486772 0.200990 0.679258
O O7 0.000000 0.167064 0.000000
O O8 0.022633 0.698728 0.814459
O O9 0.983809 0.763853 0.655829
O O10 0.500000 0.737131 0.000000
O O11 0.500000 0.077918 0.500000
O O12 0.256264 0.000000 0.270545
O O13 0.500000 0.338078 0.500000
O O14 0.106417 0.405554 0.219405
O O15 0.059641 0.373021 0.359424
O O16 0.696275 0.500000 0.733093
O O17 0.487796 0.592554 0.688429
O O18 0.000000 0.564666 0.000000
O O19 0.311363 0.696480 0.605989
O O20 0.000000 0.781599 0.500000
O O21 0.000000 0.387960 0.500000
#
# Coordination Sequence:
#
# PCOD8061836 Si02
#       8
#     4   4   4   4   4   4   4   4
#     4  10  21  36  56  84 113 145 183 222 274 328
#     4  10  22  36  57  84 113 149 186 225 275 326
#     4  10  20  34  54  83 117 147 179 222 275 331
#     4  10  22  40  59  79 107 145 188 233 277 322
#     4   9  20  36  56  80 109 146 182 222 273 324
#     4  10  22  38  55  77 106 141 183 230 274 320
#     4  10  19  34  55  83 117 146 180 225 273 328
#     4   9  20  36  56  82 108 141 180 219 271 327
#
# _framework density 19.085782999999999
#
# number of rings (size 3 to 8) (size 9 to 14) (size 15 to 20)
#    0.000    2.250    0.000    2.250    0.000   16.000 
#    0.000    0.000    0.000    3.750    0.000    0.000 
#    0.000    0.000    0.000    0.000    0.000    0.000 
#
# Total GULP energy -396784.312853 kJ/mol
# GULP energy per Si atom -12399.509777 kJ/mol
# Density = 1.904234 g / cm^3
# Si number density = 19.085783 Si / 1000 Ang^3
#
#
#
# Elastic Constant Matrix: (Units=GPa)
#
#
# Indices 1 2 3 4 5 6 
#
# 1 137.2838 63.1005 39.6120 0.0000 -15.5687 0.0000
# 2 63.1005 134.7482 69.2594 0.0000 -4.0805 0.0000
# 3 39.6120 69.2594 103.0712 0.0000 -7.4177 0.0000
# 4 0.0000 0.0000 0.0000 24.3689 0.0000 -6.5827
# 5 -15.5687 -4.0805 -7.4177 0.0000 16.3874 0.0000
# 6 0.0000 0.0000 0.0000 -6.5827 0.0000 6.5930
#
#
#
# Elastic Compliance Matrix: (Units=1/GPa)
#
#
# Indices 1 2 3 4 5 6 
#
# 1 0.010400 -0.004389 -0.000429 0.000000 0.008593 0.000000
# 2 -0.004389 0.013196 -0.007488 0.000000 -0.004274 0.000000
# 3 -0.000429 -0.007488 0.015231 0.000000 0.004622 0.000000
# 4 0.000000 0.000000 0.000000 0.056191 0.000000 0.056102
# 5 0.008593 -0.004274 0.004622 0.000000 0.070215 0.000000
# 6 0.000000 0.000000 0.000000 0.056102 0.000000 0.207689
#
#
# Mechanical properties :
#
#
# Convention : Reuss Voigt Hill
#
# Bulk Modulus (GPa) = 70.34984 79.89411 75.12198
# Shear Modulus (GPa) = 12.42940 23.01196 17.72068
#
# Velocity S-wave (km/s) = 2.55471 3.47610 3.05039
# Velocity P-wave (km/s) = 6.75588 7.61987 7.20085
#
# Compressibility (1/GPa) = 0.01421467
#
# Stress axis : x y z
#
# Youngs Moduli (GPa) = 96.15348 75.78054 65.65575
#
# Poissons Ratio (x) = 0.33264 0.02816
# Poissons Ratio (y) = 0.42206 0.49161
# Poissons Ratio (z) = 0.04124 0.56743
#
# Static dielectric constant tensor:
#      x y z
#    x 3.698460 0.000000 -0.160690 
#    y 0.000000 3.554480 0.000000 
#    z -0.160690 0.000000 3.483480 
# 
# 
# High freq. dielectric constant tensor:
#      x y z
#    x 1.749150 0.000000 -0.011260 
#    y 0.000000 1.737530 0.000000 
#    z -0.011260 0.000000 1.740060 
# 
# From -- ./inp_files/30602.got.cif
#   From: 2010.06.25/outbox.cif.g09.slc.cpg/sg10_16_cif.got.tgz:30602.got - 2010.06.27 22:07:45.
