data_PCOD8061261
_publ_section_title
;
Structure prediction by ZEFSAII (Michael W. Deem and Ramdas Pophale) SiO2 
 PCOD8061261
Probable space group: P 2/M
;
_chemical_formula_sum "Si O2"
_cell_formula_units_Z 32
_cell_length_a 21.054344
_cell_length_b 8.656090
_cell_length_c 30.132096
_cell_angle_alpha 90.000000
_cell_angle_beta 161.633868
_cell_angle_gamma 90.000000
_cell_volume 1730.313565
_symmetry_space_group_name_H-M "P 2/M"
_symmetry_group_IT_number 10
_symmetry_cell_setting 'monoclinic'
loop_
_space_group_symop_operation_xyz
x,y,z
-x,y,-z
-x,-y,-z
x,-y,z
loop_
_atom_site_type_symbol
_atom_site_label
_atom_site_fract_x
_atom_site_fract_y
_atom_site_fract_z
Si Si1 0.776717 0.822231 0.451269
Si Si2 0.817135 0.320158 0.266637
Si Si3 0.333561 0.321606 0.530607
Si Si4 0.437068 0.820265 0.060468
Si Si5 0.138387 0.680257 0.033304
Si Si6 0.259890 0.819878 0.205380
Si Si7 0.889669 0.678828 0.213969
Si Si8 0.420007 0.821622 0.150627
O O1 0.693558 0.717850 0.435762
O O2 0.639818 0.792922 0.317419
O O3 0.005263 0.773994 0.590880
O O4 0.769411 0.000000 0.461537
O O5 0.863418 0.500000 0.303221
O O6 0.604286 0.278981 0.146383
O O7 0.812055 0.275835 0.211413
O O8 0.391723 0.500000 0.566061
O O9 0.515312 0.223914 0.629429
O O10 0.127956 0.285737 0.367797
O O11 0.430180 0.766962 0.106747
O O12 0.489623 0.000000 0.091018
O O13 0.221556 0.785147 0.895536
O O14 0.156259 0.500000 0.055827
O O15 0.903550 0.727463 0.873761
O O16 0.240754 0.776235 0.140875
O O17 0.249832 0.719821 0.061594
O O18 0.221644 0.000000 0.186350
O O19 0.843466 0.500000 0.173450
O O20 0.355934 0.000000 0.111968
#
# Coordination Sequence:
#
# PCOD8061261 Si02
#       8
#     4   4   4   4   4   4   4   4
#     4  10  19  33  54  77 106 142 177 216 271 324
#     4  10  21  37  56  78 107 137 175 229 278 318
#     4  10  19  33  54  82 112 139 176 223 269 316
#     4  11  23  37  55  78 105 141 185 224 266 324
#     4  11  21  33  53  80 110 144 181 219 259 314
#     4  11  20  32  53  81 114 145 175 215 266 316
#     4   9  20  37  56  78 107 139 175 227 276 313
#     4  10  22  38  53  75 111 147 177 219 269 320
#
# _framework density 18.493759000000001
#
# number of rings (size 3 to 8) (size 9 to 14) (size 15 to 20)
#    0.000    1.750    1.250    5.625    0.000    6.500 
#    0.000    2.500    0.000    0.750    0.000    5.250 
#    0.000    0.000    0.000    0.000    0.000    0.000 
#
# Total GULP energy -396928.470299 kJ/mol
# GULP energy per Si atom -12404.014697 kJ/mol
# Density = 1.845167 g / cm^3
# Si number density = 18.493759 Si / 1000 Ang^3
#
#
#
# Elastic Constant Matrix: (Units=GPa)
#
#
# Indices 1 2 3 4 5 6 
#
# 1 44.7622 19.9139 47.0421 0.0000 -9.3063 0.0000
# 2 19.9139 64.6733 29.8064 0.0000 -3.3789 0.0000
# 3 47.0421 29.8064 118.8264 0.0000 4.1000 0.0000
# 4 0.0000 0.0000 0.0000 32.6747 0.0000 8.6698
# 5 -9.3063 -3.3789 4.1000 0.0000 24.7524 0.0000
# 6 0.0000 0.0000 0.0000 8.6698 0.0000 20.5171
#
#
#
# Elastic Compliance Matrix: (Units=1/GPa)
#
#
# Indices 1 2 3 4 5 6 
#
# 1 0.048513 -0.005295 -0.018588 0.000000 0.020596 0.000000
# 2 -0.005295 0.018306 -0.002528 0.000000 0.000927 0.000000
# 3 -0.018588 -0.002528 0.016757 0.000000 -0.010109 0.000000
# 4 0.000000 0.000000 0.000000 0.034469 0.000000 -0.014566
# 5 0.020596 0.000927 -0.010109 0.000000 0.049945 0.000000
# 6 0.000000 0.000000 0.000000 -0.014566 0.000000 0.054895
#
#
# Mechanical properties :
#
#
# Convention : Reuss Voigt Hill
#
# Bulk Modulus (GPa) = 32.51538 46.86521 39.69030
# Shear Modulus (GPa) = 17.48508 24.35549 20.92028
#
# Velocity S-wave (km/s) = 3.07817 3.63293 3.36699
# Velocity P-wave (km/s) = 5.50031 6.55695 6.05174
#
# Compressibility (1/GPa) = 0.03075467
#
# Stress axis : x y z
#
# Youngs Moduli (GPa) = 20.61312 54.62659 59.67534
#
# Poissons Ratio (x) = 0.28925 1.10925
# Poissons Ratio (y) = 0.10915 0.15084
# Poissons Ratio (z) = 0.38316 0.13808
#
# Static dielectric constant tensor:
#      x y z
#    x 3.153670 0.000000 0.166490 
#    y 0.000000 3.426420 0.000000 
#    z 0.166490 0.000000 3.604380 
# 
# 
# High freq. dielectric constant tensor:
#      x y z
#    x 1.682820 0.000000 0.018320 
#    y 0.000000 1.727640 0.000000 
#    z 0.018320 0.000000 1.725850 
# 
# From -- ./inp_files/95678.got.cif
#   From: 2010.06.25/outbox.cif.g09.slc.cpg/sg10_48_cif.got.tgz:95678.got - 2010.06.27 22:07:45.
