data_PCOD8061932
_publ_section_title
;
Structure prediction by ZEFSAII (Michael W. Deem and Ramdas Pophale) SiO2 
 PCOD8061932
Probable space group: P 2/M
;
_chemical_formula_sum "Si O2"
_cell_formula_units_Z 28
_cell_length_a 24.195960
_cell_length_b 9.144298
_cell_length_c 21.796362
_cell_angle_alpha 90.000000
_cell_angle_beta 18.068948
_cell_angle_gamma 90.000000
_cell_volume 1495.769829
_symmetry_space_group_name_H-M "P 2/M"
_symmetry_group_IT_number 10
_symmetry_cell_setting 'monoclinic'
loop_
_space_group_symop_operation_xyz
x,y,z
-x,y,-z
-x,-y,-z
x,-y,z
loop_
_atom_site_type_symbol
_atom_site_label
_atom_site_fract_x
_atom_site_fract_y
_atom_site_fract_z
Si Si1 0.202290 0.827121 0.298151
Si Si2 0.364606 0.668208 0.816583
Si Si3 0.899183 0.673141 0.165744
Si Si4 0.457249 0.826647 0.137375
Si Si5 0.627078 0.672583 0.648034
Si Si6 0.462433 0.828478 0.469860
Si Si7 0.975069 0.332197 0.218743
O O1 0.291694 0.776715 0.268380
O O2 0.000000 0.761511 0.500000
O O3 0.185341 0.000000 0.315385
O O4 0.347254 0.777454 0.093976
O O5 0.397391 0.500000 0.762245
O O6 0.491559 0.716308 0.737364
O O7 0.381762 0.771341 0.738899
O O8 0.163137 0.690192 0.053856
O O9 0.883558 0.500000 0.175364
O O10 0.706527 0.740855 0.374512
O O11 0.994426 0.724517 0.128098
O O12 0.000000 0.739373 0.000000
O O13 0.433630 0.752361 0.227188
O O14 0.453417 0.000000 0.148335
O O15 0.628434 0.500000 0.659428
O O16 0.818592 0.738917 0.424770
O O17 0.500000 0.785584 0.500000
O O18 0.434197 0.000000 0.491585
O O19 0.917383 0.500000 0.273959
#
# Coordination Sequence:
#
# PCOD8061932 Si02
#       7
#     4   4   4   4   4   4   4
#     4   8  15  31  54  78 107 141 178 221 259 298
#     4  10  20  37  59  76  99 139 183 224 263 316
#     4  10  19  34  57  80 100 131 181 227 265 322
#     4   9  18  32  53  80 105 138 183 219 255 309
#     4  10  20  35  53  77 112 144 173 217 274 322
#     4  11  23  36  51  76 110 138 168 219 282 335
#     4   9  18  34  54  78 102 131 177 225 266 315
#
# _framework density 18.719459000000001
#
# number of rings (size 3 to 8) (size 9 to 14) (size 15 to 20)
#    0.000    2.429    1.429    2.143    0.000    4.286 
#    0.000    2.857    0.000    0.857    0.000    0.000 
#    0.000    0.000    0.000    0.000    0.000    0.000 
#
# Total GULP energy -346997.581029 kJ/mol
# GULP energy per Si atom -12392.770751 kJ/mol
# Density = 1.867685 g / cm^3
# Si number density = 18.719459 Si / 1000 Ang^3
#
#
#
# Elastic Constant Matrix: (Units=GPa)
#
#
# Indices 1 2 3 4 5 6 
#
# 1 95.9054 20.2429 66.1009 0.0000 13.4315 0.0000
# 2 20.2429 12.0760 15.6216 0.0000 7.6048 0.0000
# 3 66.1009 15.6216 137.9860 0.0000 -0.5660 0.0000
# 4 0.0000 0.0000 0.0000 -39.1915 0.0000 56.4215
# 5 13.4315 7.6048 -0.5660 0.0000 39.5811 0.0000
# 6 0.0000 0.0000 0.0000 56.4215 0.0000 -13.3134
#
#
#
# Elastic Compliance Matrix: (Units=1/GPa)
#
#
# Indices 1 2 3 4 5 6 
#
# 1 0.020867 -0.023902 -0.007301 0.000000 -0.002593 0.000000
# 2 -0.023902 0.140738 -0.004561 0.000000 -0.018994 0.000000
# 3 -0.007301 -0.004561 0.011275 0.000000 0.003515 0.000000
# 4 0.000000 0.000000 0.000000 0.005002 0.000000 0.021198
# 5 -0.002593 -0.018994 0.003515 0.000000 0.029844 0.000000
# 6 0.000000 0.000000 0.000000 0.021198 0.000000 0.014725
#
#
# Mechanical properties :
#
#
# Convention : Reuss Voigt Hill
#
# Bulk Modulus (GPa) = 9.86656 49.98869 29.92762
# Shear Modulus (GPa) = 15.25493 7.01536 11.13514
#
# Velocity S-wave (km/s) = 2.85778 1.93798 2.44159
# Velocity P-wave (km/s) = 4.02137 5.63647 4.89598
#
# Compressibility (1/GPa) = 0.10135242
#
# Stress axis : x y z
#
# Youngs Moduli (GPa) = 47.92230 7.10542 88.68944
#
# Poissons Ratio (x) = 0.16983 0.64751
# Poissons Ratio (y) = 1.14544 0.40452
# Poissons Ratio (z) = 0.34987 0.03241
#
# Static dielectric constant tensor:
#      x y z
#    x 3.549550 0.000000 -0.048040 
#    y 0.000000 3.043250 0.000000 
#    z -0.048040 0.000000 3.701380 
# 
# 
# High freq. dielectric constant tensor:
#      x y z
#    x 1.726980 0.000000 -0.004420 
#    y 0.000000 1.685200 0.000000 
#    z -0.004420 0.000000 1.741120 
# 
# From -- ./inp_files/86441.got.cif
#   From: 2010.06.25/outbox.cif.g09.slc.cpg/sg10_44_cif.got.tgz:86441.got - 2010.06.27 22:07:45.
