data_PCOD8061249
_publ_section_title
;
Structure prediction by ZEFSAII (Michael W. Deem and Ramdas Pophale) SiO2 
 PCOD8061249
Probable space group: P 2/M
;
_chemical_formula_sum "Si O2"
_cell_formula_units_Z 24
_cell_length_a 12.605838
_cell_length_b 9.244145
_cell_length_c 11.551711
_cell_angle_alpha 90.000000
_cell_angle_beta 90.465551
_cell_angle_gamma 90.000000
_cell_volume 1346.078691
_symmetry_space_group_name_H-M "P 2/M"
_symmetry_group_IT_number 10
_symmetry_cell_setting 'monoclinic'
loop_
_space_group_symop_operation_xyz
x,y,z
-x,y,-z
-x,-y,-z
x,-y,z
loop_
_atom_site_type_symbol
_atom_site_label
_atom_site_fract_x
_atom_site_fract_y
_atom_site_fract_z
Si Si1 0.671561 0.166975 0.744648
Si Si2 0.871423 0.171130 0.884901
Si Si3 0.489569 0.332301 0.869356
Si Si4 0.893032 0.828665 0.145636
Si Si5 0.716269 0.668332 0.274932
Si Si6 0.378647 0.834097 0.513801
O O1 0.776381 0.234643 0.805792
O O2 0.567592 0.248186 0.785936
O O3 0.683329 0.185051 0.607370
O O4 0.657631 0.000000 0.779049
O O5 0.985124 0.222937 0.836936
O O6 0.871570 0.000000 0.879911
O O7 0.854989 0.219987 0.017379
O O8 0.520507 0.500000 0.863840
O O9 0.370495 0.303827 0.825403
O O10 0.500000 0.272890 0.000000
O O11 0.824352 0.746895 0.240397
O O12 0.880361 0.000000 0.162854
O O13 0.739224 0.500000 0.292285
O O14 0.677892 0.731227 0.395913
O O15 0.500000 0.784627 0.500000
O O16 0.374289 0.000000 0.557334
#
# Coordination Sequence:
#
# PCOD8061249 Si02
#       6
#     4   4   4   4   4   4
#     4  10  19  33  54  77 100 128 170 213 250 298
#     4   8  16  32  55  81 103 130 166 209 258 302
#     4  10  21  34  48  72 106 136 162 201 254 307
#     4   9  17  33  56  78 104 133 166 208 255 303
#     4  11  22  34  51  75 104 137 173 207 249 304
#     4  10  20  35  53  74 100 134 174 213 252 295
#
# _framework density 17.829567999999998
#
# number of rings (size 3 to 8) (size 9 to 14) (size 15 to 20)
#    0.000    2.333    1.667    2.500    0.000    2.000 
#    0.000    3.333    0.000    5.000    0.000    0.000 
#    0.000    0.000    0.000    0.000    0.000    0.000 
#
# Total GULP energy -297626.481490 kJ/mol
# GULP energy per Si atom -12401.103395 kJ/mol
# Density = 1.778899 g / cm^3
# Si number density = 17.829568 Si / 1000 Ang^3
#
#
#
# Elastic Constant Matrix: (Units=GPa)
#
#
# Indices 1 2 3 4 5 6 
#
# 1 90.1167 36.7285 28.4550 0.0000 -15.1414 0.0000
# 2 36.7285 58.9209 32.1091 0.0000 -16.1919 0.0000
# 3 28.4550 32.1091 71.7360 0.0000 -13.9622 0.0000
# 4 0.0000 0.0000 0.0000 14.1093 0.0000 11.1955
# 5 -15.1414 -16.1919 -13.9622 0.0000 34.4998 0.0000
# 6 0.0000 0.0000 0.0000 11.1955 0.0000 -11.3851
#
#
#
# Elastic Compliance Matrix: (Units=1/GPa)
#
#
# Indices 1 2 3 4 5 6 
#
# 1 0.015314 -0.007756 -0.002175 0.000000 0.002201 0.000000
# 2 -0.007756 0.028061 -0.008231 0.000000 0.006435 0.000000
# 3 -0.002175 -0.008231 0.019050 0.000000 0.002892 0.000000
# 4 0.000000 0.000000 0.000000 0.039812 0.000000 0.039149
# 5 0.002201 0.006435 0.002892 0.000000 0.034142 0.000000
# 6 0.000000 0.000000 0.000000 0.039149 0.000000 -0.049338
#
#
# Mechanical properties :
#
#
# Convention : Reuss Voigt Hill
#
# Bulk Modulus (GPa) = 38.31282 46.15098 42.23190
# Shear Modulus (GPa) = 37.86031 15.67687 26.76859
#
# Velocity S-wave (km/s) = 4.61310 2.96845 3.87894
# Velocity P-wave (km/s) = 7.06465 6.13919 6.61812
#
# Compressibility (1/GPa) = 0.02610092
#
# Stress axis : x y z
#
# Youngs Moduli (GPa) = 65.29812 35.63712 52.49451
#
# Poissons Ratio (x) = 0.27642 0.11415
# Poissons Ratio (y) = 0.50648 0.43208
# Poissons Ratio (z) = 0.14199 0.29333
#
# Static dielectric constant tensor:
#      x y z
#    x 3.510790 0.000000 0.225490 
#    y 0.000000 3.084160 0.000000 
#    z 0.225490 0.000000 3.346450 
# 
# 
# High freq. dielectric constant tensor:
#      x y z
#    x 1.691680 0.000000 0.001830 
#    y 0.000000 1.669300 0.000000 
#    z 0.001830 0.000000 1.689650 
# 
# From -- ./inp_files/45125.got.cif
#   From: 2010.06.25/outbox.cif.g09.slc.cpg/sg10_23_cif.got.tgz:45125.got - 2010.06.27 22:07:45.
