data_PCOD8061554
_publ_section_title
;
Structure prediction by ZEFSAII (Michael W. Deem and Ramdas Pophale) SiO2 
 PCOD8061554
Probable space group: P 2/M
;
_chemical_formula_sum "Si O2"
_cell_formula_units_Z 32
_cell_length_a 28.441807
_cell_length_b 8.844355
_cell_length_c 21.520559
_cell_angle_alpha 90.000000
_cell_angle_beta 162.437606
_cell_angle_gamma 90.000000
_cell_volume 1633.487558
_symmetry_space_group_name_H-M "P 2/M"
_symmetry_group_IT_number 10
_symmetry_cell_setting 'monoclinic'
loop_
_space_group_symop_operation_xyz
x,y,z
-x,y,-z
-x,-y,-z
x,-y,z
loop_
_atom_site_type_symbol
_atom_site_label
_atom_site_fract_x
_atom_site_fract_y
_atom_site_fract_z
Si Si1 0.634886 0.666757 0.802167
Si Si2 0.128886 0.329938 0.786392
Si Si3 0.441936 0.325565 0.857357
Si Si4 0.619771 0.179488 0.973530
Si Si5 0.913214 0.678684 0.075370
Si Si6 0.399849 0.823004 0.584369
Si Si7 0.051109 0.177559 0.133729
Si Si8 0.889332 0.179083 0.568178
O O1 0.566625 0.500000 0.705051
O O2 0.489021 0.772686 0.633959
O O3 0.755920 0.666665 0.010834
O O4 0.734262 0.722011 0.867705
O O5 0.090759 0.500000 0.715494
O O6 0.969731 0.250158 0.608159
O O7 0.208975 0.235974 0.831576
O O8 0.407100 0.500000 0.797247
O O9 0.578143 0.261200 0.985121
O O10 0.289736 0.225570 0.655274
O O11 0.500000 0.306330 0.000000
O O12 0.490735 0.231703 0.760246
O O13 0.622848 0.000000 0.985838
O O14 0.939686 0.500000 0.117038
O O15 0.936201 0.731467 0.033964
O O16 0.034291 0.765537 0.271720
O O17 0.225237 0.758300 0.364582
O O18 0.391624 0.000000 0.571078
O O19 0.038938 0.000000 0.132727
O O20 0.000000 0.215758 0.000000
O O21 0.904378 0.000000 0.583311
#
# Coordination Sequence:
#
# PCOD8061554 Si02
#       8
#     4   4   4   4   4   4   4   4
#     4   8  16  30  50  77 104 131 167 214 262 310
#     4   9  17  32  54  81 112 141 174 218 269 324
#     4  11  24  40  56  77 109 148 186 224 269 320
#     4  10  19  33  56  84 110 138 179 227 273 323
#     4  10  20  35  56  81 107 137 177 220 267 325
#     4   9  18  32  52  78 104 134 173 215 261 314
#     4  10  21  36  52  74 107 144 182 224 269 318
#     4  11  21  35  58  85 111 140 178 224 272 322
#
# _framework density 19.589988999999999
#
# number of rings (size 3 to 8) (size 9 to 14) (size 15 to 20)
#    0.000    2.250    0.000    4.125    0.000    6.750 
#    0.000    1.250    0.000    7.500    0.000    0.000 
#    0.000    0.000    0.000    0.000    0.000    0.000 
#
# Total GULP energy -396808.580050 kJ/mol
# GULP energy per Si atom -12400.268127 kJ/mol
# Density = 1.954540 g / cm^3
# Si number density = 19.589989 Si / 1000 Ang^3
#
#
#
# Elastic Constant Matrix: (Units=GPa)
#
#
# Indices 1 2 3 4 5 6 
#
# 1 139.5600 49.0588 34.5183 0.0000 27.8899 0.0000
# 2 49.0588 86.3142 17.5332 0.0000 2.4626 0.0000
# 3 34.5183 17.5332 19.7785 0.0000 9.2206 0.0000
# 4 0.0000 0.0000 0.0000 23.6102 0.0000 10.4928
# 5 27.8899 2.4626 9.2206 0.0000 26.1460 0.0000
# 6 0.0000 0.0000 0.0000 10.4928 0.0000 33.4528
#
#
#
# Elastic Compliance Matrix: (Units=1/GPa)
#
#
# Indices 1 2 3 4 5 6 
#
# 1 0.015095 -0.004694 -0.017811 0.000000 -0.009378 0.000000
# 2 -0.004694 0.015894 -0.009016 0.000000 0.006690 0.000000
# 3 -0.017811 -0.009016 0.096200 0.000000 -0.014078 0.000000
# 4 0.000000 0.000000 0.000000 0.049215 0.000000 -0.015437
# 5 -0.009378 0.006690 -0.014078 0.000000 0.052585 0.000000
# 6 0.000000 0.000000 0.000000 -0.015437 0.000000 0.034735
#
#
# Mechanical properties :
#
#
# Convention : Reuss Voigt Hill
#
# Bulk Modulus (GPa) = 15.58930 49.76370 32.67650
# Shear Modulus (GPa) = 14.36164 26.27797 20.31980
#
# Velocity S-wave (km/s) = 2.71054 3.66648 3.22414
# Velocity P-wave (km/s) = 4.21558 6.58649 5.52960
#
# Compressibility (1/GPa) = 0.06414656
#
# Stress axis : x y z
#
# Youngs Moduli (GPa) = 66.24718 62.91594 10.39497
#
# Poissons Ratio (x) = 0.29533 0.18515
# Poissons Ratio (y) = 0.31097 0.09373
# Poissons Ratio (z) = 1.17993 0.56728
#
# Static dielectric constant tensor:
#      x y z
#    x 3.747010 0.000000 0.340570 
#    y 0.000000 3.594060 0.000000 
#    z 0.340570 0.000000 3.490660 
# 
# 
# High freq. dielectric constant tensor:
#      x y z
#    x 1.766680 0.000000 0.028990 
#    y 0.000000 1.766780 0.000000 
#    z 0.028990 0.000000 1.739150 
# 
# From -- ./inp_files/86999.got.cif
#   From: 2010.06.25/outbox.cif.g09.slc.cpg/sg10_44_cif.got.tgz:86999.got - 2010.06.27 22:07:45.
