data_PCOD8061042
_publ_section_title
;
Structure prediction by ZEFSAII (Michael W. Deem and Ramdas Pophale) SiO2 
 PCOD8061042
Probable space group: P 2/M
;
_chemical_formula_sum "Si O2"
_cell_formula_units_Z 28
_cell_length_a 22.823682
_cell_length_b 13.417952
_cell_length_c 18.775279
_cell_angle_alpha 90.000000
_cell_angle_beta 17.517061
_cell_angle_gamma 90.000000
_cell_volume 1730.653334
_symmetry_space_group_name_H-M "P 2/M"
_symmetry_group_IT_number 10
_symmetry_cell_setting 'monoclinic'
loop_
_space_group_symop_operation_xyz
x,y,z
-x,y,-z
-x,-y,-z
x,-y,z
loop_
_atom_site_type_symbol
_atom_site_label
_atom_site_fract_x
_atom_site_fract_y
_atom_site_fract_z
Si Si1 0.085759 0.117483 0.328418
Si Si2 0.211013 0.890571 0.789012
Si Si3 0.591745 0.383474 0.316573
Si Si4 0.091648 0.114871 0.612697
Si Si5 0.500076 0.885139 0.795533
Si Si6 0.648446 0.759674 0.494748
Si Si7 0.064969 0.240350 0.078269
O O1 0.955828 0.151100 0.411895
O O2 0.000000 0.167307 0.500000
O O3 0.076334 0.000000 0.347411
O O4 0.308461 0.151227 0.059166
O O5 0.352025 0.833756 0.571656
O O6 0.298401 0.000000 0.701624
O O7 0.199130 0.833838 0.877302
O O8 0.000000 0.899613 0.000000
O O9 0.500000 0.359418 0.500000
O O10 0.607544 0.500000 0.284906
O O11 0.457426 0.340280 0.408769
O O12 0.810295 0.340274 0.055916
O O13 0.974489 0.185789 0.801697
O O14 0.321835 0.126493 0.356488
O O15 0.026882 0.000000 0.700743
O O16 0.526735 0.814245 0.697011
O O17 0.481785 0.000000 0.790588
O O18 0.865070 0.731716 0.269786
#
# Coordination Sequence:
#
# PCOD8061042 Si02
#       7
#     4   4   4   4   4   4   4
#     4   9  17  28  42  63  95 133 166 190 214 259
#     4   9  16  27  45  68  93 121 152 186 224 268
#     4  11  23  36  48  64  88 120 163 206 238 275
#     4   9  17  29  47  70  96 126 156 190 232 274
#     4   9  17  29  47  70  96 126 156 190 232 274
#     4  10  19  33  50  68  92 122 156 195 236 275
#     4  10  19  33  50  68  92 122 156 195 236 275
#
# _framework density 16.17886
#
# number of rings (size 3 to 8) (size 9 to 14) (size 15 to 20)
#    0.000    2.429    1.429    1.714    0.000    4.571 
#    0.000    7.143    0.000    0.000    0.000    0.000 
#    0.000    9.143    0.000   25.143    0.000    1.143 
#
# Total GULP energy -347158.835268 kJ/mol
# GULP energy per Si atom -12398.529831 kJ/mol
# Density = 1.614204 g / cm^3
# Si number density = 16.178860 Si / 1000 Ang^3
#
#
#
# Elastic Constant Matrix: (Units=GPa)
#
#
# Indices 1 2 3 4 5 6 
#
# 1 115.5841 48.5963 72.3054 0.0000 9.4974 0.0000
# 2 48.5963 86.8485 49.4112 0.0000 -1.6797 0.0000
# 3 72.3054 49.4112 108.8836 0.0000 6.8292 0.0000
# 4 0.0000 0.0000 0.0000 16.5023 0.0000 -8.9094
# 5 9.4974 -1.6797 6.8292 0.0000 25.8254 0.0000
# 6 0.0000 0.0000 0.0000 -8.9094 0.0000 12.5398
#
#
#
# Elastic Compliance Matrix: (Units=1/GPa)
#
#
# Indices 1 2 3 4 5 6 
#
# 1 0.016077 -0.004231 -0.008509 0.000000 -0.003937 0.000000
# 2 -0.004231 0.016855 -0.005090 0.000000 0.003998 0.000000
# 3 -0.008509 -0.005090 0.017255 0.000000 -0.001765 0.000000
# 4 0.000000 0.000000 0.000000 0.098306 0.000000 0.069845
# 5 -0.003937 0.003998 -0.001765 0.000000 0.040896 0.000000
# 6 0.000000 0.000000 0.000000 0.069845 0.000000 0.129370
#
#
# Mechanical properties :
#
#
# Convention : Reuss Voigt Hill
#
# Bulk Modulus (GPa) = 68.83676 72.43801 70.63739
# Shear Modulus (GPa) = 13.91741 20.37374 17.14558
#
# Velocity S-wave (km/s) = 2.93614 3.55249 3.25891
# Velocity P-wave (km/s) = 7.35760 7.85476 7.61024
#
# Compressibility (1/GPa) = 0.01452712
#
# Stress axis : x y z
#
# Youngs Moduli (GPa) = 62.19969 59.32996 57.95322
#
# Poissons Ratio (x) = 0.25102 0.49314
# Poissons Ratio (y) = 0.26316 0.29497
# Poissons Ratio (z) = 0.52928 0.30198
#
# Static dielectric constant tensor:
#      x y z
#    x 3.133120 0.000000 0.005180 
#    y 0.000000 2.781660 0.000000 
#    z 0.005180 0.000000 3.130630 
# 
# 
# High freq. dielectric constant tensor:
#      x y z
#    x 1.622170 0.000000 -0.010900 
#    y 0.000000 1.581010 0.000000 
#    z -0.010900 0.000000 1.626880 
# 
# From -- ./inp_files/79487.got.cif
#   From: 2010.06.25/outbox.cif.g09.slc.cpg/sg10_40_cif.got.tgz:79487.got - 2010.06.27 22:07:45.
