data_PCOD8061679
_publ_section_title
;
Structure prediction by ZEFSAII (Michael W. Deem and Ramdas Pophale) SiO2 
 PCOD8061679
Probable space group: P 2/M
;
_chemical_formula_sum "Si O2"
_cell_formula_units_Z 32
_cell_length_a 31.571749
_cell_length_b 9.189741
_cell_length_c 20.229453
_cell_angle_alpha 90.000000
_cell_angle_beta 18.256049
_cell_angle_gamma 90.000000
_cell_volume 1838.639719
_symmetry_space_group_name_H-M "P 2/M"
_symmetry_group_IT_number 10
_symmetry_cell_setting 'monoclinic'
loop_
_space_group_symop_operation_xyz
x,y,z
-x,y,-z
-x,-y,-z
x,-y,z
loop_
_atom_site_type_symbol
_atom_site_label
_atom_site_fract_x
_atom_site_fract_y
_atom_site_fract_z
Si Si1 0.116357 0.337633 0.058062
Si Si2 0.550854 0.335209 0.729152
Si Si3 0.113571 0.831667 0.649992
Si Si4 0.515784 0.827079 0.653684
Si Si5 0.608683 0.328163 0.283039
Si Si6 0.423260 0.169512 0.179853
Si Si7 0.783451 0.662732 0.237622
Si Si8 0.127120 0.338077 0.758325
O O1 0.080431 0.500000 0.134531
O O2 0.242998 0.279643 0.912265
O O3 0.149622 0.333304 0.931902
O O4 0.982998 0.238764 0.263125
O O5 0.496282 0.500000 0.810911
O O6 0.474965 0.244026 0.784318
O O7 0.514031 0.261681 0.853455
O O8 0.709994 0.329254 0.479210
O O9 0.265675 0.792321 0.404198
O O10 0.078058 0.776904 0.776767
O O11 0.083462 0.000000 0.694662
O O12 0.416654 0.763280 0.745166
O O13 0.669243 0.785076 0.408444
O O14 0.501585 0.000000 0.678359
O O15 0.500000 0.286055 0.500000
O O16 0.600035 0.500000 0.281000
O O17 0.442941 0.000000 0.166961
O O18 0.500000 0.216250 0.000000
O O19 0.721151 0.500000 0.342670
O O20 0.903025 0.691966 0.116853
O O21 0.081025 0.500000 0.804239
#
# Coordination Sequence:
#
# PCOD8061679 Si02
#       8
#     4   4   4   4   4   4   4   4
#     4  10  20  33  49  65  89 127 168 207 245 286
#     4   9  17  30  49  73 100 129 163 200 239 288
#     4  10  20  32  46  67  98 127 155 196 241 290
#     4  11  20  29  46  71 100 129 162 209 255 290
#     4  10  19  34  52  67  89 127 175 216 248 287
#     4   9  18  34  55  78 104 132 159 191 240 298
#     4   9  17  31  47  64  87 125 171 207 240 282
#     4   8  15  28  46  63  86 122 164 200 230 275
#
# _framework density 17.404171000000002
#
# number of rings (size 3 to 8) (size 9 to 14) (size 15 to 20)
#    0.000    2.500    1.250    2.625    0.000    5.500 
#    0.000    2.500    0.000    0.000    0.000    0.875 
#    0.000    7.000    0.000    0.000    0.000    0.000 
#
# Total GULP energy -396739.893001 kJ/mol
# GULP energy per Si atom -12398.121656 kJ/mol
# Density = 1.736456 g / cm^3
# Si number density = 17.404171 Si / 1000 Ang^3
#
#
#
# Elastic Constant Matrix: (Units=GPa)
#
#
# Indices 1 2 3 4 5 6 
#
# 1 122.8724 68.7803 53.0212 0.0000 -18.4325 0.0000
# 2 68.7803 102.6551 42.6554 0.0000 -9.9348 0.0000
# 3 53.0212 42.6554 56.8920 0.0000 -11.5194 0.0000
# 4 0.0000 0.0000 0.0000 21.1229 0.0000 -3.2841
# 5 -18.4325 -9.9348 -11.5194 0.0000 31.7476 0.0000
# 6 0.0000 0.0000 0.0000 -3.2841 0.0000 29.5096
#
#
#
# Elastic Compliance Matrix: (Units=1/GPa)
#
#
# Indices 1 2 3 4 5 6 
#
# 1 0.016725 -0.006794 -0.009667 0.000000 0.004077 0.000000
# 2 -0.006794 0.016921 -0.006564 0.000000 -0.001031 0.000000
# 3 -0.009667 -0.006564 0.032331 0.000000 0.004064 0.000000
# 4 0.000000 0.000000 0.000000 0.048176 0.000000 0.005361
# 5 0.004077 -0.001031 0.004064 0.000000 0.035017 0.000000
# 6 0.000000 0.000000 0.000000 0.005361 0.000000 0.034484
#
#
# Mechanical properties :
#
#
# Convention : Reuss Voigt Hill
#
# Bulk Modulus (GPa) = 50.18503 67.92591 59.05547
# Shear Modulus (GPa) = 21.15536 24.34020 22.74778
#
# Velocity S-wave (km/s) = 3.49023 3.74374 3.61921
# Velocity P-wave (km/s) = 6.71863 7.60268 7.17428
#
# Compressibility (1/GPa) = 0.01992626
#
# Stress axis : x y z
#
# Youngs Moduli (GPa) = 59.79073 59.09748 30.93019
#
# Poissons Ratio (x) = 0.40153 0.29902
# Poissons Ratio (y) = 0.40624 0.20301
# Poissons Ratio (z) = 0.57802 0.38789
#
# Static dielectric constant tensor:
#      x y z
#    x 3.377410 0.000000 -0.193690 
#    y 0.000000 3.255210 0.000000 
#    z -0.193690 0.000000 3.144070 
# 
# 
# High freq. dielectric constant tensor:
#      x y z
#    x 1.670720 0.000000 -0.020330 
#    y 0.000000 1.670130 0.000000 
#    z -0.020330 0.000000 1.641370 
# 
# From -- ./inp_files/66155.got.cif
#   From: 2010.06.25/outbox.cif.g09.slc.cpg/sg10_34_cif.got.tgz:66155.got - 2010.06.27 22:07:45.
