data_PCOD8061433
_publ_section_title
;
Structure prediction by ZEFSAII (Michael W. Deem and Ramdas Pophale) SiO2 
 PCOD8061433
Probable space group: P 2/M
;
_chemical_formula_sum "Si O2"
_cell_formula_units_Z 32
_cell_length_a 13.039086
_cell_length_b 10.112905
_cell_length_c 13.538721
_cell_angle_alpha 90.000000
_cell_angle_beta 111.613406
_cell_angle_gamma 90.000000
_cell_volume 1659.736054
_symmetry_space_group_name_H-M "P 2/M"
_symmetry_group_IT_number 10
_symmetry_cell_setting 'monoclinic'
loop_
_space_group_symop_operation_xyz
x,y,z
-x,y,-z
-x,-y,-z
x,-y,z
loop_
_atom_site_type_symbol
_atom_site_label
_atom_site_fract_x
_atom_site_fract_y
_atom_site_fract_z
Si Si1 0.743008 0.645505 0.522573
Si Si2 0.777704 0.147103 0.808390
Si Si3 0.384052 0.349994 0.906727
Si Si4 0.939102 0.845891 0.577027
Si Si5 0.996854 0.153631 0.190050
Si Si6 0.415445 0.776488 0.391225
Si Si7 0.575704 0.351749 0.297298
Si Si8 0.233126 0.842112 0.977578
O O1 0.796653 0.500000 0.558064
O O2 0.830188 0.762336 0.559807
O O3 0.644954 0.660525 0.568568
O O4 0.690808 0.653242 0.395806
O O5 0.681859 0.136840 0.691443
O O6 0.887771 0.221445 0.805952
O O7 0.813585 0.000000 0.848541
O O8 0.740803 0.207009 0.901144
O O9 0.332931 0.500000 0.887836
O O10 0.401216 0.293110 0.802499
O O11 0.309057 0.242637 0.933262
O O12 0.500000 0.355007 0.000000
O O13 0.000000 0.796383 0.500000
O O14 0.019978 0.820514 0.698575
O O15 0.904716 0.000000 0.555605
O O16 0.891891 0.203363 0.091870
O O17 0.010902 0.000000 0.176929
O O18 0.500000 0.848770 0.500000
O O19 0.481570 0.728138 0.319904
O O20 0.530507 0.500000 0.270415
O O21 0.252260 0.000000 0.966708
#
# Coordination Sequence:
#
# PCOD8061433 Si02
#       8
#     4   4   4   4   4   4   4   4
#     4  10  20  35  56  83 110 142 184 230 276 323
#     4  10  19  34  56  82 112 145 185 234 280 328
#     4  10  21  38  58  80 111 151 186 222 279 337
#     4  10  21  36  56  81 113 147 181 222 274 334
#     4   9  18  35  57  81 109 145 186 224 273 334
#     4  10  19  33  55  81 110 146 186 229 278 332
#     4   9  19  35  54  76 107 145 185 226 272 333
#     4  10  21  36  60  86 109 144 190 235 277 324
#
# _framework density 19.280173000000001
#
# number of rings (size 3 to 8) (size 9 to 14) (size 15 to 20)
#    0.000    2.250    1.250    1.500    1.750    3.750 
#    0.000    3.750    0.000    0.750    0.000    0.000 
#    0.000    0.000    0.000    0.000    0.000    0.000 
#
# Total GULP energy -396459.159780 kJ/mol
# GULP energy per Si atom -12389.348743 kJ/mol
# Density = 1.923629 g / cm^3
# Si number density = 19.280173 Si / 1000 Ang^3
#
#
#
# Elastic Constant Matrix: (Units=GPa)
#
#
# Indices 1 2 3 4 5 6 
#
# 1 104.5617 35.0217 59.0009 0.0000 -10.3707 0.0000
# 2 35.0217 55.0129 27.4143 0.0000 -7.4260 0.0000
# 3 59.0009 27.4143 148.0807 0.0000 -13.9060 0.0000
# 4 0.0000 0.0000 0.0000 19.5753 0.0000 0.1947
# 5 -10.3707 -7.4260 -13.9060 0.0000 37.1217 0.0000
# 6 0.0000 0.0000 0.0000 0.1947 0.0000 12.4767
#
#
#
# Elastic Compliance Matrix: (Units=1/GPa)
#
#
# Indices 1 2 3 4 5 6 
#
# 1 0.014441 -0.006870 -0.004386 0.000000 0.001017 0.000000
# 2 -0.006870 0.023560 -0.001412 0.000000 0.002265 0.000000
# 3 -0.004386 -0.001412 0.008935 0.000000 0.001839 0.000000
# 4 0.000000 0.000000 0.000000 0.051093 0.000000 -0.000797
# 5 0.001017 0.002265 0.001839 0.000000 0.028365 0.000000
# 6 0.000000 0.000000 0.000000 -0.000797 0.000000 0.080162
#
#
# Mechanical properties :
#
#
# Convention : Reuss Voigt Hill
#
# Bulk Modulus (GPa) = 46.29720 61.16988 53.73354
# Shear Modulus (GPa) = 20.91253 26.24930 23.58092
#
# Velocity S-wave (km/s) = 3.29700 3.69381 3.50103
# Velocity P-wave (km/s) = 6.20956 7.07022 6.65382
#
# Compressibility (1/GPa) = 0.02159958
#
# Stress axis : x y z
#
# Youngs Moduli (GPa) = 69.24874 42.44431 111.92126
#
# Poissons Ratio (x) = 0.29159 0.49093
# Poissons Ratio (y) = 0.47574 0.15801
# Poissons Ratio (z) = 0.30375 0.05992
#
# Static dielectric constant tensor:
#      x y z
#    x 3.728210 0.000000 -0.015340 
#    y 0.000000 3.234060 0.000000 
#    z -0.015340 0.000000 3.899390 
# 
# 
# High freq. dielectric constant tensor:
#      x y z
#    x 1.746720 0.000000 -0.007460 
#    y 0.000000 1.709620 0.000000 
#    z -0.007460 0.000000 1.772940 
# 
# From -- ./inp_files/47027.got.cif
#   From: 2010.06.25/outbox.cif.g09.slc.cpg/sg10_24_cif.got.tgz:47027.got - 2010.06.27 22:07:45.
