data_PCOD8061775
_publ_section_title
;
Structure prediction by ZEFSAII (Michael W. Deem and Ramdas Pophale) SiO2 
 PCOD8061775
Probable space group: P 2/M
;
_chemical_formula_sum "Si O2"
_cell_formula_units_Z 28
_cell_length_a 14.409931
_cell_length_b 13.506881
_cell_length_c 8.737774
_cell_angle_alpha 90.000000
_cell_angle_beta 119.810731
_cell_angle_gamma 90.000000
_cell_volume 1475.616644
_symmetry_space_group_name_H-M "P 2/M"
_symmetry_group_IT_number 10
_symmetry_cell_setting 'monoclinic'
loop_
_space_group_symop_operation_xyz
x,y,z
-x,y,-z
-x,-y,-z
x,-y,z
loop_
_atom_site_type_symbol
_atom_site_label
_atom_site_fract_x
_atom_site_fract_y
_atom_site_fract_z
Si Si1 0.509771 0.115435 0.833824
Si Si2 0.795796 0.614306 0.117587
Si Si3 0.282547 0.793686 0.123704
Si Si4 0.234908 0.615089 0.551379
Si Si5 0.396091 0.743529 0.511918
Si Si6 0.984878 0.296263 0.665509
Si Si7 0.056397 0.889550 0.885181
O O1 0.629235 0.139258 0.883372
O O2 0.425967 0.171071 0.656158
O O3 0.484693 0.000000 0.795996
O O4 0.500000 0.151397 0.000000
O O5 0.772963 0.500000 0.058716
O O6 0.766809 0.638410 0.269543
O O7 0.920020 0.639086 0.180085
O O8 0.720518 0.683056 0.950822
O O9 0.306843 0.785885 0.323706
O O10 0.175293 0.852035 0.005460
O O11 0.228922 0.500000 0.514291
O O12 0.344472 0.654339 0.566286
O O13 0.131634 0.663316 0.383089
O O14 0.500000 0.707077 0.500000
O O15 0.992344 0.181437 0.717772
O O16 0.000000 0.307874 0.500000
O O17 0.056707 0.000000 0.815185
O O18 0.000000 0.887990 0.000000
#
# Coordination Sequence:
#
# PCOD8061775 Si02
#       7
#     4   4   4   4   4   4   4
#     4  10  21  38  59  80 102 132 173 218 261 306
#     4   9  18  33  55  81 106 136 172 212 260 310
#     4  10  20  35  55  77 107 139 172 214 258 309
#     4  10  19  34  55  76 104 140 175 215 262 307
#     4  10  22  36  53  78 106 137 174 215 257 305
#     4   9  18  33  53  78 105 133 173 217 256 306
#     4  10  20  33  50  74 106 141 172 206 254 310
#
# _framework density 18.975118999999999
#
# number of rings (size 3 to 8) (size 9 to 14) (size 15 to 20)
#    0.000    2.286    0.000    2.571    0.000    6.000 
#    0.000    2.857    0.000   12.429    0.000    0.000 
#    0.000    0.000    0.000    0.000    0.000    0.000 
#
# Total GULP energy -347188.596384 kJ/mol
# GULP energy per Si atom -12399.592728 kJ/mol
# Density = 1.893193 g / cm^3
# Si number density = 18.975119 Si / 1000 Ang^3
#
#
#
# Elastic Constant Matrix: (Units=GPa)
#
#
# Indices 1 2 3 4 5 6 
#
# 1 80.8968 44.5104 29.4494 0.0000 -1.0423 0.0000
# 2 44.5104 103.4225 45.7622 0.0000 4.8749 0.0000
# 3 29.4494 45.7622 94.9092 0.0000 5.0835 0.0000
# 4 0.0000 0.0000 0.0000 30.7921 0.0000 1.1973
# 5 -1.0423 4.8749 5.0835 0.0000 19.7008 0.0000
# 6 0.0000 0.0000 0.0000 1.1973 0.0000 29.4976
#
#
#
# Elastic Compliance Matrix: (Units=1/GPa)
#
#
# Indices 1 2 3 4 5 6 
#
# 1 0.016715 -0.006318 -0.002303 0.000000 0.003042 0.000000
# 2 -0.006318 0.014725 -0.004996 0.000000 -0.002689 0.000000
# 3 -0.002303 -0.004996 0.013791 0.000000 -0.002444 0.000000
# 4 0.000000 0.000000 0.000000 0.032527 0.000000 -0.001320
# 5 0.003042 -0.002689 -0.002444 0.000000 0.052216 0.000000
# 6 0.000000 0.000000 0.000000 -0.001320 0.000000 0.033955
#
#
# Mechanical properties :
#
#
# Convention : Reuss Voigt Hill
#
# Bulk Modulus (GPa) = 55.56295 57.63028 56.59661
# Shear Modulus (GPa) = 25.35976 26.63188 25.99582
#
# Velocity S-wave (km/s) = 3.65975 3.75042 3.70536
# Velocity P-wave (km/s) = 6.87051 7.01367 6.94246
#
# Compressibility (1/GPa) = 0.01799761
#
# Stress axis : x y z
#
# Youngs Moduli (GPa) = 59.82516 67.90957 72.51278
#
# Poissons Ratio (x) = 0.42906 0.16701
# Poissons Ratio (y) = 0.37799 0.36225
# Poissons Ratio (z) = 0.13779 0.33925
#
# Static dielectric constant tensor:
#      x y z
#    x 3.382390 0.000000 0.030210 
#    y 0.000000 3.549700 0.000000 
#    z 0.030210 0.000000 3.525600 
# 
# 
# High freq. dielectric constant tensor:
#      x y z
#    x 1.741950 0.000000 0.001390 
#    y 0.000000 1.737940 0.000000 
#    z 0.001390 0.000000 1.735940 
# 
# From -- ./inp_files/24885.got.cif
#   From: 2010.06.25/outbox.cif.g09.slc.cpg/sg10_13_cif.got.tgz:24885.got - 2010.06.27 22:07:45.
