data_PCOD8061990
_publ_section_title
;
Structure prediction by ZEFSAII (Michael W. Deem and Ramdas Pophale) SiO2 
 PCOD8061990
Probable space group: P 2/M
;
_chemical_formula_sum "Si O2"
_cell_formula_units_Z 28
_cell_length_a 11.108152
_cell_length_b 9.061466
_cell_length_c 16.397207
_cell_angle_alpha 90.000000
_cell_angle_beta 61.097401
_cell_angle_gamma 90.000000
_cell_volume 1444.900151
_symmetry_space_group_name_H-M "P 2/M"
_symmetry_group_IT_number 10
_symmetry_cell_setting 'monoclinic'
loop_
_space_group_symop_operation_xyz
x,y,z
-x,y,-z
-x,-y,-z
x,-y,z
loop_
_atom_site_type_symbol
_atom_site_label
_atom_site_fract_x
_atom_site_fract_y
_atom_site_fract_z
Si Si1 0.874345 0.826850 0.483182
Si Si2 0.675735 0.668542 0.263005
Si Si3 0.169417 0.828768 0.110756
Si Si4 0.600866 0.828394 0.830302
Si Si5 0.100043 0.173821 0.710238
Si Si6 0.638856 0.672868 0.652875
Si Si7 0.682295 0.327238 0.074769
O O1 0.913521 0.777612 0.379181
O O2 0.740127 0.735726 0.551780
O O3 0.000000 0.782213 0.500000
O O4 0.841186 0.000000 0.500502
O O5 0.707481 0.500000 0.274062
O O6 0.759032 0.767923 0.298267
O O7 0.515307 0.704542 0.327209
O O8 0.721004 0.704598 0.155763
O O9 0.295156 0.803762 0.130312
O O10 0.031198 0.765171 0.197338
O O11 0.153997 0.000000 0.092471
O O12 0.194555 0.735541 0.020577
O O13 0.666663 0.754358 0.729001
O O14 0.458233 0.754482 0.903029
O O15 0.575938 0.000000 0.820278
O O16 0.101992 0.000000 0.715472
O O17 0.663223 0.500000 0.658565
O O18 0.660523 0.500000 0.066513
#
# Coordination Sequence:
#
# PCOD8061990 Si02
#       7
#     4   4   4   4   4   4   4
#     4  10  21  39  61  85 114 145 178 222 276 329
#     4   9  21  40  56  76 110 147 182 224 276 326
#     4  10  21  36  54  80 112 146 184 228 279 327
#     4  10  19  34  57  83 113 147 182 225 278 330
#     4  10  22  38  57  81 108 142 187 231 269 322
#     4  10  21  37  58  84 113 146 184 226 273 326
#     4  10  21  36  55  81 112 146 185 228 274 327
#
# _framework density 19.378501
#
# number of rings (size 3 to 8) (size 9 to 14) (size 15 to 20)
#    0.000    2.143    0.000    3.429    0.000   11.143 
#    0.000    7.143    0.000    0.000    0.000    0.000 
#    0.000    0.000    0.000    0.000    0.000    0.000 
#
# Total GULP energy -347320.831847 kJ/mol
# GULP energy per Si atom -12404.315423 kJ/mol
# Density = 1.933439 g / cm^3
# Si number density = 19.378501 Si / 1000 Ang^3
#
#
#
# Elastic Constant Matrix: (Units=GPa)
#
#
# Indices 1 2 3 4 5 6 
#
# 1 86.4520 39.6297 69.3036 0.0000 3.5785 0.0000
# 2 39.6297 70.6099 60.3048 0.0000 -2.1282 0.0000
# 3 69.3036 60.3048 145.7816 0.0000 -15.1244 0.0000
# 4 0.0000 0.0000 0.0000 27.3430 0.0000 -9.9502
# 5 3.5785 -2.1282 -15.1244 0.0000 24.6308 0.0000
# 6 0.0000 0.0000 0.0000 -9.9502 0.0000 7.9970
#
#
#
# Elastic Compliance Matrix: (Units=1/GPa)
#
#
# Indices 1 2 3 4 5 6 
#
# 1 0.021431 -0.004309 -0.009364 0.000000 -0.009236 0.000000
# 2 -0.004309 0.023126 -0.007738 0.000000 -0.002127 0.000000
# 3 -0.009364 -0.007738 0.015576 0.000000 0.010256 0.000000
# 4 0.000000 0.000000 0.000000 0.066833 0.000000 0.083156
# 5 -0.009236 -0.002127 0.010256 0.000000 0.048055 0.000000
# 6 0.000000 0.000000 0.000000 0.083156 0.000000 0.228512
#
#
# Mechanical properties :
#
#
# Convention : Reuss Voigt Hill
#
# Bulk Modulus (GPa) = 57.76974 71.25775 64.51374
# Shear Modulus (GPa) = 11.05884 20.90120 15.98002
#
# Velocity S-wave (km/s) = 2.39147 3.28773 2.87475
# Velocity P-wave (km/s) = 6.12385 7.15986 6.66202
#
# Compressibility (1/GPa) = 0.01731010
#
# Stress axis : x y z
#
# Youngs Moduli (GPa) = 46.66066 43.24147 64.20026
#
# Poissons Ratio (x) = 0.18635 0.60116
# Poissons Ratio (y) = 0.20108 0.49681
# Poissons Ratio (z) = 0.43692 0.33462
#
# Static dielectric constant tensor:
#      x y z
#    x 3.398470 0.000000 -0.088010 
#    y 0.000000 3.486370 0.000000 
#    z -0.088010 0.000000 3.738720 
# 
# 
# High freq. dielectric constant tensor:
#      x y z
#    x 1.749290 0.000000 -0.003460 
#    y 0.000000 1.753360 0.000000 
#    z -0.003460 0.000000 1.764650 
# 
# From -- ./inp_files/49372.got.cif
#   From: 2010.06.25/outbox.cif.g09.slc.cpg/sg10_25_cif.got.tgz:49372.got - 2010.06.27 22:07:45.
