data_PCOD8061720
_publ_section_title
;
Structure prediction by ZEFSAII (Michael W. Deem and Ramdas Pophale) SiO2 
 PCOD8061720
Probable space group: P 2/M
;
_chemical_formula_sum "Si O2"
_cell_formula_units_Z 32
_cell_length_a 5.142461
_cell_length_b 25.471909
_cell_length_c 12.474787
_cell_angle_alpha 90.000000
_cell_angle_beta 77.778397
_cell_angle_gamma 90.000000
_cell_volume 1597.017229
_symmetry_space_group_name_H-M "P 2/M"
_symmetry_group_IT_number 10
_symmetry_cell_setting 'monoclinic'
loop_
_space_group_symop_operation_xyz
x,y,z
-x,y,-z
-x,-y,-z
x,-y,z
loop_
_atom_site_type_symbol
_atom_site_label
_atom_site_fract_x
_atom_site_fract_y
_atom_site_fract_z
Si Si1 0.306495 0.440071 0.897211
Si Si2 0.288976 0.867245 0.935243
Si Si3 0.009046 0.283400 0.221943
Si Si4 0.176294 0.940518 0.379581
Si Si5 0.786092 0.777629 0.427046
Si Si6 0.284096 0.115137 0.691877
Si Si7 0.450650 0.249963 0.891130
Si Si8 0.175339 0.603821 0.136526
O O1 0.291159 0.500000 0.938561
O O2 0.590259 0.425862 0.820580
O O3 0.097414 0.428001 0.821215
O O4 0.247072 0.401249 0.003074
O O5 0.341232 0.888679 0.812610
O O6 0.316844 0.804933 0.930654
O O7 0.500000 0.892290 0.000000
O O8 0.000000 0.883807 0.000000
O O9 0.256352 0.242380 0.187802
O O10 0.150106 0.338955 0.190674
O O11 0.892957 0.272655 0.350857
O O12 0.764251 0.280768 0.160629
O O13 0.451565 0.910562 0.382760
O O14 0.000000 0.937668 0.500000
O O15 0.993219 0.914953 0.303684
O O16 0.246565 0.000000 0.340989
O O17 0.500000 0.762480 0.500000
O O18 0.748111 0.825597 0.347596
O O19 0.000000 0.792909 0.500000
O O20 0.500000 0.280630 0.000000
#
# Coordination Sequence:
#
# PCOD8061720 Si02
#       8
#     4   4   4   4   4   4   4   4
#     4  10  19  34  53  80 119 157 198 246 291 352
#     4  11  23  40  59  89 121 162 201 241 289 341
#     4  12  24  38  54  86 123 157 208 246 293 361
#     4  11  24  42  66  98 126 150 193 262 330 370
#     4  12  26  42  62  86 120 162 208 255 300 353
#     4  12  23  41  68  92 120 162 205 243 300 382
#     4  11  23  35  56  81 121 161 194 243 285 337
#     4  10  20  31  49  77 110 157 192 231 290 349
#
# _framework density 20.037355999999999
#
# number of rings (size 3 to 8) (size 9 to 14) (size 15 to 20)
#    0.000    0.875    1.250    8.625    7.000    1.000 
#    0.000    0.000    0.000    7.500    0.000    0.000 
#    0.000   17.000    0.000    0.000    0.000    0.000 
#
# Total GULP energy -396573.515140 kJ/mol
# GULP energy per Si atom -12392.922348 kJ/mol
# Density = 1.999175 g / cm^3
# Si number density = 20.037356 Si / 1000 Ang^3
#
#
#
# Elastic Constant Matrix: (Units=GPa)
#
#
# Indices 1 2 3 4 5 6 
#
# 1 176.1877 25.0977 32.8783 0.0000 -5.9682 0.0000
# 2 25.0977 82.5465 29.4282 0.0000 -3.2596 0.0000
# 3 32.8783 29.4282 80.6957 0.0000 -0.0286 0.0000
# 4 0.0000 0.0000 0.0000 75.6306 0.0000 192.5203
# 5 -5.9682 -3.2596 -0.0286 0.0000 36.7278 0.0000
# 6 0.0000 0.0000 0.0000 192.5203 0.0000 640.9922
#
#
#
# Elastic Compliance Matrix: (Units=1/GPa)
#
#
# Indices 1 2 3 4 5 6 
#
# 1 0.006265 -0.001102 -0.002150 0.000000 0.000919 0.000000
# 2 -0.001102 0.014175 -0.004720 0.000000 0.001075 0.000000
# 3 -0.002150 -0.004720 0.014989 0.000000 -0.000757 0.000000
# 4 0.000000 0.000000 0.000000 0.056156 0.000000 -0.016866
# 5 0.000919 0.001075 -0.000757 0.000000 0.027471 0.000000
# 6 0.000000 0.000000 0.000000 -0.016866 0.000000 0.006626
#
#
# Mechanical properties :
#
#
# Convention : Reuss Voigt Hill
#
# Bulk Modulus (GPa) = 51.32268 57.13760 54.23014
# Shear Modulus (GPa) = 33.75609 167.47183 100.61396
#
# Velocity S-wave (km/s) = 4.10891 9.15212 7.09381
# Velocity P-wave (km/s) = 6.94118 11.84310 9.70668
#
# Compressibility (1/GPa) = 0.01948456
#
# Stress axis : x y z
#
# Youngs Moduli (GPa) = 159.61307 70.54909 66.71394
#
# Poissons Ratio (x) = 0.07774 0.14347
# Poissons Ratio (y) = 0.17589 0.31488
# Poissons Ratio (z) = 0.34324 0.33298
#
# Static dielectric constant tensor:
#      x y z
#    x 5.136150 0.000000 0.076580 
#    y 0.000000 3.432950 0.000000 
#    z 0.076580 0.000000 3.467470 
# 
# 
# High freq. dielectric constant tensor:
#      x y z
#    x 1.827630 0.000000 -0.004240 
#    y 0.000000 1.754020 0.000000 
#    z -0.004240 0.000000 1.739850 
# 
# From -- ./inp_files/40002.got.cif
#   From: 2010.06.25/outbox.cif.g09.slc.cpg/sg10_21_cif.got.tgz:40002.got - 2010.06.27 22:07:45.
