data_PCOD8061050
_publ_section_title
;
Structure prediction by ZEFSAII (Michael W. Deem and Ramdas Pophale) SiO2 
 PCOD8061050
Probable space group: P 2/M
;
_chemical_formula_sum "Si O2"
_cell_formula_units_Z 32
_cell_length_a 25.958866
_cell_length_b 8.472697
_cell_length_c 18.794146
_cell_angle_alpha 90.000000
_cell_angle_beta 155.982574
_cell_angle_gamma 90.000000
_cell_volume 1682.440982
_symmetry_space_group_name_H-M "P 2/M"
_symmetry_group_IT_number 10
_symmetry_cell_setting 'monoclinic'
loop_
_space_group_symop_operation_xyz
x,y,z
-x,y,-z
-x,-y,-z
x,-y,z
loop_
_atom_site_type_symbol
_atom_site_label
_atom_site_fract_x
_atom_site_fract_y
_atom_site_fract_z
Si Si1 0.430117 0.184391 0.792652
Si Si2 0.810817 0.183575 0.420749
Si Si3 0.564937 0.313468 0.354009
Si Si4 0.943239 0.314122 0.198358
Si Si5 0.807041 0.686789 0.738847
Si Si6 0.300987 0.684986 0.856684
Si Si7 0.035888 0.312017 0.933458
Si Si8 0.283757 0.686391 0.995005
O O1 0.312050 0.239914 0.690914
O O2 0.397492 0.223570 0.670235
O O3 0.457373 0.000000 0.836869
O O4 0.552266 0.278758 0.974318
O O5 0.790429 0.222461 0.312215
O O6 0.929904 0.279767 0.599000
O O7 0.837828 0.000000 0.465563
O O8 0.573263 0.500000 0.349063
O O9 0.664236 0.258926 0.540093
O O10 0.423342 0.266052 0.200092
O O11 0.924981 0.500000 0.169407
O O12 0.947587 0.239167 0.124512
O O13 0.823371 0.238800 0.089260
O O14 0.816284 0.500000 0.750235
O O15 0.904351 0.750335 0.801518
O O16 0.848676 0.746657 0.869843
O O17 0.276602 0.500000 0.817654
O O18 0.267404 0.747501 0.893502
O O19 0.034155 0.500000 0.926525
O O20 0.269610 0.500000 0.976112
#
# Coordination Sequence:
#
# PCOD8061050 Si02
#       8
#     4   4   4   4   4   4   4   4
#     4  10  20  33  49  72 103 128 150 194 246 285
#     4  11  23  35  48  71 100 125 155 200 247 286
#     4   9  16  29  50  72  96 129 165 197 234 284
#     4  10  19  33  51  68  92 129 168 199 236 286
#     4   8  13  23  42  71 101 123 153 198 240 278
#     4  10  20  35  54  73  95 125 160 196 237 287
#     4   8  14  24  42  70  99 125 155 196 240 280
#     4   8  17  32  48  69  95 122 159 207 242 269
#
# _framework density 19.019984000000001
#
# number of rings (size 3 to 8) (size 9 to 14) (size 15 to 20)
#    0.000    2.750    0.000    3.750    0.000    5.000 
#    0.000    6.250    0.000    4.500    0.000    3.500 
#    0.000    5.000    0.000    0.000    0.000    0.000 
#
# Total GULP energy -396683.061873 kJ/mol
# GULP energy per Si atom -12396.345684 kJ/mol
# Density = 1.897669 g / cm^3
# Si number density = 19.019984 Si / 1000 Ang^3
#
#
#
# Elastic Constant Matrix: (Units=GPa)
#
#
# Indices 1 2 3 4 5 6 
#
# 1 130.1536 6.1217 96.4432 0.0000 3.3108 0.0000
# 2 6.1217 13.3966 1.9073 0.0000 4.5149 0.0000
# 3 96.4432 1.9073 133.8330 0.0000 -15.6979 0.0000
# 4 0.0000 0.0000 0.0000 9.3371 0.0000 2.0107
# 5 3.3108 4.5149 -15.6979 0.0000 29.1512 0.0000
# 6 0.0000 0.0000 0.0000 2.0107 0.0000 9.7398
#
#
#
# Elastic Compliance Matrix: (Units=1/GPa)
#
#
# Indices 1 2 3 4 5 6 
#
# 1 0.019071 -0.003359 -0.014825 0.000000 -0.009629 0.000000
# 2 -0.003359 0.080290 -0.000147 0.000000 -0.012133 0.000000
# 3 -0.014825 -0.000147 0.019595 0.000000 0.012258 0.000000
# 4 0.000000 0.000000 0.000000 0.112083 0.000000 -0.023139
# 5 -0.009629 -0.012133 0.012258 0.000000 0.043878 0.000000
# 6 0.000000 0.000000 0.000000 -0.023139 0.000000 0.107448
#
#
# Mechanical properties :
#
#
# Convention : Reuss Voigt Hill
#
# Bulk Modulus (GPa) = 12.15132 54.03640 33.09386
# Shear Modulus (GPa) = 11.19926 21.17303 16.18615
#
# Velocity S-wave (km/s) = 2.42918 3.34008 2.92037
# Velocity P-wave (km/s) = 3.77763 6.58384 5.36737
#
# Compressibility (1/GPa) = 0.08229558
#
# Stress axis : x y z
#
# Youngs Moduli (GPa) = 52.43523 12.45478 51.03367
#
# Poissons Ratio (x) = 0.04184 0.75656
# Poissons Ratio (y) = 0.17613 0.00749
# Poissons Ratio (z) = 0.77733 0.00183
#
# Static dielectric constant tensor:
#      x y z
#    x 3.780050 0.000000 -0.024220 
#    y 0.000000 3.027840 0.000000 
#    z -0.024220 0.000000 3.673190 
# 
# 
# High freq. dielectric constant tensor:
#      x y z
#    x 1.732910 0.000000 -0.007830 
#    y 0.000000 1.697920 0.000000 
#    z -0.007830 0.000000 1.744980 
# 
# From -- ./inp_files/87038.got.cif
#   From: 2010.06.25/outbox.cif.g09.slc.cpg/sg10_44_cif.got.tgz:87038.got - 2010.06.27 22:07:45.
