data_PCOD8061680
_publ_section_title
;
Structure prediction by ZEFSAII (Michael W. Deem and Ramdas Pophale) SiO2 
 PCOD8061680
Probable space group: P 2/M
;
_chemical_formula_sum "Si O2"
_cell_formula_units_Z 32
_cell_length_a 11.699591
_cell_length_b 9.051917
_cell_length_c 21.407551
_cell_angle_alpha 90.000000
_cell_angle_beta 52.059720
_cell_angle_gamma 90.000000
_cell_volume 1787.984127
_symmetry_space_group_name_H-M "P 2/M"
_symmetry_group_IT_number 10
_symmetry_cell_setting 'monoclinic'
loop_
_space_group_symop_operation_xyz
x,y,z
-x,y,-z
-x,-y,-z
x,-y,z
loop_
_atom_site_type_symbol
_atom_site_label
_atom_site_fract_x
_atom_site_fract_y
_atom_site_fract_z
Si Si1 0.645743 0.173843 0.737329
Si Si2 0.626763 0.669797 0.215132
Si Si3 0.841221 0.671294 0.030286
Si Si4 0.737916 0.666542 0.823514
Si Si5 0.151095 0.175377 0.098219
Si Si6 0.057827 0.336827 0.660489
Si Si7 0.860764 0.672792 0.235698
Si Si8 0.043388 0.826717 0.418220
O O1 0.513322 0.226152 0.738909
O O2 0.633608 0.253230 0.808712
O O3 0.792830 0.221004 0.652440
O O4 0.640160 0.000000 0.750114
O O5 0.576400 0.500000 0.230631
O O6 0.729712 0.706095 0.122609
O O7 0.711213 0.706445 0.250746
O O8 0.839133 0.500000 0.010952
O O9 0.794511 0.771724 0.987655
O O10 0.000000 0.717498 0.000000
O O11 0.680945 0.500000 0.853933
O O12 0.738466 0.756288 0.888068
O O13 0.898360 0.665712 0.742601
O O14 0.987278 0.230622 0.162835
O O15 0.156110 0.000000 0.101844
O O16 0.099790 0.500000 0.623139
O O17 0.161709 0.287119 0.683160
O O18 0.068090 0.231151 0.597180
O O19 0.904949 0.500000 0.213457
O O20 0.000000 0.759077 0.500000
O O21 0.024432 0.000000 0.425458
#
# Coordination Sequence:
#
# PCOD8061680 Si02
#       8
#     4   4   4   4   4   4   4   4
#     4  10  20  34  52  76 105 129 161 209 254 296
#     4  10  20  34  53  72  97 136 174 205 246 304
#     4  10  19  34  52  69  95 134 177 212 248 299
#     4   9  17  32  52  70  95 132 171 205 247 305
#     4  11  20  29  47  75 103 127 163 218 267 294
#     4   8  15  27  48  76 100 122 159 210 247 277
#     4   9  17  32  50  70  98 135 174 207 244 297
#     4   9  18  33  53  76 103 134 162 192 240 302
#
# _framework density 17.89725
#
# number of rings (size 3 to 8) (size 9 to 14) (size 15 to 20)
#    0.000    2.500    1.250    2.625    0.000    5.000 
#    0.000    0.625    0.000    4.500    0.000    5.250 
#    0.000    0.000    0.000    0.000    0.000    0.000 
#
# Total GULP energy -396766.967693 kJ/mol
# GULP energy per Si atom -12398.967740 kJ/mol
# Density = 1.785652 g / cm^3
# Si number density = 17.897250 Si / 1000 Ang^3
#
#
#
# Elastic Constant Matrix: (Units=GPa)
#
#
# Indices 1 2 3 4 5 6 
#
# 1 126.5499 49.1898 52.6932 0.0000 25.3041 0.0000
# 2 49.1898 81.8340 38.5863 0.0000 11.4913 0.0000
# 3 52.6932 38.5863 71.5923 0.0000 25.1407 0.0000
# 4 0.0000 0.0000 0.0000 21.2179 0.0000 3.4580
# 5 25.3041 11.4913 25.1407 0.0000 29.4018 0.0000
# 6 0.0000 0.0000 0.0000 3.4580 0.0000 24.0728
#
#
#
# Elastic Compliance Matrix: (Units=1/GPa)
#
#
# Indices 1 2 3 4 5 6 
#
# 1 0.012830 -0.004528 -0.005354 0.000000 -0.004694 0.000000
# 2 -0.004528 0.018037 -0.007548 0.000000 0.003302 0.000000
# 3 -0.005354 -0.007548 0.027615 0.000000 -0.016055 0.000000
# 4 0.000000 0.000000 0.000000 0.048260 0.000000 -0.006932
# 5 -0.004694 0.003302 -0.016055 0.000000 0.050489 0.000000
# 6 0.000000 0.000000 0.000000 -0.006932 0.000000 0.042537
#
#
# Mechanical properties :
#
#
# Convention : Reuss Voigt Hill
#
# Bulk Modulus (GPa) = 42.33547 62.32386 52.32966
# Shear Modulus (GPa) = 20.61836 24.23896 22.42866
#
# Velocity S-wave (km/s) = 3.39785 3.68413 3.54388
# Velocity P-wave (km/s) = 6.25300 7.27982 6.78586
#
# Compressibility (1/GPa) = 0.02362085
#
# Stress axis : x y z
#
# Youngs Moduli (GPa) = 77.94127 55.44080 36.21245
#
# Poissons Ratio (x) = 0.25106 0.19389
# Poissons Ratio (y) = 0.35295 0.27334
# Poissons Ratio (z) = 0.41731 0.41847
#
# Static dielectric constant tensor:
#      x y z
#    x 3.521030 0.000000 0.346660 
#    y 0.000000 3.267740 0.000000 
#    z 0.346660 0.000000 3.131220 
# 
# 
# High freq. dielectric constant tensor:
#      x y z
#    x 1.694790 0.000000 0.028560 
#    y 0.000000 1.689490 0.000000 
#    z 0.028560 0.000000 1.656900 
# 
# From -- ./inp_files/52701.got.cif
#   From: 2010.06.25/outbox.cif.g09.slc.cpg/sg10_27_cif.got.tgz:52701.got - 2010.06.27 22:07:45.
