data_PCOD8061911
_publ_section_title
;
Structure prediction by ZEFSAII (Michael W. Deem and Ramdas Pophale) SiO2 
 PCOD8061911
Probable space group: P 2/M
;
_chemical_formula_sum "Si O2"
_cell_formula_units_Z 24
_cell_length_a 13.843600
_cell_length_b 9.290277
_cell_length_c 17.065616
_cell_angle_alpha 90.000000
_cell_angle_beta 143.341429
_cell_angle_gamma 90.000000
_cell_volume 1310.409163
_symmetry_space_group_name_H-M "P 2/M"
_symmetry_group_IT_number 10
_symmetry_cell_setting 'monoclinic'
loop_
_space_group_symop_operation_xyz
x,y,z
-x,y,-z
-x,-y,-z
x,-y,z
loop_
_atom_site_type_symbol
_atom_site_label
_atom_site_fract_x
_atom_site_fract_y
_atom_site_fract_z
Si Si1 0.765550 0.335931 0.506835
Si Si2 0.950103 0.838426 0.378206
Si Si3 0.414922 0.829205 0.867210
Si Si4 0.320538 0.336602 0.373621
Si Si5 0.177519 0.168449 0.138805
Si Si6 0.483126 0.169158 0.236162
O O1 0.754089 0.500000 0.469578
O O2 0.769299 0.328314 0.602562
O O3 0.614656 0.249836 0.374025
O O4 0.934997 0.268496 0.592947
O O5 0.769511 0.775125 0.254151
O O6 0.000000 0.843287 0.500000
O O7 0.961357 0.000000 0.349897
O O8 0.506193 0.778163 0.847263
O O9 0.419057 0.000000 0.873426
O O10 0.500000 0.763235 0.000000
O O11 0.500000 0.271722 0.500000
O O12 0.332234 0.500000 0.349618
O O13 0.221850 0.243689 0.248218
O O14 0.304810 0.206352 0.152646
O O15 0.175465 0.000000 0.154320
O O16 0.000000 0.224455 0.000000
O O17 0.522128 0.000000 0.267829
#
# Coordination Sequence:
#
# PCOD8061911 Si02
#       6
#     4   4   4   4   4   4
#     4  11  22  35  56  84 112 145 189 234 278 324
#     4  10  19  34  56  83 110 141 184 226 272 330
#     4   9  18  33  55  81 109 145 183 220 268 330
#     4  10  21  38  57  80 111 149 193 232 273 335
#     4  10  22  37  57  88 119 146 184 237 291 338
#     4  10  19  35  57  80 111 147 185 228 280 337
#
# _framework density 18.314889999999998
#
# number of rings (size 3 to 8) (size 9 to 14) (size 15 to 20)
#    0.000    2.000    3.333    0.500    0.000    3.667 
#    0.000    3.333    0.000    2.000    0.000    0.000 
#    0.000    0.000    0.000    0.000    0.000    0.000 
#
# Total GULP energy -297621.749537 kJ/mol
# GULP energy per Si atom -12400.906231 kJ/mol
# Density = 1.827320 g / cm^3
# Si number density = 18.314890 Si / 1000 Ang^3
#
#
#
# Elastic Constant Matrix: (Units=GPa)
#
#
# Indices 1 2 3 4 5 6 
#
# 1 129.3367 48.2573 70.8842 0.0000 12.1285 0.0000
# 2 48.2573 52.5064 41.6702 0.0000 2.7008 0.0000
# 3 70.8842 41.6702 158.3373 0.0000 7.4101 0.0000
# 4 0.0000 0.0000 0.0000 29.4193 0.0000 -31.5910
# 5 12.1285 2.7008 7.4101 0.0000 33.5256 0.0000
# 6 0.0000 0.0000 0.0000 -31.5910 0.0000 82.6760
#
#
#
# Elastic Compliance Matrix: (Units=1/GPa)
#
#
# Indices 1 2 3 4 5 6 
#
# 1 0.013433 -0.009512 -0.003353 0.000000 -0.003352 0.000000
# 2 -0.009512 0.030819 -0.003938 0.000000 0.001829 0.000000
# 3 -0.003353 -0.003938 0.008873 0.000000 -0.000431 0.000000
# 4 0.000000 0.000000 0.000000 0.057643 0.000000 0.022026
# 5 -0.003352 0.001829 -0.000431 0.000000 0.030989 0.000000
# 6 0.000000 0.000000 0.000000 0.022026 0.000000 0.020512
#
#
# Mechanical properties :
#
#
# Convention : Reuss Voigt Hill
#
# Bulk Modulus (GPa) = 51.23417 73.53377 62.38397
# Shear Modulus (GPa) = 24.70577 41.08208 32.89392
#
# Velocity S-wave (km/s) = 3.67678 4.74127 4.24255
# Velocity P-wave (km/s) = 6.78673 8.37913 7.62462
#
# Compressibility (1/GPa) = 0.01951822
#
# Stress axis : x y z
#
# Youngs Moduli (GPa) = 74.44261 32.44769 112.69611
#
# Poissons Ratio (x) = 0.30865 0.37793
# Poissons Ratio (y) = 0.70812 0.44378
# Poissons Ratio (z) = 0.24964 0.12777
#
# Static dielectric constant tensor:
#      x y z
#    x 3.532400 0.000000 0.055250 
#    y 0.000000 3.249130 0.000000 
#    z 0.055250 0.000000 3.459700 
# 
# 
# High freq. dielectric constant tensor:
#      x y z
#    x 1.723100 0.000000 0.004230 
#    y 0.000000 1.687770 0.000000 
#    z 0.004230 0.000000 1.708840 
# 
# From -- ./inp_files/60273.got.cif
#   From: 2010.06.25/outbox.cif.g09.slc.cpg/sg10_31_cif.got.tgz:60273.got - 2010.06.27 22:07:45.
