data_PCOD8061888
_publ_section_title
;
Structure prediction by ZEFSAII (Michael W. Deem and Ramdas Pophale) SiO2 
 PCOD8061888
Probable space group: P 2/M
;
_chemical_formula_sum "Si O2"
_cell_formula_units_Z 28
_cell_length_a 22.274053
_cell_length_b 14.696894
_cell_length_c 9.459428
_cell_angle_alpha 90.000000
_cell_angle_beta 150.922802
_cell_angle_gamma 90.000000
_cell_volume 1504.925084
_symmetry_space_group_name_H-M "P 2/M"
_symmetry_group_IT_number 10
_symmetry_cell_setting 'monoclinic'
loop_
_space_group_symop_operation_xyz
x,y,z
-x,y,-z
-x,-y,-z
x,-y,z
loop_
_atom_site_type_symbol
_atom_site_label
_atom_site_fract_x
_atom_site_fract_y
_atom_site_fract_z
Si Si1 0.092214 0.101266 0.892673
Si Si2 0.825827 0.100722 0.260990
Si Si3 0.738273 0.602409 0.224729
Si Si4 0.357105 0.748521 0.171609
Si Si5 0.360185 0.600925 0.673215
Si Si6 0.994656 0.606437 0.150794
Si Si7 0.776034 0.722147 0.808406
O O1 0.132622 0.099769 0.814528
O O2 0.946548 0.128470 0.602809
O O3 0.113720 0.000000 0.002938
O O4 0.176622 0.177404 0.143790
O O5 0.781966 0.000000 0.216128
O O6 0.708828 0.166782 0.043247
O O7 0.707163 0.500000 0.113260
O O8 0.720699 0.614645 0.354965
O O9 0.882513 0.626175 0.504319
O O10 0.647869 0.664573 0.946464
O O11 0.500000 0.771664 0.500000
O O12 0.276811 0.723123 0.142690
O O13 0.333378 0.500000 0.552498
O O14 0.333348 0.684334 0.513724
O O15 0.500000 0.609684 0.000000
O O16 0.965142 0.500000 0.082243
O O17 0.000000 0.644500 0.000000
O O18 0.888996 0.652780 0.026558
#
# Coordination Sequence:
#
# PCOD8061888 Si02
#       7
#     4   4   4   4   4   4   4
#     4   8  15  29  52  81 107 132 169 219 271 324
#     4   8  15  31  53  76 105 139 174 214 264 319
#     4  10  21  36  52  74 108 142 173 219 271 313
#     4  11  23  35  50  80 114 141 178 222 264 315
#     4  10  20  35  54  74 101 146 194 220 249 314
#     4  10  19  34  56  81 103 128 178 232 268 311
#     4  11  20  33  57  80 104 141 179 220 274 323
#
# _framework density 18.605578000000001
#
# number of rings (size 3 to 8) (size 9 to 14) (size 15 to 20)
#    0.000    2.286    1.429    3.000    0.000    3.429 
#    0.000    1.429    0.000    1.714    0.000    0.000 
#    0.000    0.000    0.000    0.000    0.000    0.000 
#
# Total GULP energy -346994.594934 kJ/mol
# GULP energy per Si atom -12392.664105 kJ/mol
# Density = 1.856323 g / cm^3
# Si number density = 18.605578 Si / 1000 Ang^3
#
#
#
# Elastic Constant Matrix: (Units=GPa)
#
#
# Indices 1 2 3 4 5 6 
#
# 1 29.2590 22.0464 19.9242 0.0000 11.6037 0.0000
# 2 22.0464 119.1572 55.6315 0.0000 -6.9867 0.0000
# 3 19.9242 55.6315 66.5003 0.0000 -1.5041 0.0000
# 4 0.0000 0.0000 0.0000 35.4522 0.0000 3.0330
# 5 11.6037 -6.9867 -1.5041 0.0000 20.8870 0.0000
# 6 0.0000 0.0000 0.0000 3.0330 0.0000 13.1465
#
#
#
# Elastic Compliance Matrix: (Units=1/GPa)
#
#
# Indices 1 2 3 4 5 6 
#
# 1 0.065538 -0.008017 -0.013836 0.000000 -0.040087 0.000000
# 2 -0.008017 0.015056 -0.009995 0.000000 0.008770 0.000000
# 3 -0.013836 -0.009995 0.027688 0.000000 0.006337 0.000000
# 4 0.000000 0.000000 0.000000 0.028775 0.000000 -0.006639
# 5 -0.040087 0.008770 0.006337 0.000000 0.073537 0.000000
# 6 0.000000 0.000000 0.000000 -0.006639 0.000000 0.077597
#
#
# Mechanical properties :
#
#
# Convention : Reuss Voigt Hill
#
# Bulk Modulus (GPa) = 22.42848 45.56895 33.99871
# Shear Modulus (GPa) = 13.63327 21.71810 17.67569
#
# Velocity S-wave (km/s) = 2.70988 3.42027 3.08558
# Velocity P-wave (km/s) = 4.67676 6.33584 5.56844
#
# Compressibility (1/GPa) = 0.04458617
#
# Stress axis : x y z
#
# Youngs Moduli (GPa) = 15.25832 66.41750 36.11675
#
# Poissons Ratio (x) = 0.53244 0.49972
# Poissons Ratio (y) = 0.12232 0.36100
# Poissons Ratio (z) = 0.21112 0.66386
#
# Static dielectric constant tensor:
#      x y z
#    x 2.779120 0.000000 0.001330 
#    y 0.000000 3.777650 0.000000 
#    z 0.001330 0.000000 3.407150 
# 
# 
# High freq. dielectric constant tensor:
#      x y z
#    x 1.692080 0.000000 0.019540 
#    y 0.000000 1.723790 0.000000 
#    z 0.019540 0.000000 1.719970 
# 
# From -- ./inp_files/29392.got.cif
#   From: 2010.06.25/outbox.cif.g09.slc.cpg/sg10_15_cif.got.tgz:29392.got - 2010.06.27 22:07:45.
