data_PCOD8061131
_publ_section_title
;
Structure prediction by ZEFSAII (Michael W. Deem and Ramdas Pophale) SiO2 
 PCOD8061131
Probable space group: P 2/M
;
_chemical_formula_sum "Si O2"
_cell_formula_units_Z 32
_cell_length_a 15.808922
_cell_length_b 20.462763
_cell_length_c 15.351171
_cell_angle_alpha 90.000000
_cell_angle_beta 160.978999
_cell_angle_gamma 90.000000
_cell_volume 1618.497337
_symmetry_space_group_name_H-M "P 2/M"
_symmetry_group_IT_number 10
_symmetry_cell_setting 'monoclinic'
loop_
_space_group_symop_operation_xyz
x,y,z
-x,y,-z
-x,-y,-z
x,-y,z
loop_
_atom_site_type_symbol
_atom_site_label
_atom_site_fract_x
_atom_site_fract_y
_atom_site_fract_z
Si Si1 0.414827 0.824610 0.510382
Si Si2 0.240936 0.423751 0.286442
Si Si3 0.705680 0.424193 0.458597
Si Si4 0.873178 0.135980 0.192061
Si Si5 0.230429 0.750329 0.787155
Si Si6 0.619427 0.075295 0.367140
Si Si7 0.810750 0.348267 0.095895
Si Si8 0.095677 0.234950 0.933904
O O1 0.500000 0.853802 0.500000
O O2 0.385334 0.885146 0.547065
O O3 0.151908 0.781613 0.246395
O O4 0.635507 0.774422 0.754817
O O5 0.500000 0.390669 0.500000
O O6 0.243699 0.500000 0.266029
O O7 0.225901 0.412390 0.374257
O O8 0.000000 0.390937 0.000000
O O9 0.672722 0.500000 0.404041
O O10 0.951736 0.395543 0.644947
O O11 0.442103 0.389354 0.174353
O O12 0.832524 0.176441 0.241118
O O13 0.924855 0.186948 0.166838
O O14 0.127628 0.090649 0.445057
O O15 0.625150 0.091393 0.931410
O O16 0.261318 0.699634 0.895870
O O17 0.000000 0.726693 0.500000
O O18 0.500000 0.751853 0.000000
O O19 0.615969 0.000000 0.390548
O O20 0.909648 0.308445 0.107496
#
# Coordination Sequence:
#
# PCOD8061131 Si02
#       8
#     4   4   4   4   4   4   4   4
#     4  10  19  33  52  77 113 149 189 240 280 314
#     4   9  17  31  50  72 101 139 184 225 255 291
#     4  11  22  37  59  84 115 155 188 222 276 342
#     4   9  19  35  56  81 109 142 183 227 272 326
#     4  11  22  39  66  91 109 136 181 239 291 335
#     4  10  19  33  55  81 113 157 195 221 265 328
#     4  11  22  39  60  84 112 140 185 233 277 350
#     4   9  19  35  53  74 103 144 185 231 283 318
#
# _framework density 19.771425000000001
#
# number of rings (size 3 to 8) (size 9 to 14) (size 15 to 20)
#    0.000    2.000    0.000    4.125    0.000    6.250 
#    0.000    6.250    0.000   19.500    0.000    0.000 
#    0.000    0.000    0.000    0.000    0.000    0.000 
#
# Total GULP energy -396792.623371 kJ/mol
# GULP energy per Si atom -12399.769480 kJ/mol
# Density = 1.972642 g / cm^3
# Si number density = 19.771425 Si / 1000 Ang^3
#
#
#
# Elastic Constant Matrix: (Units=GPa)
#
#
# Indices 1 2 3 4 5 6 
#
# 1 83.8574 45.3957 38.6332 0.0000 20.7985 0.0000
# 2 45.3957 109.1854 65.6200 0.0000 6.7820 0.0000
# 3 38.6332 65.6200 161.1666 0.0000 31.0522 0.0000
# 4 0.0000 0.0000 0.0000 24.9544 0.0000 5.2703
# 5 20.7985 6.7820 31.0522 0.0000 30.8078 0.0000
# 6 0.0000 0.0000 0.0000 5.2703 0.0000 21.1156
#
#
#
# Elastic Compliance Matrix: (Units=1/GPa)
#
#
# Indices 1 2 3 4 5 6 
#
# 1 0.018475 -0.007478 0.000871 0.000000 -0.011704 0.000000
# 2 -0.007478 0.015359 -0.005935 0.000000 0.007649 0.000000
# 3 0.000871 -0.005935 0.010268 0.000000 -0.009631 0.000000
# 4 0.000000 0.000000 0.000000 0.042303 0.000000 -0.010559
# 5 -0.011704 0.007649 -0.009631 0.000000 0.048384 0.000000
# 6 0.000000 0.000000 0.000000 -0.010559 0.000000 0.049994
#
#
# Mechanical properties :
#
#
# Convention : Reuss Voigt Hill
#
# Bulk Modulus (GPa) = 52.57905 72.61192 62.59549
# Shear Modulus (GPa) = 23.12610 29.01293 26.06951
#
# Velocity S-wave (km/s) = 3.42376 3.83484 3.63512
# Velocity P-wave (km/s) = 6.50236 7.51089 7.02475
#
# Compressibility (1/GPa) = 0.01901898
#
# Stress axis : x y z
#
# Youngs Moduli (GPa) = 54.12857 65.10640 97.38952
#
# Poissons Ratio (x) = 0.48684 -0.08483
# Poissons Ratio (y) = 0.40475 0.57801
# Poissons Ratio (z) = -0.04715 0.38641
#
# Static dielectric constant tensor:
#      x y z
#    x 3.488790 0.000000 0.169460 
#    y 0.000000 3.489360 0.000000 
#    z 0.169460 0.000000 3.861230 
# 
# 
# High freq. dielectric constant tensor:
#      x y z
#    x 1.754790 0.000000 0.013890 
#    y 0.000000 1.759150 0.000000 
#    z 0.013890 0.000000 1.791960 
# 
# From -- ./inp_files/67947.got.cif
#   From: 2010.06.25/outbox.cif.g09.slc.cpg/sg10_34_cif.got.tgz:67947.got - 2010.06.27 22:07:45.
