data_PCOD8061511
_publ_section_title
;
Structure prediction by ZEFSAII (Michael W. Deem and Ramdas Pophale) SiO2 
 PCOD8061511
Probable space group: P 2/M
;
_chemical_formula_sum "Si O2"
_cell_formula_units_Z 28
_cell_length_a 27.803111
_cell_length_b 8.803373
_cell_length_c 9.760772
_cell_angle_alpha 90.000000
_cell_angle_beta 37.886437
_cell_angle_gamma 90.000000
_cell_volume 1467.116580
_symmetry_space_group_name_H-M "P 2/M"
_symmetry_group_IT_number 10
_symmetry_cell_setting 'monoclinic'
loop_
_space_group_symop_operation_xyz
x,y,z
-x,y,-z
-x,-y,-z
x,-y,z
loop_
_atom_site_type_symbol
_atom_site_label
_atom_site_fract_x
_atom_site_fract_y
_atom_site_fract_z
Si Si1 0.129828 0.321214 0.863481
Si Si2 0.555874 0.326981 0.758650
Si Si3 0.292350 0.174339 0.507021
Si Si4 0.997288 0.820165 0.347779
Si Si5 0.550758 0.326775 0.262713
Si Si6 0.702658 0.825754 0.820417
Si Si7 0.134873 0.321346 0.537895
O O1 0.119606 0.500000 0.901904
O O2 0.216689 0.273807 0.713308
O O3 0.113687 0.271202 0.741756
O O4 0.071236 0.240446 0.098227
O O5 0.578792 0.500000 0.745354
O O6 0.635266 0.230705 0.564225
O O7 0.507759 0.315920 0.730237
O O8 0.500000 0.255690 0.000000
O O9 0.316882 0.198528 0.294717
O O10 0.273243 0.000000 0.583600
O O11 0.919365 0.761109 0.449889
O O12 0.000000 0.763841 0.500000
O O13 0.997941 0.000000 0.340385
O O14 0.500000 0.259753 0.500000
O O15 0.577622 0.500000 0.228685
O O16 0.627791 0.225591 0.074669
O O17 0.776536 0.724066 0.696973
O O18 0.722415 0.000000 0.809182
O O19 0.124088 0.500000 0.545538
#
# Coordination Sequence:
#
# PCOD8061511 Si02
#       7
#     4   4   4   4   4   4   4
#     4  10  21  38  62  89 116 148 192 237 279 335
#     4  10  19  33  56  81 108 145 189 234 280 332
#     4  10  20  34  56  86 115 145 186 236 286 331
#     4  11  24  41  60  86 121 154 186 228 282 340
#     4  10  21  37  55  78 110 148 190 234 282 337
#     4  10  20  35  57  84 114 147 187 234 283 334
#     4  10  21  38  63  90 114 147 192 237 281 335
#
# _framework density 19.085054
#
# number of rings (size 3 to 8) (size 9 to 14) (size 15 to 20)
#    0.000    1.857    1.429    2.571    0.000    6.857 
#    2.571    0.000    0.000    0.000    0.000    0.000 
#    0.000    0.000    0.000    0.000    0.000    0.000 
#
# Total GULP energy -347262.046159 kJ/mol
# GULP energy per Si atom -12402.215934 kJ/mol
# Density = 1.904162 g / cm^3
# Si number density = 19.085054 Si / 1000 Ang^3
#
#
#
# Elastic Constant Matrix: (Units=GPa)
#
#
# Indices 1 2 3 4 5 6 
#
# 1 84.9698 34.4991 57.1211 0.0000 -8.6480 0.0000
# 2 34.4991 68.3097 40.0267 0.0000 -0.6395 0.0000
# 3 57.1211 40.0267 126.9807 0.0000 -3.1236 0.0000
# 4 0.0000 0.0000 0.0000 18.9618 0.0000 3.4038
# 5 -8.6480 -0.6395 -3.1236 0.0000 26.7613 0.0000
# 6 0.0000 0.0000 0.0000 3.4038 0.0000 26.0957
#
#
#
# Elastic Compliance Matrix: (Units=1/GPa)
#
#
# Indices 1 2 3 4 5 6 
#
# 1 0.019096 -0.005688 -0.006668 0.000000 0.005257 0.000000
# 2 -0.005688 0.019651 -0.003680 0.000000 -0.001798 0.000000
# 3 -0.006668 -0.003680 0.012014 0.000000 -0.000840 0.000000
# 4 0.000000 0.000000 0.000000 0.054002 0.000000 -0.007044
# 5 0.005257 -0.001798 -0.000840 0.000000 0.038925 0.000000
# 6 0.000000 0.000000 0.000000 -0.007044 0.000000 0.039239
#
#
# Mechanical properties :
#
#
# Convention : Reuss Voigt Hill
#
# Bulk Modulus (GPa) = 53.50557 60.39488 56.95023
# Shear Modulus (GPa) = 22.60104 24.27131 23.43617
#
# Velocity S-wave (km/s) = 3.44499 3.57002 3.50806
# Velocity P-wave (km/s) = 6.62723 6.97906 6.80542
#
# Compressibility (1/GPa) = 0.01868964
#
# Stress axis : x y z
#
# Youngs Moduli (GPa) = 52.36789 50.88719 83.23604
#
# Poissons Ratio (x) = 0.28944 0.55500
# Poissons Ratio (y) = 0.29786 0.30632
# Poissons Ratio (z) = 0.34918 0.18727
#
# Static dielectric constant tensor:
#      x y z
#    x 3.466350 0.000000 -0.036530 
#    y 0.000000 3.544910 0.000000 
#    z -0.036530 0.000000 3.477090 
# 
# 
# High freq. dielectric constant tensor:
#      x y z
#    x 1.738510 0.000000 -0.013880 
#    y 0.000000 1.745970 0.000000 
#    z -0.013880 0.000000 1.742000 
# 
# From -- ./inp_files/36932.got.cif
#   From: 2010.06.25/outbox.cif.g09.slc.cpg/sg10_19_cif.got.tgz:36932.got - 2010.06.27 22:07:45.
