data_PCOD8061914
_publ_section_title
;
Structure prediction by ZEFSAII (Michael W. Deem and Ramdas Pophale) SiO2 
 PCOD8061914
Probable space group: P 2/M
;
_chemical_formula_sum "Si O2"
_cell_formula_units_Z 32
_cell_length_a 12.468694
_cell_length_b 8.850093
_cell_length_c 31.985658
_cell_angle_alpha 90.000000
_cell_angle_beta 153.240315
_cell_angle_gamma 90.000000
_cell_volume 1589.195086
_symmetry_space_group_name_H-M "P 2/M"
_symmetry_group_IT_number 10
_symmetry_cell_setting 'monoclinic'
loop_
_space_group_symop_operation_xyz
x,y,z
-x,y,-z
-x,-y,-z
x,-y,z
loop_
_atom_site_type_symbol
_atom_site_label
_atom_site_fract_x
_atom_site_fract_y
_atom_site_fract_z
Si Si1 0.432696 0.321044 0.802585
Si Si2 0.988040 0.676727 0.402856
Si Si3 0.760992 0.174088 0.852272
Si Si4 0.867468 0.321385 0.074505
Si Si5 0.431821 0.175933 0.584582
Si Si6 0.587004 0.824091 0.114713
Si Si7 0.042475 0.825059 0.218200
Si Si8 0.678876 0.172519 0.360676
O O1 0.461887 0.500000 0.809293
O O2 0.189085 0.265031 0.695258
O O3 0.661295 0.244344 0.860450
O O4 0.421723 0.271116 0.846238
O O5 0.008374 0.500000 0.408371
O O6 0.884535 0.727565 0.411572
O O7 0.254878 0.742866 0.490077
O O8 0.569472 0.192908 0.749177
O O9 0.993382 0.265460 0.918415
O O10 0.829226 0.000000 0.883873
O O11 0.833924 0.500000 0.060667
O O12 0.004214 0.276853 0.164215
O O13 0.611471 0.239414 0.986005
O O14 0.707369 0.220844 0.672953
O O15 0.360645 0.228679 0.606232
O O16 0.394632 0.000000 0.565308
O O17 0.841665 0.796057 0.182501
O O18 0.542381 0.000000 0.108329
O O19 0.050288 0.000000 0.206126
O O20 0.766522 0.000000 0.389357
#
# Coordination Sequence:
#
# PCOD8061914 Si02
#       8
#     4   4   4   4   4   4   4   4
#     4  10  22  41  60  84 122 157 195 244 294 346
#     4  10  21  34  52  82 118 154 189 232 287 346
#     4  10  19  36  61  88 120 156 196 239 288 345
#     4  12  24  38  61  92 124 153 187 235 299 359
#     4  10  19  34  56  83 114 150 192 238 287 337
#     4  11  24  42  65  86 110 153 204 247 291 344
#     4  10  22  42  63  87 118 152 196 248 291 339
#     4   9  17  31  53  80 114 153 189 231 284 339
#
# _framework density 20.135978999999999
#
# number of rings (size 3 to 8) (size 9 to 14) (size 15 to 20)
#    0.000    1.750    1.250    3.375    0.000    7.500 
#    0.000    3.125    0.000    3.750    0.000    0.000 
#    0.000    0.000    0.000    0.000    0.000    0.000 
#
# Total GULP energy -396894.729178 kJ/mol
# GULP energy per Si atom -12402.960287 kJ/mol
# Density = 2.009015 g / cm^3
# Si number density = 20.135979 Si / 1000 Ang^3
#
#
#
# Elastic Constant Matrix: (Units=GPa)
#
#
# Indices 1 2 3 4 5 6 
#
# 1 62.0191 23.7940 20.0265 0.0000 7.3688 0.0000
# 2 23.7940 65.7879 21.7483 0.0000 10.0439 0.0000
# 3 20.0265 21.7483 61.5274 0.0000 26.2321 0.0000
# 4 0.0000 0.0000 0.0000 32.6050 0.0000 -0.4156
# 5 7.3688 10.0439 26.2321 0.0000 28.0911 0.0000
# 6 0.0000 0.0000 0.0000 -0.4156 0.0000 13.4685
#
#
#
# Elastic Compliance Matrix: (Units=1/GPa)
#
#
# Indices 1 2 3 4 5 6 
#
# 1 0.019772 -0.005710 -0.005111 0.000000 0.001628 0.000000
# 2 -0.005710 0.018871 -0.004276 0.000000 -0.001256 0.000000
# 3 -0.005111 -0.004276 0.030247 0.000000 -0.025376 0.000000
# 4 0.000000 0.000000 0.000000 0.030682 0.000000 0.000947
# 5 0.001628 -0.001256 -0.025376 0.000000 0.059317 0.000000
# 6 0.000000 0.000000 0.000000 0.000947 0.000000 0.074276
#
#
# Mechanical properties :
#
#
# Convention : Reuss Voigt Hill
#
# Bulk Modulus (GPa) = 25.84343 35.60801 30.72572
# Shear Modulus (GPa) = 18.09898 23.08395 20.59147
#
# Velocity S-wave (km/s) = 3.00132 3.38953 3.20131
# Velocity P-wave (km/s) = 4.98727 5.74811 5.38115
#
# Compressibility (1/GPa) = 0.03869455
#
# Stress axis : x y z
#
# Youngs Moduli (GPa) = 50.57726 52.99156 33.06109
#
# Poissons Ratio (x) = 0.30257 0.16899
# Poissons Ratio (y) = 0.28879 0.14138
# Poissons Ratio (z) = 0.25852 0.22661
#
# Static dielectric constant tensor:
#      x y z
#    x 3.505160 0.000000 0.193720 
#    y 0.000000 3.580780 0.000000 
#    z 0.193720 0.000000 3.917340 
# 
# 
# High freq. dielectric constant tensor:
#      x y z
#    x 1.767860 0.000000 0.012570 
#    y 0.000000 1.783540 0.000000 
#    z 0.012570 0.000000 1.797830 
# 
# From -- ./inp_files/95087.got.cif
#   From: 2010.06.25/outbox.cif.g09.slc.cpg/sg10_48_cif.got.tgz:95087.got - 2010.06.27 22:07:45.
