data_PCOD8061218
_publ_section_title
;
Structure prediction by ZEFSAII (Michael W. Deem and Ramdas Pophale) SiO2 
 PCOD8061218
Probable space group: P 2/M
;
_chemical_formula_sum "Si O2"
_cell_formula_units_Z 32
_cell_length_a 21.856347
_cell_length_b 9.095869
_cell_length_c 28.070050
_cell_angle_alpha 90.000000
_cell_angle_beta 17.280417
_cell_angle_gamma 90.000000
_cell_volume 1657.648212
_symmetry_space_group_name_H-M "P 2/M"
_symmetry_group_IT_number 10
_symmetry_cell_setting 'monoclinic'
loop_
_space_group_symop_operation_xyz
x,y,z
-x,y,-z
-x,-y,-z
x,-y,z
loop_
_atom_site_type_symbol
_atom_site_label
_atom_site_fract_x
_atom_site_fract_y
_atom_site_fract_z
Si Si1 0.096357 0.166912 0.067167
Si Si2 0.235060 0.165979 0.235163
Si Si3 0.391872 0.674276 0.406921
Si Si4 0.042009 0.824454 0.726883
Si Si5 0.658706 0.836508 0.953486
Si Si6 0.887817 0.329089 0.535548
Si Si7 0.133996 0.327371 0.944162
Si Si8 0.424655 0.168309 0.286076
O O1 0.040654 0.262541 0.062443
O O2 0.335381 0.185516 0.901411
O O3 0.042902 0.000000 0.093868
O O4 0.970418 0.216209 0.207777
O O5 0.279657 0.157518 0.146803
O O6 0.046495 0.278773 0.377045
O O7 0.181362 0.000000 0.292800
O O8 0.426755 0.231920 0.124704
O O9 0.357908 0.500000 0.431815
O O10 0.246097 0.747187 0.554905
O O11 0.629133 0.717101 0.241644
O O12 0.339802 0.739168 0.393931
O O13 0.836648 0.758697 0.853041
O O14 0.059080 0.000000 0.706359
O O15 0.638949 0.000000 0.989368
O O16 0.836839 0.500000 0.570671
O O17 0.678346 0.237028 0.684591
O O18 0.000000 0.280566 0.500000
O O19 0.109845 0.500000 0.966956
O O20 0.000000 0.265286 0.000000
O O21 0.358733 0.000000 0.342724
#
# Coordination Sequence:
#
# PCOD8061218 Si02
#       8
#     4   4   4   4   4   4   4   4
#     4   9  20  35  55  85 114 142 181 227 272 320
#     4   9  17  32  52  72  92 126 179 223 269 323
#     4  10  20  35  57  85 112 141 179 220 266 320
#     4  10  19  33  53  79 114 146 178 222 272 322
#     4   8  16  30  51  74  97 128 169 220 266 315
#     4  11  24  36  46  68 104 138 174 225 279 323
#     4   9  19  38  62  84 110 147 185 219 260 317
#     4  10  20  36  57  78 102 139 187 230 271 325
#
# _framework density 19.304456999999999
#
# number of rings (size 3 to 8) (size 9 to 14) (size 15 to 20)
#    0.000    2.500    0.000    2.625    1.750    3.750 
#    0.000    2.500    0.000    3.750    0.000    0.000 
#    0.000    0.000    0.000    0.000    0.000    0.000 
#
# Total GULP energy -396577.567882 kJ/mol
# GULP energy per Si atom -12393.048996 kJ/mol
# Density = 1.926052 g / cm^3
# Si number density = 19.304457 Si / 1000 Ang^3
#
#
#
# Elastic Constant Matrix: (Units=GPa)
#
#
# Indices 1 2 3 4 5 6 
#
# 1 114.8949 44.9576 38.8942 0.0000 -6.5296 0.0000
# 2 44.9576 57.8456 26.1743 0.0000 1.2642 0.0000
# 3 38.8942 26.1743 54.8933 0.0000 6.6447 0.0000
# 4 0.0000 0.0000 0.0000 20.6439 0.0000 -0.9371
# 5 -6.5296 1.2642 6.6447 0.0000 30.0876 0.0000
# 6 0.0000 0.0000 0.0000 -0.9371 0.0000 27.7450
#
#
#
# Elastic Compliance Matrix: (Units=1/GPa)
#
#
# Indices 1 2 3 4 5 6 
#
# 1 0.014610 -0.008293 -0.007011 0.000000 0.005067 0.000000
# 2 -0.008293 0.026811 -0.006734 0.000000 -0.001439 0.000000
# 3 -0.007011 -0.006734 0.027274 0.000000 -0.007262 0.000000
# 4 0.000000 0.000000 0.000000 0.048515 0.000000 0.001639
# 5 0.005067 -0.001439 -0.007262 0.000000 0.036000 0.000000
# 6 0.000000 0.000000 0.000000 0.001639 0.000000 0.036098
#
#
# Mechanical properties :
#
#
# Convention : Reuss Voigt Hill
#
# Bulk Modulus (GPa) = 40.61745 49.74287 45.18016
# Shear Modulus (GPa) = 20.69608 23.53579 22.11594
#
# Velocity S-wave (km/s) = 3.27783 3.49548 3.38840
# Velocity P-wave (km/s) = 5.95077 6.48958 6.22601
#
# Compressibility (1/GPa) = 0.02461996
#
# Stress axis : x y z
#
# Youngs Moduli (GPa) = 68.44621 37.29752 36.66438
#
# Poissons Ratio (x) = 0.30932 0.25704
# Poissons Ratio (y) = 0.56765 0.24689
# Poissons Ratio (z) = 0.47986 0.25116
#
# Static dielectric constant tensor:
#      x y z
#    x 3.642750 0.000000 -0.167220 
#    y 0.000000 3.349590 0.000000 
#    z -0.167220 0.000000 3.753650 
# 
# 
# High freq. dielectric constant tensor:
#      x y z
#    x 1.749430 0.000000 0.000470 
#    y 0.000000 1.730310 0.000000 
#    z 0.000470 0.000000 1.747280 
# 
# From -- ./inp_files/93610.got.cif
#   From: 2010.06.25/outbox.cif.g09.slc.cpg/sg10_47_cif.got.tgz:93610.got - 2010.06.27 22:07:45.
