data_PCOD8061008
_publ_section_title
;
Structure prediction by ZEFSAII (Michael W. Deem and Ramdas Pophale) SiO2 
 PCOD8061008
Probable space group: P 2/M
;
_chemical_formula_sum "Si O2"
_cell_formula_units_Z 26
_cell_length_a 29.999388
_cell_length_b 7.999282
_cell_length_c 29.999030
_cell_angle_alpha 90.000000
_cell_angle_beta 170.069575
_cell_angle_gamma 90.000000
_cell_volume 1241.478825
_symmetry_space_group_name_H-M "P 2/M"
_symmetry_group_IT_number 10
_symmetry_cell_setting 'monoclinic'
loop_
_space_group_symop_operation_xyz
x,y,z
-x,y,-z
-x,-y,-z
x,-y,z
loop_
_atom_site_type_symbol
_atom_site_label
_atom_site_fract_x
_atom_site_fract_y
_atom_site_fract_z
Si Si1 0.765061 0.500000 0.234912
Si Si2 0.370554 0.691338 0.616844
Si Si3 0.672459 0.808905 0.328179
Si Si4 0.529902 0.804477 0.578698
Si Si5 0.894042 0.700244 0.092904
Si Si6 0.201208 0.195283 0.799030
Si Si7 0.005162 0.304391 0.104243
O O1 0.778745 0.326578 0.221197
O O2 0.000000 0.500000 0.500000
O O3 0.500000 0.500000 0.000000
O O4 0.377719 0.500000 0.609488
O O5 0.351197 0.700199 0.650926
O O6 0.124421 0.774915 0.350308
O O7 0.631493 0.776284 0.855156
O O8 0.936939 0.764652 0.564028
O O9 0.665534 0.000000 0.336452
O O10 0.437084 0.765234 0.064018
O O11 0.500000 0.722808 0.500000
O O12 0.293510 0.752720 0.376999
O O13 0.534842 0.000000 0.578778
O O14 0.802591 0.748521 0.867265
O O15 0.892135 0.500000 0.092365
O O16 0.925681 0.770714 0.073920
O O17 0.208930 0.000000 0.790061
O O18 0.006950 0.500000 0.109926
#
# Coordination Sequence:
#
# PCOD8061008 Si02
#       7
#     2   4   4   4   4   4   4
#     4  12  26  42  66  96 122 158 208 252 296 368
#     4  10  19  32  56  83 112 152 194 237 284 346
#     4  10  21  38  58  86 121 157 195 243 296 341
#     4  11  24  41  59  84 118 151 190 246 310 370
#     4   9  19  35  52  81 116 148 190 238 294 344
#     4  10  23  41  62  88 125 161 197 251 306 354
#     4  11  22  39  64  86 115 155 198 250 295 360
#
# _framework density 20.942765999999999
#
# number of rings (size 3 to 8) (size 9 to 14) (size 15 to 20)
#    0.000    1.692    0.000    4.154    2.154    6.154 
#    0.000    4.615    0.000    0.000    0.000    0.000 
#    0.000    0.000    0.000    0.000    0.000    0.000 
#
# Total GULP energy -322424.549819 kJ/mol
# GULP energy per Si atom -12400.944224 kJ/mol
# Density = 2.089510 g / cm^3
# Si number density = 20.942766 Si / 1000 Ang^3
#
#
#
# Elastic Constant Matrix: (Units=GPa)
#
#
# Indices 1 2 3 4 5 6 
#
# 1 134.0549 37.4084 54.9048 0.0000 0.9223 0.0000
# 2 37.4084 55.2477 20.4545 0.0000 -1.1286 0.0000
# 3 54.9048 20.4545 164.0568 0.0000 2.6883 0.0000
# 4 0.0000 0.0000 0.0000 19.9402 0.0000 31.1371
# 5 0.9223 -1.1286 2.6883 0.0000 43.0310 0.0000
# 6 0.0000 0.0000 0.0000 31.1371 0.0000 -47.9274
#
#
#
# Elastic Compliance Matrix: (Units=1/GPa)
#
#
# Indices 1 2 3 4 5 6 
#
# 1 0.010211 -0.005928 -0.002675 0.000000 -0.000207 0.000000
# 2 -0.005928 0.022435 -0.000826 0.000000 0.000767 0.000000
# 3 -0.002675 -0.000826 0.007100 0.000000 -0.000408 0.000000
# 4 0.000000 0.000000 0.000000 0.024895 0.000000 0.016173
# 5 -0.000207 0.000767 -0.000408 0.000000 0.023289 0.000000
# 6 0.000000 0.000000 0.000000 0.016173 0.000000 -0.010357
#
#
# Mechanical properties :
#
#
# Convention : Reuss Voigt Hill
#
# Bulk Modulus (GPa) = 47.87079 64.32165 56.09622
# Shear Modulus (GPa) = 48.35932 19.04822 33.70377
#
# Velocity S-wave (km/s) = 4.81054 3.01912 4.01599
# Velocity P-wave (km/s) = 7.33230 6.55235 6.95327
#
# Compressibility (1/GPa) = 0.02088957
#
# Stress axis : x y z
#
# Youngs Moduli (GPa) = 97.93670 44.57244 140.83959
#
# Poissons Ratio (x) = 0.26421 0.37671
# Poissons Ratio (y) = 0.58053 0.11633
# Poissons Ratio (z) = 0.26196 0.03682
#
# Static dielectric constant tensor:
#      x y z
#    x 3.947320 0.000000 0.011990 
#    y 0.000000 3.622710 0.000000 
#    z 0.011990 0.000000 4.097320 
# 
# 
# High freq. dielectric constant tensor:
#      x y z
#    x 1.825970 0.000000 0.001700 
#    y 0.000000 1.805910 0.000000 
#    z 0.001700 0.000000 1.844760 
# 
# From -- ./inp_files/95945.got.cif
#   From: 2010.06.25/outbox.cif.g09.slc.cpg/sg10_48_cif.got.tgz:95945.got - 2010.06.27 22:07:45.
