data_PCOD8061244
_publ_section_title
;
Structure prediction by ZEFSAII (Michael W. Deem and Ramdas Pophale) SiO2 
 PCOD8061244
Probable space group: P 2/M
;
_chemical_formula_sum "Si O2"
_cell_formula_units_Z 24
_cell_length_a 24.388803
_cell_length_b 8.815794
_cell_length_c 18.052073
_cell_angle_alpha 90.000000
_cell_angle_beta 19.286626
_cell_angle_gamma 90.000000
_cell_volume 1281.975696
_symmetry_space_group_name_H-M "P 2/M"
_symmetry_group_IT_number 10
_symmetry_cell_setting 'monoclinic'
loop_
_space_group_symop_operation_xyz
x,y,z
-x,y,-z
-x,-y,-z
x,-y,z
loop_
_atom_site_type_symbol
_atom_site_label
_atom_site_fract_x
_atom_site_fract_y
_atom_site_fract_z
Si Si1 0.665691 0.825894 0.257189
Si Si2 0.838869 0.321367 0.424011
Si Si3 0.994249 0.825270 0.924475
Si Si4 0.487585 0.679378 0.933098
Si Si5 0.173247 0.321363 0.241345
Si Si6 0.131024 0.180482 0.138089
O O1 0.500000 0.743054 0.500000
O O2 0.622182 0.000000 0.297155
O O3 0.805454 0.806808 0.140634
O O4 0.731363 0.756776 0.095849
O O5 0.862672 0.500000 0.400573
O O6 0.649463 0.272106 0.680369
O O7 0.883651 0.268258 0.284264
O O8 0.952305 0.245512 0.342505
O O9 0.052121 0.000000 0.848166
O O10 0.000000 0.759174 0.000000
O O11 0.473424 0.500000 0.957320
O O12 0.500000 0.749108 0.000000
O O13 0.322479 0.740096 0.102647
O O14 0.186811 0.500000 0.209285
O O15 0.186568 0.235107 0.147137
O O16 0.000000 0.278106 0.500000
O O17 0.118124 0.000000 0.150889
#
# Coordination Sequence:
#
# PCOD8061244 Si02
#       6
#     4   4   4   4   4   4
#     4   8  15  29  48  69  94 128 167 203 244 295
#     4  10  19  33  54  76 102 137 173 211 253 299
#     4   9  18  32  50  72 100 134 170 209 253 301
#     4   9  18  33  53  77 102 131 170 210 250 301
#     4  10  20  35  56  78 101 133 171 210 254 304
#     4  10  20  34  53  77 105 135 169 211 256 303
#
# _framework density 18.721102999999999
#
# number of rings (size 3 to 8) (size 9 to 14) (size 15 to 20)
#    0.000    2.667    0.000    3.000    0.000    4.667 
#    0.000    3.333    0.000   16.000    0.000    0.000 
#    0.000    0.000    0.000    0.000    0.000    0.000 
#
# Total GULP energy -297554.175196 kJ/mol
# GULP energy per Si atom -12398.090633 kJ/mol
# Density = 1.867849 g / cm^3
# Si number density = 18.721103 Si / 1000 Ang^3
#
#
#
# Elastic Constant Matrix: (Units=GPa)
#
#
# Indices 1 2 3 4 5 6 
#
# 1 162.3284 32.1298 78.4950 0.0000 5.2172 0.0000
# 2 32.1298 41.8773 35.1926 0.0000 1.8795 0.0000
# 3 78.4950 35.1926 160.4447 0.0000 -5.0548 0.0000
# 4 0.0000 0.0000 0.0000 17.6221 0.0000 3.3035
# 5 5.2172 1.8795 -5.0548 0.0000 24.2082 0.0000
# 6 0.0000 0.0000 0.0000 3.3035 0.0000 30.3888
#
#
#
# Elastic Compliance Matrix: (Units=1/GPa)
#
#
# Indices 1 2 3 4 5 6 
#
# 1 0.008643 -0.003570 -0.003518 0.000000 -0.002320 0.000000
# 2 -0.003570 0.031072 -0.005154 0.000000 -0.002719 0.000000
# 3 -0.003518 -0.005154 0.009181 0.000000 0.003076 0.000000
# 4 0.000000 0.000000 0.000000 0.057927 0.000000 -0.006297
# 5 -0.002320 -0.002719 0.003076 0.000000 0.042662 0.000000
# 6 0.000000 0.000000 0.000000 -0.006297 0.000000 0.033591
#
#
# Mechanical properties :
#
#
# Convention : Reuss Voigt Hill
#
# Bulk Modulus (GPa) = 40.96621 72.92058 56.94340
# Shear Modulus (GPa) = 23.18033 29.03269 26.10651
#
# Velocity S-wave (km/s) = 3.52261 3.94229 3.73835
# Velocity P-wave (km/s) = 6.20282 7.73032 7.00831
#
# Compressibility (1/GPa) = 0.02441036
#
# Stress axis : x y z
#
# Youngs Moduli (GPa) = 115.70147 32.18306 108.91471
#
# Poissons Ratio (x) = 0.11490 0.38320
# Poissons Ratio (y) = 0.41309 0.56140
# Poissons Ratio (z) = 0.40708 0.16589
#
# Static dielectric constant tensor:
#      x y z
#    x 3.563650 0.000000 0.076580 
#    y 0.000000 3.110640 0.000000 
#    z 0.076580 0.000000 3.704880 
# 
# 
# High freq. dielectric constant tensor:
#      x y z
#    x 1.734040 0.000000 0.006400 
#    y 0.000000 1.691600 0.000000 
#    z 0.006400 0.000000 1.737030 
# 
# From -- ./inp_files/77895.got.cif
#   From: 2010.06.25/outbox.cif.g09.slc.cpg/sg10_39_cif.got.tgz:77895.got - 2010.06.27 22:07:45.
