data_PCOD8061453
_publ_section_title
;
Structure prediction by ZEFSAII (Michael W. Deem and Ramdas Pophale) SiO2 
 PCOD8061453
Probable space group: P 2/M
;
_chemical_formula_sum "Si O2"
_cell_formula_units_Z 20
_cell_length_a 23.325509
_cell_length_b 8.576906
_cell_length_c 5.110279
_cell_angle_alpha 90.000000
_cell_angle_beta 109.063276
_cell_angle_gamma 90.000000
_cell_volume 966.297849
_symmetry_space_group_name_H-M "P 2/M"
_symmetry_group_IT_number 10
_symmetry_cell_setting 'monoclinic'
loop_
_space_group_symop_operation_xyz
x,y,z
-x,y,-z
-x,-y,-z
x,-y,z
loop_
_atom_site_type_symbol
_atom_site_label
_atom_site_fract_x
_atom_site_fract_y
_atom_site_fract_z
Si Si1 0.960442 0.820208 0.686199
Si Si2 0.831209 0.318974 0.462092
Si Si3 0.567215 0.683251 0.078780
Si Si4 0.772020 0.818222 0.874280
Si Si5 0.641447 0.683621 0.680596
O O1 0.901399 0.714350 0.619883
O O2 0.000000 0.764993 0.500000
O O3 0.940361 0.000000 0.626400
O O4 0.000000 0.792528 0.000000
O O5 0.817750 0.500000 0.478672
O O6 0.789450 0.227994 0.605873
O O7 0.814995 0.269477 0.143751
O O8 0.561831 0.500000 0.116873
O O9 0.611388 0.748453 0.370105
O O10 0.500000 0.758026 0.000000
O O11 0.594561 0.724746 0.839599
O O12 0.702727 0.775862 0.826215
O O13 0.782480 0.000000 0.929075
O O14 0.656187 0.500000 0.691722
#
# Coordination Sequence:
#
# PCOD8061453 Si02
#       5
#     4   4   4   4   4
#     4  10  21  38  61  89 123 161 198 239 295 361
#     4  12  25  42  65  93 124 158 204 257 304 352
#     4   9  17  30  52  82 113 147 190 241 294 349
#     4  12  25  42  63  88 123 164 205 248 305 370
#     4  10  19  33  55  82 113 149 195 246 292 346
#
# _framework density 20.697552000000002
#
# number of rings (size 3 to 8) (size 9 to 14) (size 15 to 20)
#    0.000    1.400    0.000    6.600    0.000    6.400 
#    0.000    0.000    0.000    3.600    0.000    0.000 
#    0.000    0.000    0.000    0.000    0.000    0.000 
#
# Total GULP energy -248131.009835 kJ/mol
# GULP energy per Si atom -12406.550492 kJ/mol
# Density = 2.065044 g / cm^3
# Si number density = 20.697552 Si / 1000 Ang^3
#
#
#
# Elastic Constant Matrix: (Units=GPa)
#
#
# Indices 1 2 3 4 5 6 
#
# 1 94.9827 35.4732 16.3227 0.0000 6.9297 0.0000
# 2 35.4732 61.7350 17.0821 0.0000 8.1064 0.0000
# 3 16.3227 17.0821 94.7028 0.0000 -0.8281 0.0000
# 4 0.0000 0.0000 0.0000 26.0940 0.0000 -1.8196
# 5 6.9297 8.1064 -0.8281 0.0000 36.6219 0.0000
# 6 0.0000 0.0000 0.0000 -1.8196 0.0000 -1.6561
#
#
#
# Elastic Compliance Matrix: (Units=1/GPa)
#
#
# Indices 1 2 3 4 5 6 
#
# 1 0.013522 -0.007365 -0.001010 0.000000 -0.000951 0.000000
# 2 -0.007365 0.021620 -0.002660 0.000000 -0.003452 0.000000
# 3 -0.001010 -0.002660 0.011222 0.000000 0.001034 0.000000
# 4 0.000000 0.000000 0.000000 0.035596 0.000000 -0.039111
# 5 -0.000951 -0.003452 0.001034 0.000000 0.028274 0.000000
# 6 0.000000 0.000000 0.000000 -0.039111 0.000000 -0.560864
#
#
# Mechanical properties :
#
#
# Convention : Reuss Voigt Hill
#
# Bulk Modulus (GPa) = 41.16589 43.24185 42.20387
# Shear Modulus (GPa) = -11.89172 24.38146 6.24487
#
# Velocity S-wave (km/s) = -2.39957 3.43591 1.73889
# Velocity P-wave (km/s) = 3.50074 6.05625 4.94638
#
# Compressibility (1/GPa) = 0.02429196
#
# Stress axis : x y z
#
# Youngs Moduli (GPa) = 73.95360 46.25382 89.10731
#
# Poissons Ratio (x) = 0.34067 0.09003
# Poissons Ratio (y) = 0.54469 0.23706
# Poissons Ratio (z) = 0.07472 0.12305
#
# Static dielectric constant tensor:
#      x y z
#    x 3.796760 0.000000 -0.006520 
#    y 0.000000 3.493840 0.000000 
#    z -0.006520 0.000000 3.921830 
# 
# 
# High freq. dielectric constant tensor:
#      x y z
#    x 1.824770 0.000000 -0.000570 
#    y 0.000000 1.780440 0.000000 
#    z -0.000570 0.000000 1.829090 
# 
# From -- ./inp_files/11990.got.cif
#   From: 2010.06.25/outbox.cif.g09.slc.cpg/sg10_6_cif.got.tgz:11990.got - 2010.06.27 22:07:45.
