data_PCOD8061893
_publ_section_title
;
Structure prediction by ZEFSAII (Michael W. Deem and Ramdas Pophale) SiO2 
 PCOD8061893
Probable space group: P 2/M
;
_chemical_formula_sum "Si O2"
_cell_formula_units_Z 32
_cell_length_a 15.261784
_cell_length_b 9.052012
_cell_length_c 22.299584
_cell_angle_alpha 90.000000
_cell_angle_beta 32.113170
_cell_angle_gamma 90.000000
_cell_volume 1637.671048
_symmetry_space_group_name_H-M "P 2/M"
_symmetry_group_IT_number 10
_symmetry_cell_setting 'monoclinic'
loop_
_space_group_symop_operation_xyz
x,y,z
-x,y,-z
-x,-y,-z
x,-y,z
loop_
_atom_site_type_symbol
_atom_site_label
_atom_site_fract_x
_atom_site_fract_y
_atom_site_fract_z
Si Si1 0.105741 0.673549 0.801269
Si Si2 0.021174 0.830269 0.362929
Si Si3 0.332082 0.170601 0.380365
Si Si4 0.922827 0.174111 0.804920
Si Si5 0.161529 0.165126 0.971806
Si Si6 0.337573 0.830023 0.748526
Si Si7 0.398921 0.833269 0.938951
Si Si8 0.293446 0.325642 0.277105
O O1 0.117437 0.500000 0.786778
O O2 0.280638 0.735070 0.724129
O O3 0.064247 0.745001 0.761154
O O4 0.965340 0.714011 0.930929
O O5 0.060959 0.775839 0.272891
O O6 0.120026 0.731759 0.352748
O O7 0.828174 0.809045 0.485863
O O8 0.074516 0.000000 0.341048
O O9 0.485604 0.227071 0.331069
O O10 0.317289 0.268260 0.330125
O O11 0.357601 0.000000 0.346176
O O12 0.948735 0.000000 0.798553
O O13 0.742134 0.221799 0.933352
O O14 0.199993 0.192080 0.880058
O O15 0.332426 0.176499 0.909388
O O16 0.086632 0.000000 0.025226
O O17 0.350314 0.000000 0.721751
O O18 0.559155 0.730438 0.851564
O O19 0.452274 0.000000 0.924147
O O20 0.292438 0.500000 0.278069
#
# Coordination Sequence:
#
# PCOD8061893 Si02
#       8
#     4   4   4   4   4   4   4   4
#     4  11  22  33  51  82 117 151 184 224 278 339
#     4  10  22  41  65  85 105 143 196 243 280 326
#     4  10  21  40  63  86 111 144 190 240 281 325
#     4   9  20  40  62  83 109 147 193 238 280 325
#     4   9  17  32  54  79 111 150 187 228 278 329
#     4  10  19  34  56  81 110 146 188 231 278 329
#     4   9  17  34  58  83 113 148 188 231 277 329
#     4  12  24  36  56  87 122 151 180 224 286 347
#
# _framework density 19.539943000000001
#
# number of rings (size 3 to 8) (size 9 to 14) (size 15 to 20)
#    0.000    2.000    1.250    3.750    0.000    7.500 
#    0.000    3.125    0.000    3.750    0.000    0.000 
#    0.000    0.000    0.000    0.000    0.000    0.000 
#
# Total GULP energy -396888.088695 kJ/mol
# GULP energy per Si atom -12402.752772 kJ/mol
# Density = 1.949547 g / cm^3
# Si number density = 19.539943 Si / 1000 Ang^3
#
#
#
# Elastic Constant Matrix: (Units=GPa)
#
#
# Indices 1 2 3 4 5 6 
#
# 1 80.2015 46.3925 42.7668 0.0000 -18.1128 0.0000
# 2 46.3925 95.4228 35.4299 0.0000 -9.3578 0.0000
# 3 42.7668 35.4299 67.7667 0.0000 -3.2856 0.0000
# 4 0.0000 0.0000 0.0000 6.2337 0.0000 1.8061
# 5 -18.1128 -9.3578 -3.2856 0.0000 27.1498 0.0000
# 6 0.0000 0.0000 0.0000 1.8061 0.0000 12.9869
#
#
#
# Elastic Compliance Matrix: (Units=1/GPa)
#
#
# Indices 1 2 3 4 5 6 
#
# 1 0.025909 -0.006758 -0.012164 0.000000 0.013484 0.000000
# 2 -0.006758 0.015143 -0.003639 0.000000 0.000271 0.000000
# 3 -0.012164 -0.003639 0.024023 0.000000 -0.006462 0.000000
# 4 0.000000 0.000000 0.000000 0.167152 0.000000 -0.023246
# 5 0.013484 0.000271 -0.006462 0.000000 0.045140 0.000000
# 6 0.000000 0.000000 0.000000 -0.023246 0.000000 0.080233
#
#
# Mechanical properties :
#
#
# Convention : Reuss Voigt Hill
#
# Bulk Modulus (GPa) = 50.11919 54.72994 52.42456
# Shear Modulus (GPa) = 12.21380 17.19421 14.70401
#
# Velocity S-wave (km/s) = 2.50285 2.96962 2.74617
# Velocity P-wave (km/s) = 5.83589 6.31096 6.07807
#
# Compressibility (1/GPa) = 0.01995244
#
# Stress axis : x y z
#
# Youngs Moduli (GPa) = 38.59621 66.03767 41.62755
#
# Poissons Ratio (x) = 0.44626 0.50637
# Poissons Ratio (y) = 0.26082 0.15149
# Poissons Ratio (z) = 0.46949 0.24032
#
# Static dielectric constant tensor:
#      x y z
#    x 3.606730 0.000000 -0.110360 
#    y 0.000000 3.317260 0.000000 
#    z -0.110360 0.000000 3.521650 
# 
# 
# High freq. dielectric constant tensor:
#      x y z
#    x 1.764610 0.000000 -0.012620 
#    y 0.000000 1.738710 0.000000 
#    z -0.012620 0.000000 1.750930 
# 
# From -- ./inp_files/89518.got.cif
#   From: 2010.06.25/outbox.cif.g09.slc.cpg/sg10_45_cif.got.tgz:89518.got - 2010.06.27 22:07:45.
