data_PCOD8061681
_publ_section_title
;
Structure prediction by ZEFSAII (Michael W. Deem and Ramdas Pophale) SiO2 
 PCOD8061681
Probable space group: P 2/M
;
_chemical_formula_sum "Si O2"
_cell_formula_units_Z 32
_cell_length_a 12.161853
_cell_length_b 9.151153
_cell_length_c 20.075549
_cell_angle_alpha 90.000000
_cell_angle_beta 125.719084
_cell_angle_gamma 90.000000
_cell_volume 1814.010166
_symmetry_space_group_name_H-M "P 2/M"
_symmetry_group_IT_number 10
_symmetry_cell_setting 'monoclinic'
loop_
_space_group_symop_operation_xyz
x,y,z
-x,y,-z
-x,-y,-z
x,-y,z
loop_
_atom_site_type_symbol
_atom_site_label
_atom_site_fract_x
_atom_site_fract_y
_atom_site_fract_z
Si Si1 0.617303 0.667588 0.873375
Si Si2 0.148149 0.173554 0.292452
Si Si3 0.314284 0.831801 0.227558
Si Si4 0.313173 0.672366 0.736297
Si Si5 0.652526 0.668903 0.036441
Si Si6 0.158249 0.826436 0.795228
Si Si7 0.623873 0.168828 0.369935
Si Si8 0.356715 0.826286 0.474203
O O1 0.625438 0.500000 0.855751
O O2 0.705552 0.753747 0.850425
O O3 0.460284 0.716535 0.817176
O O4 0.679402 0.696257 0.967940
O O5 0.208575 0.233090 0.243966
O O6 0.236402 0.235918 0.385306
O O7 0.994601 0.225687 0.245434
O O8 0.159774 0.000000 0.296605
O O9 0.463382 0.805857 0.309409
O O10 0.284645 0.000000 0.203659
O O11 0.287783 0.500000 0.729076
O O12 0.202809 0.752217 0.742397
O O13 0.298049 0.731254 0.655810
O O14 0.677718 0.500000 0.065418
O O15 0.752892 0.772668 0.111598
O O16 0.500000 0.713349 0.000000
O O17 0.170892 0.000000 0.793129
O O18 0.672533 0.220333 0.460025
O O19 0.659916 0.000000 0.368747
O O20 0.500000 0.760869 0.500000
O O21 0.364190 0.000000 0.472493
#
# Coordination Sequence:
#
# PCOD8061681 Si02
#       8
#     4   4   4   4   4   4   4   4
#     4   9  18  32  52  75  98 127 167 212 254 299
#     4   9  18  32  49  75 110 141 165 204 260 310
#     4   9  16  29  50  76 105 132 163 206 255 300
#     4  10  19  34  52  71 102 140 171 206 260 308
#     4  10  19  36  56  74  99 133 173 213 256 304
#     4  11  22  34  51  77 107 135 170 211 254 306
#     4   9  16  27  51  83 103 124 170 221 254 292
#     4   9  14  26  51  80 106 133 170 212 255 300
#
# _framework density 17.640473
#
# number of rings (size 3 to 8) (size 9 to 14) (size 15 to 20)
#    0.000    2.500    2.500    0.750    0.000    1.250 
#    0.000    2.500    0.000   10.125    0.000    0.000 
#    0.000    0.000    0.000    0.000    0.000    0.000 
#
# Total GULP energy -396791.364299 kJ/mol
# GULP energy per Si atom -12399.730134 kJ/mol
# Density = 1.760032 g / cm^3
# Si number density = 17.640473 Si / 1000 Ang^3
#
#
#
# Elastic Constant Matrix: (Units=GPa)
#
#
# Indices 1 2 3 4 5 6 
#
# 1 145.9083 52.1474 72.0001 0.0000 -15.5375 0.0000
# 2 52.1474 53.7540 37.2547 0.0000 -6.6541 0.0000
# 3 72.0001 37.2547 102.3141 0.0000 -10.3453 0.0000
# 4 0.0000 0.0000 0.0000 11.8075 0.0000 -0.0648
# 5 -15.5375 -6.6541 -10.3453 0.0000 27.3349 0.0000
# 6 0.0000 0.0000 0.0000 -0.0648 0.0000 13.9706
#
#
#
# Elastic Compliance Matrix: (Units=1/GPa)
#
#
# Indices 1 2 3 4 5 6 
#
# 1 0.012997 -0.008157 -0.005854 0.000000 0.003186 0.000000
# 2 -0.008157 0.030200 -0.005180 0.000000 0.000755 0.000000
# 3 -0.005854 -0.005180 0.015925 0.000000 0.001439 0.000000
# 4 0.000000 0.000000 0.000000 0.084694 0.000000 0.000393
# 5 0.003186 0.000755 0.001439 0.000000 0.039123 0.000000
# 6 0.000000 0.000000 0.000000 0.000393 0.000000 0.071581
#
#
# Mechanical properties :
#
#
# Convention : Reuss Voigt Hill
#
# Bulk Modulus (GPa) = 48.21559 69.42008 58.81784
# Shear Modulus (GPa) = 16.67704 19.99421 18.33563
#
# Velocity S-wave (km/s) = 3.07805 3.37030 3.22748
# Velocity P-wave (km/s) = 6.32647 7.38805 6.87777
#
# Compressibility (1/GPa) = 0.02074018
#
# Stress axis : x y z
#
# Youngs Moduli (GPa) = 76.94194 33.11288 62.79505
#
# Poissons Ratio (x) = 0.27010 0.36759
# Poissons Ratio (y) = 0.62761 0.32527
# Poissons Ratio (z) = 0.45040 0.17152
#
# Static dielectric constant tensor:
#      x y z
#    x 3.339310 0.000000 -0.175060 
#    y 0.000000 3.019560 0.000000 
#    z -0.175060 0.000000 3.300210 
# 
# 
# High freq. dielectric constant tensor:
#      x y z
#    x 1.681100 0.000000 -0.022970 
#    y 0.000000 1.655110 0.000000 
#    z -0.022970 0.000000 1.674380 
# 
# From -- ./inp_files/55373.got.cif
#   From: 2010.06.25/outbox.cif.g09.slc.cpg/sg10_28_cif.got.tgz:55373.got - 2010.06.27 22:07:45.
