data_PCOD8061198
_publ_section_title
;
Structure prediction by ZEFSAII (Michael W. Deem and Ramdas Pophale) SiO2 
 PCOD8061198
Probable space group: P 2/M
;
_chemical_formula_sum "Si O2"
_cell_formula_units_Z 32
_cell_length_a 14.649147
_cell_length_b 12.569477
_cell_length_c 13.450846
_cell_angle_alpha 90.000000
_cell_angle_beta 139.664717
_cell_angle_gamma 90.000000
_cell_volume 1603.088328
_symmetry_space_group_name_H-M "P 2/M"
_symmetry_group_IT_number 10
_symmetry_cell_setting 'monoclinic'
loop_
_space_group_symop_operation_xyz
x,y,z
-x,y,-z
-x,-y,-z
x,-y,z
loop_
_atom_site_type_symbol
_atom_site_label
_atom_site_fract_x
_atom_site_fract_y
_atom_site_fract_z
Si Si1 0.935647 0.116602 0.676838
Si Si2 0.155478 0.782042 0.597995
Si Si3 0.476798 0.117178 0.596377
Si Si4 0.836924 0.374258 0.886204
Si Si5 0.345733 0.379414 0.649212
Si Si6 0.250059 0.882008 0.876256
Si Si7 0.638135 0.738331 0.865338
Si Si8 0.764318 0.720015 0.624592
O O1 0.860835 0.140745 0.509605
O O2 0.909538 0.213680 0.733011
O O3 0.101616 0.110980 0.806794
O O4 0.881292 0.000000 0.668792
O O5 0.258979 0.684219 0.660527
O O6 0.231553 0.848596 0.746984
O O7 0.000000 0.739077 0.500000
O O8 0.500000 0.109323 0.500000
O O9 0.610688 0.168516 0.762471
O O10 0.343682 0.190814 0.503737
O O11 0.450979 0.000000 0.619931
O O12 0.815941 0.500000 0.872319
O O13 0.775071 0.326369 0.937526
O O14 0.745246 0.325992 0.718916
O O15 0.000000 0.345475 0.000000
O O16 0.353552 0.500000 0.692216
O O17 0.505483 0.339551 0.766775
O O18 0.257312 0.375377 0.471900
O O19 0.321273 0.000000 0.938503
O O20 0.338725 0.792654 0.008358
#
# Coordination Sequence:
#
# PCOD8061198 Si02
#       8
#     4   4   4   4   4   4   4   4
#     4   9  17  32  57  87 115 144 179 221 273 331
#     4   9  19  37  60  86 114 142 179 224 274 335
#     4  10  19  33  53  77 108 144 178 220 270 321
#     4  11  23  38  56  78 108 148 190 232 278 322
#     4  10  22  38  59  83 108 143 188 234 278 322
#     4  10  20  36  58  83 114 148 180 222 275 334
#     4  11  22  38  55  81 114 146 187 231 272 324
#     4  10  19  35  56  82 109 143 185 229 270 326
#
# _framework density 19.961469999999998
#
# number of rings (size 3 to 8) (size 9 to 14) (size 15 to 20)
#    0.000    2.000    1.250    2.625    0.000    2.250 
#    0.000    6.250    0.000    3.750    0.000    0.000 
#    0.000    0.000    0.000    0.000    0.000    0.000 
#
# Total GULP energy -396612.483004 kJ/mol
# GULP energy per Si atom -12394.140094 kJ/mol
# Density = 1.991604 g / cm^3
# Si number density = 19.961470 Si / 1000 Ang^3
#
#
#
# Elastic Constant Matrix: (Units=GPa)
#
#
# Indices 1 2 3 4 5 6 
#
# 1 74.9425 30.8243 8.9632 0.0000 8.1025 0.0000
# 2 30.8243 121.2398 30.6929 0.0000 8.0810 0.0000
# 3 8.9632 30.6929 53.8172 0.0000 -0.9795 0.0000
# 4 0.0000 0.0000 0.0000 22.3952 0.0000 0.7316
# 5 8.1025 8.0810 -0.9795 0.0000 29.1596 0.0000
# 6 0.0000 0.0000 0.0000 0.7316 0.0000 24.3458
#
#
#
# Elastic Compliance Matrix: (Units=1/GPa)
#
#
# Indices 1 2 3 4 5 6 
#
# 1 0.015208 -0.003497 -0.000598 0.000000 -0.003277 0.000000
# 2 -0.003497 0.010688 -0.005553 0.000000 -0.002177 0.000000
# 3 -0.000598 -0.005553 0.021892 0.000000 0.002440 0.000000
# 4 0.000000 0.000000 0.000000 0.044696 0.000000 -0.001343
# 5 -0.003277 -0.002177 0.002440 0.000000 0.035890 0.000000
# 6 0.000000 0.000000 0.000000 -0.001343 0.000000 0.041115
#
#
# Mechanical properties :
#
#
# Convention : Reuss Voigt Hill
#
# Bulk Modulus (GPa) = 35.09691 43.44005 39.26848
# Shear Modulus (GPa) = 25.21664 27.14807 26.18235
#
# Velocity S-wave (km/s) = 3.55810 3.69185 3.62559
# Velocity P-wave (km/s) = 5.87372 6.32315 6.10257
#
# Compressibility (1/GPa) = 0.02849253
#
# Stress axis : x y z
#
# Youngs Moduli (GPa) = 65.75684 93.56364 45.67813
#
# Poissons Ratio (x) = 0.32715 0.02733
# Poissons Ratio (y) = 0.22992 0.25364
# Poissons Ratio (z) = 0.03934 0.51954
#
# Static dielectric constant tensor:
#      x y z
#    x 3.771150 0.000000 0.175850 
#    y 0.000000 3.824000 0.000000 
#    z 0.175850 0.000000 3.585910 
# 
# 
# High freq. dielectric constant tensor:
#      x y z
#    x 1.774720 0.000000 0.003910 
#    y 0.000000 1.782520 0.000000 
#    z 0.003910 0.000000 1.767880 
# 
# From -- ./inp_files/67359.got.cif
#   From: 2010.06.25/outbox.cif.g09.slc.cpg/sg10_34_cif.got.tgz:67359.got - 2010.06.27 22:07:45.
