data_PCOD8061158
_publ_section_title
;
Structure prediction by ZEFSAII (Michael W. Deem and Ramdas Pophale) SiO2 
 PCOD8061158
Probable space group: P 2/M
;
_chemical_formula_sum "Si O2"
_cell_formula_units_Z 32
_cell_length_a 31.398670
_cell_length_b 9.519533
_cell_length_c 12.807798
_cell_angle_alpha 90.000000
_cell_angle_beta 27.830271
_cell_angle_gamma 90.000000
_cell_volume 1787.237958
_symmetry_space_group_name_H-M "P 2/M"
_symmetry_group_IT_number 10
_symmetry_cell_setting 'monoclinic'
loop_
_space_group_symop_operation_xyz
x,y,z
-x,y,-z
-x,-y,-z
x,-y,z
loop_
_atom_site_type_symbol
_atom_site_label
_atom_site_fract_x
_atom_site_fract_y
_atom_site_fract_z
Si Si1 0.130592 0.166322 0.543826
Si Si2 0.400157 0.661334 0.689758
Si Si3 0.667248 0.655163 0.387986
Si Si4 0.399137 0.661778 0.244169
Si Si5 0.228182 0.166585 0.123626
Si Si6 0.069731 0.164134 0.046355
Si Si7 0.827691 0.161761 0.979545
Si Si8 0.774481 0.167070 0.447642
O O1 0.177337 0.223229 0.336605
O O2 0.188194 0.211371 0.519495
O O3 0.027905 0.230263 0.773880
O O4 0.122928 0.000000 0.552483
O O5 0.500000 0.718279 0.500000
O O6 0.386203 0.500000 0.756290
O O7 0.395764 0.677574 0.575297
O O8 0.325527 0.757508 0.908296
O O9 0.711669 0.500000 0.290346
O O10 0.604750 0.677308 0.623307
O O11 0.747795 0.765389 0.216347
O O12 0.386250 0.500000 0.235843
O O13 0.322075 0.756057 0.356392
O O14 0.500000 0.718329 0.000000
O O15 0.167196 0.209897 0.153065
O O16 0.244384 0.000000 0.092988
O O17 0.082977 0.191964 0.143007
O O18 0.067598 0.000000 0.026652
O O19 0.152371 0.224805 0.796377
O O20 0.802439 0.000000 0.036344
O O21 0.759393 0.000000 0.471430
#
# Coordination Sequence:
#
# PCOD8061158 Si02
#       8
#     4   4   4   4   4   4   4   4
#     4   9  18  31  48  74 106 136 162 198 250 299
#     4   9  18  32  51  72  93 125 167 202 239 293
#     4   9  17  31  49  68  94 126 157 196 244 291
#     4  10  21  35  51  73 100 130 163 202 254 301
#     4   9  18  31  47  71 103 130 158 200 249 290
#     4   9  16  28  50  76  99 129 169 204 240 290
#     4   9  16  28  49  74  96 123 161 202 236 278
#     4  10  19  33  53  74  99 131 170 208 241 286
#
# _framework density 17.904723000000001
#
# number of rings (size 3 to 8) (size 9 to 14) (size 15 to 20)
#    0.000    2.750    1.250    0.375    0.000    3.500 
#    0.000    4.375    0.000    3.750    0.000    3.500 
#    0.000    0.000    0.000    0.000    0.000    0.000 
#
# Total GULP energy -396585.217057 kJ/mol
# GULP energy per Si atom -12393.288033 kJ/mol
# Density = 1.786397 g / cm^3
# Si number density = 17.904723 Si / 1000 Ang^3
#
#
#
# Elastic Constant Matrix: (Units=GPa)
#
#
# Indices 1 2 3 4 5 6 
#
# 1 124.3949 35.9162 80.8800 0.0000 -6.8093 0.0000
# 2 35.9162 27.1424 31.1403 0.0000 -5.8582 0.0000
# 3 80.8800 31.1403 127.1457 0.0000 -6.4535 0.0000
# 4 0.0000 0.0000 0.0000 65.0245 0.0000 -22.2525
# 5 -6.8093 -5.8582 -6.4535 0.0000 33.2807 0.0000
# 6 0.0000 0.0000 0.0000 -22.2525 0.0000 28.6886
#
#
#
# Elastic Compliance Matrix: (Units=1/GPa)
#
#
# Indices 1 2 3 4 5 6 
#
# 1 0.016770 -0.013936 -0.007277 0.000000 -0.000433 0.000000
# 2 -0.013936 0.064323 -0.006523 0.000000 0.007206 0.000000
# 3 -0.007277 -0.006523 0.014096 0.000000 0.000096 0.000000
# 4 0.000000 0.000000 0.000000 0.020936 0.000000 0.016239
# 5 -0.000433 0.007206 0.000096 0.000000 0.031246 0.000000
# 6 0.000000 0.000000 0.000000 0.016239 0.000000 0.047453
#
#
# Mechanical properties :
#
#
# Convention : Reuss Voigt Hill
#
# Bulk Modulus (GPa) = 25.17756 63.83956 44.50856
# Shear Modulus (GPa) = 18.97276 34.11519 26.54398
#
# Velocity S-wave (km/s) = 3.25876 4.36979 3.85452
# Velocity P-wave (km/s) = 5.31525 7.82258 6.68747
#
# Compressibility (1/GPa) = 0.03971791
#
# Stress axis : x y z
#
# Youngs Moduli (GPa) = 59.62994 15.54650 70.94078
#
# Poissons Ratio (x) = 0.21666 0.51620
# Poissons Ratio (y) = 0.83101 0.46275
# Poissons Ratio (z) = 0.43390 0.10141
#
# Static dielectric constant tensor:
#      x y z
#    x 3.573340 0.000000 0.051600 
#    y 0.000000 3.073220 0.000000 
#    z 0.051600 0.000000 3.342340 
# 
# 
# High freq. dielectric constant tensor:
#      x y z
#    x 1.708180 0.000000 0.005000 
#    y 0.000000 1.658200 0.000000 
#    z 0.005000 0.000000 1.684740 
# 
# From -- ./inp_files/58158.got.cif
#   From: 2010.06.25/outbox.cif.g09.slc.cpg/sg10_30_cif.got.tgz:58158.got - 2010.06.27 22:07:45.
