data_PCOD8061270
_publ_section_title
;
Structure prediction by ZEFSAII (Michael W. Deem and Ramdas Pophale) SiO2 
 PCOD8061270
Probable space group: P 2/M
;
_chemical_formula_sum "Si O2"
_cell_formula_units_Z 20
_cell_length_a 8.634761
_cell_length_b 22.720027
_cell_length_c 9.945797
_cell_angle_alpha 90.000000
_cell_angle_beta 149.571675
_cell_angle_gamma 90.000000
_cell_volume 988.198045
_symmetry_space_group_name_H-M "P 2/M"
_symmetry_group_IT_number 10
_symmetry_cell_setting 'monoclinic'
loop_
_space_group_symop_operation_xyz
x,y,z
-x,y,-z
-x,-y,-z
x,-y,z
loop_
_atom_site_type_symbol
_atom_site_label
_atom_site_fract_x
_atom_site_fract_y
_atom_site_fract_z
Si Si1 0.645315 0.063713 0.250795
Si Si2 0.223240 0.819419 0.540708
Si Si3 0.184678 0.565167 0.501224
Si Si4 0.149048 0.238817 0.967488
Si Si5 0.687606 0.363252 0.004320
O O1 0.611030 0.115822 0.335839
O O2 0.000000 0.053081 0.500000
O O3 0.500220 0.000000 0.187030
O O4 0.500000 0.084397 0.000000
O O5 0.489679 0.772224 0.754172
O O6 0.000000 0.814240 0.500000
O O7 0.027348 0.807192 0.260727
O O8 0.305783 0.500000 0.552554
O O9 0.461853 0.611750 0.720917
O O10 0.000000 0.561175 0.500000
O O11 0.948034 0.587436 0.212962
O O12 0.127269 0.305154 0.899013
O O13 0.000000 0.231762 0.000000
O O14 0.500000 0.350472 0.000000
#
# Coordination Sequence:
#
# PCOD8061270 Si02
#       5
#     4   4   4   4   4
#     4   9  17  31  55  88 117 141 181 239 290 330
#     4  11  21  38  62  86 112 149 197 239 280 338
#     4   9  17  30  52  81 107 132 173 232 284 326
#     4  12  25  39  56  82 120 157 191 237 290 338
#     4  10  19  33  54  78 105 142 187 227 271 335
#
# _framework density 20.238859000000001
#
# number of rings (size 3 to 8) (size 9 to 14) (size 15 to 20)
#    0.000    1.800    0.000    6.600    0.000    4.000 
#    0.000    0.000    0.000    7.200    0.000    0.000 
#    0.000    0.000    0.000    0.000    0.000    0.000 
#
# Total GULP energy -247875.624548 kJ/mol
# GULP energy per Si atom -12393.781227 kJ/mol
# Density = 2.019279 g / cm^3
# Si number density = 20.238859 Si / 1000 Ang^3
#
#
#
# Elastic Constant Matrix: (Units=GPa)
#
#
# Indices 1 2 3 4 5 6 
#
# 1 64.5064 43.6985 41.1536 0.0000 -13.2866 0.0000
# 2 43.6985 123.8807 31.1550 0.0000 -6.9009 0.0000
# 3 41.1536 31.1550 128.6937 0.0000 0.9392 0.0000
# 4 0.0000 0.0000 0.0000 24.4842 0.0000 1.9330
# 5 -13.2866 -6.9009 0.9392 0.0000 20.4851 0.0000
# 6 0.0000 0.0000 0.0000 1.9330 0.0000 4.7692
#
#
#
# Elastic Compliance Matrix: (Units=1/GPa)
#
#
# Indices 1 2 3 4 5 6 
#
# 1 0.028619 -0.007291 -0.007507 0.000000 0.016450 0.000000
# 2 -0.007291 0.010640 -0.000236 0.000000 -0.001134 0.000000
# 3 -0.007507 -0.000236 0.010268 0.000000 -0.005419 0.000000
# 4 0.000000 0.000000 0.000000 0.042193 0.000000 -0.017101
# 5 0.016450 -0.001134 -0.005419 0.000000 0.059352 0.000000
# 6 0.000000 0.000000 0.000000 -0.017101 0.000000 0.216610
#
#
# Mechanical properties :
#
#
# Convention : Reuss Voigt Hill
#
# Bulk Modulus (GPa) = 51.38950 61.01054 56.20002
# Shear Modulus (GPa) = 12.36903 23.35261 17.86082
#
# Velocity S-wave (km/s) = 2.47483 3.40052 2.97392
# Velocity P-wave (km/s) = 5.79767 6.75491 6.29451
#
# Compressibility (1/GPa) = 0.01945923
#
# Stress axis : x y z
#
# Youngs Moduli (GPa) = 34.94202 93.98163 97.39389
#
# Poissons Ratio (x) = 0.68522 0.73111
# Poissons Ratio (y) = 0.25476 0.02300
# Poissons Ratio (z) = 0.26230 0.02219
#
# Static dielectric constant tensor:
#      x y z
#    x 3.152590 0.000000 0.055550 
#    y 0.000000 4.268800 0.000000 
#    z 0.055550 0.000000 3.802720 
# 
# 
# High freq. dielectric constant tensor:
#      x y z
#    x 1.723790 0.000000 0.010750 
#    y 0.000000 1.810960 0.000000 
#    z 0.010750 0.000000 1.813160 
# 
# From -- ./inp_files/15267.got.cif
#   From: 2010.06.25/outbox.cif.g09.slc.cpg/sg10_8_cif.got.tgz:15267.got - 2010.06.27 22:07:45.
