data_PCOD8061384
_publ_section_title
;
Structure prediction by ZEFSAII (Michael W. Deem and Ramdas Pophale) SiO2 
 PCOD8061384
Probable space group: P 2/M
;
_chemical_formula_sum "Si O2"
_cell_formula_units_Z 32
_cell_length_a 32.833832
_cell_length_b 9.016325
_cell_length_c 12.258204
_cell_angle_alpha 90.000000
_cell_angle_beta 150.819399
_cell_angle_gamma 90.000000
_cell_volume 1769.333405
_symmetry_space_group_name_H-M "P 2/M"
_symmetry_group_IT_number 10
_symmetry_cell_setting 'monoclinic'
loop_
_space_group_symop_operation_xyz
x,y,z
-x,y,-z
-x,-y,-z
x,-y,z
loop_
_atom_site_type_symbol
_atom_site_label
_atom_site_fract_x
_atom_site_fract_y
_atom_site_fract_z
Si Si1 0.948608 0.332234 0.270317
Si Si2 0.219060 0.825259 0.158702
Si Si3 0.831057 0.672504 0.505252
Si Si4 0.174370 0.831160 0.295896
Si Si5 0.646341 0.674765 0.673838
Si Si6 0.482224 0.166234 0.331183
Si Si7 0.010891 0.828788 0.213508
Si Si8 0.321697 0.328265 0.004131
O O1 0.924819 0.500000 0.181507
O O2 0.008460 0.262439 0.319495
O O3 0.000000 0.329149 0.500000
O O4 0.864618 0.238893 0.090880
O O5 0.219960 0.000000 0.140045
O O6 0.220193 0.788133 0.290264
O O7 0.298475 0.751166 0.289236
O O8 0.853248 0.500000 0.561978
O O9 0.791929 0.724297 0.529470
O O10 0.914440 0.767062 0.684645
O O11 0.767282 0.706782 0.257940
O O12 0.195034 0.000000 0.375739
O O13 0.075149 0.808427 0.052344
O O14 0.646877 0.500000 0.656747
O O15 0.552619 0.734995 0.437376
O O16 0.681721 0.717521 0.876444
O O17 0.500000 0.164070 0.500000
O O18 0.483406 0.000000 0.285277
O O19 0.391374 0.237470 0.100157
O O20 0.027040 0.000000 0.279022
O O21 0.345967 0.500000 0.050290
#
# Coordination Sequence:
#
# PCOD8061384 Si02
#       8
#     4   4   4   4   4   4   4   4
#     4  10  21  35  51  72 104 140 173 214 263 312
#     4  10  21  36  54  77 104 135 177 220 257 307
#     4  11  22  34  53  79 106 136 176 222 262 310
#     4   9  20  38  54  71 101 138 177 222 267 307
#     4  10  19  33  55  79 108 142 172 206 256 314
#     4   9  17  31  52  78 106 136 172 210 251 306
#     4  10  21  36  53  74 101 137 179 220 264 311
#     4   9  20  35  50  76 111 140 167 207 261 312
#
# _framework density 18.085908
#
# number of rings (size 3 to 8) (size 9 to 14) (size 15 to 20)
#    0.000    2.250    0.000    3.375    1.750    8.500 
#    0.000    0.000    0.000    0.750    0.000    5.250 
#    0.000    0.000    0.000    0.000    0.000    0.000 
#
# Total GULP energy -396861.492009 kJ/mol
# GULP energy per Si atom -12401.921625 kJ/mol
# Density = 1.804474 g / cm^3
# Si number density = 18.085908 Si / 1000 Ang^3
#
#
#
# Elastic Constant Matrix: (Units=GPa)
#
#
# Indices 1 2 3 4 5 6 
#
# 1 101.8225 52.2060 38.2234 0.0000 17.0928 0.0000
# 2 52.2060 103.5375 31.6483 0.0000 8.0224 0.0000
# 3 38.2234 31.6483 39.8819 0.0000 8.6440 0.0000
# 4 0.0000 0.0000 0.0000 26.8759 0.0000 4.9966
# 5 17.0928 8.0224 8.6440 0.0000 26.1871 0.0000
# 6 0.0000 0.0000 0.0000 4.9966 0.0000 32.8849
#
#
#
# Elastic Compliance Matrix: (Units=1/GPa)
#
#
# Indices 1 2 3 4 5 6 
#
# 1 0.017817 -0.004877 -0.011858 0.000000 -0.006222 0.000000
# 2 -0.004877 0.014096 -0.006748 0.000000 0.001093 0.000000
# 3 -0.011858 -0.006748 0.042724 0.000000 -0.004296 0.000000
# 4 0.000000 0.000000 0.000000 0.038290 0.000000 -0.005818
# 5 -0.006222 0.001093 -0.004296 0.000000 0.043331 0.000000
# 6 0.000000 0.000000 0.000000 -0.005818 0.000000 0.031293
#
#
# Mechanical properties :
#
#
# Convention : Reuss Voigt Hill
#
# Bulk Modulus (GPa) = 36.13794 54.37748 45.25771
# Shear Modulus (GPa) = 20.51362 25.40051 22.95707
#
# Velocity S-wave (km/s) = 3.37149 3.75165 3.56664
# Velocity P-wave (km/s) = 5.93132 6.99271 6.48377
#
# Compressibility (1/GPa) = 0.02767175
#
# Stress axis : x y z
#
# Youngs Moduli (GPa) = 56.12507 70.94434 23.40584
#
# Poissons Ratio (x) = 0.34602 0.27754
# Poissons Ratio (y) = 0.27374 0.15794
# Poissons Ratio (z) = 0.66551 0.47872
#
# Static dielectric constant tensor:
#      x y z
#    x 3.409490 0.000000 0.082600 
#    y 0.000000 3.529100 0.000000 
#    z 0.082600 0.000000 3.138620 
# 
# 
# High freq. dielectric constant tensor:
#      x y z
#    x 1.695430 0.000000 0.007690 
#    y 0.000000 1.715820 0.000000 
#    z 0.007690 0.000000 1.678180 
# 
# From -- ./inp_files/58308.got.cif
#   From: 2010.06.25/outbox.cif.g09.slc.cpg/sg10_30_cif.got.tgz:58308.got - 2010.06.27 22:07:45.
