data_PCOD8061193
_publ_section_title
;
Structure prediction by ZEFSAII (Michael W. Deem and Ramdas Pophale) SiO2 
 PCOD8061193
Probable space group: P 2/M
;
_chemical_formula_sum "Si O2"
_cell_formula_units_Z 28
_cell_length_a 9.084613
_cell_length_b 8.766628
_cell_length_c 25.676456
_cell_angle_alpha 90.000000
_cell_angle_beta 44.688249
_cell_angle_gamma 90.000000
_cell_volume 1438.080362
_symmetry_space_group_name_H-M "P 2/M"
_symmetry_group_IT_number 10
_symmetry_cell_setting 'monoclinic'
loop_
_space_group_symop_operation_xyz
x,y,z
-x,y,-z
-x,-y,-z
x,-y,z
loop_
_atom_site_type_symbol
_atom_site_label
_atom_site_fract_x
_atom_site_fract_y
_atom_site_fract_z
Si Si1 0.956069 0.821662 0.355417
Si Si2 0.714439 0.681766 0.225452
Si Si3 0.145669 0.324035 0.511562
Si Si4 0.623536 0.322161 0.364543
Si Si5 0.169388 0.681477 0.084617
Si Si6 0.488115 0.318803 0.921466
Si Si7 0.394574 0.318603 0.220340
O O1 0.921099 0.781095 0.424132
O O2 0.755998 0.770506 0.372894
O O3 0.159653 0.739523 0.282106
O O4 0.987955 0.000000 0.341731
O O5 0.713348 0.500000 0.224320
O O6 0.674006 0.739293 0.294093
O O7 0.531632 0.745090 0.233917
O O8 0.935943 0.748224 0.149364
O O9 0.113502 0.500000 0.535816
O O10 0.382367 0.290194 0.436403
O O11 0.000000 0.280169 0.500000
O O12 0.679190 0.500000 0.355931
O O13 0.159497 0.500000 0.088587
O O14 0.311234 0.741617 0.096730
O O15 0.273817 0.736375 0.003739
O O16 0.493508 0.500000 0.920334
O O17 0.499622 0.257209 0.859671
O O18 0.388403 0.500000 0.222475
#
# Coordination Sequence:
#
# PCOD8061193 Si02
#       7
#     4   4   4   4   4   4   4
#     4  12  25  38  54  78 108 142 179 219 262 308
#     4   9  17  29  50  79 108 136 171 218 267 315
#     4  10  21  39  63  87 110 137 171 211 257 312
#     4  10  20  36  58  81 105 137 176 216 258 309
#     4   8  13  23  40  71 110 139 167 209 264 316
#     4   8  14  24  43  71 105 141 172 210 261 315
#     4  10  19  33  53  77 105 140 181 221 264 313
#
# _framework density 19.470400000000001
#
# number of rings (size 3 to 8) (size 9 to 14) (size 15 to 20)
#    0.000    2.429    0.000    4.286    0.000    7.714 
#    0.000    5.000    0.000    0.000    0.000   10.000 
#    0.000    0.000    0.000    0.000    0.000    0.000 
#
# Total GULP energy -347169.006351 kJ/mol
# GULP energy per Si atom -12398.893084 kJ/mol
# Density = 1.942608 g / cm^3
# Si number density = 19.470400 Si / 1000 Ang^3
#
#
#
# Elastic Constant Matrix: (Units=GPa)
#
#
# Indices 1 2 3 4 5 6 
#
# 1 115.9103 25.0758 46.0124 0.0000 12.5825 0.0000
# 2 25.0758 15.6370 24.7671 0.0000 0.8696 0.0000
# 3 46.0124 24.7671 121.9264 0.0000 15.3952 0.0000
# 4 0.0000 0.0000 0.0000 2.7846 0.0000 0.8152
# 5 12.5825 0.8696 15.3952 0.0000 33.0267 0.0000
# 6 0.0000 0.0000 0.0000 0.8152 0.0000 2.6548
#
#
#
# Elastic Compliance Matrix: (Units=1/GPa)
#
#
# Indices 1 2 3 4 5 6 
#
# 1 0.013914 -0.021614 -0.000279 0.000000 -0.004602 0.000000
# 2 -0.021614 0.129344 -0.019898 0.000000 0.014104 0.000000
# 3 -0.000279 -0.019898 0.013037 0.000000 -0.005447 0.000000
# 4 0.000000 0.000000 0.000000 0.394592 0.000000 -0.121168
# 5 -0.004602 0.014104 -0.005447 0.000000 0.034199 0.000000
# 6 0.000000 0.000000 0.000000 -0.121168 0.000000 0.413888
#
#
# Mechanical properties :
#
#
# Convention : Reuss Voigt Hill
#
# Bulk Modulus (GPa) = 13.75300 49.46491 31.60896
# Shear Modulus (GPa) = 4.51756 18.20110 11.35933
#
# Velocity S-wave (km/s) = 1.52488 3.06078 2.41802
# Velocity P-wave (km/s) = 3.19049 6.16048 4.90565
#
# Compressibility (1/GPa) = 0.07271141
#
# Stress axis : x y z
#
# Youngs Moduli (GPa) = 71.87171 7.73134 76.70688
#
# Poissons Ratio (x) = 0.16711 0.02142
# Poissons Ratio (y) = 1.55345 1.52630
# Poissons Ratio (z) = 0.02007 0.15384
#
# Static dielectric constant tensor:
#      x y z
#    x 3.763020 0.000000 0.073330 
#    y 0.000000 2.965990 0.000000 
#    z 0.073330 0.000000 3.913490 
# 
# 
# High freq. dielectric constant tensor:
#      x y z
#    x 1.768170 0.000000 0.001420 
#    y 0.000000 1.693730 0.000000 
#    z 0.001420 0.000000 1.779090 
# 
# From -- ./inp_files/91952.got.cif
#   From: 2010.06.25/outbox.cif.g09.slc.cpg/sg10_46_cif.got.tgz:91952.got - 2010.06.27 22:07:45.
