data_PCOD8061036
_publ_section_title
;
Structure prediction by ZEFSAII (Michael W. Deem and Ramdas Pophale) SiO2 
 PCOD8061036
Probable space group: P 2/M
;
_chemical_formula_sum "Si O2"
_cell_formula_units_Z 28
_cell_length_a 26.089931
_cell_length_b 15.424382
_cell_length_c 5.180979
_cell_angle_alpha 90.000000
_cell_angle_beta 101.280937
_cell_angle_gamma 90.000000
_cell_volume 2044.653705
_symmetry_space_group_name_H-M "P 2/M"
_symmetry_group_IT_number 10
_symmetry_cell_setting 'monoclinic'
loop_
_space_group_symop_operation_xyz
x,y,z
-x,y,-z
-x,-y,-z
x,-y,z
loop_
_atom_site_type_symbol
_atom_site_label
_atom_site_fract_x
_atom_site_fract_y
_atom_site_fract_z
Si Si1 0.465549 0.500000 0.716028
Si Si2 0.327117 0.896391 0.109542
Si Si3 0.387060 0.155637 0.664876
Si Si4 0.148269 0.103541 0.394308
Si Si5 0.969896 0.103351 0.720340
Si Si6 0.463650 0.311264 0.714296
Si Si7 0.792447 0.102834 0.047134
Si Si8 0.465224 0.000000 0.715250
O O1 0.500000 0.500000 0.500000
O O2 0.435756 0.407269 0.686653
O O3 0.500000 0.500000 0.000000
O O4 0.344056 0.857986 0.401068
O O5 0.267488 0.867837 0.010229
O O6 0.334507 0.000000 0.111413
O O7 0.360775 0.853006 0.917816
O O8 0.414085 0.248505 0.665872
O O9 0.431332 0.085213 0.674605
O O10 0.089151 0.139077 0.337879
O O11 0.177954 0.140395 0.173331
O O12 0.148398 0.000000 0.394951
O O13 0.178633 0.140184 0.672851
O O14 0.000000 0.139131 0.500000
O O15 0.969483 0.000000 0.719948
O O16 0.000000 0.139120 0.000000
O O17 0.500000 0.296154 0.500000
O O18 0.500000 0.296010 0.000000
O O19 0.795810 0.000000 0.047822
O O20 0.500000 0.000000 0.500000
O O21 0.500000 0.000000 0.000000
#
# Coordination Sequence:
#
# PCOD8061036 Si02
#       8
#     2   4   4   4   4   4   4   2
#     4   8  16  30  50  66  82  98 118 148 180 224
#     4  11  20  33  42  56  75 102 131 160 194 223
#     4  12  21  32  45  59  80 102 127 156 188 231
#     4   9  15  24  34  49  62  82 115 148 183 225
#     4   9  15  21  30  44  64  84 102 134 183 235
#     4  10  19  33  48  66  82 100 123 149 186 230
#     4   9  17  26  39  48  62  86 119 156 182 214
#     4  12  22  32  42  56  76 102 124 146 174 220
#
# _framework density 13.69425
#
# number of rings (size 3 to 8) (size 9 to 14) (size 15 to 20)
#    0.000    2.000    1.429    4.286    0.000    5.714 
#    0.000    0.000    0.000    0.000    0.000    0.000 
#    0.000    0.000    0.000    0.000    0.000    0.000 
#
# Total GULP energy -347081.357820 kJ/mol
# GULP energy per Si atom -12395.762779 kJ/mol
# Density = 1.366308 g / cm^3
# Si number density = 13.694250 Si / 1000 Ang^3
#
#
#
# Elastic Constant Matrix: (Units=GPa)
#
#
# Indices 1 2 3 4 5 6 
#
# 1 88.5106 23.5407 36.3523 0.0000 1.0445 0.0000
# 2 23.5407 57.3700 11.7482 0.0000 4.9532 0.0000
# 3 36.3523 11.7482 109.7488 0.0000 1.9595 0.0000
# 4 0.0000 0.0000 0.0000 9.7986 0.0000 -2.0461
# 5 1.0445 4.9532 1.9595 0.0000 32.0132 0.0000
# 6 0.0000 0.0000 0.0000 -2.0461 0.0000 5.6565
#
#
#
# Elastic Compliance Matrix: (Units=1/GPa)
#
#
# Indices 1 2 3 4 5 6 
#
# 1 0.014381 -0.005085 -0.004229 0.000000 0.000576 0.000000
# 2 -0.005085 0.019845 -0.000389 0.000000 -0.002881 0.000000
# 3 -0.004229 -0.000389 0.010562 0.000000 -0.000448 0.000000
# 4 0.000000 0.000000 0.000000 0.110393 0.000000 0.039932
# 5 0.000576 -0.002881 -0.000448 0.000000 0.031691 0.000000
# 6 0.000000 0.000000 0.000000 0.039932 0.000000 0.191233
#
#
# Mechanical properties :
#
#
# Convention : Reuss Voigt Hill
#
# Bulk Modulus (GPa) = 39.39648 44.32355 41.86002
# Shear Modulus (GPa) = 12.31612 21.75954 17.03783
#
# Velocity S-wave (km/s) = 3.00219 3.99049 3.53109
# Velocity P-wave (km/s) = 6.39129 7.32590 6.87450
#
# Compressibility (1/GPa) = 0.02538298
#
# Stress axis : x y z
#
# Youngs Moduli (GPa) = 69.53803 50.38957 94.67690
#
# Poissons Ratio (x) = 0.25621 0.40042
# Poissons Ratio (y) = 0.35357 0.03681
# Poissons Ratio (z) = 0.29410 0.01959
#
# Static dielectric constant tensor:
#      x y z
#    x 2.817980 0.000000 -0.109470 
#    y 0.000000 2.487900 0.000000 
#    z -0.109470 0.000000 3.111010 
# 
# 
# High freq. dielectric constant tensor:
#      x y z
#    x 1.521790 0.000000 -0.009030 
#    y 0.000000 1.453980 0.000000 
#    z -0.009030 0.000000 1.549310 
# 
# From -- ./inp_files/13278.got.cif
#   From: 2010.06.25/outbox.cif.g09.slc.cpg/sg10_7_cif.got.tgz:13278.got - 2010.06.27 22:07:45.
