data_PCOD8061109
_publ_section_title
;
Structure prediction by ZEFSAII (Michael W. Deem and Ramdas Pophale) SiO2 
 PCOD8061109
Probable space group: P 2/M
;
_chemical_formula_sum "Si O2"
_cell_formula_units_Z 26
_cell_length_a 9.425927
_cell_length_b 31.003794
_cell_length_c 5.035299
_cell_angle_alpha 90.000000
_cell_angle_beta 59.955037
_cell_angle_gamma 90.000000
_cell_volume 1273.790083
_symmetry_space_group_name_H-M "P 2/M"
_symmetry_group_IT_number 10
_symmetry_cell_setting 'monoclinic'
loop_
_space_group_symop_operation_xyz
x,y,z
-x,y,-z
-x,-y,-z
x,-y,z
loop_
_atom_site_type_symbol
_atom_site_label
_atom_site_fract_x
_atom_site_fract_y
_atom_site_fract_z
Si Si1 0.186952 0.549548 0.745518
Si Si2 0.313495 0.265778 0.595514
Si Si3 0.882936 0.000000 0.359597
Si Si4 0.115135 0.091030 0.641210
Si Si5 0.884173 0.815825 0.358605
Si Si6 0.816323 0.689168 0.771042
Si Si7 0.687965 0.403318 0.884122
O O1 0.224398 0.500000 0.643200
O O2 0.220835 0.577470 0.454777
O O3 0.303121 0.563665 0.878929
O O4 0.000000 0.556968 0.000000
O O5 0.500000 0.261318 0.500000
O O6 0.254709 0.219987 0.537467
O O7 0.302703 0.299442 0.362960
O O8 0.208003 0.280954 0.947885
O O9 0.778444 0.045653 0.453342
O O10 0.000000 0.000000 0.500000
O O11 0.000000 0.000000 0.000000
O O12 0.209657 0.137156 0.534986
O O13 0.000000 0.088278 0.500000
O O14 0.000000 0.092631 0.000000
O O15 0.000000 0.806205 0.500000
O O16 0.000000 0.814673 0.000000
O O17 0.779802 0.640165 0.887445
O O18 0.000000 0.696175 0.500000
O O19 0.500000 0.393536 0.000000
#
# Coordination Sequence:
#
# PCOD8061109 Si02
#       7
#     4   4   2   4   4   4   4
#     4  11  24  43  66  92 123 159 196 231 272 327
#     4  12  24  39  58  84 114 145 185 235 284 331
#     4   8  12  20  34  58  91 124 161 212 269 310
#     4   8  14  23  39  63  93 128 168 216 265 317
#     4  10  19  33  52  75 104 141 183 223 272 332
#     4  12  25  43  64  85 113 151 191 230 278 336
#     4  12  25  42  64  92 123 152 188 235 283 330
#
# _framework density 20.411525999999999
#
# number of rings (size 3 to 8) (size 9 to 14) (size 15 to 20)
#    0.000    1.385    0.000    7.385    0.000    3.077 
#    0.000    0.000    0.000    0.000    0.000    0.538 
#    0.000    0.000    0.000   38.769    0.000    2.077 
#
# Total GULP energy -322204.163892 kJ/mol
# GULP energy per Si atom -12392.467842 kJ/mol
# Density = 2.036507 g / cm^3
# Si number density = 20.411526 Si / 1000 Ang^3
#
#
#
# Elastic Constant Matrix: (Units=GPa)
#
#
# Indices 1 2 3 4 5 6 
#
# 1 80.4689 44.9404 25.4059 0.0000 15.4147 0.0000
# 2 44.9404 155.5762 43.5139 0.0000 -7.0851 0.0000
# 3 25.4059 43.5139 79.7586 0.0000 24.4278 0.0000
# 4 0.0000 0.0000 0.0000 19.3862 0.0000 12.8179
# 5 15.4147 -7.0851 24.4278 0.0000 36.6965 0.0000
# 6 0.0000 0.0000 0.0000 12.8179 0.0000 19.3611
#
#
#
# Elastic Compliance Matrix: (Units=1/GPa)
#
#
# Indices 1 2 3 4 5 6 
#
# 1 0.016919 -0.005240 -0.000055 0.000000 -0.008082 0.000000
# 2 -0.005240 0.010128 -0.006443 0.000000 0.008446 0.000000
# 3 -0.000055 -0.006443 0.020656 0.000000 -0.014971 0.000000
# 4 0.000000 0.000000 0.000000 0.091741 0.000000 -0.060737
# 5 -0.008082 0.008446 -0.014971 0.000000 0.042242 0.000000
# 6 0.000000 0.000000 0.000000 -0.060737 0.000000 0.091860
#
#
# Mechanical properties :
#
#
# Convention : Reuss Voigt Hill
#
# Bulk Modulus (GPa) = 41.27754 60.39158 50.83456
# Shear Modulus (GPa) = 16.38815 28.55166 22.46990
#
# Velocity S-wave (km/s) = 2.83660 3.74411 3.32150
# Velocity P-wave (km/s) = 5.56731 6.95287 6.29831
#
# Compressibility (1/GPa) = 0.02422625
#
# Stress axis : x y z
#
# Youngs Moduli (GPa) = 59.10431 98.73534 48.41276
#
# Poissons Ratio (x) = 0.51737 0.00268
# Poissons Ratio (y) = 0.30970 0.31193
# Poissons Ratio (z) = 0.00327 0.63616
#
# Static dielectric constant tensor:
#      x y z
#    x 3.412100 0.000000 0.290040 
#    y 0.000000 4.799970 0.000000 
#    z 0.290040 0.000000 3.629760 
# 
# 
# High freq. dielectric constant tensor:
#      x y z
#    x 1.771120 0.000000 0.040910 
#    y 0.000000 1.831490 0.000000 
#    z 0.040910 0.000000 1.796960 
# 
# From -- ./inp_files/5437.got.cif
#   From: 2010.06.25/outbox.cif.g09.slc.cpg/sg10_3_cif.got.tgz:5437.got - 2010.06.27 22:07:45.
