data_PCOD8061294
_publ_section_title
;
Structure prediction by ZEFSAII (Michael W. Deem and Ramdas Pophale) SiO2 
 PCOD8061294
Probable space group: P 2/M
;
_chemical_formula_sum "Si O2"
_cell_formula_units_Z 28
_cell_length_a 14.787328
_cell_length_b 11.147562
_cell_length_c 10.080664
_cell_angle_alpha 90.000000
_cell_angle_beta 80.156712
_cell_angle_gamma 90.000000
_cell_volume 1637.261229
_symmetry_space_group_name_H-M "P 2/M"
_symmetry_group_IT_number 10
_symmetry_cell_setting 'monoclinic'
loop_
_space_group_symop_operation_xyz
x,y,z
-x,y,-z
-x,-y,-z
x,-y,z
loop_
_atom_site_type_symbol
_atom_site_label
_atom_site_fract_x
_atom_site_fract_y
_atom_site_fract_z
Si Si1 0.420326 0.141401 0.919697
Si Si2 0.941630 0.861833 0.892651
Si Si3 0.573738 0.858537 0.380330
Si Si4 0.958705 0.748837 0.367023
Si Si5 0.219768 0.141640 0.675565
Si Si6 0.229223 0.245656 0.961508
Si Si7 0.992755 0.500000 0.219763
Si Si8 0.847741 0.500000 0.022071
O O1 0.448471 0.182713 0.764333
O O2 0.330083 0.212734 0.988279
O O3 0.398960 0.000000 0.929356
O O4 0.500000 0.178384 0.000000
O O5 0.994522 0.843810 0.742843
O O6 0.924045 0.000000 0.924167
O O7 0.844123 0.795369 0.909785
O O8 0.000000 0.804589 0.000000
O O9 0.500000 0.799010 0.500000
O O10 0.677236 0.821138 0.394760
O O11 0.564707 0.000000 0.390205
O O12 0.850227 0.780561 0.396074
O O13 0.979115 0.614518 0.315966
O O14 0.000000 0.770411 0.500000
O O15 0.205837 0.174289 0.832825
O O16 0.202406 0.000000 0.661315
O O17 0.220471 0.387894 0.947501
O O18 0.094488 0.500000 0.129801
O O19 0.917263 0.500000 0.125771
#
# Coordination Sequence:
#
# PCOD8061294 Si02
#       8
#     4   4   4   4   4   4   2   2
#     4   9  18  33  54  80 111 138 168 217 274 331
#     4  11  20  33  55  80 111 145 179 222 273 327
#     4   8  15  30  51  73  99 136 174 207 252 315
#     4  12  24  37  52  77 112 147 180 224 274 323
#     4  10  19  33  54  79 110 140 176 223 270 326
#     4  11  19  34  56  84 103 140 186 226 270 315
#     4  11  21  40  54  76 104 147 191 233 263 311
#     4  11  20  34  63  80  98 135 200 242 250 309
#
# _framework density 17.101728999999999
#
# number of rings (size 3 to 8) (size 9 to 14) (size 15 to 20)
#    0.000    1.714    4.286    2.786    0.000    1.143 
#    2.571    0.357    0.000    0.000    0.000   12.500 
#    0.000    0.000    0.000    0.000    0.000    0.000 
#
# Total GULP energy -347208.183719 kJ/mol
# GULP energy per Si atom -12400.292276 kJ/mol
# Density = 1.706281 g / cm^3
# Si number density = 17.101729 Si / 1000 Ang^3
#
#
#
# Elastic Constant Matrix: (Units=GPa)
#
#
# Indices 1 2 3 4 5 6 
#
# 1 139.3484 36.5278 64.6731 0.0000 1.1956 0.0000
# 2 36.5278 64.8744 19.5984 0.0000 1.6655 0.0000
# 3 64.6731 19.5984 91.9321 0.0000 1.9397 0.0000
# 4 0.0000 0.0000 0.0000 7.5135 0.0000 5.1969
# 5 1.1956 1.6655 1.9397 0.0000 31.1906 0.0000
# 6 0.0000 0.0000 0.0000 5.1969 0.0000 16.6051
#
#
#
# Elastic Compliance Matrix: (Units=1/GPa)
#
#
# Indices 1 2 3 4 5 6 
#
# 1 0.011721 -0.004396 -0.007313 0.000000 0.000240 0.000000
# 2 -0.004396 0.018138 -0.000758 0.000000 -0.000753 0.000000
# 3 -0.007313 -0.000758 0.016198 0.000000 -0.000687 0.000000
# 4 0.000000 0.000000 0.000000 0.169866 0.000000 -0.053162
# 5 0.000240 -0.000753 -0.000687 0.000000 0.032135 0.000000
# 6 0.000000 0.000000 0.000000 -0.053162 0.000000 0.076860
#
#
# Mechanical properties :
#
#
# Convention : Reuss Voigt Hill
#
# Bulk Modulus (GPa) = 47.34399 59.75040 53.54719
# Shear Modulus (GPa) = 14.00976 22.75221 18.38098
#
# Velocity S-wave (km/s) = 2.86527 3.65143 3.28197
# Velocity P-wave (km/s) = 6.22015 7.26576 6.76319
#
# Compressibility (1/GPa) = 0.02112201
#
# Stress axis : x y z
#
# Youngs Moduli (GPa) = 85.31861 55.13257 61.73413
#
# Poissons Ratio (x) = 0.24238 0.45148
# Poissons Ratio (y) = 0.37508 0.04680
# Poissons Ratio (z) = 0.62396 0.04180
#
# Static dielectric constant tensor:
#      x y z
#    x 3.369170 0.000000 -0.181570 
#    y 0.000000 3.297790 0.000000 
#    z -0.181570 0.000000 3.171260 
# 
# 
# High freq. dielectric constant tensor:
#      x y z
#    x 1.660350 0.000000 -0.010770 
#    y 0.000000 1.644400 0.000000 
#    z -0.010770 0.000000 1.643700 
# 
# From -- ./inp_files/27872.got.cif
#   From: 2010.06.25/outbox.cif.g09.slc.cpg/sg10_14_cif.got.tgz:27872.got - 2010.06.27 22:07:45.
