data_PCOD8061598
_publ_section_title
;
Structure prediction by ZEFSAII (Michael W. Deem and Ramdas Pophale) SiO2 
 PCOD8061598
Probable space group: P 2/M
;
_chemical_formula_sum "Si O2"
_cell_formula_units_Z 32
_cell_length_a 9.576727
_cell_length_b 13.446550
_cell_length_c 27.442351
_cell_angle_alpha 90.000000
_cell_angle_beta 27.553822
_cell_angle_gamma 90.000000
_cell_volume 1634.698584
_symmetry_space_group_name_H-M "P 2/M"
_symmetry_group_IT_number 10
_symmetry_cell_setting 'monoclinic'
loop_
_space_group_symop_operation_xyz
x,y,z
-x,y,-z
-x,-y,-z
x,-y,z
loop_
_atom_site_type_symbol
_atom_site_label
_atom_site_fract_x
_atom_site_fract_y
_atom_site_fract_z
Si Si1 0.343798 0.208388 0.907073
Si Si2 0.630505 0.890843 0.508719
Si Si3 0.688119 0.270721 0.568459
Si Si4 0.250185 0.115956 0.036341
Si Si5 0.322573 0.255652 0.771111
Si Si6 0.545098 0.381445 0.788281
Si Si7 0.223332 0.615711 0.553752
Si Si8 0.327499 0.107503 0.281751
O O1 0.426872 0.326165 0.874128
O O2 0.553159 0.148409 0.805880
O O3 0.408045 0.164592 0.940301
O O4 0.000000 0.187908 0.000000
O O5 0.500000 0.840830 0.500000
O O6 0.577651 0.826071 0.573051
O O7 0.975349 0.900829 0.389054
O O8 0.486957 0.000000 0.562685
O O9 0.412624 0.299522 0.690323
O O10 0.729964 0.360212 0.517463
O O11 0.000000 0.252176 0.500000
O O12 0.984294 0.192086 0.133529
O O13 0.146392 0.000000 0.059827
O O14 0.500000 0.118117 0.000000
O O15 0.333499 0.343016 0.808668
O O16 0.588703 0.177888 0.699459
O O17 0.510063 0.500000 0.804663
O O18 0.892467 0.345799 0.672688
O O19 0.500000 0.661478 0.500000
O O20 0.221758 0.500000 0.561351
O O21 0.476095 0.000000 0.244642
#
# Coordination Sequence:
#
# PCOD8061598 Si02
#       8
#     4   4   4   4   4   4   4   4
#     4  11  21  38  63  90 110 150 204 248 297 350
#     4  10  22  37  53  81 121 160 196 237 291 357
#     4  12  21  35  58  87 119 157 197 237 294 346
#     4  11  25  43  61  86 121 155 194 252 310 354
#     4  11  22  37  56  89 117 153 198 244 294 352
#     4  10  21  39  64  93 123 154 199 247 296 356
#     4  10  22  40  63  91 123 157 194 241 295 353
#     4  10  19  33  57  83 112 147 196 246 287 347
#
# _framework density 19.575474
#
# number of rings (size 3 to 8) (size 9 to 14) (size 15 to 20)
#    0.000    1.375    5.000    1.875    0.000    4.750 
#    0.000    2.500    0.000    1.500    0.000    0.000 
#    0.000    0.000    0.000    0.000    0.000    0.000 
#
# Total GULP energy -396494.176525 kJ/mol
# GULP energy per Si atom -12390.443016 kJ/mol
# Density = 1.953092 g / cm^3
# Si number density = 19.575474 Si / 1000 Ang^3
#
#
#
# Elastic Constant Matrix: (Units=GPa)
#
#
# Indices 1 2 3 4 5 6 
#
# 1 101.4872 17.3041 23.7878 0.0000 4.7462 0.0000
# 2 17.3041 78.4237 17.4425 0.0000 -2.1090 0.0000
# 3 23.7878 17.4425 77.4906 0.0000 15.4044 0.0000
# 4 0.0000 0.0000 0.0000 6.1466 0.0000 -0.8615
# 5 4.7462 -2.1090 15.4044 0.0000 28.9815 0.0000
# 6 0.0000 0.0000 0.0000 -0.8615 0.0000 27.6119
#
#
#
# Elastic Compliance Matrix: (Units=1/GPa)
#
#
# Indices 1 2 3 4 5 6 
#
# 1 0.010842 -0.001768 -0.002853 0.000000 -0.000388 0.000000
# 2 -0.001768 0.013931 -0.003189 0.000000 0.002998 0.000000
# 3 -0.002853 -0.003189 0.016159 0.000000 -0.008354 0.000000
# 4 0.000000 0.000000 0.000000 0.163405 0.000000 0.005098
# 5 -0.000388 0.002998 -0.008354 0.000000 0.039227 0.000000
# 6 0.000000 0.000000 0.000000 0.005098 0.000000 0.036375
#
#
# Mechanical properties :
#
#
# Convention : Reuss Voigt Hill
#
# Bulk Modulus (GPa) = 39.50760 41.60778 40.55769
# Shear Modulus (GPa) = 16.44751 25.80583 21.12667
#
# Velocity S-wave (km/s) = 2.90178 3.63474 3.28875
# Velocity P-wave (km/s) = 5.60831 6.23830 5.93167
#
# Compressibility (1/GPa) = 0.02531159
#
# Stress axis : x y z
#
# Youngs Moduli (GPa) = 92.23552 71.78072 61.88450
#
# Poissons Ratio (x) = 0.12691 0.17656
# Poissons Ratio (y) = 0.16308 0.19736
# Poissons Ratio (z) = 0.26316 0.22892
#
# Static dielectric constant tensor:
#      x y z
#    x 3.671130 0.000000 -0.053820 
#    y 0.000000 3.874390 0.000000 
#    z -0.053820 0.000000 3.706190 
# 
# 
# High freq. dielectric constant tensor:
#      x y z
#    x 1.755340 0.000000 -0.000420 
#    y 0.000000 1.768990 0.000000 
#    z -0.000420 0.000000 1.761340 
# 
# From -- ./inp_files/88238.got.cif
#   From: 2010.06.25/outbox.cif.g09.slc.cpg/sg10_45_cif.got.tgz:88238.got - 2010.06.27 22:07:45.
