data_PCOD8061239
_publ_section_title
;
Structure prediction by ZEFSAII (Michael W. Deem and Ramdas Pophale) SiO2 
 PCOD8061239
Probable space group: P 2/M
;
_chemical_formula_sum "Si O2"
_cell_formula_units_Z 28
_cell_length_a 23.295357
_cell_length_b 8.663459
_cell_length_c 20.293309
_cell_angle_alpha 90.000000
_cell_angle_beta 159.875057
_cell_angle_gamma 90.000000
_cell_volume 1409.154001
_symmetry_space_group_name_H-M "P 2/M"
_symmetry_group_IT_number 10
_symmetry_cell_setting 'monoclinic'
loop_
_space_group_symop_operation_xyz
x,y,z
-x,y,-z
-x,-y,-z
x,-y,z
loop_
_atom_site_type_symbol
_atom_site_label
_atom_site_fract_x
_atom_site_fract_y
_atom_site_fract_z
Si Si1 0.676476 0.678957 0.879579
Si Si2 0.469294 0.816186 0.892779
Si Si3 0.882611 0.822227 0.538160
Si Si4 0.094684 0.328565 0.165022
Si Si5 0.992656 0.823913 0.798485
Si Si6 0.472719 0.671114 0.540567
Si Si7 0.253408 0.817438 0.909934
O O1 0.636959 0.500000 0.850362
O O2 0.556303 0.753174 0.693963
O O3 0.652891 0.770672 0.922019
O O4 0.861142 0.701001 0.051248
O O5 0.288050 0.746854 0.674957
O O6 0.464373 0.000000 0.881367
O O7 0.500000 0.760028 0.000000
O O8 0.627787 0.754025 0.020804
O O9 0.870332 0.801113 0.604062
O O10 0.060133 0.751763 0.701128
O O11 0.882650 0.000000 0.517604
O O12 0.022301 0.500000 0.103968
O O13 0.094835 0.213596 0.227064
O O14 0.281103 0.345679 0.344886
O O15 0.000000 0.255696 0.000000
O O16 0.059328 0.000000 0.870530
O O17 0.500000 0.759848 0.500000
O O18 0.556267 0.500000 0.625048
O O19 0.241438 0.000000 0.894202
#
# Coordination Sequence:
#
# PCOD8061239 Si02
#       7
#     4   4   4   4   4   4   4
#     4  10  19  33  54  76 100 133 173 215 258 312
#     4   9  17  29  49  77 106 138 175 215 263 317
#     4   8  16  30  46  71 104 135 170 213 260 310
#     4  10  20  34  53  75 100 134 174 215 259 308
#     4  10  20  34  52  75 104 135 169 214 265 313
#     4   9  18  32  50  73  99 129 169 215 258 301
#     4   9  18  32  51  75 106 138 170 216 268 312
#
# _framework density 19.870077999999999
#
# number of rings (size 3 to 8) (size 9 to 14) (size 15 to 20)
#    0.000    2.714    0.000    2.571    2.000    3.143 
#    0.000    3.571    0.000    3.429    0.000    4.000 
#    0.000    0.000    0.000    0.000    0.000    0.000 
#
# Total GULP energy -346872.498872 kJ/mol
# GULP energy per Si atom -12388.303531 kJ/mol
# Density = 1.982485 g / cm^3
# Si number density = 19.870078 Si / 1000 Ang^3
#
#
#
# Elastic Constant Matrix: (Units=GPa)
#
#
# Indices 1 2 3 4 5 6 
#
# 1 164.3870 14.2101 79.1034 0.0000 -5.9684 0.0000
# 2 14.2101 14.4493 14.3881 0.0000 -0.9408 0.0000
# 3 79.1034 14.3881 143.0414 0.0000 -16.9708 0.0000
# 4 0.0000 0.0000 0.0000 16.6166 0.0000 -3.8126
# 5 -5.9684 -0.9408 -16.9708 0.0000 30.6460 0.0000
# 6 0.0000 0.0000 0.0000 -3.8126 0.0000 17.8271
#
#
#
# Elastic Compliance Matrix: (Units=1/GPa)
#
#
# Indices 1 2 3 4 5 6 
#
# 1 0.008524 -0.004046 -0.004415 0.000000 -0.000909 0.000000
# 2 -0.004046 0.078953 -0.005897 0.000000 -0.001630 0.000000
# 3 -0.004415 -0.005897 0.010599 0.000000 0.004828 0.000000
# 4 0.000000 0.000000 0.000000 0.063286 0.000000 0.013535
# 5 -0.000909 -0.001630 0.004828 0.000000 0.035077 0.000000
# 6 0.000000 0.000000 0.000000 0.013535 0.000000 0.058989
#
#
# Mechanical properties :
#
#
# Convention : Reuss Voigt Hill
#
# Bulk Modulus (GPa) = 14.41780 59.69790 37.05785
# Shear Modulus (GPa) = 16.27259 27.29635 21.78447
#
# Velocity S-wave (km/s) = 2.86483 3.71042 3.31470
# Velocity P-wave (km/s) = 4.26788 6.96173 5.77410
#
# Compressibility (1/GPa) = 0.06935871
#
# Stress axis : x y z
#
# Youngs Moduli (GPa) = 117.30941 12.66577 94.35255
#
# Poissons Ratio (x) = 0.05125 0.41656
# Poissons Ratio (y) = 0.47467 0.55643
# Poissons Ratio (z) = 0.51792 0.07470
#
# Static dielectric constant tensor:
#      x y z
#    x 3.472810 0.000000 0.216620 
#    y 0.000000 3.196560 0.000000 
#    z 0.216620 0.000000 3.612970 
# 
# 
# High freq. dielectric constant tensor:
#      x y z
#    x 1.781290 0.000000 -0.003560 
#    y 0.000000 1.715890 0.000000 
#    z -0.003560 0.000000 1.781150 
# 
# From -- ./inp_files/86466.got.cif
#   From: 2010.06.25/outbox.cif.g09.slc.cpg/sg10_44_cif.got.tgz:86466.got - 2010.06.27 22:07:45.
