data_PCOD8061140
_publ_section_title
;
Structure prediction by ZEFSAII (Michael W. Deem and Ramdas Pophale) SiO2 
 PCOD8061140
Probable space group: P 2/M
;
_chemical_formula_sum "Si O2"
_cell_formula_units_Z 32
_cell_length_a 28.070798
_cell_length_b 9.108606
_cell_length_c 22.921042
_cell_angle_alpha 90.000000
_cell_angle_beta 161.624937
_cell_angle_gamma 90.000000
_cell_volume 1847.467790
_symmetry_space_group_name_H-M "P 2/M"
_symmetry_group_IT_number 10
_symmetry_cell_setting 'monoclinic'
loop_
_space_group_symop_operation_xyz
x,y,z
-x,y,-z
-x,-y,-z
x,-y,z
loop_
_atom_site_type_symbol
_atom_site_label
_atom_site_fract_x
_atom_site_fract_y
_atom_site_fract_z
Si Si1 0.213054 0.826388 0.671617
Si Si2 0.852413 0.160502 0.789380
Si Si3 0.667409 0.667457 0.078171
Si Si4 0.948847 0.824922 0.079298
Si Si5 0.972457 0.669065 0.712902
Si Si6 0.665914 0.824309 0.676432
Si Si7 0.072401 0.331645 0.703028
Si Si8 0.669383 0.331266 0.301044
O O1 0.279770 0.776772 0.810532
O O2 0.318981 0.766172 0.743301
O O3 0.043038 0.767911 0.467417
O O4 0.211573 0.000000 0.667297
O O5 0.721859 0.238295 0.677522
O O6 0.911205 0.239665 0.798045
O O7 0.789940 0.000000 0.699586
O O8 0.000000 0.141643 0.000000
O O9 0.690779 0.500000 0.127031
O O10 0.760553 0.697771 0.127366
O O11 0.493239 0.696834 0.859136
O O12 0.963446 0.768349 0.161478
O O13 0.957451 0.000000 0.088581
O O14 0.786286 0.772954 0.865288
O O15 0.988946 0.500000 0.750356
O O16 0.070641 0.706656 0.769496
O O17 0.797731 0.710885 0.497140
O O18 0.500000 0.761611 0.500000
O O19 0.662758 0.000000 0.669346
O O20 0.021353 0.500000 0.634878
O O21 0.692161 0.500000 0.308319
#
# Coordination Sequence:
#
# PCOD8061140 Si02
#       8
#     4   4   4   4   4   4   4   4
#     4  11  21  31  47  73 101 124 147 184 239 293
#     4   7  11  21  38  61  87 113 142 175 209 250
#     4  10  19  33  53  71  88 116 157 200 237 278
#     4   9  16  27  46  68  88 116 152 184 219 265
#     4   9  18  33  49  65  89 121 156 190 225 269
#     4   8  13  23  42  68  94 117 145 183 221 258
#     4   9  19  35  52  68  89 123 163 196 228 275
#     4   9  19  35  52  68  88 120 161 198 230 273
#
# _framework density 17.321006000000001
#
# number of rings (size 3 to 8) (size 9 to 14) (size 15 to 20)
#    0.000    3.000    0.000    4.125    0.000    6.000 
#    0.000    1.250    0.000    3.750    0.000    0.000 
#    0.000    0.000    0.000    0.000    0.000    0.000 
#
# Total GULP energy -396522.361568 kJ/mol
# GULP energy per Si atom -12391.323799 kJ/mol
# Density = 1.728158 g / cm^3
# Si number density = 17.321006 Si / 1000 Ang^3
#
#
#
# Elastic Constant Matrix: (Units=GPa)
#
#
# Indices 1 2 3 4 5 6 
#
# 1 118.3844 34.3784 88.9620 0.0000 16.2008 0.0000
# 2 34.3784 51.5041 30.8816 0.0000 -0.3860 0.0000
# 3 88.9620 30.8816 98.3897 0.0000 15.2457 0.0000
# 4 0.0000 0.0000 0.0000 -5.0435 0.0000 6.3259
# 5 16.2008 -0.3860 15.2457 0.0000 36.1736 0.0000
# 6 0.0000 0.0000 0.0000 6.3259 0.0000 1.0790
#
#
#
# Elastic Compliance Matrix: (Units=1/GPa)
#
#
# Indices 1 2 3 4 5 6 
#
# 1 0.027294 -0.004541 -0.022843 0.000000 -0.002645 0.000000
# 2 -0.004541 0.025134 -0.004428 0.000000 0.004169 0.000000
# 3 -0.022843 -0.004428 0.032770 0.000000 -0.003628 0.000000
# 4 0.000000 0.000000 0.000000 -0.023736 0.000000 0.139156
# 5 -0.002645 0.004169 -0.003628 0.000000 0.030402 0.000000
# 6 0.000000 0.000000 0.000000 0.139156 0.000000 0.110946
#
#
# Mechanical properties :
#
#
# Convention : Reuss Voigt Hill
#
# Bulk Modulus (GPa) = 46.35732 64.08027 55.21880
# Shear Modulus (GPa) = 18.27306 14.04556 16.15931
#
# Velocity S-wave (km/s) = 3.25155 2.85072 3.05771
# Velocity P-wave (km/s) = 6.39676 6.92181 6.66446
#
# Compressibility (1/GPa) = 0.02157157
#
# Stress axis : x y z
#
# Youngs Moduli (GPa) = 36.63840 39.78710 30.51555
#
# Poissons Ratio (x) = 0.18069 0.69707
# Poissons Ratio (y) = 0.16639 0.13514
# Poissons Ratio (z) = 0.83694 0.17619
#
# Static dielectric constant tensor:
#      x y z
#    x 3.533040 0.000000 0.312750 
#    y 0.000000 2.889910 0.000000 
#    z 0.312750 0.000000 3.170010 
# 
# 
# High freq. dielectric constant tensor:
#      x y z
#    x 1.676300 0.000000 0.016780 
#    y 0.000000 1.633250 0.000000 
#    z 0.016780 0.000000 1.649730 
# 
# From -- ./inp_files/87034.got.cif
#   From: 2010.06.25/outbox.cif.g09.slc.cpg/sg10_44_cif.got.tgz:87034.got - 2010.06.27 22:07:45.
