data_PCOD8061105
_publ_section_title
;
Structure prediction by ZEFSAII (Michael W. Deem and Ramdas Pophale) SiO2 
 PCOD8061105
Probable space group: P 2/M
;
_chemical_formula_sum "Si O2"
_cell_formula_units_Z 24
_cell_length_a 21.469477
_cell_length_b 9.263677
_cell_length_c 9.479490
_cell_angle_alpha 90.000000
_cell_angle_beta 134.417908
_cell_angle_gamma 90.000000
_cell_volume 1346.612062
_symmetry_space_group_name_H-M "P 2/M"
_symmetry_group_IT_number 10
_symmetry_cell_setting 'monoclinic'
loop_
_space_group_symop_operation_xyz
x,y,z
-x,y,-z
-x,-y,-z
x,-y,z
loop_
_atom_site_type_symbol
_atom_site_label
_atom_site_fract_x
_atom_site_fract_y
_atom_site_fract_z
Si Si1 0.021348 0.668289 0.692971
Si Si2 0.865625 0.168531 0.550509
Si Si3 0.728876 0.831114 0.569112
Si Si4 0.598480 0.667100 0.170607
Si Si5 0.736463 0.336220 0.159926
Si Si6 0.219041 0.334815 0.076955
O O1 0.002572 0.500000 0.682976
O O2 0.000000 0.717321 0.500000
O O3 0.959623 0.755048 0.703486
O O4 0.119951 0.708708 0.886316
O O5 0.815745 0.203168 0.616973
O O6 0.810403 0.229262 0.332383
O O7 0.878959 0.000000 0.548474
O O8 0.645086 0.757679 0.366111
O O9 0.741223 0.769690 0.744074
O O10 0.710283 0.000000 0.548296
O O11 0.601020 0.500000 0.219739
O O12 0.645203 0.692189 0.093981
O O13 0.500000 0.723308 0.000000
O O14 0.769762 0.500000 0.240078
O O15 0.723298 0.311621 0.972532
O O16 0.224508 0.500000 0.138320
#
# Coordination Sequence:
#
# PCOD8061105 Si02
#       6
#     4   4   4   4   4   4
#     4  10  19  33  52  75 103 136 180 222 256 299
#     4  10  20  33  50  74 103 139 179 215 256 303
#     4  10  22  37  52  75 109 142 171 210 260 312
#     4   9  18  35  61  86 103 128 170 215 259 312
#     4   9  17  33  55  77 104 135 171 215 259 306
#     4  10  20  34  53  76 103 139 176 215 260 303
#
# _framework density 17.822503999999999
#
# number of rings (size 3 to 8) (size 9 to 14) (size 15 to 20)
#    0.000    2.333    1.667    1.000    0.000    4.667 
#    0.000    4.167    0.000    5.000    0.000    0.000 
#    0.000    0.000    0.000    0.000    0.000    0.000 
#
# Total GULP energy -297658.149363 kJ/mol
# GULP energy per Si atom -12402.422890 kJ/mol
# Density = 1.778194 g / cm^3
# Si number density = 17.822504 Si / 1000 Ang^3
#
#
#
# Elastic Constant Matrix: (Units=GPa)
#
#
# Indices 1 2 3 4 5 6 
#
# 1 100.7252 46.0539 65.0620 0.0000 7.1358 0.0000
# 2 46.0539 70.2480 54.7531 0.0000 0.2593 0.0000
# 3 65.0620 54.7531 116.1200 0.0000 -2.2881 0.0000
# 4 0.0000 0.0000 0.0000 16.1637 0.0000 0.1451
# 5 7.1358 0.2593 -2.2881 0.0000 28.2432 0.0000
# 6 0.0000 0.0000 0.0000 0.1451 0.0000 24.0655
#
#
#
# Elastic Compliance Matrix: (Units=1/GPa)
#
#
# Indices 1 2 3 4 5 6 
#
# 1 0.017636 -0.005953 -0.007173 0.000000 -0.004982 0.000000
# 2 -0.005953 0.024549 -0.008228 0.000000 0.000612 0.000000
# 3 -0.007173 -0.008228 0.016574 0.000000 0.003230 0.000000
# 4 0.000000 0.000000 0.000000 0.061870 0.000000 -0.000373
# 5 -0.004982 0.000612 0.003230 0.000000 0.036922 0.000000
# 6 0.000000 0.000000 0.000000 -0.000373 0.000000 0.041556
#
#
# Mechanical properties :
#
#
# Convention : Reuss Voigt Hill
#
# Bulk Modulus (GPa) = 62.29866 68.75903 65.52885
# Shear Modulus (GPa) = 20.22961 21.77611 21.00286
#
# Velocity S-wave (km/s) = 3.37272 3.49926 3.43657
# Velocity P-wave (km/s) = 7.08505 7.41553 7.25217
#
# Compressibility (1/GPa) = 0.01605171
#
# Stress axis : x y z
#
# Youngs Moduli (GPa) = 56.70287 40.73549 60.33651
#
# Poissons Ratio (x) = 0.24250 0.43276
# Poissons Ratio (y) = 0.33755 0.49643
# Poissons Ratio (z) = 0.40670 0.33516
#
# Static dielectric constant tensor:
#      x y z
#    x 3.435720 0.000000 -0.017890 
#    y 0.000000 3.270090 0.000000 
#    z -0.017890 0.000000 3.086380 
# 
# 
# High freq. dielectric constant tensor:
#      x y z
#    x 1.692880 0.000000 -0.003760 
#    y 0.000000 1.688370 0.000000 
#    z -0.003760 0.000000 1.669350 
# 
# From -- ./inp_files/27331.got.cif
#   From: 2010.06.25/outbox.cif.g09.slc.cpg/sg10_14_cif.got.tgz:27331.got - 2010.06.27 22:07:45.
