data_PCOD8061070
_publ_section_title
;
Structure prediction by ZEFSAII (Michael W. Deem and Ramdas Pophale) SiO2 
 PCOD8061070
Probable space group: P 2/M
;
_chemical_formula_sum "Si O2"
_cell_formula_units_Z 32
_cell_length_a 14.878195
_cell_length_b 8.856534
_cell_length_c 16.750492
_cell_angle_alpha 90.000000
_cell_angle_beta 130.735010
_cell_angle_gamma 90.000000
_cell_volume 1672.474014
_symmetry_space_group_name_H-M "P 2/M"
_symmetry_group_IT_number 10
_symmetry_cell_setting 'monoclinic'
loop_
_space_group_symop_operation_xyz
x,y,z
-x,y,-z
-x,-y,-z
x,-y,z
loop_
_atom_site_type_symbol
_atom_site_label
_atom_site_fract_x
_atom_site_fract_y
_atom_site_fract_z
Si Si1 0.771340 0.821590 0.672156
Si Si2 0.299734 0.821382 0.535831
Si Si3 0.339098 0.328544 0.717287
Si Si4 0.394715 0.333762 0.182769
Si Si5 0.633493 0.821112 0.100993
Si Si6 0.555842 0.826124 0.641583
Si Si7 0.791576 0.325120 0.060781
Si Si8 0.009066 0.820228 0.097787
O O1 0.792733 0.783536 0.590205
O O2 0.638859 0.760380 0.618833
O O3 0.870903 0.757478 0.790063
O O4 0.769743 0.000000 0.683371
O O5 0.265180 0.739482 0.598771
O O6 0.425734 0.753582 0.576867
O O7 0.306502 0.000000 0.556646
O O8 0.296002 0.500000 0.707128
O O9 0.476741 0.319555 0.779791
O O10 0.322874 0.228470 0.786319
O O11 0.376261 0.500000 0.209876
O O12 0.371373 0.206014 0.235166
O O13 0.304210 0.300803 0.061842
O O14 0.737123 0.753961 0.106412
O O15 0.635084 0.000000 0.095535
O O16 0.500000 0.761845 0.000000
O O17 0.534900 0.000000 0.614183
O O18 0.817690 0.500000 0.094628
O O19 0.908813 0.245166 0.097013
O O20 0.001277 0.000000 0.094733
O O21 0.000000 0.762398 0.000000
#
# Coordination Sequence:
#
# PCOD8061070 Si02
#       8
#     4   4   4   4   4   4   4   4
#     4   9  17  31  51  74 103 139 179 229 280 318
#     4   9  17  30  50  76 105 138 180 224 270 326
#     4  10  19  33  51  75 110 144 172 208 265 326
#     4   9  18  30  45  69 104 141 171 207 261 321
#     4  11  22  35  56  85 113 141 178 221 268 327
#     4   9  16  27  48  75 101 134 178 223 267 318
#     4  11  22  36  54  77 109 148 185 224 273 325
#     4  10  21  37  56  79 109 147 191 235 274 316
#
# _framework density 19.133330999999998
#
# number of rings (size 3 to 8) (size 9 to 14) (size 15 to 20)
#    0.000    2.250    1.250    2.250    0.000    4.750 
#    0.000    1.875    0.000    3.750    0.000    5.250 
#    0.000    0.000    0.000    0.000    0.000    0.000 
#
# Total GULP energy -396424.424216 kJ/mol
# GULP energy per Si atom -12388.263257 kJ/mol
# Density = 1.908978 g / cm^3
# Si number density = 19.133331 Si / 1000 Ang^3
#
#
#
# Elastic Constant Matrix: (Units=GPa)
#
#
# Indices 1 2 3 4 5 6 
#
# 1 84.3059 21.0688 24.9375 0.0000 -14.9646 0.0000
# 2 21.0688 39.0611 19.6969 0.0000 -5.1858 0.0000
# 3 24.9375 19.6969 130.6263 0.0000 -24.5060 0.0000
# 4 0.0000 0.0000 0.0000 10.3662 0.0000 2.5239
# 5 -14.9646 -5.1858 -24.5060 0.0000 25.2473 0.0000
# 6 0.0000 0.0000 0.0000 2.5239 0.0000 17.5967
#
#
#
# Elastic Compliance Matrix: (Units=1/GPa)
#
#
# Indices 1 2 3 4 5 6 
#
# 1 0.014971 -0.006892 -0.000513 0.000000 0.006960 0.000000
# 2 -0.006892 0.030964 -0.003578 0.000000 -0.001198 0.000000
# 3 -0.000513 -0.003578 0.009901 0.000000 0.008571 0.000000
# 4 0.000000 0.000000 0.000000 0.099958 0.000000 -0.014337
# 5 0.006960 -0.001198 0.008571 0.000000 0.051807 0.000000
# 6 0.000000 0.000000 0.000000 -0.014337 0.000000 0.058885
#
#
# Mechanical properties :
#
#
# Convention : Reuss Voigt Hill
#
# Bulk Modulus (GPa) = 29.52565 42.82219 36.17392
# Shear Modulus (GPa) = 16.68098 23.19471 19.93784
#
# Velocity S-wave (km/s) = 2.95588 3.48554 3.23158
# Velocity P-wave (km/s) = 5.20717 6.21516 5.73336
#
# Compressibility (1/GPa) = 0.03386886
#
# Stress axis : x y z
#
# Youngs Moduli (GPa) = 66.79455 32.29587 101.00122
#
# Poissons Ratio (x) = 0.22260 0.05182
# Poissons Ratio (y) = 0.46038 0.36138
# Poissons Ratio (z) = 0.03427 0.11555
#
# Static dielectric constant tensor:
#      x y z
#    x 3.462520 0.000000 -0.113590 
#    y 0.000000 3.406250 0.000000 
#    z -0.113590 0.000000 3.775810 
# 
# 
# High freq. dielectric constant tensor:
#      x y z
#    x 1.719090 0.000000 -0.019280 
#    y 0.000000 1.723030 0.000000 
#    z -0.019280 0.000000 1.752370 
# 
# From -- ./inp_files/66633.got.cif
#   From: 2010.06.25/outbox.cif.g09.slc.cpg/sg10_34_cif.got.tgz:66633.got - 2010.06.27 22:07:45.
