data_PCOD8061137
_publ_section_title
;
Structure prediction by ZEFSAII (Michael W. Deem and Ramdas Pophale) SiO2 
 PCOD8061137
Probable space group: P 2/M
;
_chemical_formula_sum "Si O2"
_cell_formula_units_Z 32
_cell_length_a 15.251793
_cell_length_b 9.544808
_cell_length_c 23.406825
_cell_angle_alpha 90.000000
_cell_angle_beta 149.757280
_cell_angle_gamma 90.000000
_cell_volume 1716.215034
_symmetry_space_group_name_H-M "P 2/M"
_symmetry_group_IT_number 10
_symmetry_cell_setting 'monoclinic'
loop_
_space_group_symop_operation_xyz
x,y,z
-x,y,-z
-x,-y,-z
x,-y,z
loop_
_atom_site_type_symbol
_atom_site_label
_atom_site_fract_x
_atom_site_fract_y
_atom_site_fract_z
Si Si1 0.001539 0.840424 0.248083
Si Si2 0.816164 0.833051 0.419187
Si Si3 0.607505 0.834468 0.007420
Si Si4 0.499283 0.342688 0.563972
Si Si5 0.111373 0.341565 0.211999
Si Si6 0.234185 0.840242 0.482078
Si Si7 0.529999 0.834638 0.837377
Si Si8 0.096045 0.836001 0.995344
O O1 0.804333 0.792344 0.130702
O O2 0.117163 0.732598 0.277052
O O3 0.058241 0.827568 0.345944
O O4 0.028366 0.000000 0.241223
O O5 0.803683 0.779427 0.476899
O O6 0.648560 0.773096 0.290165
O O7 0.000000 0.772722 0.500000
O O8 0.817376 0.000000 0.416307
O O9 0.580966 0.000000 0.991366
O O10 0.500000 0.769030 0.000000
O O11 0.552256 0.772428 0.914257
O O12 0.500000 0.282818 0.500000
O O13 0.420838 0.500000 0.519164
O O14 0.691694 0.343393 0.699483
O O15 0.390162 0.244455 0.542912
O O16 0.038530 0.500000 0.175656
O O17 0.990324 0.251354 0.103272
O O18 0.297995 0.000000 0.521973
O O19 0.513369 0.000000 0.832711
O O20 0.697098 0.799166 0.890645
O O21 0.067031 0.000000 0.966617
O O22 0.000000 0.792463 0.000000
#
# Coordination Sequence:
#
# PCOD8061137 Si02
#       8
#     4   4   4   4   4   4   4   4
#     4  10  19  33  52  80 112 138 177 226 274 321
#     4   9  19  33  50  77 114 147 178 224 276 323
#     4   9  17  28  49  77 104 135 172 218 269 324
#     4  10  21  37  53  74 108 146 179 214 269 334
#     4  11  22  36  55  77 107 145 182 221 271 325
#     4  10  21  33  53  82 109 141 183 229 272 318
#     4   9  17  31  49  74 107 143 178 211 263 326
#     4  10  21  36  56  80 109 145 180 222 272 322
#
# _framework density 18.645681
#
# number of rings (size 3 to 8) (size 9 to 14) (size 15 to 20)
#    0.000    2.250    2.500    0.375    3.500    1.500 
#    0.000    0.000    0.000    0.750    0.000    0.000 
#    0.000    0.000    0.000    0.000    0.000    0.000 
#
# Total GULP energy -396681.337369 kJ/mol
# GULP energy per Si atom -12396.291793 kJ/mol
# Density = 1.860324 g / cm^3
# Si number density = 18.645681 Si / 1000 Ang^3
#
#
#
# Elastic Constant Matrix: (Units=GPa)
#
#
# Indices 1 2 3 4 5 6 
#
# 1 157.3824 34.2789 68.1594 0.0000 2.0631 0.0000
# 2 34.2789 41.7182 26.5302 0.0000 1.3418 0.0000
# 3 68.1594 26.5302 137.5962 0.0000 1.5155 0.0000
# 4 0.0000 0.0000 0.0000 4.1338 0.0000 -12.6129
# 5 2.0631 1.3418 1.5155 0.0000 29.3117 0.0000
# 6 0.0000 0.0000 0.0000 -12.6129 0.0000 -27.1972
#
#
#
# Elastic Compliance Matrix: (Units=1/GPa)
#
#
# Indices 1 2 3 4 5 6 
#
# 1 0.008977 -0.005178 -0.003446 0.000000 -0.000217 0.000000
# 2 -0.005178 0.030335 -0.003275 0.000000 -0.000855 0.000000
# 3 -0.003446 -0.003275 0.009607 0.000000 -0.000104 0.000000
# 4 0.000000 0.000000 0.000000 0.100170 0.000000 -0.046454
# 5 -0.000217 -0.000855 -0.000104 0.000000 0.034176 0.000000
# 6 0.000000 0.000000 0.000000 -0.046454 0.000000 -0.015225
#
#
# Mechanical properties :
#
#
# Convention : Reuss Voigt Hill
#
# Bulk Modulus (GPa) = 39.80575 66.07043 52.93809
# Shear Modulus (GPa) = 24.97374 15.09821 20.03598
#
# Velocity S-wave (km/s) = 3.66373 2.84869 3.28161
# Velocity P-wave (km/s) = 6.26834 6.80674 6.54308
#
# Compressibility (1/GPa) = 0.02512200
#
# Stress axis : x y z
#
# Youngs Moduli (GPa) = 111.39615 32.96551 104.08809
#
# Poissons Ratio (x) = 0.17069 0.35870
# Poissons Ratio (y) = 0.57677 0.34086
# Poissons Ratio (z) = 0.38388 0.10795
#
# Static dielectric constant tensor:
#      x y z
#    x 3.646450 0.000000 -0.028890 
#    y 0.000000 3.009590 0.000000 
#    z -0.028890 0.000000 3.621430 
# 
# 
# High freq. dielectric constant tensor:
#      x y z
#    x 1.725250 0.000000 -0.000720 
#    y 0.000000 1.672930 0.000000 
#    z -0.000720 0.000000 1.736440 
# 
# From -- ./inp_files/89592.got.cif
#   From: 2010.06.25/outbox.cif.g09.slc.cpg/sg10_45_cif.got.tgz:89592.got - 2010.06.27 22:07:45.
