data_PCOD8061192
_publ_section_title
;
Structure prediction by ZEFSAII (Michael W. Deem and Ramdas Pophale) SiO2 
 PCOD8061192
Probable space group: P 2/M
;
_chemical_formula_sum "Si O2"
_cell_formula_units_Z 32
_cell_length_a 14.391729
_cell_length_b 9.213576
_cell_length_c 22.884314
_cell_angle_alpha 90.000000
_cell_angle_beta 36.274954
_cell_angle_gamma 90.000000
_cell_volume 1795.361494
_symmetry_space_group_name_H-M "P 2/M"
_symmetry_group_IT_number 10
_symmetry_cell_setting 'monoclinic'
loop_
_space_group_symop_operation_xyz
x,y,z
-x,y,-z
-x,-y,-z
x,-y,z
loop_
_atom_site_type_symbol
_atom_site_label
_atom_site_fract_x
_atom_site_fract_y
_atom_site_fract_z
Si Si1 0.891082 0.336283 0.499321
Si Si2 0.745416 0.670773 0.378409
Si Si3 0.491027 0.328269 0.598956
Si Si4 0.571048 0.829158 0.671526
Si Si5 0.467032 0.835647 0.180053
Si Si6 0.097981 0.333193 0.211026
Si Si7 0.130910 0.167143 0.305217
Si Si8 0.595042 0.334521 0.007582
O O1 0.843214 0.500000 0.504860
O O2 0.740306 0.242646 0.589521
O O3 0.000000 0.339099 0.500000
O O4 0.983105 0.261581 0.400011
O O5 0.743075 0.500000 0.373306
O O6 0.648155 0.730633 0.372229
O O7 0.658187 0.712513 0.483453
O O8 0.924039 0.728883 0.284728
O O9 0.479337 0.500000 0.616250
O O10 0.472510 0.243938 0.669388
O O11 0.484118 0.799530 0.777757
O O12 0.589662 0.000000 0.650893
O O13 0.279407 0.812469 0.272098
O O14 0.509868 0.000000 0.142309
O O15 0.559232 0.739088 0.087290
O O16 0.087299 0.500000 0.238250
O O17 0.178406 0.231416 0.218545
O O18 0.216429 0.321591 0.096254
O O19 0.080021 0.000000 0.326542
O O20 0.539962 0.500000 0.041850
O O21 0.500000 0.267436 0.000000
#
# Coordination Sequence:
#
# PCOD8061192 Si02
#       8
#     4   4   4   4   4   4   4   4
#     4  11  22  33  48  71 100 137 175 210 247 298
#     4   8  16  32  55  79 106 134 166 211 262 315
#     4   9  17  33  56  81 104 134 173 210 256 317
#     4  11  22  36  52  74 105 141 175 214 261 310
#     4  10  22  36  50  69 101 142 177 209 257 312
#     4  10  19  33  53  77 105 136 170 216 268 312
#     4  11  21  33  49  72 103 140 174 209 253 308
#     4  10  20  33  51  76 103 133 176 224 262 301
#
# _framework density 17.823706999999999
#
# number of rings (size 3 to 8) (size 9 to 14) (size 15 to 20)
#    0.000    2.000    2.500    2.625    0.000    3.750 
#    0.000    1.875    0.000    0.750    0.000    5.250 
#    0.000    0.000    0.000    0.000    0.000    0.000 
#
# Total GULP energy -396705.199134 kJ/mol
# GULP energy per Si atom -12397.037473 kJ/mol
# Density = 1.778314 g / cm^3
# Si number density = 17.823707 Si / 1000 Ang^3
#
#
#
# Elastic Constant Matrix: (Units=GPa)
#
#
# Indices 1 2 3 4 5 6 
#
# 1 79.9426 37.0171 39.6306 0.0000 14.3957 0.0000
# 2 37.0171 81.0950 46.0066 0.0000 15.3458 0.0000
# 3 39.6306 46.0066 97.9588 0.0000 12.4449 0.0000
# 4 0.0000 0.0000 0.0000 22.8697 0.0000 3.0770
# 5 14.3957 15.3458 12.4449 0.0000 28.8969 0.0000
# 6 0.0000 0.0000 0.0000 3.0770 0.0000 21.8071
#
#
#
# Elastic Compliance Matrix: (Units=1/GPa)
#
#
# Indices 1 2 3 4 5 6 
#
# 1 0.017663 -0.004762 -0.004350 0.000000 -0.004396 0.000000
# 2 -0.004762 0.019083 -0.006400 0.000000 -0.005005 0.000000
# 3 -0.004350 -0.006400 0.015093 0.000000 -0.000934 0.000000
# 4 0.000000 0.000000 0.000000 0.044572 0.000000 -0.006289
# 5 -0.004396 -0.005005 -0.000934 0.000000 0.039856 0.000000
# 6 0.000000 0.000000 0.000000 -0.006289 0.000000 0.046744
#
#
# Mechanical properties :
#
#
# Convention : Reuss Voigt Hill
#
# Bulk Modulus (GPa) = 48.04670 56.03388 52.04029
# Shear Modulus (GPa) = 22.62713 23.80420 23.21567
#
# Velocity S-wave (km/s) = 3.56686 3.65846 3.61295
# Velocity P-wave (km/s) = 6.63163 7.02509 6.83119
#
# Compressibility (1/GPa) = 0.02081309
#
# Stress axis : x y z
#
# Youngs Moduli (GPa) = 56.61705 52.40285 66.25705
#
# Poissons Ratio (x) = 0.24956 0.28825
# Poissons Ratio (y) = 0.26963 0.42403
# Poissons Ratio (z) = 0.24631 0.33537
#
# Static dielectric constant tensor:
#      x y z
#    x 3.441590 0.000000 -0.025920 
#    y 0.000000 3.198070 0.000000 
#    z -0.025920 0.000000 3.259670 
# 
# 
# High freq. dielectric constant tensor:
#      x y z
#    x 1.677550 0.000000 0.009610 
#    y 0.000000 1.679590 0.000000 
#    z 0.009610 0.000000 1.679810 
# 
# From -- ./inp_files/70008.got.cif
#   From: 2010.06.25/outbox.cif.g09.slc.cpg/sg10_36_cif.got.tgz:70008.got - 2010.06.27 22:07:45.
