data_PCOD8061240
_publ_section_title
;
Structure prediction by ZEFSAII (Michael W. Deem and Ramdas Pophale) SiO2 
 PCOD8061240
Probable space group: P 2/M
;
_chemical_formula_sum "Si O2"
_cell_formula_units_Z 28
_cell_length_a 15.748927
_cell_length_b 8.946896
_cell_length_c 10.643019
_cell_angle_alpha 90.000000
_cell_angle_beta 89.708120
_cell_angle_gamma 90.000000
_cell_volume 1499.624618
_symmetry_space_group_name_H-M "P 2/M"
_symmetry_group_IT_number 10
_symmetry_cell_setting 'monoclinic'
loop_
_space_group_symop_operation_xyz
x,y,z
-x,y,-z
-x,-y,-z
x,-y,z
loop_
_atom_site_type_symbol
_atom_site_label
_atom_site_fract_x
_atom_site_fract_y
_atom_site_fract_z
Si Si1 0.580780 0.826019 0.423303
Si Si2 0.236908 0.173640 0.888757
Si Si3 0.363966 0.334853 0.041374
Si Si4 0.253853 0.322807 0.628307
Si Si5 0.934270 0.328175 0.111850
Si Si6 0.937006 0.325002 0.395310
Si Si7 0.483746 0.665863 0.804392
O O1 0.500000 0.761655 0.500000
O O2 0.670385 0.745470 0.458150
O O3 0.557287 0.793876 0.279926
O O4 0.593725 0.000000 0.448008
O O5 0.270236 0.269650 0.770717
O O6 0.140623 0.215403 0.920205
O O7 0.245326 0.000000 0.856777
O O8 0.290844 0.214522 0.012793
O O9 0.322743 0.500000 0.057326
O O10 0.417412 0.292755 0.166352
O O11 0.431532 0.337326 0.930938
O O12 0.259771 0.500000 0.623873
O O13 0.160164 0.265647 0.585592
O O14 0.901962 0.500000 0.113276
O O15 0.969577 0.289955 0.252457
O O16 0.000000 0.301786 0.000000
O O17 0.935368 0.500000 0.419294
O O18 0.000000 0.251398 0.500000
O O19 0.479433 0.500000 0.741102
#
# Coordination Sequence:
#
# PCOD8061240 Si02
#       7
#     4   4   4   4   4   4   4
#     4  11  23  36  50  72 106 143 178 219 265 315
#     4  11  20  30  50  78 106 136 170 209 257 318
#     4   9  17  31  51  76 101 126 164 215 259 296
#     4  10  19  33  54  76 100 133 178 224 260 308
#     4   9  18  33  53  76 104 138 173 215 266 314
#     4   8  15  30  54  81 103 127 168 219 265 312
#     4   9  18  32  52  74  98 129 168 214 257 300
#
# _framework density 18.671340000000001
#
# number of rings (size 3 to 8) (size 9 to 14) (size 15 to 20)
#    0.000    2.429    1.429    3.857    0.000    2.000 
#    0.000    2.857    0.000   14.143    0.000    0.000 
#    0.000    0.000    0.000    0.000    0.000    0.000 
#
# Total GULP energy -346924.329900 kJ/mol
# GULP energy per Si atom -12390.154639 kJ/mol
# Density = 1.862884 g / cm^3
# Si number density = 18.671340 Si / 1000 Ang^3
#
#
#
# Elastic Constant Matrix: (Units=GPa)
#
#
# Indices 1 2 3 4 5 6 
#
# 1 125.3231 35.2405 54.4417 0.0000 7.0549 0.0000
# 2 35.2405 61.8036 14.1936 0.0000 -0.0690 0.0000
# 3 54.4417 14.1936 60.2990 0.0000 4.4655 0.0000
# 4 0.0000 0.0000 0.0000 11.0064 0.0000 -4.9878
# 5 7.0549 -0.0690 4.4655 0.0000 34.0940 0.0000
# 6 0.0000 0.0000 0.0000 -4.9878 0.0000 22.3108
#
#
#
# Elastic Compliance Matrix: (Units=1/GPa)
#
#
# Indices 1 2 3 4 5 6 
#
# 1 0.014878 -0.005736 -0.011970 0.000000 -0.001522 0.000000
# 2 -0.005736 0.019327 0.000544 0.000000 0.001155 0.000000
# 3 -0.011970 0.000544 0.027345 0.000000 -0.001104 0.000000
# 4 0.000000 0.000000 0.000000 0.101099 0.000000 0.022601
# 5 -0.001522 0.001155 -0.001104 0.000000 0.029793 0.000000
# 6 0.000000 0.000000 0.000000 0.022601 0.000000 0.049874
#
#
# Mechanical properties :
#
#
# Convention : Reuss Voigt Hill
#
# Bulk Modulus (GPa) = 36.72921 50.57525 43.65223
# Shear Modulus (GPa) = 17.50000 23.05222 20.27611
#
# Velocity S-wave (km/s) = 3.06480 3.51754 3.29895
# Velocity P-wave (km/s) = 5.67786 6.60631 6.15961
#
# Compressibility (1/GPa) = 0.02722628
#
# Stress axis : x y z
#
# Youngs Moduli (GPa) = 67.21415 51.73999 36.57024
#
# Poissons Ratio (x) = 0.29679 0.43773
# Poissons Ratio (y) = 0.38555 -0.01989
# Poissons Ratio (z) = 0.80453 -0.02815
#
# Static dielectric constant tensor:
#      x y z
#    x 3.830660 0.000000 0.291800 
#    y 0.000000 3.228870 0.000000 
#    z 0.291800 0.000000 3.442030 
# 
# 
# High freq. dielectric constant tensor:
#      x y z
#    x 1.731080 0.000000 0.012870 
#    y 0.000000 1.703570 0.000000 
#    z 0.012870 0.000000 1.693160 
# 
# From -- ./inp_files/48785.got.cif
#   From: 2010.06.25/outbox.cif.g09.slc.cpg/sg10_25_cif.got.tgz:48785.got - 2010.06.27 22:07:45.
