data_PCOD8061652
_publ_section_title
;
Structure prediction by ZEFSAII (Michael W. Deem and Ramdas Pophale) SiO2 
 PCOD8061652
Probable space group: P 2/M
;
_chemical_formula_sum "Si O2"
_cell_formula_units_Z 24
_cell_length_a 21.898050
_cell_length_b 8.899754
_cell_length_c 11.529136
_cell_angle_alpha 90.000000
_cell_angle_beta 31.425161
_cell_angle_gamma 90.000000
_cell_volume 1171.489095
_symmetry_space_group_name_H-M "P 2/M"
_symmetry_group_IT_number 10
_symmetry_cell_setting 'monoclinic'
loop_
_space_group_symop_operation_xyz
x,y,z
-x,y,-z
-x,-y,-z
x,-y,z
loop_
_atom_site_type_symbol
_atom_site_label
_atom_site_fract_x
_atom_site_fract_y
_atom_site_fract_z
Si Si1 0.222476 0.177561 0.454671
Si Si2 0.237206 0.322674 0.668794
Si Si3 0.533409 0.677557 0.571510
Si Si4 0.954052 0.824037 0.878001
Si Si5 0.113267 0.328526 0.240167
Si Si6 0.676532 0.675938 0.931724
O O1 0.274104 0.252948 0.486212
O O2 0.301670 0.231445 0.219941
O O3 0.088226 0.230810 0.654555
O O4 0.231151 0.000000 0.451592
O O5 0.228186 0.500000 0.670188
O O6 0.335362 0.276161 0.604592
O O7 0.111563 0.257141 0.909683
O O8 0.500000 0.748531 0.500000
O O9 0.520721 0.500000 0.582470
O O10 0.444830 0.732460 0.815447
O O11 0.889008 0.781271 0.865092
O O12 0.945549 0.000000 0.913891
O O13 0.120053 0.500000 0.183840
O O14 0.224832 0.285635 0.134462
O O15 0.000000 0.300574 0.500000
O O16 0.676452 0.500000 0.900591
#
# Coordination Sequence:
#
# PCOD8061652 Si02
#       6
#     4   4   4   4   4   4
#     4  11  24  40  57  83 121 158 193 237 294 352
#     4  11  23  39  62  87 113 151 200 245 286 340
#     4   9  19  38  63  89 116 147 187 239 295 344
#     4  11  23  38  58  84 120 160 194 236 294 352
#     4  10  19  33  58  90 117 146 191 241 285 335
#     4  10  20  37  62  89 119 153 193 241 289 343
#
# _framework density 20.486747000000001
#
# number of rings (size 3 to 8) (size 9 to 14) (size 15 to 20)
#    0.000    1.667    1.667    3.000    0.000    8.333 
#    0.000    5.000    0.000    3.500    0.000    0.000 
#    0.000    0.000    0.000    0.000    0.000    0.000 
#
# Total GULP energy -297700.844973 kJ/mol
# GULP energy per Si atom -12404.201874 kJ/mol
# Density = 2.044012 g / cm^3
# Si number density = 20.486747 Si / 1000 Ang^3
#
#
#
# Elastic Constant Matrix: (Units=GPa)
#
#
# Indices 1 2 3 4 5 6 
#
# 1 104.7607 37.6914 27.4456 0.0000 22.1381 0.0000
# 2 37.6914 65.9769 40.6128 0.0000 6.1114 0.0000
# 3 27.4456 40.6128 141.2809 0.0000 10.6563 0.0000
# 4 0.0000 0.0000 0.0000 21.2523 0.0000 8.2118
# 5 22.1381 6.1114 10.6563 0.0000 31.2680 0.0000
# 6 0.0000 0.0000 0.0000 8.2118 0.0000 14.0182
#
#
#
# Elastic Compliance Matrix: (Units=1/GPa)
#
#
# Indices 1 2 3 4 5 6 
#
# 1 0.013908 -0.007159 -0.000007 0.000000 -0.008445 0.000000
# 2 -0.007159 0.022204 -0.005180 0.000000 0.002494 0.000000
# 3 -0.000007 -0.005180 0.008716 0.000000 -0.001953 0.000000
# 4 0.000000 0.000000 0.000000 0.060820 0.000000 -0.035628
# 5 -0.008445 0.002494 -0.001953 0.000000 0.038139 0.000000
# 6 0.000000 0.000000 0.000000 -0.035628 0.000000 0.092207
#
#
# Mechanical properties :
#
#
# Convention : Reuss Voigt Hill
#
# Bulk Modulus (GPa) = 49.66231 58.16868 53.91550
# Shear Modulus (GPa) = 18.69875 27.05895 22.87885
#
# Velocity S-wave (km/s) = 3.02441 3.63823 3.34543
# Velocity P-wave (km/s) = 6.04069 6.78999 6.42627
#
# Compressibility (1/GPa) = 0.02013599
#
# Stress axis : x y z
#
# Youngs Moduli (GPa) = 71.90314 45.03656 114.73306
#
# Poissons Ratio (x) = 0.32240 0.00079
# Poissons Ratio (y) = 0.51473 0.59435
# Poissons Ratio (z) = 0.00050 0.23330
#
# Static dielectric constant tensor:
#      x y z
#    x 3.649980 0.000000 0.147840 
#    y 0.000000 3.427410 0.000000 
#    z 0.147840 0.000000 3.740350 
# 
# 
# High freq. dielectric constant tensor:
#      x y z
#    x 1.807470 0.000000 0.006130 
#    y 0.000000 1.776230 0.000000 
#    z 0.006130 0.000000 1.812390 
# 
# From -- ./inp_files/56535.got.cif
#   From: 2010.06.25/outbox.cif.g09.slc.cpg/sg10_29_cif.got.tgz:56535.got - 2010.06.27 22:07:45.
