data_PCOD8061055
_publ_section_title
;
Structure prediction by ZEFSAII (Michael W. Deem and Ramdas Pophale) SiO2 
 PCOD8061055
Probable space group: P 2/M
;
_chemical_formula_sum "Si O2"
_cell_formula_units_Z 32
_cell_length_a 17.142680
_cell_length_b 8.895827
_cell_length_c 26.076963
_cell_angle_alpha 90.000000
_cell_angle_beta 25.181277
_cell_angle_gamma 90.000000
_cell_volume 1692.017591
_symmetry_space_group_name_H-M "P 2/M"
_symmetry_group_IT_number 10
_symmetry_cell_setting 'monoclinic'
loop_
_space_group_symop_operation_xyz
x,y,z
-x,y,-z
-x,-y,-z
x,-y,z
loop_
_atom_site_type_symbol
_atom_site_label
_atom_site_fract_x
_atom_site_fract_y
_atom_site_fract_z
Si Si1 0.101906 0.180106 0.830203
Si Si2 0.714318 0.166759 0.918055
Si Si3 0.226284 0.180108 0.536950
Si Si4 0.163976 0.174572 0.267082
Si Si5 0.601831 0.821134 0.265475
Si Si6 0.869491 0.168604 0.297849
Si Si7 0.305935 0.178721 0.902764
Si Si8 0.530936 0.675270 0.858090
O O1 0.240236 0.241739 0.790971
O O2 0.168969 0.244988 0.734747
O O3 0.099358 0.000000 0.830667
O O4 0.897767 0.239217 0.963849
O O5 0.722307 0.202029 0.852973
O O6 0.913857 0.169165 0.823666
O O7 0.629087 0.000000 0.977752
O O8 0.592364 0.289906 0.018910
O O9 0.404670 0.240286 0.401445
O O10 0.226487 0.246255 0.595483
O O11 0.044132 0.235439 0.615523
O O12 0.217982 0.000000 0.545545
O O13 0.262657 0.266316 0.253773
O O14 0.161624 0.000000 0.283243
O O15 0.639840 0.762277 0.185883
O O16 0.602553 0.000000 0.266711
O O17 0.793021 0.000000 0.340232
O O18 0.452993 0.243077 0.854585
O O19 0.313005 0.000000 0.901503
O O20 0.535057 0.500000 0.844894
#
# Coordination Sequence:
#
# PCOD8061055 Si02
#       8
#     4   4   4   4   4   4   4   4
#     4   9  15  25  46  75 103 130 162 198 247 300
#     4   9  16  30  50  73 102 135 164 190 241 310
#     4   8  15  28  45  71 105 132 162 200 243 290
#     4   9  18  32  52  73 100 136 165 195 244 306
#     4   9  17  28  47  75 100 128 167 212 246 280
#     4   8  13  23  43  71 104 135 155 187 239 300
#     4  10  19  33  51  71 102 136 167 201 246 300
#     4  12  23  32  47  73 101 128 167 214 252 288
#
# _framework density 18.912331999999999
#
# number of rings (size 3 to 8) (size 9 to 14) (size 15 to 20)
#    0.000    2.750    1.250    3.375    0.000    4.000 
#    0.000    3.125    0.000    6.000    0.000    0.000 
#    0.000    2.250    0.000    0.000    0.000    0.000 
#
# Total GULP energy -396606.864695 kJ/mol
# GULP energy per Si atom -12393.964522 kJ/mol
# Density = 1.886929 g / cm^3
# Si number density = 18.912332 Si / 1000 Ang^3
#
#
#
# Elastic Constant Matrix: (Units=GPa)
#
#
# Indices 1 2 3 4 5 6 
#
# 1 158.5027 21.3773 73.7261 0.0000 -10.2700 0.0000
# 2 21.3773 24.7853 14.7851 0.0000 -1.1377 0.0000
# 3 73.7261 14.7851 116.7609 0.0000 6.3304 0.0000
# 4 0.0000 0.0000 0.0000 1.1626 0.0000 1.9191
# 5 -10.2700 -1.1377 6.3304 0.0000 14.2526 0.0000
# 6 0.0000 0.0000 0.0000 1.9191 0.0000 4.1768
#
#
#
# Elastic Compliance Matrix: (Units=1/GPa)
#
#
# Indices 1 2 3 4 5 6 
#
# 1 0.010770 -0.004781 -0.006758 0.000000 0.010380 0.000000
# 2 -0.004781 0.046287 -0.002926 0.000000 0.001549 0.000000
# 3 -0.006758 -0.002926 0.013811 0.000000 -0.011237 0.000000
# 4 0.000000 0.000000 0.000000 3.561109 0.000000 -1.636237
# 5 0.010380 0.001549 -0.011237 0.000000 0.082757 0.000000
# 6 0.000000 0.000000 0.000000 -1.636237 0.000000 0.991227
#
#
# Mechanical properties :
#
#
# Convention : Reuss Voigt Hill
#
# Bulk Modulus (GPa) = 23.84484 57.75844 40.80164
# Shear Modulus (GPa) = 1.05288 16.59576 8.82432
#
# Velocity S-wave (km/s) = 0.74694 2.96549 2.16241
# Velocity P-wave (km/s) = 3.65778 6.50630 5.27784
#
# Compressibility (1/GPa) = 0.04193780
#
# Stress axis : x y z
#
# Youngs Moduli (GPa) = 92.85292 21.60435 72.40465
#
# Poissons Ratio (x) = 0.10330 0.48929
# Poissons Ratio (y) = 0.44396 0.21187
# Poissons Ratio (z) = 0.62747 0.06322
#
# Static dielectric constant tensor:
#      x y z
#    x 3.714100 0.000000 0.007070 
#    y 0.000000 2.765160 0.000000 
#    z 0.007070 0.000000 3.528790 
# 
# 
# High freq. dielectric constant tensor:
#      x y z
#    x 1.750780 0.000000 -0.006670 
#    y 0.000000 1.658450 0.000000 
#    z -0.006670 0.000000 1.726340 
# 
# From -- ./inp_files/89513.got.cif
#   From: 2010.06.25/outbox.cif.g09.slc.cpg/sg10_45_cif.got.tgz:89513.got - 2010.06.27 22:07:45.
