data_PCOD8061404
_publ_section_title
;
Structure prediction by ZEFSAII (Michael W. Deem and Ramdas Pophale) SiO2 
 PCOD8061404
Probable space group: P 2/M
;
_chemical_formula_sum "Si O2"
_cell_formula_units_Z 28
_cell_length_a 9.872850
_cell_length_b 9.025389
_cell_length_c 28.054494
_cell_angle_alpha 90.000000
_cell_angle_beta 37.089997
_cell_angle_gamma 90.000000
_cell_volume 1507.570810
_symmetry_space_group_name_H-M "P 2/M"
_symmetry_group_IT_number 10
_symmetry_cell_setting 'monoclinic'
loop_
_space_group_symop_operation_xyz
x,y,z
-x,y,-z
-x,-y,-z
x,-y,z
loop_
_atom_site_type_symbol
_atom_site_label
_atom_site_fract_x
_atom_site_fract_y
_atom_site_fract_z
Si Si1 0.662327 0.327458 0.867741
Si Si2 0.251333 0.326688 0.555138
Si Si3 0.992729 0.829252 0.295278
Si Si4 0.662953 0.831842 0.303553
Si Si5 0.076427 0.175774 0.124237
Si Si6 0.765701 0.674611 0.547631
Si Si7 0.859970 0.328480 0.992503
O O1 0.720308 0.500000 0.856671
O O2 0.722489 0.250128 0.901454
O O3 0.404160 0.301678 0.926085
O O4 0.800238 0.258335 0.785549
O O5 0.500000 0.284003 0.500000
O O6 0.200621 0.500000 0.575734
O O7 0.064926 0.238166 0.637251
O O8 0.239533 0.271339 0.504796
O O9 0.773354 0.810744 0.324278
O O10 0.063781 0.000000 0.280347
O O11 0.437872 0.736516 0.363638
O O12 0.839344 0.778251 0.214225
O O13 0.594132 0.000000 0.313562
O O14 0.114572 0.000000 0.115571
O O15 0.064389 0.231366 0.073674
O O16 0.750167 0.500000 0.556531
O O17 0.000000 0.738284 0.500000
O O18 0.911459 0.500000 0.967015
O O19 0.000000 0.277204 0.000000
#
# Coordination Sequence:
#
# PCOD8061404 Si02
#       7
#     4   4   4   4   4   4   4
#     4  10  20  36  60  85 112 145 185 230 274 325
#     4  10  19  33  55  80 106 140 184 225 269 323
#     4  10  20  34  55  84 112 140 181 230 277 320
#     4   9  19  35  54  78 109 141 178 222 268 322
#     4  10  21  37  59  87 114 144 184 229 277 330
#     4  10  21  36  53  77 107 141 182 226 270 319
#     4  10  22  40  59  83 114 148 186 226 274 330
#
# _framework density 18.572925999999999
#
# number of rings (size 3 to 8) (size 9 to 14) (size 15 to 20)
#    0.000    2.143    1.429    2.571    0.000    7.143 
#    2.571    0.000    0.000    0.000    0.000    0.000 
#    0.000    0.000    0.000    0.000    0.000    0.000 
#
# Total GULP energy -347217.834414 kJ/mol
# GULP energy per Si atom -12400.636943 kJ/mol
# Density = 1.853065 g / cm^3
# Si number density = 18.572926 Si / 1000 Ang^3
#
#
#
# Elastic Constant Matrix: (Units=GPa)
#
#
# Indices 1 2 3 4 5 6 
#
# 1 123.9303 49.1370 63.2933 0.0000 -3.8998 0.0000
# 2 49.1370 84.9178 59.8492 0.0000 0.1112 0.0000
# 3 63.2933 59.8492 116.6833 0.0000 2.3904 0.0000
# 4 0.0000 0.0000 0.0000 32.6950 0.0000 7.7978
# 5 -3.8998 0.1112 2.3904 0.0000 21.7629 0.0000
# 6 0.0000 0.0000 0.0000 7.7978 0.0000 20.6392
#
#
#
# Elastic Compliance Matrix: (Units=1/GPa)
#
#
# Indices 1 2 3 4 5 6 
#
# 1 0.011993 -0.003633 -0.004697 0.000000 0.002683 0.000000
# 2 -0.003633 0.019563 -0.008067 0.000000 0.000135 0.000000
# 3 -0.004697 -0.008067 0.015306 0.000000 -0.002482 0.000000
# 4 0.000000 0.000000 0.000000 0.033615 0.000000 -0.012700
# 5 0.002683 0.000135 -0.002482 0.000000 0.046703 0.000000
# 6 0.000000 0.000000 0.000000 -0.012700 0.000000 0.053250
#
#
# Mechanical properties :
#
#
# Convention : Reuss Voigt Hill
#
# Bulk Modulus (GPa) = 71.07442 74.45448 72.76445
# Shear Modulus (GPa) = 22.94509 25.23622 24.09066
#
# Velocity S-wave (km/s) = 3.51865 3.69014 3.60541
# Velocity P-wave (km/s) = 7.40666 7.63746 7.52295
#
# Compressibility (1/GPa) = 0.01406976
#
# Stress axis : x y z
#
# Youngs Moduli (GPa) = 83.38483 51.11653 65.33203
#
# Poissons Ratio (x) = 0.18568 0.30686
# Poissons Ratio (y) = 0.30290 0.52701
# Poissons Ratio (z) = 0.39166 0.41234
#
# Static dielectric constant tensor:
#      x y z
#    x 3.371300 0.000000 0.014880 
#    y 0.000000 3.369140 0.000000 
#    z 0.014880 0.000000 3.418660 
# 
# 
# High freq. dielectric constant tensor:
#      x y z
#    x 1.705240 0.000000 0.002200 
#    y 0.000000 1.721600 0.000000 
#    z 0.002200 0.000000 1.731090 
# 
# From -- ./inp_files/36943.got.cif
#   From: 2010.06.25/outbox.cif.g09.slc.cpg/sg10_19_cif.got.tgz:36943.got - 2010.06.27 22:07:45.
