data_PCOD8061951
_publ_section_title
;
Structure prediction by ZEFSAII (Michael W. Deem and Ramdas Pophale) SiO2 
 PCOD8061951
Probable space group: P 2/M
;
_chemical_formula_sum "Si O2"
_cell_formula_units_Z 28
_cell_length_a 25.305025
_cell_length_b 9.488098
_cell_length_c 9.549961
_cell_angle_alpha 90.000000
_cell_angle_beta 41.065415
_cell_angle_gamma 90.000000
_cell_volume 1506.260841
_symmetry_space_group_name_H-M "P 2/M"
_symmetry_group_IT_number 10
_symmetry_cell_setting 'monoclinic'
loop_
_space_group_symop_operation_xyz
x,y,z
-x,y,-z
-x,-y,-z
x,-y,z
loop_
_atom_site_type_symbol
_atom_site_label
_atom_site_fract_x
_atom_site_fract_y
_atom_site_fract_z
Si Si1 0.087715 0.157326 0.310406
Si Si2 0.816823 0.341935 0.093304
Si Si3 0.188407 0.840295 0.386321
Si Si4 0.497997 0.333707 0.845523
Si Si5 0.092784 0.660152 0.796828
Si Si6 0.640910 0.665031 0.371290
Si Si7 0.659099 0.666642 0.016645
O O1 0.129616 0.155922 0.374317
O O2 0.000000 0.228597 0.500000
O O3 0.077909 0.000000 0.268894
O O4 0.140804 0.242816 0.099257
O O5 0.822436 0.500000 0.022457
O O6 0.859629 0.328954 0.154602
O O7 0.723228 0.297890 0.288299
O O8 0.137174 0.769104 0.609828
O O9 0.213231 0.000000 0.379306
O O10 0.266348 0.748744 0.197392
O O11 0.510566 0.500000 0.830518
O O12 0.569495 0.267071 0.607296
O O13 0.415130 0.295624 0.934996
O O14 0.500000 0.270567 0.000000
O O15 0.096829 0.500000 0.729652
O O16 0.000000 0.706017 0.000000
O O17 0.624938 0.500000 0.392676
O O18 0.641924 0.722303 0.209071
O O19 0.678140 0.500000 0.978171
#
# Coordination Sequence:
#
# PCOD8061951 Si02
#       7
#     4   4   4   4   4   4   4
#     4  10  21  37  56  79 109 145 187 231 272 324
#     4  10  20  34  56  83 111 142 180 229 277 329
#     4  11  23  37  56  82 113 149 190 230 275 335
#     4   9  18  30  52  85 113 141 178 224 274 329
#     4  10  22  38  56  82 114 147 186 232 283 335
#     4   9  17  31  51  81 112 138 175 221 274 327
#     4  10  19  34  57  81 111 146 180 226 280 328
#
# _framework density 18.589077
#
# number of rings (size 3 to 8) (size 9 to 14) (size 15 to 20)
#    0.000    2.143    1.429    1.714    2.000    3.429 
#    0.000    0.000    0.000    3.000    0.000    0.000 
#    0.000    0.000    0.000    0.000    0.000    0.000 
#
# Total GULP energy -347139.173213 kJ/mol
# GULP energy per Si atom -12397.827615 kJ/mol
# Density = 1.854677 g / cm^3
# Si number density = 18.589077 Si / 1000 Ang^3
#
#
#
# Elastic Constant Matrix: (Units=GPa)
#
#
# Indices 1 2 3 4 5 6 
#
# 1 126.1054 32.6025 62.1327 0.0000 -13.1866 0.0000
# 2 32.6025 67.1618 62.3633 0.0000 -7.6279 0.0000
# 3 62.1327 62.3633 160.2863 0.0000 -15.6848 0.0000
# 4 0.0000 0.0000 0.0000 23.4149 0.0000 0.6335
# 5 -13.1866 -7.6279 -15.6848 0.0000 31.9758 0.0000
# 6 0.0000 0.0000 0.0000 0.6335 0.0000 17.1791
#
#
#
# Elastic Compliance Matrix: (Units=1/GPa)
#
#
# Indices 1 2 3 4 5 6 
#
# 1 0.010117 -0.001907 -0.002958 0.000000 0.002266 0.000000
# 2 -0.001907 0.023712 -0.008414 0.000000 0.000743 0.000000
# 3 -0.002958 -0.008414 0.010865 0.000000 0.002102 0.000000
# 4 0.000000 0.000000 0.000000 0.042751 0.000000 -0.001577
# 5 0.002266 0.000743 0.002102 0.000000 0.033417 0.000000
# 6 0.000000 0.000000 0.000000 -0.001577 0.000000 0.058268
#
#
# Mechanical properties :
#
#
# Convention : Reuss Voigt Hill
#
# Bulk Modulus (GPa) = 55.13794 74.19450 64.66622
# Shear Modulus (GPa) = 23.61455 27.61096 25.61276
#
# Velocity S-wave (km/s) = 3.56806 3.85818 3.71595
# Velocity P-wave (km/s) = 6.83378 7.73609 7.29889
#
# Compressibility (1/GPa) = 0.01813633
#
# Stress axis : x y z
#
# Youngs Moduli (GPa) = 98.83984 42.17219 92.04022
#
# Poissons Ratio (x) = 0.08043 0.27226
# Poissons Ratio (y) = 0.18851 0.77441
# Poissons Ratio (z) = 0.29237 0.35483
#
# Static dielectric constant tensor:
#      x y z
#    x 3.624290 0.000000 -0.062100 
#    y 0.000000 3.295430 0.000000 
#    z -0.062100 0.000000 3.562120 
# 
# 
# High freq. dielectric constant tensor:
#      x y z
#    x 1.738340 0.000000 -0.006250 
#    y 0.000000 1.683690 0.000000 
#    z -0.006250 0.000000 1.731850 
# 
# From -- ./inp_files/36955.got.cif
#   From: 2010.06.25/outbox.cif.g09.slc.cpg/sg10_19_cif.got.tgz:36955.got - 2010.06.27 22:07:45.
