data_PCOD8061355
_publ_section_title
;
Structure prediction by ZEFSAII (Michael W. Deem and Ramdas Pophale) SiO2 
 PCOD8061355
Probable space group: P 2/M
;
_chemical_formula_sum "Si O2"
_cell_formula_units_Z 28
_cell_length_a 14.685414
_cell_length_b 17.893077
_cell_length_c 8.738100
_cell_angle_alpha 90.000000
_cell_angle_beta 143.269127
_cell_angle_gamma 90.000000
_cell_volume 1373.190770
_symmetry_space_group_name_H-M "P 2/M"
_symmetry_group_IT_number 10
_symmetry_cell_setting 'monoclinic'
loop_
_space_group_symop_operation_xyz
x,y,z
-x,y,-z
-x,-y,-z
x,-y,z
loop_
_atom_site_type_symbol
_atom_site_label
_atom_site_fract_x
_atom_site_fract_y
_atom_site_fract_z
Si Si1 0.190358 0.084523 0.595694
Si Si2 0.643644 0.319507 0.788017
Si Si3 0.297704 0.161945 0.043733
Si Si4 0.089757 0.083476 0.977546
Si Si5 0.826923 0.586475 0.794094
Si Si6 0.572606 0.352376 0.258638
Si Si7 0.411591 0.178835 0.724826
O O1 0.208436 0.129659 0.777158
O O2 0.264699 0.126108 0.546726
O O3 0.013116 0.081569 0.314041
O O4 0.255568 0.000000 0.701621
O O5 0.500000 0.286456 0.500000
O O6 0.760714 0.366989 0.846412
O O7 0.566234 0.371389 0.813014
O O8 0.733610 0.250982 0.988446
O O9 0.241718 0.127476 0.130288
O O10 0.479551 0.149393 0.265871
O O11 0.138163 0.000000 0.092703
O O12 0.000000 0.121271 0.000000
O O13 0.824157 0.500000 0.835679
O O14 0.722590 0.599435 0.502370
O O15 0.000000 0.613294 0.000000
O O16 0.627535 0.266145 0.346756
O O17 0.500000 0.374553 0.000000
O O18 0.500000 0.166809 0.000000
#
# Coordination Sequence:
#
# PCOD8061355 Si02
#       7
#     4   4   4   4   4   4   4
#     4  10  20  35  55  78 107 146 190 234 282 337
#     4   9  20  37  58  84 113 147 185 227 283 349
#     4  10  19  33  55  78 102 137 183 229 273 323
#     4  10  22  36  48  70 106 144 184 231 284 340
#     4  10  22  40  61  87 119 153 189 232 285 344
#     4   9  18  36  60  87 119 152 191 236 280 338
#     4   8  17  32  52  79 107 135 178 233 279 324
#
# _framework density 20.390466
#
# number of rings (size 3 to 8) (size 9 to 14) (size 15 to 20)
#    0.000    2.571    0.000    1.714    0.000   12.286 
#    0.000    3.571    0.000    6.000    0.000    0.000 
#    0.000    0.000    0.000    0.000    0.000    0.000 
#
# Total GULP energy -346957.942728 kJ/mol
# GULP energy per Si atom -12391.355097 kJ/mol
# Density = 2.034406 g / cm^3
# Si number density = 20.390466 Si / 1000 Ang^3
#
#
#
# Elastic Constant Matrix: (Units=GPa)
#
#
# Indices 1 2 3 4 5 6 
#
# 1 162.3719 53.8396 39.5354 0.0000 9.4260 0.0000
# 2 53.8396 83.2785 32.4216 0.0000 12.0368 0.0000
# 3 39.5354 32.4216 72.6897 0.0000 1.3012 0.0000
# 4 0.0000 0.0000 0.0000 17.4795 0.0000 -2.4894
# 5 9.4260 12.0368 1.3012 0.0000 28.5939 0.0000
# 6 0.0000 0.0000 0.0000 -2.4894 0.0000 29.2579
#
#
#
# Elastic Compliance Matrix: (Units=1/GPa)
#
#
# Indices 1 2 3 4 5 6 
#
# 1 0.008227 -0.004190 -0.002591 0.000000 -0.000830 0.000000
# 2 -0.004190 0.017705 -0.005514 0.000000 -0.005821 0.000000
# 3 -0.002591 -0.005514 0.017583 0.000000 0.002375 0.000000
# 4 0.000000 0.000000 0.000000 0.057912 0.000000 0.004927
# 5 -0.000830 -0.005821 0.002375 0.000000 0.037588 0.000000
# 6 0.000000 0.000000 0.000000 0.004927 0.000000 0.034598
#
#
# Mechanical properties :
#
#
# Convention : Reuss Voigt Hill
#
# Bulk Modulus (GPa) = 52.83872 63.32592 58.08232
# Shear Modulus (GPa) = 24.44862 27.90249 26.17555
#
# Velocity S-wave (km/s) = 3.46645 3.70321 3.58678
# Velocity P-wave (km/s) = 6.48007 7.02916 6.76020
#
# Compressibility (1/GPa) = 0.01892552
#
# Stress axis : x y z
#
# Youngs Moduli (GPa) = 121.54905 56.48226 56.87324
#
# Poissons Ratio (x) = 0.23667 0.14735
# Poissons Ratio (y) = 0.50931 0.31358
# Poissons Ratio (z) = 0.31492 0.31142
#
# Static dielectric constant tensor:
#      x y z
#    x 4.174680 0.000000 0.062170 
#    y 0.000000 3.515810 0.000000 
#    z 0.062170 0.000000 3.558510 
# 
# 
# High freq. dielectric constant tensor:
#      x y z
#    x 1.813510 0.000000 -0.004840 
#    y 0.000000 1.776080 0.000000 
#    z -0.004840 0.000000 1.779020 
# 
# From -- ./inp_files/30179.got.cif
#   From: 2010.06.25/outbox.cif.g09.slc.cpg/sg10_16_cif.got.tgz:30179.got - 2010.06.27 22:07:45.
