data_PCOD8061173
_publ_section_title
;
Structure prediction by ZEFSAII (Michael W. Deem and Ramdas Pophale) SiO2 
 PCOD8061173
Probable space group: P 2/M
;
_chemical_formula_sum "Si O2"
_cell_formula_units_Z 32
_cell_length_a 28.797996
_cell_length_b 9.046295
_cell_length_c 23.248519
_cell_angle_alpha 90.000000
_cell_angle_beta 17.249938
_cell_angle_gamma 90.000000
_cell_volume 1796.025017
_symmetry_space_group_name_H-M "P 2/M"
_symmetry_group_IT_number 10
_symmetry_cell_setting 'monoclinic'
loop_
_space_group_symop_operation_xyz
x,y,z
-x,y,-z
-x,-y,-z
x,-y,z
loop_
_atom_site_type_symbol
_atom_site_label
_atom_site_fract_x
_atom_site_fract_y
_atom_site_fract_z
Si Si1 0.849586 0.331586 0.059260
Si Si2 0.518079 0.670591 0.235879
Si Si3 0.702850 0.174143 0.339338
Si Si4 0.598646 0.330542 0.266858
Si Si5 0.194689 0.330948 0.671218
Si Si6 0.700392 0.174338 0.922530
Si Si7 0.647053 0.674728 0.865143
Si Si8 0.009617 0.337485 0.556669
O O1 0.821308 0.500000 0.113303
O O2 0.783974 0.223640 0.184897
O O3 0.766807 0.301207 0.096213
O O4 0.031984 0.300748 0.831493
O O5 0.545763 0.500000 0.185374
O O6 0.608482 0.710722 0.188029
O O7 0.334327 0.706171 0.461976
O O8 0.577842 0.778304 0.115886
O O9 0.526381 0.233521 0.550754
O O10 0.802339 0.231226 0.275618
O O11 0.698584 0.000000 0.346018
O O12 0.543990 0.500000 0.337501
O O13 0.211165 0.500000 0.672444
O O14 0.640744 0.243367 0.933495
O O15 0.874184 0.226065 0.737380
O O16 0.703257 0.000000 0.912263
O O17 0.639867 0.500000 0.885730
O O18 0.812799 0.714701 0.637273
O O19 0.500000 0.726084 0.000000
O O20 0.977039 0.500000 0.622203
O O21 0.000000 0.348820 0.500000
#
# Coordination Sequence:
#
# PCOD8061173 Si02
#       8
#     4   4   4   4   4   4   4   4
#     4  10  19  33  53  75  97 122 160 209 259 305
#     4   9  18  35  54  70  94 130 173 212 245 288
#     4  11  21  31  47  73 103 133 163 197 246 308
#     4   9  19  35  54  73  94 125 165 211 254 292
#     4   9  19  35  54  73  95 128 168 211 253 295
#     4  11  21  32  51  77 105 138 170 200 241 294
#     4   9  18  34  56  81 107 134 166 206 248 285
#     4   8  15  30  52  76 101 130 166 204 238 276
#
# _framework density 17.817124
#
# number of rings (size 3 to 8) (size 9 to 14) (size 15 to 20)
#    0.000    2.500    0.000    4.500    0.000    8.500 
#    0.000    1.250    0.000    4.500    0.000    0.000 
#    0.000    0.000    0.000    0.000    0.000    0.000 
#
# Total GULP energy -396721.308984 kJ/mol
# GULP energy per Si atom -12397.540906 kJ/mol
# Density = 1.777657 g / cm^3
# Si number density = 17.817124 Si / 1000 Ang^3
#
#
#
# Elastic Constant Matrix: (Units=GPa)
#
#
# Indices 1 2 3 4 5 6 
#
# 1 94.6349 47.6824 84.8509 0.0000 -21.0226 0.0000
# 2 47.6824 94.9300 52.9774 0.0000 0.5673 0.0000
# 3 84.8509 52.9774 103.2180 0.0000 -13.8316 0.0000
# 4 0.0000 0.0000 0.0000 0.5419 0.0000 1.5199
# 5 -21.0226 0.5673 -13.8316 0.0000 36.2905 0.0000
# 6 0.0000 0.0000 0.0000 1.5199 0.0000 8.7689
#
#
#
# Elastic Compliance Matrix: (Units=1/GPa)
#
#
# Indices 1 2 3 4 5 6 
#
# 1 0.046339 -0.004408 -0.033959 0.000000 0.013970 0.000000
# 2 -0.004408 0.015563 -0.004994 0.000000 -0.004700 0.000000
# 3 -0.033959 -0.004994 0.039563 0.000000 -0.004515 0.000000
# 4 0.000000 0.000000 0.000000 3.591907 0.000000 -0.622592
# 5 0.013970 -0.004700 -0.004515 0.000000 0.034000 0.000000
# 6 0.000000 0.000000 0.000000 -0.622592 0.000000 0.221955
#
#
# Mechanical properties :
#
#
# Convention : Reuss Voigt Hill
#
# Bulk Modulus (GPa) = 67.82937 73.75603 70.79270
# Shear Modulus (GPa) = 1.23733 16.27173 8.75453
#
# Velocity S-wave (km/s) = 0.83425 3.02530 2.21906
# Velocity P-wave (km/s) = 6.25143 7.32730 6.81064
#
# Compressibility (1/GPa) = 0.01474288
#
# Stress axis : x y z
#
# Youngs Moduli (GPa) = 21.57992 64.25341 25.27618
#
# Poissons Ratio (x) = 0.28321 0.85836
# Poissons Ratio (y) = 0.09512 0.12624
# Poissons Ratio (z) = 0.73284 0.32091
#
# Static dielectric constant tensor:
#      x y z
#    x 3.276650 0.000000 -0.355550 
#    y 0.000000 3.182290 0.000000 
#    z -0.355550 0.000000 3.491210 
# 
# 
# High freq. dielectric constant tensor:
#      x y z
#    x 1.670970 0.000000 -0.017470 
#    y 0.000000 1.678400 0.000000 
#    z -0.017470 0.000000 1.690530 
# 
# From -- ./inp_files/86907.got.cif
#   From: 2010.06.25/outbox.cif.g09.slc.cpg/sg10_44_cif.got.tgz:86907.got - 2010.06.27 22:07:45.
