data_PCOD8061128
_publ_section_title
;
Structure prediction by ZEFSAII (Michael W. Deem and Ramdas Pophale) SiO2 
 PCOD8061128
Probable space group: P 2/M
;
_chemical_formula_sum "Si O2"
_cell_formula_units_Z 32
_cell_length_a 23.441839
_cell_length_b 8.946619
_cell_length_c 31.324275
_cell_angle_alpha 90.000000
_cell_angle_beta 14.383100
_cell_angle_gamma 90.000000
_cell_volume 1631.888770
_symmetry_space_group_name_H-M "P 2/M"
_symmetry_group_IT_number 10
_symmetry_cell_setting 'monoclinic'
loop_
_space_group_symop_operation_xyz
x,y,z
-x,y,-z
-x,-y,-z
x,-y,z
loop_
_atom_site_type_symbol
_atom_site_label
_atom_site_fract_x
_atom_site_fract_y
_atom_site_fract_z
Si Si1 0.352263 0.822985 0.645364
Si Si2 0.435478 0.335581 0.753952
Si Si3 0.867668 0.823992 0.961773
Si Si4 0.451193 0.825130 0.408631
Si Si5 0.319240 0.677825 0.982264
Si Si6 0.930783 0.174602 0.761298
Si Si7 0.828796 0.322087 0.587606
Si Si8 0.951168 0.665132 0.406178
O O1 0.500000 0.753191 0.500000
O O2 0.454877 0.759494 0.614928
O O3 0.089838 0.775591 0.827988
O O4 0.379182 0.000000 0.626343
O O5 0.317892 0.500000 0.840736
O O6 0.392793 0.257387 0.739592
O O7 0.703403 0.354447 0.565653
O O8 0.349167 0.229815 0.854200
O O9 0.864789 0.743810 0.917911
O O10 0.860124 0.000000 0.959011
O O11 0.181483 0.790828 0.599187
O O12 0.499534 0.000000 0.368696
O O13 0.304304 0.500000 0.993678
O O14 0.258348 0.739926 0.073217
O O15 0.572815 0.734532 0.784477
O O16 0.906138 0.230693 0.729998
O O17 0.875968 0.000000 0.801763
O O18 0.823758 0.500000 0.588338
O O19 0.924460 0.260923 0.472740
O O20 0.000000 0.263877 0.500000
O O21 0.067403 0.500000 0.324859
#
# Coordination Sequence:
#
# PCOD8061128 Si02
#       8
#     4   4   4   4   4   4   4   4
#     4   9  18  33  51  71  99 136 180 227 271 315
#     4  10  19  33  52  77 107 139 176 223 276 324
#     4  11  21  33  54  79 104 139 181 225 271 323
#     4   9  18  34  54  75 103 140 186 230 267 313
#     4  11  21  36  57  84 113 142 178 227 275 322
#     4  10  20  34  56  84 110 145 186 226 269 321
#     4   9  18  35  60  86 110 140 181 224 266 320
#     4   9  17  34  57  81 109 143 181 223 268 317
#
# _framework density 19.609179000000001
#
# number of rings (size 3 to 8) (size 9 to 14) (size 15 to 20)
#    0.000    2.250    1.250    2.250    0.000    3.500 
#    0.000    4.375    0.000    9.750    0.000    0.000 
#    0.000    0.000    0.000    0.000    0.000    0.000 
#
# Total GULP energy -396717.027087 kJ/mol
# GULP energy per Si atom -12397.407096 kJ/mol
# Density = 1.956455 g / cm^3
# Si number density = 19.609179 Si / 1000 Ang^3
#
#
#
# Elastic Constant Matrix: (Units=GPa)
#
#
# Indices 1 2 3 4 5 6 
#
# 1 144.6784 42.3303 48.7165 0.0000 29.7813 0.0000
# 2 42.3303 69.1870 36.9695 0.0000 10.5880 0.0000
# 3 48.7165 36.9695 68.3365 0.0000 25.9214 0.0000
# 4 0.0000 0.0000 0.0000 20.5660 0.0000 9.2955
# 5 29.7813 10.5880 25.9214 0.0000 36.7164 0.0000
# 6 0.0000 0.0000 0.0000 9.2955 0.0000 24.8429
#
#
#
# Elastic Compliance Matrix: (Units=1/GPa)
#
#
# Indices 1 2 3 4 5 6 
#
# 1 0.010104 -0.003610 -0.003463 0.000000 -0.004709 0.000000
# 2 -0.003610 0.021804 -0.010854 0.000000 0.004304 0.000000
# 3 -0.003463 -0.010854 0.028301 0.000000 -0.014040 0.000000
# 4 0.000000 0.000000 0.000000 0.058521 0.000000 -0.021897
# 5 -0.004709 0.004304 -0.014040 0.000000 0.039727 0.000000
# 6 0.000000 0.000000 0.000000 -0.021897 0.000000 0.048446
#
#
# Mechanical properties :
#
#
# Convention : Reuss Voigt Hill
#
# Bulk Modulus (GPa) = 41.06519 59.80381 50.43450
# Shear Modulus (GPa) = 19.93021 26.70411 23.31716
#
# Velocity S-wave (km/s) = 3.19152 3.69428 3.45207
# Velocity P-wave (km/s) = 5.87948 6.98291 6.45482
#
# Compressibility (1/GPa) = 0.02435153
#
# Stress axis : x y z
#
# Youngs Moduli (GPa) = 98.97287 45.86347 35.33501
#
# Poissons Ratio (x) = 0.16559 0.12238
# Poissons Ratio (y) = 0.35733 0.38354
# Poissons Ratio (z) = 0.34279 0.49782
#
# Static dielectric constant tensor:
#      x y z
#    x 3.762890 0.000000 0.201640 
#    y 0.000000 3.451780 0.000000 
#    z 0.201640 0.000000 3.460640 
# 
# 
# High freq. dielectric constant tensor:
#      x y z
#    x 1.768520 0.000000 0.021410 
#    y 0.000000 1.741080 0.000000 
#    z 0.021410 0.000000 1.750280 
# 
# From -- ./inp_files/93609.got.cif
#   From: 2010.06.25/outbox.cif.g09.slc.cpg/sg10_47_cif.got.tgz:93609.got - 2010.06.27 22:07:45.
