data_PCOD8061658
_publ_section_title
;
Structure prediction by ZEFSAII (Michael W. Deem and Ramdas Pophale) SiO2 
 PCOD8061658
Probable space group: P 2/M
;
_chemical_formula_sum "Si O2"
_cell_formula_units_Z 28
_cell_length_a 9.457335
_cell_length_b 14.342181
_cell_length_c 21.550651
_cell_angle_alpha 90.000000
_cell_angle_beta 27.298250
_cell_angle_gamma 90.000000
_cell_volume 1340.601314
_symmetry_space_group_name_H-M "P 2/M"
_symmetry_group_IT_number 10
_symmetry_cell_setting 'monoclinic'
loop_
_space_group_symop_operation_xyz
x,y,z
-x,y,-z
-x,-y,-z
x,-y,z
loop_
_atom_site_type_symbol
_atom_site_label
_atom_site_fract_x
_atom_site_fract_y
_atom_site_fract_z
Si Si1 0.239276 0.346942 0.957632
Si Si2 0.756102 0.397972 0.240399
Si Si3 0.224058 0.793196 0.708172
Si Si4 0.653124 0.180816 0.002130
Si Si5 0.073699 0.207889 0.540431
Si Si6 0.734019 0.603201 0.672829
Si Si7 0.099740 0.895475 0.274525
O O1 0.387928 0.255955 0.928616
O O2 0.513073 0.404612 0.818846
O O3 0.000000 0.310866 0.000000
O O4 0.060879 0.407269 0.078693
O O5 0.705728 0.500000 0.290794
O O6 0.808277 0.319600 0.272692
O O7 0.464086 0.369671 0.311173
O O8 0.575386 0.819138 0.582186
O O9 0.121831 0.828527 0.680293
O O10 0.010183 0.842315 0.845404
O O11 0.441798 0.095934 0.109707
O O12 0.500000 0.223392 0.000000
O O13 0.000000 0.173175 0.500000
O O14 0.998183 0.318606 0.577487
O O15 0.873082 0.148185 0.667398
O O16 0.884897 0.500000 0.606084
O O17 0.963312 0.000000 0.330327
#
# Coordination Sequence:
#
# PCOD8061658 Si02
#       7
#     4   4   4   4   4   4   4
#     4   9  16  30  57  91 124 163 208 251 301 357
#     4   9  17  32  58  94 131 165 206 252 300 357
#     4  10  22  39  64  95 127 165 202 252 309 366
#     4   9  19  37  64  91 119 154 203 254 311 366
#     4  12  24  41  63  94 128 168 204 255 307 365
#     4  10  19  33  59  92 127 170 213 247 295 361
#     4  11  25  46  70  90 117 158 209 263 320 379
#
# _framework density 20.886149
#
# number of rings (size 3 to 8) (size 9 to 14) (size 15 to 20)
#    0.000    2.000    2.857    0.857    0.000    6.571 
#    0.000    0.714    0.000    8.571    0.000    0.000 
#    0.000    0.000    0.000    0.000    0.000    0.000 
#
# Total GULP energy -346943.208698 kJ/mol
# GULP energy per Si atom -12390.828882 kJ/mol
# Density = 2.083861 g / cm^3
# Si number density = 20.886149 Si / 1000 Ang^3
#
#
#
# Elastic Constant Matrix: (Units=GPa)
#
#
# Indices 1 2 3 4 5 6 
#
# 1 87.6583 56.2884 34.0924 0.0000 16.3479 0.0000
# 2 56.2884 116.0336 24.9498 0.0000 8.6520 0.0000
# 3 34.0924 24.9498 105.5890 0.0000 -3.4103 0.0000
# 4 0.0000 0.0000 0.0000 8.4886 0.0000 0.7603
# 5 16.3479 8.6520 -3.4103 0.0000 30.0587 0.0000
# 6 0.0000 0.0000 0.0000 0.7603 0.0000 16.0977
#
#
#
# Elastic Compliance Matrix: (Units=1/GPa)
#
#
# Indices 1 2 3 4 5 6 
#
# 1 0.020222 -0.008063 -0.004922 0.000000 -0.009236 0.000000
# 2 -0.008063 0.012547 -0.000338 0.000000 0.000735 0.000000
# 3 -0.004922 -0.000338 0.011271 0.000000 0.004053 0.000000
# 4 0.000000 0.000000 0.000000 0.118306 0.000000 -0.005588
# 5 -0.009236 0.000735 0.004053 0.000000 0.038539 0.000000
# 6 0.000000 0.000000 0.000000 -0.005588 0.000000 0.062385
#
#
# Mechanical properties :
#
#
# Convention : Reuss Voigt Hill
#
# Bulk Modulus (GPa) = 57.49025 59.99356 58.74191
# Shear Modulus (GPa) = 16.90818 23.85902 20.38360
#
# Velocity S-wave (km/s) = 2.84833 3.38351 3.12739
# Velocity P-wave (km/s) = 6.19698 6.63707 6.42080
#
# Compressibility (1/GPa) = 0.01739425
#
# Stress axis : x y z
#
# Youngs Moduli (GPa) = 49.45055 79.69848 88.72522
#
# Poissons Ratio (x) = 0.64259 0.43675
# Poissons Ratio (y) = 0.39871 0.02997
# Poissons Ratio (z) = 0.24342 0.02692
#
# Static dielectric constant tensor:
#      x y z
#    x 3.629150 0.000000 0.086060 
#    y 0.000000 3.523400 0.000000 
#    z 0.086060 0.000000 4.073830 
# 
# 
# High freq. dielectric constant tensor:
#      x y z
#    x 1.792490 0.000000 0.007800 
#    y 0.000000 1.790920 0.000000 
#    z 0.007800 0.000000 1.839920 
# 
# From -- ./inp_files/64910.got.cif
#   From: 2010.06.25/outbox.cif.g09.slc.cpg/sg10_33_cif.got.tgz:64910.got - 2010.06.27 22:07:45.
