data_PCOD8061774
_publ_section_title
;
Structure prediction by ZEFSAII (Michael W. Deem and Ramdas Pophale) SiO2 
 PCOD8061774
Probable space group: P 2/M
;
_chemical_formula_sum "Si O2"
_cell_formula_units_Z 24
_cell_length_a 24.045898
_cell_length_b 8.571137
_cell_length_c 11.312153
_cell_angle_alpha 90.000000
_cell_angle_beta 34.261849
_cell_angle_gamma 90.000000
_cell_volume 1312.545838
_symmetry_space_group_name_H-M "P 2/M"
_symmetry_group_IT_number 10
_symmetry_cell_setting 'monoclinic'
loop_
_space_group_symop_operation_xyz
x,y,z
-x,y,-z
-x,-y,-z
x,-y,z
loop_
_atom_site_type_symbol
_atom_site_label
_atom_site_fract_x
_atom_site_fract_y
_atom_site_fract_z
Si Si1 0.543760 0.180880 0.754321
Si Si2 0.029540 0.327934 0.312025
Si Si3 0.411063 0.318720 0.572174
Si Si4 0.183467 0.316785 0.342630
Si Si5 0.224859 0.179368 0.019100
Si Si6 0.640258 0.681412 0.802797
O O1 0.586217 0.219854 0.552001
O O2 0.626527 0.221282 0.706880
O O3 0.517150 0.000000 0.809389
O O4 0.444651 0.278870 0.952993
O O5 0.062134 0.500000 0.211067
O O6 0.121192 0.211303 0.132979
O O7 0.000000 0.335290 0.500000
O O8 0.929272 0.273274 0.420678
O O9 0.500000 0.263463 0.500000
O O10 0.420897 0.500000 0.523502
O O11 0.308304 0.287922 0.817303
O O12 0.190476 0.500000 0.296842
O O13 0.216746 0.217362 0.171483
O O14 0.253852 0.274489 0.328331
O O15 0.253808 0.000000 0.951241
O O16 0.633783 0.500000 0.782820
#
# Coordination Sequence:
#
# PCOD8061774 Si02
#       6
#     4   4   4   4   4   4
#     4  11  22  35  51  75 105 133 164 205 254 297
#     4   8  15  30  49  70  99 133 168 205 245 291
#     4  11  23  38  55  73  97 133 172 205 243 297
#     4   9  18  32  52  76 101 133 172 209 244 289
#     4  11  21  31  48  76 107 135 163 203 255 301
#     4  10  19  34  55  76 100 133 172 207 243 292
#
# _framework density 18.285076
#
# number of rings (size 3 to 8) (size 9 to 14) (size 15 to 20)
#    0.000    2.000    0.000    7.000    0.000    9.667 
#    0.000    0.000    0.000    1.000    0.000    7.000 
#    0.000    0.000    0.000    0.000    0.000    0.000 
#
# Total GULP energy -297600.932580 kJ/mol
# GULP energy per Si atom -12400.038858 kJ/mol
# Density = 1.824346 g / cm^3
# Si number density = 18.285076 Si / 1000 Ang^3
#
#
#
# Elastic Constant Matrix: (Units=GPa)
#
#
# Indices 1 2 3 4 5 6 
#
# 1 117.5267 28.0011 48.9073 0.0000 -26.6319 0.0000
# 2 28.0011 59.5120 13.6347 0.0000 -1.1120 0.0000
# 3 48.9073 13.6347 73.1790 0.0000 -13.1598 0.0000
# 4 0.0000 0.0000 0.0000 21.1864 0.0000 4.4313
# 5 -26.6319 -1.1120 -13.1598 0.0000 31.8269 0.0000
# 6 0.0000 0.0000 0.0000 4.4313 0.0000 16.1218
#
#
#
# Elastic Compliance Matrix: (Units=1/GPa)
#
#
# Indices 1 2 3 4 5 6 
#
# 1 0.014876 -0.005149 -0.007321 0.000000 0.009241 0.000000
# 2 -0.005149 0.019354 -0.000883 0.000000 -0.003998 0.000000
# 3 -0.007321 -0.000883 0.019030 0.000000 0.001712 0.000000
# 4 0.000000 0.000000 0.000000 0.050079 0.000000 -0.013765
# 5 0.009241 -0.003998 0.001712 0.000000 0.039721 0.000000
# 6 0.000000 0.000000 0.000000 -0.013765 0.000000 0.065811
#
#
# Mechanical properties :
#
#
# Convention : Reuss Voigt Hill
#
# Bulk Modulus (GPa) = 37.66082 47.92268 42.79175
# Shear Modulus (GPa) = 20.45577 24.47199 22.46388
#
# Velocity S-wave (km/s) = 3.34835 3.66233 3.50885
# Velocity P-wave (km/s) = 5.96572 6.64447 6.31422
#
# Compressibility (1/GPa) = 0.02655279
#
# Stress axis : x y z
#
# Youngs Moduli (GPa) = 67.22202 51.66912 52.54792
#
# Poissons Ratio (x) = 0.26607 0.38469
# Poissons Ratio (y) = 0.34616 0.04642
# Poissons Ratio (z) = 0.49212 0.04565
#
# Static dielectric constant tensor:
#      x y z
#    x 3.602570 0.000000 -0.405110 
#    y 0.000000 3.306620 0.000000 
#    z -0.405110 0.000000 3.246430 
# 
# 
# High freq. dielectric constant tensor:
#      x y z
#    x 1.705590 0.000000 -0.026040 
#    y 0.000000 1.711510 0.000000 
#    z -0.026040 0.000000 1.685530 
# 
# From -- ./inp_files/52861.got.cif
#   From: 2010.06.25/outbox.cif.g09.slc.cpg/sg10_27_cif.got.tgz:52861.got - 2010.06.27 22:07:45.
