data_PCOD8061619
_publ_section_title
;
Structure prediction by ZEFSAII (Michael W. Deem and Ramdas Pophale) SiO2 
 PCOD8061619
Probable space group: P 2/M
;
_chemical_formula_sum "Si O2"
_cell_formula_units_Z 32
_cell_length_a 13.625792
_cell_length_b 8.889231
_cell_length_c 32.153530
_cell_angle_alpha 90.000000
_cell_angle_beta 155.387991
_cell_angle_gamma 90.000000
_cell_volume 1621.958520
_symmetry_space_group_name_H-M "P 2/M"
_symmetry_group_IT_number 10
_symmetry_cell_setting 'monoclinic'
loop_
_space_group_symop_operation_xyz
x,y,z
-x,y,-z
-x,-y,-z
x,-y,z
loop_
_atom_site_type_symbol
_atom_site_label
_atom_site_fract_x
_atom_site_fract_y
_atom_site_fract_z
Si Si1 0.372564 0.178515 0.541254
Si Si2 0.471447 0.824964 0.160591
Si Si3 0.726962 0.827691 0.404424
Si Si4 0.889959 0.821127 0.714622
Si Si5 0.630950 0.677026 0.792473
Si Si6 0.235352 0.328053 0.913043
Si Si7 0.981708 0.821167 0.327577
Si Si8 0.894489 0.825055 0.053322
O O1 0.326522 0.236386 0.570206
O O2 0.626243 0.234159 0.623267
O O3 0.172214 0.244956 0.433483
O O4 0.356454 0.000000 0.534163
O O5 0.392722 0.730543 0.169639
O O6 0.722750 0.765399 0.240951
O O7 0.486158 0.000000 0.178687
O O8 0.276331 0.795119 0.050901
O O9 0.597931 0.724949 0.321273
O O10 0.000000 0.815548 0.500000
O O11 0.639732 0.000000 0.366602
O O12 0.957508 0.760788 0.694931
O O13 0.065484 0.750538 0.815028
O O14 0.910009 0.000000 0.725228
O O15 0.659520 0.500000 0.802766
O O16 0.855966 0.749365 0.857692
O O17 0.155880 0.500000 0.887830
O O18 0.226699 0.244392 0.953315
O O19 0.500000 0.314243 0.000000
O O20 0.991223 0.000000 0.330851
O O21 0.936916 0.000000 0.077351
#
# Coordination Sequence:
#
# PCOD8061619 Si02
#       8
#     4   4   4   4   4   4   4   4
#     4   9  17  30  53  85 115 144 183 235 288 334
#     4  10  21  38  60  84 111 147 193 243 292 345
#     4  10  20  36  59  84 114 155 200 244 289 341
#     4  10  19  33  57  86 114 148 192 237 281 336
#     4  12  25  39  58  85 119 155 190 234 292 356
#     4  11  24  40  58  83 118 156 191 233 289 348
#     4   9  17  32  56  86 115 143 184 239 292 338
#     4  11  23  40  63  88 114 148 195 245 289 340
#
# _framework density 19.729234999999999
#
# number of rings (size 3 to 8) (size 9 to 14) (size 15 to 20)
#    0.000    1.750    0.000    4.875    0.000    9.250 
#    0.000    0.625    0.000    3.000    0.000    0.000 
#    0.000    0.000    0.000    0.000    0.000    0.000 
#
# Total GULP energy -396939.286617 kJ/mol
# GULP energy per Si atom -12404.352707 kJ/mol
# Density = 1.968433 g / cm^3
# Si number density = 19.729235 Si / 1000 Ang^3
#
#
#
# Elastic Constant Matrix: (Units=GPa)
#
#
# Indices 1 2 3 4 5 6 
#
# 1 126.7822 45.2417 21.5665 0.0000 -7.6059 0.0001
# 2 45.2417 52.3961 39.6290 -0.0006 -13.2399 -0.0012
# 3 21.5665 39.6290 99.2995 0.0002 -12.3370 0.0004
# 4 0.0000 -0.0006 0.0002 4.9941 0.0003 -0.1277
# 5 -7.6059 -13.2399 -12.3370 0.0003 44.0945 0.0005
# 6 0.0001 -0.0012 0.0004 -0.1277 0.0005 -11.2576
#
#
#
# Elastic Compliance Matrix: (Units=1/GPa)
#
#
# Indices 1 2 3 4 5 6 
#
# 1 0.011747 -0.011988 0.002111 -0.000002 -0.000983 0.000001
# 2 -0.011988 0.040841 -0.012877 0.000005 0.006593 -0.000005
# 3 0.002111 -0.012877 0.014831 -0.000002 0.000647 0.000002
# 4 -0.000002 0.000005 -0.000002 0.200179 -0.000001 -0.002270
# 5 -0.000983 0.006593 0.000647 -0.000001 0.024670 0.000000
# 6 0.000001 -0.000005 0.000002 -0.002270 0.000000 -0.088803
#
#
# Mechanical properties :
#
#
# Convention : Reuss Voigt Hill
#
# Bulk Modulus (GPa) = 45.63594 54.59467 50.11530
# Shear Modulus (GPa) = 19.51009 19.03558 19.27284
#
# Velocity S-wave (km/s) = 3.14808 3.10956 3.12888
# Velocity P-wave (km/s) = 6.03284 6.37374 6.20563
#
# Compressibility (1/GPa) = 0.02191255
#
# Stress axis : x y z
#
# Youngs Moduli (GPa) = 85.12474 24.48491 67.42473
#
# Poissons Ratio (x) = 0.29353 -0.14232
# Poissons Ratio (y) = 1.02049 0.86819
# Poissons Ratio (z) = -0.17969 0.31528
#
# Static dielectric constant tensor:
#      x y z
#    x 3.860960 0.000000 0.060750 
#    y 0.000000 3.363170 0.000000 
#    z 0.060750 0.000000 3.765570 
# 
# 
# High freq. dielectric constant tensor:
#      x y z
#    x 1.790590 0.000000 0.000340 
#    y 0.000000 1.735520 0.000000 
#    z 0.000340 0.000000 1.788010 
# 
# From -- ./inp_files/95061.got.cif
#   From: 2010.06.25/outbox.cif.g09.slc.cpg/sg10_48_cif.got.tgz:95061.got - 2010.06.27 22:07:45.
