data_PCOD8061201
_publ_section_title
;
Structure prediction by ZEFSAII (Michael W. Deem and Ramdas Pophale) SiO2 
 PCOD8061201
Probable space group: P 2/M
;
_chemical_formula_sum "Si O2"
_cell_formula_units_Z 24
_cell_length_a 6.784082
_cell_length_b 16.797745
_cell_length_c 11.318284
_cell_angle_alpha 90.000000
_cell_angle_beta 85.250773
_cell_angle_gamma 90.000000
_cell_volume 1285.372476
_symmetry_space_group_name_H-M "P 2/M"
_symmetry_group_IT_number 10
_symmetry_cell_setting 'monoclinic'
loop_
_space_group_symop_operation_xyz
x,y,z
-x,y,-z
-x,-y,-z
x,-y,z
loop_
_atom_site_type_symbol
_atom_site_label
_atom_site_fract_x
_atom_site_fract_y
_atom_site_fract_z
Si Si1 0.472634 0.093537 0.363062
Si Si2 0.741014 0.784063 0.241395
Si Si3 0.571704 0.328206 0.619275
Si Si4 0.438623 0.411256 0.155872
Si Si5 0.112251 0.197444 0.378067
Si Si6 0.225150 0.669254 0.964518
O O1 0.500000 0.117562 0.500000
O O2 0.644847 0.129018 0.269229
O O3 0.262008 0.127811 0.330432
O O4 0.476750 0.000000 0.344628
O O5 0.606249 0.724463 0.322209
O O6 0.749885 0.755608 0.102718
O O7 0.965168 0.784191 0.277556
O O8 0.500000 0.365461 0.500000
O O9 0.617662 0.401073 0.704754
O O10 0.769281 0.276939 0.593499
O O11 0.376866 0.500000 0.118190
O O12 0.674837 0.398160 0.124720
O O13 0.334345 0.339696 0.086198
O O14 0.000000 0.166875 0.500000
O O15 0.000000 0.647949 0.000000
#
# Coordination Sequence:
#
# PCOD8061201 Si02
#       6
#     4   4   4   4   4   4
#     4  10  20  32  49  81 119 148 174 213 269 326
#     4  10  19  33  53  78 106 140 182 224 265 310
#     4  10  19  33  53  79 111 143 177 217 261 324
#     4  10  22  37  55  81 109 139 175 221 278 326
#     4  11  17  30  52  77 107 144 182 216 256 309
#     4  10  20  36  57  78 100 134 183 234 265 303
#
# _framework density 18.671631999999999
#
# number of rings (size 3 to 8) (size 9 to 14) (size 15 to 20)
#    0.000    1.833    3.333    3.000    0.000    4.000 
#    0.000    0.000    0.000    1.000    0.000   26.833 
#    0.000    0.000    0.000    0.000    0.000    0.000 
#
# Total GULP energy -297378.727140 kJ/mol
# GULP energy per Si atom -12390.780297 kJ/mol
# Density = 1.862913 g / cm^3
# Si number density = 18.671632 Si / 1000 Ang^3
#
#
#
# Elastic Constant Matrix: (Units=GPa)
#
#
# Indices 1 2 3 4 5 6 
#
# 1 120.7539 37.6559 39.1553 0.0000 4.8760 0.0000
# 2 37.6559 85.5702 48.3837 0.0000 7.7477 0.0000
# 3 39.1553 48.3837 113.5273 0.0000 10.1483 0.0000
# 4 0.0000 0.0000 0.0000 23.7102 0.0000 1.1271
# 5 4.8760 7.7477 10.1483 0.0000 19.8664 0.0000
# 6 0.0000 0.0000 0.0000 1.1271 0.0000 11.0858
#
#
#
# Elastic Compliance Matrix: (Units=1/GPa)
#
#
# Indices 1 2 3 4 5 6 
#
# 1 0.009953 -0.003206 -0.002054 0.000000 -0.000144 0.000000
# 2 -0.003206 0.016577 -0.005713 0.000000 -0.002760 0.000000
# 3 -0.002054 -0.005713 0.012267 0.000000 -0.003535 0.000000
# 4 0.000000 0.000000 0.000000 0.042381 0.000000 -0.004309
# 5 -0.000144 -0.002760 -0.003535 0.000000 0.053253 0.000000
# 6 0.000000 0.000000 0.000000 -0.004309 0.000000 0.090644
#
#
# Mechanical properties :
#
#
# Convention : Reuss Voigt Hill
#
# Bulk Modulus (GPa) = 59.33537 63.36014 61.34775
# Shear Modulus (GPa) = 19.79133 23.90958 21.85046
#
# Velocity S-wave (km/s) = 3.25925 3.58233 3.42460
# Velocity P-wave (km/s) = 6.78314 7.14971 6.96883
#
# Compressibility (1/GPa) = 0.01685335
#
# Stress axis : x y z
#
# Youngs Moduli (GPa) = 100.47595 60.32517 81.51758
#
# Poissons Ratio (x) = 0.19338 0.16741
# Poissons Ratio (y) = 0.32208 0.46567
# Poissons Ratio (z) = 0.20634 0.34461
#
# Static dielectric constant tensor:
#      x y z
#    x 3.612200 0.000000 -0.052920 
#    y 0.000000 3.240090 0.000000 
#    z -0.052920 0.000000 3.559450 
# 
# 
# High freq. dielectric constant tensor:
#      x y z
#    x 1.734760 0.000000 -0.003430 
#    y 0.000000 1.692520 0.000000 
#    z -0.003430 0.000000 1.714570 
# 
# From -- ./inp_files/39386.got.cif
#   From: 2010.06.25/outbox.cif.g09.slc.cpg/sg10_20_cif.got.tgz:39386.got - 2010.06.27 22:07:45.
