data_PCOD8061580
_publ_section_title
;
Structure prediction by ZEFSAII (Michael W. Deem and Ramdas Pophale) SiO2 
 PCOD8061580
Probable space group: P 2/M
;
_chemical_formula_sum "Si O2"
_cell_formula_units_Z 28
_cell_length_a 13.941803
_cell_length_b 8.536035
_cell_length_c 17.623603
_cell_angle_alpha 90.000000
_cell_angle_beta 39.876970
_cell_angle_gamma 90.000000
_cell_volume 1344.694189
_symmetry_space_group_name_H-M "P 2/M"
_symmetry_group_IT_number 10
_symmetry_cell_setting 'monoclinic'
loop_
_space_group_symop_operation_xyz
x,y,z
-x,y,-z
-x,-y,-z
x,-y,z
loop_
_atom_site_type_symbol
_atom_site_label
_atom_site_fract_x
_atom_site_fract_y
_atom_site_fract_z
Si Si1 0.187338 0.315611 0.667105
Si Si2 0.334162 0.182609 0.124637
Si Si3 0.693329 0.320501 0.555754
Si Si4 0.170723 0.314425 0.374759
Si Si5 0.148845 0.820476 0.949377
Si Si6 0.642953 0.320469 0.290723
Si Si7 0.854165 0.681886 0.893763
O O1 0.196034 0.500000 0.649794
O O2 0.209559 0.239067 0.570155
O O3 0.317379 0.267654 0.647427
O O4 0.026232 0.263450 0.794438
O O5 0.249753 0.252317 0.249915
O O6 0.229361 0.213851 0.116709
O O7 0.351137 0.000000 0.129839
O O8 0.500000 0.250926 0.000000
O O9 0.740886 0.500000 0.536880
O O10 0.726398 0.247213 0.618358
O O11 0.528277 0.303209 0.624601
O O12 0.172030 0.500000 0.364550
O O13 0.000000 0.259293 0.500000
O O14 0.205124 0.717864 0.986352
O O15 0.126057 0.000000 0.987987
O O16 0.279173 0.804738 0.809969
O O17 0.000000 0.751912 0.000000
O O18 0.698217 0.500000 0.243829
O O19 0.833090 0.500000 0.885770
#
# Coordination Sequence:
#
# PCOD8061580 Si02
#       7
#     4   4   4   4   4   4   4
#     4   9  17  32  56  88 121 150 187 242 295 346
#     4  11  26  45  63  89 126 164 206 258 319 381
#     4   9  18  32  56  89 119 150 190 242 302 349
#     4  10  21  40  65  92 124 161 212 267 311 364
#     4  11  23  38  56  82 122 164 198 238 293 354
#     4  10  19  33  56  86 118 153 198 242 286 349
#     4  11  22  38  64  90 116 152 202 252 299 356
#
# _framework density 20.822579999999999
#
# number of rings (size 3 to 8) (size 9 to 14) (size 15 to 20)
#    0.000    1.857    1.429    2.571    2.000    6.000 
#    0.000    0.000    0.000    4.286    0.000    0.000 
#    0.000    0.000    0.000    0.000    0.000    0.000 
#
# Total GULP energy -346912.907809 kJ/mol
# GULP energy per Si atom -12389.746707 kJ/mol
# Density = 2.077519 g / cm^3
# Si number density = 20.822580 Si / 1000 Ang^3
#
#
#
# Elastic Constant Matrix: (Units=GPa)
#
#
# Indices 1 2 3 4 5 6 
#
# 1 152.9996 16.1419 54.8108 0.0000 20.9356 0.0000
# 2 16.1419 30.0569 24.6123 0.0000 -4.1974 0.0000
# 3 54.8108 24.6123 128.4785 0.0000 20.7288 0.0000
# 4 0.0000 0.0000 0.0000 20.7669 0.0000 6.0530
# 5 20.9356 -4.1974 20.7288 0.0000 29.8829 0.0000
# 6 0.0000 0.0000 0.0000 6.0530 0.0000 39.6094
#
#
#
# Elastic Compliance Matrix: (Units=1/GPa)
#
#
# Indices 1 2 3 4 5 6 
#
# 1 0.008315 -0.003411 -0.002113 0.000000 -0.004839 0.000000
# 2 -0.003411 0.045205 -0.009700 0.000000 0.015468 0.000000
# 3 -0.002113 -0.009700 0.011850 0.000000 -0.008102 0.000000
# 4 0.000000 0.000000 0.000000 0.050399 0.000000 -0.007702
# 5 -0.004839 0.015468 -0.008102 0.000000 0.044647 0.000000
# 6 0.000000 0.000000 0.000000 -0.007702 0.000000 0.026424
#
#
# Mechanical properties :
#
#
# Convention : Reuss Voigt Hill
#
# Bulk Modulus (GPa) = 28.63532 55.85168 42.24350
# Shear Modulus (GPa) = 21.84083 32.44983 27.14533
#
# Velocity S-wave (km/s) = 3.24219 3.95194 3.61452
# Velocity P-wave (km/s) = 5.27234 6.90685 6.14419
#
# Compressibility (1/GPa) = 0.03492191
#
# Stress axis : x y z
#
# Youngs Moduli (GPa) = 120.26552 22.12126 84.38490
#
# Poissons Ratio (x) = 0.07545 0.17832
# Poissons Ratio (y) = 0.41020 0.81857
# Poissons Ratio (z) = 0.25415 0.21459
#
# Static dielectric constant tensor:
#      x y z
#    x 3.836110 0.000000 0.217420 
#    y 0.000000 3.344420 0.000000 
#    z 0.217420 0.000000 3.857790 
# 
# 
# High freq. dielectric constant tensor:
#      x y z
#    x 1.832570 0.000000 0.009950 
#    y 0.000000 1.771670 0.000000 
#    z 0.009950 0.000000 1.826040 
# 
# From -- ./inp_files/77727.got.cif
#   From: 2010.06.25/outbox.cif.g09.slc.cpg/sg10_39_cif.got.tgz:77727.got - 2010.06.27 22:07:45.
