data_PCOD8061907
_publ_section_title
;
Structure prediction by ZEFSAII (Michael W. Deem and Ramdas Pophale) SiO2 
 PCOD8061907
Probable space group: P 2/M
;
_chemical_formula_sum "Si O2"
_cell_formula_units_Z 32
_cell_length_a 30.078839
_cell_length_b 8.681851
_cell_length_c 12.575620
_cell_angle_alpha 90.000000
_cell_angle_beta 151.573888
_cell_angle_gamma 90.000000
_cell_volume 1563.265024
_symmetry_space_group_name_H-M "P 2/M"
_symmetry_group_IT_number 10
_symmetry_cell_setting 'monoclinic'
loop_
_space_group_symop_operation_xyz
x,y,z
-x,y,-z
-x,-y,-z
x,-y,z
loop_
_atom_site_type_symbol
_atom_site_label
_atom_site_fract_x
_atom_site_fract_y
_atom_site_fract_z
Si Si1 0.599889 0.677648 0.175411
Si Si2 0.098388 0.817743 0.658444
Si Si3 0.366518 0.819818 0.973545
Si Si4 0.766323 0.677509 0.673405
Si Si5 0.176294 0.317764 0.616039
Si Si6 0.256197 0.682638 0.139536
Si Si7 0.456048 0.178399 0.521670
Si Si8 0.104131 0.316294 0.236732
O O1 0.597020 0.500000 0.131628
O O2 0.639919 0.778059 0.163780
O O3 0.662313 0.699029 0.410714
O O4 0.500000 0.740753 0.000000
O O5 0.106949 0.754218 0.557049
O O6 0.000000 0.759039 0.500000
O O7 0.102089 0.000000 0.664317
O O8 0.185728 0.756940 0.908702
O O9 0.282950 0.734792 0.860494
O O10 0.352140 0.000000 0.961465
O O11 0.466801 0.766839 0.230030
O O12 0.793570 0.500000 0.740978
O O13 0.770606 0.750316 0.800050
O O14 0.837133 0.755154 0.738024
O O15 0.169660 0.500000 0.610642
O O16 0.143087 0.255639 0.431038
O O17 0.245798 0.500000 0.113126
O O18 0.362789 0.722955 0.337475
O O19 0.500000 0.209838 0.500000
O O20 0.430040 0.000000 0.482536
O O21 0.111780 0.500000 0.252460
O O22 0.000000 0.257021 0.000000
#
# Coordination Sequence:
#
# PCOD8061907 Si02
#       8
#     4   4   4   4   4   4   4   4
#     4  10  19  34  56  82 117 160 204 250 301 354
#     4  11  26  46  65  87 125 169 203 247 312 371
#     4  11  22  36  58  88 124 163 202 248 307 374
#     4   9  18  34  55  86 124 157 193 244 306 359
#     4  11  22  39  67  95 121 157 209 263 306 362
#     4  11  23  39  65  96 123 156 206 262 306 358
#     4  10  22  40  60  82 117 166 206 246 308 372
#     4   9  18  33  58  90 121 155 192 244 310 360
#
# _framework density 20.469978999999999
#
# number of rings (size 3 to 8) (size 9 to 14) (size 15 to 20)
#    0.000    1.750    1.250    3.000    1.750    4.500 
#    0.000    1.250    0.000    1.500    0.000    0.000 
#    0.000    0.000    0.000    0.000    0.000    0.000 
#
# Total GULP energy -396849.157259 kJ/mol
# GULP energy per Si atom -12401.536164 kJ/mol
# Density = 2.042339 g / cm^3
# Si number density = 20.469979 Si / 1000 Ang^3
#
#
#
# Elastic Constant Matrix: (Units=GPa)
#
#
# Indices 1 2 3 4 5 6 
#
# 1 131.1121 24.7749 48.6623 0.0000 8.7117 0.0000
# 2 24.7749 49.5841 23.3522 0.0000 3.7758 0.0000
# 3 48.6623 23.3522 105.4468 0.0000 9.0348 0.0000
# 4 0.0000 0.0000 0.0000 0.9861 0.0000 8.7844
# 5 8.7117 3.7758 9.0348 0.0000 42.3479 0.0000
# 6 0.0000 0.0000 0.0000 8.7844 0.0000 26.8716
#
#
#
# Elastic Compliance Matrix: (Units=1/GPa)
#
#
# Indices 1 2 3 4 5 6 
#
# 1 0.009628 -0.002998 -0.003700 0.000000 -0.000924 0.000000
# 2 -0.002998 0.023488 -0.003760 0.000000 -0.000675 0.000000
# 3 -0.003700 -0.003760 0.012152 0.000000 -0.001496 0.000000
# 4 0.000000 0.000000 0.000000 -0.530337 0.000000 0.173369
# 5 -0.000924 -0.000675 -0.001496 0.000000 0.024183 0.000000
# 6 0.000000 0.000000 0.000000 0.173369 0.000000 -0.019461
#
#
# Mechanical properties :
#
#
# Convention : Reuss Voigt Hill
#
# Bulk Modulus (GPa) = 41.06516 53.30242 47.18379
# Shear Modulus (GPa) = -11.07881 26.66470 7.79295
#
# Velocity S-wave (km/s) = -2.32894 3.61310 1.95327
# Velocity P-wave (km/s) = 3.58786 6.59560 5.30917
#
# Compressibility (1/GPa) = 0.02435154
#
# Stress axis : x y z
#
# Youngs Moduli (GPa) = 103.86091 42.57496 82.29074
#
# Poissons Ratio (x) = 0.12763 0.30450
# Poissons Ratio (y) = 0.31135 0.30944
# Poissons Ratio (z) = 0.38431 0.16010
#
# Static dielectric constant tensor:
#      x y z
#    x 4.026250 0.000000 -0.000300 
#    y 0.000000 3.396690 0.000000 
#    z -0.000300 0.000000 3.856370 
# 
# 
# High freq. dielectric constant tensor:
#      x y z
#    x 1.817280 0.000000 0.000500 
#    y 0.000000 1.769720 0.000000 
#    z 0.000500 0.000000 1.809810 
# 
# From -- ./inp_files/58227.got.cif
#   From: 2010.06.25/outbox.cif.g09.slc.cpg/sg10_30_cif.got.tgz:58227.got - 2010.06.27 22:07:45.
