data_PCOD8061860
_publ_section_title
;
Structure prediction by ZEFSAII (Michael W. Deem and Ramdas Pophale) SiO2 
 PCOD8061860
Probable space group: P 2/M
;
_chemical_formula_sum "Si O2"
_cell_formula_units_Z 24
_cell_length_a 9.684581
_cell_length_b 14.789480
_cell_length_c 16.220293
_cell_angle_alpha 90.000000
_cell_angle_beta 33.966117
_cell_angle_gamma 90.000000
_cell_volume 1297.995179
_symmetry_space_group_name_H-M "P 2/M"
_symmetry_group_IT_number 10
_symmetry_cell_setting 'monoclinic'
loop_
_space_group_symop_operation_xyz
x,y,z
-x,y,-z
-x,-y,-z
x,-y,z
loop_
_atom_site_type_symbol
_atom_site_label
_atom_site_fract_x
_atom_site_fract_y
_atom_site_fract_z
Si Si1 0.281218 0.601795 0.383447
Si Si2 0.435246 0.735017 0.165092
Si Si3 0.884220 0.897576 0.640824
Si Si4 0.787884 0.897342 0.365387
Si Si5 0.894729 0.266322 0.830097
Si Si6 0.755387 0.597835 0.415216
O O1 0.399159 0.500000 0.321523
O O2 0.415891 0.668115 0.252361
O O3 0.289594 0.643087 0.472279
O O4 0.000000 0.595699 0.500000
O O5 0.360445 0.838413 0.221995
O O6 0.254835 0.711692 0.179311
O O7 0.719155 0.727682 0.996254
O O8 0.000000 0.860577 0.500000
O O9 0.112614 0.889739 0.590895
O O10 0.787429 0.000000 0.682489
O O11 0.500000 0.867575 0.500000
O O12 0.967774 0.830098 0.226793
O O13 0.818261 0.000000 0.316669
O O14 0.100210 0.343227 0.723853
O O15 0.500000 0.579234 0.500000
O O16 0.889003 0.500000 0.362409
#
# Coordination Sequence:
#
# PCOD8061860 Si02
#       6
#     4   4   4   4   4   4
#     4  10  19  34  56  79 101 135 178 215 254 302
#     4  10  20  32  52  79 110 136 169 217 259 307
#     4   9  18  32  53  78 102 134 173 214 259 302
#     4   9  18  33  54  77 101 134 177 216 251 303
#     4  10  20  33  51  80 108 138 170 212 266 306
#     4  10  21  37  57  78 103 136 175 217 258 306
#
# _framework density 18.490054000000001
#
# number of rings (size 3 to 8) (size 9 to 14) (size 15 to 20)
#    0.000    2.333    1.667    1.000    2.333    1.333 
#    0.000    5.833    0.000    3.000    0.000    4.667 
#    0.000    0.000    0.000    0.000    0.000    0.000 
#
# Total GULP energy -297324.364981 kJ/mol
# GULP energy per Si atom -12388.515208 kJ/mol
# Density = 1.844797 g / cm^3
# Si number density = 18.490054 Si / 1000 Ang^3
#
#
#
# Elastic Constant Matrix: (Units=GPa)
#
#
# Indices 1 2 3 4 5 6 
#
# 1 56.2171 26.4112 37.7700 0.0000 2.0789 0.0000
# 2 26.4112 99.2067 72.7123 0.0000 0.1998 0.0000
# 3 37.7700 72.7123 142.2199 0.0000 4.1382 0.0000
# 4 0.0000 0.0000 0.0000 15.7314 0.0000 -0.1263
# 5 2.0789 0.1998 4.1382 0.0000 22.4312 0.0000
# 6 0.0000 0.0000 0.0000 -0.1263 0.0000 20.4284
#
#
#
# Elastic Compliance Matrix: (Units=1/GPa)
#
#
# Indices 1 2 3 4 5 6 
#
# 1 0.022071 -0.002563 -0.004516 0.000000 -0.001189 0.000000
# 2 -0.002563 0.016461 -0.007780 0.000000 0.001526 0.000000
# 3 -0.004516 -0.007780 0.012260 0.000000 -0.001774 0.000000
# 4 0.000000 0.000000 0.000000 0.063570 0.000000 0.000393
# 5 -0.001189 0.001526 -0.001774 0.000000 0.045005 0.000000
# 6 0.000000 0.000000 0.000000 0.000393 0.000000 0.048954
#
#
# Mechanical properties :
#
#
# Convention : Reuss Voigt Hill
#
# Bulk Modulus (GPa) = 47.45322 63.49229 55.47276
# Shear Modulus (GPa) = 20.40283 22.43489 21.41886
#
# Velocity S-wave (km/s) = 3.32542 3.48709 3.40722
# Velocity P-wave (km/s) = 6.36117 7.11521 6.74873
#
# Compressibility (1/GPa) = 0.02107338
#
# Stress axis : x y z
#
# Youngs Moduli (GPa) = 45.30890 60.74805 81.56599
#
# Poissons Ratio (x) = 0.15571 0.36838
# Poissons Ratio (y) = 0.11613 0.63457
# Poissons Ratio (z) = 0.20463 0.47261
#
# Static dielectric constant tensor:
#      x y z
#    x 3.234510 0.000000 -0.051970 
#    y 0.000000 3.648690 0.000000 
#    z -0.051970 0.000000 3.183410 
# 
# 
# High freq. dielectric constant tensor:
#      x y z
#    x 1.703730 0.000000 0.003460 
#    y 0.000000 1.729040 0.000000 
#    z 0.003460 0.000000 1.697900 
# 
# From -- ./inp_files/61683.got.cif
#   From: 2010.06.25/outbox.cif.g09.slc.cpg/sg10_31_cif.got.tgz:61683.got - 2010.06.27 22:07:45.
