data_PCOD8061821
_publ_section_title
;
Structure prediction by ZEFSAII (Michael W. Deem and Ramdas Pophale) SiO2 
 PCOD8061821
Probable space group: P 2/M
;
_chemical_formula_sum "Si O2"
_cell_formula_units_Z 32
_cell_length_a 19.851365
_cell_length_b 9.358806
_cell_length_c 24.751229
_cell_angle_alpha 90.000000
_cell_angle_beta 23.098350
_cell_angle_gamma 90.000000
_cell_volume 1804.004684
_symmetry_space_group_name_H-M "P 2/M"
_symmetry_group_IT_number 10
_symmetry_cell_setting 'monoclinic'
loop_
_space_group_symop_operation_xyz
x,y,z
-x,y,-z
-x,-y,-z
x,-y,z
loop_
_atom_site_type_symbol
_atom_site_label
_atom_site_fract_x
_atom_site_fract_y
_atom_site_fract_z
Si Si1 0.811830 0.334661 0.410987
Si Si2 0.660567 0.834638 0.346969
Si Si3 0.646521 0.335545 0.714288
Si Si4 0.324678 0.333666 0.881585
Si Si5 0.943337 0.334342 0.197098
Si Si6 0.833107 0.161613 0.660345
Si Si7 0.025773 0.662221 0.598972
Si Si8 0.535480 0.833300 0.319769
O O1 0.751982 0.500000 0.455047
O O2 0.894773 0.287612 0.293425
O O3 0.956037 0.310207 0.350522
O O4 0.650882 0.236276 0.542414
O O5 0.500000 0.774640 0.500000
O O6 0.832057 0.751606 0.236010
O O7 0.628387 0.807848 0.307965
O O8 0.688851 0.000000 0.339970
O O9 0.647943 0.500000 0.731259
O O10 0.465202 0.290539 0.822586
O O11 0.677508 0.241738 0.745053
O O12 0.790292 0.304206 0.563348
O O13 0.343973 0.500000 0.851644
O O14 0.345732 0.239728 0.812597
O O15 0.141537 0.297586 0.042215
O O16 0.905269 0.500000 0.215692
O O17 0.000000 0.170862 0.500000
O O18 0.876823 0.236811 0.685046
O O19 0.776668 0.000000 0.713569
O O20 0.970996 0.500000 0.626895
O O21 0.514276 0.000000 0.322378
#
# Coordination Sequence:
#
# PCOD8061821 Si02
#       8
#     4   4   4   4   4   4   4   4
#     4  10  19  34  55  81 108 137 176 223 268 315
#     4  10  21  38  56  77 109 143 177 219 267 319
#     4   9  16  29  49  70 100 140 172 206 260 318
#     4  10  21  38  55  79 112 142 176 221 269 317
#     4  10  22  37  58  83 107 139 179 222 269 319
#     4   9  17  27  42  71 106 133 167 218 259 298
#     4   9  16  28  48  73 101 135 171 211 262 314
#     4  11  22  35  56  81 104 141 182 219 264 317
#
# _framework density 17.738313000000002
#
# number of rings (size 3 to 8) (size 9 to 14) (size 15 to 20)
#    0.000    2.250    2.500    0.750    0.000    4.750 
#    0.000    2.500    0.000    0.750    0.000    5.250 
#    0.000    0.000    0.000    0.000    0.000    0.000 
#
# Total GULP energy -396885.496954 kJ/mol
# GULP energy per Si atom -12402.671780 kJ/mol
# Density = 1.769794 g / cm^3
# Si number density = 17.738313 Si / 1000 Ang^3
#
#
#
# Elastic Constant Matrix: (Units=GPa)
#
#
# Indices 1 2 3 4 5 6 
#
# 1 112.6334 56.4741 34.0087 0.0000 -15.0029 0.0000
# 2 56.4741 77.6748 27.5815 0.0000 -8.9657 0.0000
# 3 34.0087 27.5815 55.8436 0.0000 -8.0800 0.0000
# 4 0.0000 0.0000 0.0000 11.9971 0.0000 3.1604
# 5 -15.0029 -8.9657 -8.0800 0.0000 25.1185 0.0000
# 6 0.0000 0.0000 0.0000 3.1604 0.0000 23.2188
#
#
#
# Elastic Compliance Matrix: (Units=1/GPa)
#
#
# Indices 1 2 3 4 5 6 
#
# 1 0.015322 -0.009138 -0.004159 0.000000 0.004552 0.000000
# 2 -0.009138 0.021318 -0.004880 0.000000 0.000582 0.000000
# 3 -0.004159 -0.004880 0.023325 0.000000 0.003277 0.000000
# 4 0.000000 0.000000 0.000000 0.086453 0.000000 -0.011767
# 5 0.004552 0.000582 0.003277 0.000000 0.043792 0.000000
# 6 0.000000 0.000000 0.000000 -0.011767 0.000000 0.044670
#
#
# Mechanical properties :
#
#
# Convention : Reuss Voigt Hill
#
# Bulk Modulus (GPa) = 42.35426 53.58672 47.97049
# Shear Modulus (GPa) = 17.91445 20.60606 19.26025
#
# Velocity S-wave (km/s) = 3.18139 3.41202 3.29872
# Velocity P-wave (km/s) = 6.11752 6.76740 6.45065
#
# Compressibility (1/GPa) = 0.02361038
#
# Stress axis : x y z
#
# Youngs Moduli (GPa) = 65.26450 46.90911 42.87323
#
# Poissons Ratio (x) = 0.42864 0.17833
# Poissons Ratio (y) = 0.59637 0.20922
# Poissons Ratio (z) = 0.27146 0.22892
#
# Static dielectric constant tensor:
#      x y z
#    x 3.424450 0.000000 -0.027440 
#    y 0.000000 3.339470 0.000000 
#    z -0.027440 0.000000 3.035580 
# 
# 
# High freq. dielectric constant tensor:
#      x y z
#    x 1.697760 0.000000 -0.009500 
#    y 0.000000 1.685800 0.000000 
#    z -0.009500 0.000000 1.653690 
# 
# From -- ./inp_files/93643.got.cif
#   From: 2010.06.25/outbox.cif.g09.slc.cpg/sg10_47_cif.got.tgz:93643.got - 2010.06.27 22:07:45.
