data_PCOD8061027
_publ_section_title
;
Structure prediction by ZEFSAII (Michael W. Deem and Ramdas Pophale) SiO2 
 PCOD8061027
Probable space group: P 2/M
;
_chemical_formula_sum "Si O2"
_cell_formula_units_Z 28
_cell_length_a 11.857980
_cell_length_b 7.866495
_cell_length_c 14.982479
_cell_angle_alpha 90.000000
_cell_angle_beta 118.800522
_cell_angle_gamma 90.000000
_cell_volume 1224.699694
_symmetry_space_group_name_H-M "P 2/M"
_symmetry_group_IT_number 10
_symmetry_cell_setting 'monoclinic'
loop_
_space_group_symop_operation_xyz
x,y,z
-x,y,-z
-x,-y,-z
x,-y,z
loop_
_atom_site_type_symbol
_atom_site_label
_atom_site_fract_x
_atom_site_fract_y
_atom_site_fract_z
Si Si1 0.402270 0.000000 0.052445
Si Si2 0.081139 0.299342 0.326576
Si Si3 0.226642 0.306963 0.206363
Si Si4 0.255701 0.699386 0.551820
Si Si5 0.812167 0.301421 0.278288
Si Si6 0.475818 0.806331 0.391151
Si Si7 0.461841 0.313617 0.883713
Si Si8 0.843862 0.000000 0.943863
O O1 0.442261 0.171962 0.121633
O O2 0.242672 0.000000 0.994814
O O3 0.500000 0.000000 0.000000
O O4 0.075995 0.500000 0.340640
O O5 0.129068 0.251686 0.247262
O O6 0.175813 0.223383 0.438362
O O7 0.938743 0.217893 0.282431
O O8 0.198390 0.500000 0.162029
O O9 0.369944 0.305421 0.300692
O O10 0.203633 0.172756 0.119957
O O11 0.280412 0.500000 0.549425
O O12 0.181216 0.741079 0.614445
O O13 0.391986 0.792839 0.612671
O O14 0.816241 0.500000 0.262580
O O15 0.682216 0.236630 0.180609
O O16 0.500000 0.733759 0.500000
O O17 0.426905 0.000000 0.376333
O O18 0.475019 0.500000 0.840383
O O19 0.500000 0.340467 0.000000
O O20 0.000000 0.000000 0.000000
#
# Coordination Sequence:
#
# PCOD8061027 Si02
#       8
#     2   4   4   4   4   4   4   2
#     4  10  24  46  72  97 126 164 210 265 340 410
#     4   9  18  35  59  89 128 173 219 266 327 404
#     4  11  24  43  70  99 132 180 229 275 338 413
#     4  10  19  32  57  89 124 167 218 274 330 397
#     4   9  18  32  55  89 125 166 215 272 335 396
#     4  11  22  37  61  90 132 180 228 281 336 400
#     4   9  19  37  63  94 127 164 213 273 332 396
#     4  12  30  52  73 103 140 173 223 291 345 406
#
# _framework density 22.862749000000001
#
# number of rings (size 3 to 8) (size 9 to 14) (size 15 to 20)
#    0.000    2.000    2.143    0.857    2.000    5.429 
#    0.000    1.429    0.000    0.857    0.000    0.000 
#    0.000    0.000    0.000    0.000    0.000    0.000 
#
# Total GULP energy -346874.439824 kJ/mol
# GULP energy per Si atom -12388.372851 kJ/mol
# Density = 2.281071 g / cm^3
# Si number density = 22.862749 Si / 1000 Ang^3
#
#
#
# Elastic Constant Matrix: (Units=GPa)
#
#
# Indices 1 2 3 4 5 6 
#
# 1 157.1269 30.4998 25.1517 0.0000 24.4394 0.0000
# 2 30.4998 88.8721 21.6704 0.0000 3.6222 0.0000
# 3 25.1517 21.6704 67.1796 0.0000 12.1161 0.0000
# 4 0.0000 0.0000 0.0000 6.2866 0.0000 4.2544
# 5 24.4394 3.6222 12.1161 0.0000 29.2418 0.0000
# 6 0.0000 0.0000 0.0000 4.2544 0.0000 21.0720
#
#
#
# Elastic Compliance Matrix: (Units=1/GPa)
#
#
# Indices 1 2 3 4 5 6 
#
# 1 0.007884 -0.002176 -0.001200 0.000000 -0.005823 0.000000
# 2 -0.002176 0.012814 -0.003632 0.000000 0.001736 0.000000
# 3 -0.001200 -0.003632 0.017556 0.000000 -0.005822 0.000000
# 4 0.000000 0.000000 0.000000 0.184241 0.000000 -0.037198
# 5 -0.005823 0.001736 -0.005822 0.000000 0.041261 0.000000
# 6 0.000000 0.000000 0.000000 -0.037198 0.000000 0.054967
#
#
# Mechanical properties :
#
#
# Convention : Reuss Voigt Hill
#
# Bulk Modulus (GPa) = 41.25563 51.98026 46.61795
# Shear Modulus (GPa) = 14.67057 27.04386 20.85722
#
# Velocity S-wave (km/s) = 2.53589 3.44303 3.02367
# Velocity P-wave (km/s) = 5.16318 6.21217 5.71181
#
# Compressibility (1/GPa) = 0.02423911
#
# Stress axis : x y z
#
# Youngs Moduli (GPa) = 126.83277 78.04149 56.96010
#
# Poissons Ratio (x) = 0.16981 0.06834
# Poissons Ratio (y) = 0.27598 0.20687
# Poissons Ratio (z) = 0.15217 0.28343
#
# Static dielectric constant tensor:
#      x y z
#    x 4.521120 0.000000 0.233170 
#    y 0.000000 4.547900 0.000000 
#    z 0.233170 0.000000 3.961120 
# 
# 
# High freq. dielectric constant tensor:
#      x y z
#    x 1.911440 0.000000 0.009090 
#    y 0.000000 1.891290 0.000000 
#    z 0.009090 0.000000 1.880560 
# 
# From -- ./inp_files/49208.got.cif
#   From: 2010.06.25/outbox.cif.g09.slc.cpg/sg10_25_cif.got.tgz:49208.got - 2010.06.27 22:07:45.
