data_PCOD8061721
_publ_section_title
;
Structure prediction by ZEFSAII (Michael W. Deem and Ramdas Pophale) SiO2 
 PCOD8061721
Probable space group: P 2/M
;
_chemical_formula_sum "Si O2"
_cell_formula_units_Z 30
_cell_length_a 14.169355
_cell_length_b 15.310131
_cell_length_c 22.949727
_cell_angle_alpha 90.000000
_cell_angle_beta 17.994141
_cell_angle_gamma 90.000000
_cell_volume 1537.985251
_symmetry_space_group_name_H-M "P 2/M"
_symmetry_group_IT_number 10
_symmetry_cell_setting 'monoclinic'
loop_
_space_group_symop_operation_xyz
x,y,z
-x,y,-z
-x,-y,-z
x,-y,z
loop_
_atom_site_type_symbol
_atom_site_label
_atom_site_fract_x
_atom_site_fract_y
_atom_site_fract_z
Si Si1 0.937408 0.097122 0.298567
Si Si2 0.296503 0.903761 0.359533
Si Si3 0.500000 0.225149 0.500000
Si Si4 0.693318 0.142848 0.027277
Si Si5 0.357803 0.733920 0.399091
Si Si6 0.729388 0.224482 0.817099
Si Si7 0.893332 0.713599 0.176579
Si Si8 0.720091 0.597962 0.119846
O O1 0.650421 0.162710 0.460927
O O2 0.154951 0.133751 0.221662
O O3 0.826238 0.000000 0.381075
O O4 0.114753 0.089536 0.133035
O O5 0.540553 0.918949 0.164636
O O6 0.377747 0.831532 0.360396
O O7 0.000000 0.869584 0.500000
O O8 0.251369 0.000000 0.415548
O O9 0.250104 0.290109 0.674393
O O10 0.449508 0.204123 0.136967
O O11 0.907988 0.199577 0.943032
O O12 0.621975 0.721657 0.290426
O O13 0.432948 0.659619 0.306408
O O14 0.026020 0.717402 0.624445
O O15 0.500000 0.270042 0.000000
O O16 0.121384 0.631985 0.032898
O O17 0.594058 0.500000 0.185365
O O18 0.000000 0.601317 0.000000
#
# Coordination Sequence:
#
# PCOD8061721 Si02
#       8
#     4   4   2   4   4   4   4   4
#     4  10  20  33  51  75 108 150 201 243 274 323
#     4  11  22  34  52  79 112 155 197 234 281 336
#     4  10  19  34  53  82 112 152 180 234 290 332
#     4  10  20  35  52  76 110 150 188 239 283 325
#     4  11  20  38  58  82 114 148 188 238 285 338
#     4  10  21  35  54  79 106 153 197 230 284 331
#     4  10  20  36  59  82 117 142 185 230 289 341
#     4   9  19  36  64  91 113 144 184 232 291 354
#
# _framework density 19.506039000000001
#
# number of rings (size 3 to 8) (size 9 to 14) (size 15 to 20)
#    0.000    1.867    4.000    0.600    0.000    3.467 
#    0.000    2.333    0.000    4.000    0.000    0.000 
#    0.000    0.000    0.000    0.000    0.000    0.000 
#
# Total GULP energy -371645.892466 kJ/mol
# GULP energy per Si atom -12388.196416 kJ/mol
# Density = 1.946164 g / cm^3
# Si number density = 19.506039 Si / 1000 Ang^3
#
#
#
# Elastic Constant Matrix: (Units=GPa)
#
#
# Indices 1 2 3 4 5 6 
#
# 1 21.9065 9.3738 23.8874 0.0000 -2.5576 0.0000
# 2 9.3738 101.3487 54.2993 0.0000 14.7911 0.0000
# 3 23.8874 54.2993 125.2583 0.0000 16.3663 0.0000
# 4 0.0000 0.0000 0.0000 -3.5214 0.0000 13.3872
# 5 -2.5576 14.7911 16.3663 0.0000 32.0958 0.0000
# 6 0.0000 0.0000 0.0000 13.3872 0.0000 7.1712
#
#
#
# Elastic Compliance Matrix: (Units=1/GPa)
#
#
# Indices 1 2 3 4 5 6 
#
# 1 0.061457 -0.000387 -0.013087 0.000000 0.011749 0.000000
# 2 -0.000387 0.013189 -0.005191 0.000000 -0.003462 0.000000
# 3 -0.013087 -0.005191 0.013450 0.000000 -0.005509 0.000000
# 4 0.000000 0.000000 0.000000 -0.035072 0.000000 0.065473
# 5 0.011749 -0.003462 -0.005509 0.000000 0.036497 0.000000
# 6 0.000000 0.000000 0.000000 0.065473 0.000000 0.017222
#
#
# Mechanical properties :
#
#
# Convention : Reuss Voigt Hill
#
# Bulk Modulus (GPa) = 19.69910 47.07052 33.38481
# Shear Modulus (GPa) = 31.05665 17.87931 24.46798
#
# Velocity S-wave (km/s) = 3.99451 3.03083 3.54556
# Velocity P-wave (km/s) = 5.60319 6.03586 5.82354
#
# Compressibility (1/GPa) = 0.05076374
#
# Stress axis : x y z
#
# Youngs Moduli (GPa) = 16.27161 75.81874 74.35162
#
# Poissons Ratio (x) = 0.02934 0.97308
# Poissons Ratio (y) = 0.00630 0.38599
# Poissons Ratio (z) = 0.21295 0.39361
#
# Static dielectric constant tensor:
#      x y z
#    x 3.534410 0.000000 0.212440 
#    y 0.000000 3.297630 0.000000 
#    z 0.212440 0.000000 4.106550 
# 
# 
# High freq. dielectric constant tensor:
#      x y z
#    x 1.751110 0.000000 0.006790 
#    y 0.000000 1.709900 0.000000 
#    z 0.006790 0.000000 1.779150 
# 
# From -- ./inp_files/89803.got.cif
#   From: 2010.06.25/outbox.cif.g09.slc.cpg/sg10_45_cif.got.tgz:89803.got - 2010.06.27 22:07:45.
