data_PCOD8061112
_publ_section_title
;
Structure prediction by ZEFSAII (Michael W. Deem and Ramdas Pophale) SiO2 
 PCOD8061112
Probable space group: P 2/M
;
_chemical_formula_sum "Si O2"
_cell_formula_units_Z 28
_cell_length_a 31.313297
_cell_length_b 8.518804
_cell_length_c 31.314491
_cell_angle_alpha 90.000000
_cell_angle_beta 170.487678
_cell_angle_gamma 90.000000
_cell_volume 1380.447111
_symmetry_space_group_name_H-M "P 2/M"
_symmetry_group_IT_number 10
_symmetry_cell_setting 'monoclinic'
loop_
_space_group_symop_operation_xyz
x,y,z
-x,y,-z
-x,-y,-z
x,-y,z
loop_
_atom_site_type_symbol
_atom_site_label
_atom_site_fract_x
_atom_site_fract_y
_atom_site_fract_z
Si Si1 0.973986 0.680116 0.024736
Si Si2 0.163845 0.686549 0.835593
Si Si3 0.452506 0.184555 0.546685
Si Si4 0.116301 0.815772 0.882740
Si Si5 0.262371 0.687293 0.737696
Si Si6 0.689286 0.313741 0.310298
Si Si7 0.406454 0.683934 0.594647
O O1 0.964658 0.500000 0.031424
O O2 0.215939 0.768280 0.283529
O O3 0.000000 0.688838 0.000000
O O4 0.715919 0.769494 0.783352
O O5 0.160869 0.500000 0.838618
O O6 0.141036 0.766604 0.858452
O O7 0.928186 0.746213 0.574063
O O8 0.425377 0.746204 0.071231
O O9 0.431446 0.276672 0.569890
O O10 0.446774 0.000000 0.550026
O O11 0.855151 0.751535 0.644810
O O12 0.114239 0.000000 0.884696
O O13 0.354018 0.751555 0.143717
O O14 0.262765 0.500000 0.737310
O O15 0.286545 0.754997 0.713626
O O16 0.000000 0.751388 0.500000
O O17 0.500000 0.751389 0.000000
O O18 0.690473 0.500000 0.309221
O O19 0.403080 0.500000 0.598065
#
# Coordination Sequence:
#
# PCOD8061112 Si02
#       7
#     4   4   4   4   4   4   4
#     4  11  24  43  66  93 127 168 212 255 302 360
#     4  10  19  33  52  75 106 145 187 229 283 348
#     4  12  25  42  65  95 129 163 204 255 308 358
#     4  12  25  42  63  91 123 154 197 252 305 353
#     4   9  15  23  37  61  97 137 174 219 280 338
#     4   9  17  28  45  70 102 141 184 229 278 341
#     4  12  25  44  67  91 122 162 204 244 298 365
#
# _framework density 20.283283999999998
#
# number of rings (size 3 to 8) (size 9 to 14) (size 15 to 20)
#    0.000    1.286    0.000    7.286    0.000    7.429 
#    0.000    0.000    0.000    0.000    0.000    0.000 
#    0.000   11.429    0.000    0.000    0.000    0.000 
#
# Total GULP energy -347328.977260 kJ/mol
# GULP energy per Si atom -12404.606331 kJ/mol
# Density = 2.023712 g / cm^3
# Si number density = 20.283284 Si / 1000 Ang^3
#
#
#
# Elastic Constant Matrix: (Units=GPa)
#
#
# Indices 1 2 3 4 5 6 
#
# 1 146.8306 28.5059 78.7920 0.0000 -0.1280 0.0000
# 2 28.5059 69.5804 35.0690 0.0000 1.7175 0.0000
# 3 78.7920 35.0690 206.0397 0.0000 6.7308 0.0000
# 4 0.0000 0.0000 0.0000 26.8669 0.0000 7.5471
# 5 -0.1280 1.7175 6.7308 0.0000 25.0742 0.0000
# 6 0.0000 0.0000 0.0000 7.5471 0.0000 -57.3812
#
#
#
# Elastic Compliance Matrix: (Units=1/GPa)
#
#
# Indices 1 2 3 4 5 6 
#
# 1 0.008866 -0.002113 -0.003064 0.000000 0.001012 0.000000
# 2 -0.002113 0.016227 -0.001934 0.000000 -0.000603 0.000000
# 3 -0.003064 -0.001934 0.006407 0.000000 -0.001603 0.000000
# 4 0.000000 0.000000 0.000000 0.035894 0.000000 0.004721
# 5 0.001012 -0.000603 -0.001603 0.000000 0.040358 0.000000
# 6 0.000000 0.000000 0.000000 0.004721 0.000000 -0.016806
#
#
# Mechanical properties :
#
#
# Convention : Reuss Voigt Hill
#
# Bulk Modulus (GPa) = 57.87822 78.57605 68.22713
# Shear Modulus (GPa) = 45.07459 17.58424 31.32942
#
# Velocity S-wave (km/s) = 4.71919 2.94757 3.93439
# Velocity P-wave (km/s) = 7.63487 7.09983 7.37221
#
# Compressibility (1/GPa) = 0.01727766
#
# Stress axis : x y z
#
# Youngs Moduli (GPa) = 112.79344 61.62466 156.08776
#
# Poissons Ratio (x) = 0.13021 0.47822
# Poissons Ratio (y) = 0.23833 0.30191
# Poissons Ratio (z) = 0.34558 0.11920
#
# Static dielectric constant tensor:
#      x y z
#    x 3.960020 0.000000 0.011180 
#    y 0.000000 3.526150 0.000000 
#    z 0.011180 0.000000 4.180270 
# 
# 
# High freq. dielectric constant tensor:
#      x y z
#    x 1.814300 0.000000 0.000200 
#    y 0.000000 1.769430 0.000000 
#    z 0.000200 0.000000 1.817090 
# 
# From -- ./inp_files/96039.got.cif
#   From: 2010.06.25/outbox.cif.g09.slc.cpg/sg10_49_cif.got.tgz:96039.got - 2010.06.27 22:07:45.
