data_PCOD8061701
_publ_section_title
;
Structure prediction by ZEFSAII (Michael W. Deem and Ramdas Pophale) SiO2 
 PCOD8061701
Probable space group: P 2/M
;
_chemical_formula_sum "Si O2"
_cell_formula_units_Z 18
_cell_length_a 12.816342
_cell_length_b 15.195567
_cell_length_c 7.573350
_cell_angle_alpha 90.000000
_cell_angle_beta 140.213261
_cell_angle_gamma 90.000000
_cell_volume 943.849525
_symmetry_space_group_name_H-M "P 2/M"
_symmetry_group_IT_number 10
_symmetry_cell_setting 'monoclinic'
loop_
_space_group_symop_operation_xyz
x,y,z
-x,y,-z
-x,-y,-z
x,-y,z
loop_
_atom_site_type_symbol
_atom_site_label
_atom_site_fract_x
_atom_site_fract_y
_atom_site_fract_z
Si Si1 0.841079 0.768050 0.578959
Si Si2 0.632894 0.598115 0.317531
Si Si3 0.192581 0.096412 0.755041
Si Si4 0.789025 0.790007 0.904956
Si Si5 0.500000 0.340469 0.500000
O O1 0.775746 0.668961 0.486919
O O2 0.755616 0.830364 0.321987
O O3 0.797531 0.814349 0.709078
O O4 0.034041 0.755665 0.800793
O O5 0.704186 0.500000 0.378314
O O6 0.551563 0.598909 0.404519
O O7 0.500000 0.622525 0.000000
O O8 0.000000 0.086963 0.500000
O O9 0.269670 0.000000 0.814003
O O10 0.253634 0.125478 0.029536
O O11 0.651925 0.717812 0.762857
#
# Coordination Sequence:
#
# PCOD8061701 Si02
#       5
#     4   4   4   4   2
#     4   9  18  33  51  74 102 132 165 204 247 292
#     4  10  20  34  53  76 101 131 166 203 246 296
#     4   9  17  30  51  76 100 129 166 206 247 294
#     4   9  18  32  51  72  99 134 167 202 247 292
#     4  10  19  34  53  72 100 136 165 204 249 292
#
# _framework density 19.070836
#
# number of rings (size 3 to 8) (size 9 to 14) (size 15 to 20)
#    0.000    2.667    0.000    1.667    0.000    0.889 
#    0.000   15.000    0.000   21.333    0.000    0.000 
#    0.000    0.000    0.000    0.000    0.000    0.000 
#
# Total GULP energy -223112.617400 kJ/mol
# GULP energy per Si atom -12395.145411 kJ/mol
# Density = 1.902743 g / cm^3
# Si number density = 19.070836 Si / 1000 Ang^3
#
#
#
# Elastic Constant Matrix: (Units=GPa)
#
#
# Indices 1 2 3 4 5 6 
#
# 1 64.5106 51.7477 33.8604 0.0000 -8.7267 0.0000
# 2 51.7477 126.9763 52.5100 0.0000 -12.2059 0.0000
# 3 33.8604 52.5100 78.9073 0.0000 -17.5226 0.0000
# 4 0.0000 0.0000 0.0000 19.2827 0.0000 -10.1180
# 5 -8.7267 -12.2059 -17.5226 0.0000 27.7221 0.0000
# 6 0.0000 0.0000 0.0000 -10.1180 0.0000 20.2671
#
#
#
# Elastic Compliance Matrix: (Units=1/GPa)
#
#
# Indices 1 2 3 4 5 6 
#
# 1 0.024593 -0.007801 -0.005125 0.000000 0.001068 0.000000
# 2 -0.007801 0.013341 -0.005551 0.000000 -0.000090 0.000000
# 3 -0.005125 -0.005551 0.020550 0.000000 0.008932 0.000000
# 4 0.000000 0.000000 0.000000 0.070267 0.000000 0.035080
# 5 0.001068 -0.000090 0.008932 0.000000 0.042014 0.000000
# 6 0.000000 0.000000 0.000000 0.035080 0.000000 0.066854
#
#
# Mechanical properties :
#
#
# Convention : Reuss Voigt Hill
#
# Bulk Modulus (GPa) = 46.44471 60.73671 53.59071
# Shear Modulus (GPa) = 17.74625 22.27279 20.00952
#
# Velocity S-wave (km/s) = 3.05379 3.42116 3.24268
# Velocity P-wave (km/s) = 6.06967 6.89368 6.49476
#
# Compressibility (1/GPa) = 0.02153098
#
# Stress axis : x y z
#
# Youngs Moduli (GPa) = 40.66176 74.95492 48.66240
#
# Poissons Ratio (x) = 0.58469 0.24941
# Poissons Ratio (y) = 0.31718 0.27012
# Poissons Ratio (z) = 0.20840 0.41606
#
# Static dielectric constant tensor:
#      x y z
#    x 3.542360 0.000000 -0.242250 
#    y 0.000000 3.486190 0.000000 
#    z -0.242250 0.000000 3.511640 
# 
# 
# High freq. dielectric constant tensor:
#      x y z
#    x 1.737390 0.000000 -0.020550 
#    y 0.000000 1.730960 0.000000 
#    z -0.020550 0.000000 1.738170 
# 
# From -- ./inp_files/28907.got.cif
#   From: 2010.06.25/outbox.cif.g09.slc.cpg/sg10_15_cif.got.tgz:28907.got - 2010.06.27 22:07:45.
