data_PCOD8061600
_publ_section_title
;
Structure prediction by ZEFSAII (Michael W. Deem and Ramdas Pophale) SiO2 
 PCOD8061600
Probable space group: P 2/M
;
_chemical_formula_sum "Si O2"
_cell_formula_units_Z 28
_cell_length_a 14.227995
_cell_length_b 9.121011
_cell_length_c 17.483766
_cell_angle_alpha 90.000000
_cell_angle_beta 137.120943
_cell_angle_gamma 90.000000
_cell_volume 1543.902395
_symmetry_space_group_name_H-M "P 2/M"
_symmetry_group_IT_number 10
_symmetry_cell_setting 'monoclinic'
loop_
_space_group_symop_operation_xyz
x,y,z
-x,y,-z
-x,-y,-z
x,-y,z
loop_
_atom_site_type_symbol
_atom_site_label
_atom_site_fract_x
_atom_site_fract_y
_atom_site_fract_z
Si Si1 0.663155 0.826202 0.327180
Si Si2 0.943915 0.831712 0.774446
Si Si3 0.848112 0.831803 0.880025
Si Si4 0.222001 0.329546 0.915265
Si Si5 0.105136 0.829526 0.422611
Si Si6 0.379223 0.329692 0.160463
Si Si7 0.795117 0.173239 0.247132
O O1 0.777258 0.759204 0.453659
O O2 0.518917 0.754635 0.262818
O O3 0.706518 0.780677 0.267526
O O4 0.648671 0.000000 0.326757
O O5 0.842517 0.804300 0.785252
O O6 0.861734 0.796827 0.646892
O O7 0.078514 0.731825 0.862251
O O8 0.996260 0.000000 0.804806
O O9 0.738552 0.725891 0.852934
O O10 0.812483 0.000000 0.879260
O O11 0.000000 0.791050 0.000000
O O12 0.202927 0.500000 0.886569
O O13 0.270384 0.249254 0.866596
O O14 0.338340 0.300397 0.048209
O O15 0.952472 0.768905 0.351830
O O16 0.105234 0.000000 0.441611
O O17 0.401426 0.500000 0.189758
O O18 0.793985 0.000000 0.232707
#
# Coordination Sequence:
#
# PCOD8061600 Si02
#       7
#     4   4   4   4   4   4   4
#     4  10  20  35  55  77 103 139 178 216 256 304
#     4   9  17  32  56  83 106 129 165 217 265 304
#     4  10  19  33  57  84 105 130 170 217 261 308
#     4  10  20  33  50  75 106 139 173 210 257 311
#     4   8  15  31  56  82 105 130 168 216 262 305
#     4  11  24  37  50  73 109 146 175 209 257 313
#     4   9  18  33  56  81 103 131 173 221 264 304
#
# _framework density 18.135863000000001
#
# number of rings (size 3 to 8) (size 9 to 14) (size 15 to 20)
#    0.000    2.429    1.429    2.143    0.000    5.429 
#    0.000    6.429    0.000    8.571    0.000    0.000 
#    0.000    0.000    0.000    0.000    0.000    0.000 
#
# Total GULP energy -347182.742848 kJ/mol
# GULP energy per Si atom -12399.383673 kJ/mol
# Density = 1.809458 g / cm^3
# Si number density = 18.135863 Si / 1000 Ang^3
#
#
#
# Elastic Constant Matrix: (Units=GPa)
#
#
# Indices 1 2 3 4 5 6 
#
# 1 101.4587 32.1990 39.6688 0.0000 -6.5663 0.0000
# 2 32.1990 48.9995 30.2626 0.0000 -2.8616 0.0000
# 3 39.6688 30.2626 63.9838 0.0000 0.9142 0.0000
# 4 0.0000 0.0000 0.0000 13.2337 0.0000 -3.6209
# 5 -6.5663 -2.8616 0.9142 0.0000 24.4378 0.0000
# 6 0.0000 0.0000 0.0000 -3.6209 0.0000 17.3463
#
#
#
# Elastic Compliance Matrix: (Units=1/GPa)
#
#
# Indices 1 2 3 4 5 6 
#
# 1 0.014238 -0.005187 -0.006423 0.000000 0.003458 0.000000
# 2 -0.005187 0.031094 -0.011529 0.000000 0.002679 0.000000
# 3 -0.006423 -0.011529 0.025121 0.000000 -0.004016 0.000000
# 4 0.000000 0.000000 0.000000 0.080142 0.000000 0.016729
# 5 0.003458 0.002679 -0.004016 0.000000 0.042313 0.000000
# 6 0.000000 0.000000 0.000000 0.016729 0.000000 0.061141
#
#
# Mechanical properties :
#
#
# Convention : Reuss Voigt Hill
#
# Bulk Modulus (GPa) = 41.36570 46.52253 43.94412
# Shear Modulus (GPa) = 16.21348 18.49100 17.35224
#
# Velocity S-wave (km/s) = 2.99323 3.19655 3.09656
# Velocity P-wave (km/s) = 5.89951 6.27151 6.08835
#
# Compressibility (1/GPa) = 0.02417462
#
# Stress axis : x y z
#
# Youngs Moduli (GPa) = 70.23685 32.16088 39.80661
#
# Poissons Ratio (x) = 0.16682 0.25568
# Poissons Ratio (y) = 0.36431 0.45893
# Poissons Ratio (z) = 0.45114 0.37078
#
# Static dielectric constant tensor:
#      x y z
#    x 3.342060 0.000000 -0.222620 
#    y 0.000000 3.145890 0.000000 
#    z -0.222620 0.000000 3.466720 
# 
# 
# High freq. dielectric constant tensor:
#      x y z
#    x 1.700850 0.000000 -0.016500 
#    y 0.000000 1.682440 0.000000 
#    z -0.016500 0.000000 1.698960 
# 
# From -- ./inp_files/68568.got.cif
#   From: 2010.06.25/outbox.cif.g09.slc.cpg/sg10_35_cif.got.tgz:68568.got - 2010.06.27 22:07:45.
