data_PCOD8061537
_publ_section_title
;
Structure prediction by ZEFSAII (Michael W. Deem and Ramdas Pophale) SiO2 
 PCOD8061537
Probable space group: P 2/M
;
_chemical_formula_sum "Si O2"
_cell_formula_units_Z 32
_cell_length_a 22.679792
_cell_length_b 9.074497
_cell_length_c 11.462376
_cell_angle_alpha 90.000000
_cell_angle_beta 46.221746
_cell_angle_gamma 90.000000
_cell_volume 1703.284656
_symmetry_space_group_name_H-M "P 2/M"
_symmetry_group_IT_number 10
_symmetry_cell_setting 'monoclinic'
loop_
_space_group_symop_operation_xyz
x,y,z
-x,y,-z
-x,-y,-z
x,-y,z
loop_
_atom_site_type_symbol
_atom_site_label
_atom_site_fract_x
_atom_site_fract_y
_atom_site_fract_z
Si Si1 0.643690 0.671396 0.292648
Si Si2 0.744597 0.672576 0.577228
Si Si3 0.433589 0.827422 0.809187
Si Si4 0.066881 0.831603 0.072010
Si Si5 0.403832 0.671789 0.384454
Si Si6 0.732910 0.173185 0.838126
Si Si7 0.810230 0.672062 0.941422
Si Si8 0.114255 0.169045 0.745928
O O1 0.624965 0.500000 0.300330
O O2 0.579403 0.758686 0.300971
O O3 0.632387 0.721286 0.441207
O O4 0.735934 0.710830 0.130204
O O5 0.750747 0.500000 0.595606
O O6 0.661105 0.712071 0.625524
O O7 0.747779 0.763350 0.690846
O O8 0.819797 0.718767 0.393740
O O9 0.514320 0.760755 0.757273
O O10 0.444174 0.000000 0.779710
O O11 0.358393 0.786272 0.996003
O O12 0.106315 0.726392 0.114527
O O13 0.969797 0.808330 0.209388
O O14 0.089371 0.000000 0.070371
O O15 0.101068 0.789474 0.898463
O O16 0.424921 0.500000 0.355979
O O17 0.798325 0.245277 0.835474
O O18 0.748078 0.000000 0.815767
O O19 0.816365 0.500000 0.907147
O O20 0.143798 0.000000 0.692728
#
# Coordination Sequence:
#
# PCOD8061537 Si02
#       8
#     4   4   4   4   4   4   4   4
#     4   9  18  33  52  76 109 143 171 207 263 323
#     4  11  23  38  56  79 106 138 181 226 267 314
#     4  10  21  35  53  78 104 134 177 224 264 308
#     4   9  18  34  57  85 115 145 176 209 255 318
#     4  10  21  35  52  76 107 141 173 212 267 324
#     4  10  22  40  57  74 103 142 181 223 271 319
#     4  10  19  33  56  83 109 140 180 223 265 311
#     4   9  19  36  57  82 114 148 176 209 259 315
#
# _framework density 18.787230999999998
#
# number of rings (size 3 to 8) (size 9 to 14) (size 15 to 20)
#    0.000    2.250    0.000    3.375    0.000    7.500 
#    0.000    4.375    0.000    3.750    0.000    0.000 
#    0.000    0.000    0.000    0.000    0.000    0.000 
#
# Total GULP energy -396945.307035 kJ/mol
# GULP energy per Si atom -12404.540845 kJ/mol
# Density = 1.874447 g / cm^3
# Si number density = 18.787231 Si / 1000 Ang^3
#
#
#
# Elastic Constant Matrix: (Units=GPa)
#
#
# Indices 1 2 3 4 5 6 
#
# 1 111.9724 48.7829 22.1711 0.0000 -2.3757 0.0000
# 2 48.7829 73.5985 24.5173 0.0000 -1.3518 0.0000
# 3 22.1711 24.5173 28.5656 0.0000 2.8261 0.0000
# 4 0.0000 0.0000 0.0000 29.5608 0.0000 -3.4594
# 5 -2.3757 -1.3518 2.8261 0.0000 23.7553 0.0000
# 6 0.0000 0.0000 0.0000 -3.4594 0.0000 34.4730
#
#
#
# Elastic Compliance Matrix: (Units=1/GPa)
#
#
# Indices 1 2 3 4 5 6 
#
# 1 0.012876 -0.007193 -0.003954 0.000000 0.001349 0.000000
# 2 -0.007193 0.023268 -0.014620 0.000000 0.002344 0.000000
# 3 -0.003954 -0.014620 0.051350 0.000000 -0.007336 0.000000
# 4 0.000000 0.000000 0.000000 0.034231 0.000000 0.003435
# 5 0.001349 0.002344 -0.007336 0.000000 0.043237 0.000000
# 6 0.000000 0.000000 0.000000 0.003435 0.000000 0.029353
#
#
# Mechanical properties :
#
#
# Convention : Reuss Voigt Hill
#
# Bulk Modulus (GPa) = 27.80786 45.00878 36.40832
# Shear Modulus (GPa) = 19.39241 25.46884 22.43062
#
# Velocity S-wave (km/s) = 3.21629 3.68590 3.45908
# Velocity P-wave (km/s) = 5.35036 6.49027 5.94769
#
# Compressibility (1/GPa) = 0.03596105
#
# Stress axis : x y z
#
# Youngs Moduli (GPa) = 77.66499 42.97766 19.47437
#
# Poissons Ratio (x) = 0.30912 0.07700
# Poissons Ratio (y) = 0.55861 0.28471
# Poissons Ratio (z) = 0.30706 0.62833
#
# Static dielectric constant tensor:
#      x y z
#    x 3.472030 0.000000 -0.030450 
#    y 0.000000 3.402090 0.000000 
#    z -0.030450 0.000000 3.314400 
# 
# 
# High freq. dielectric constant tensor:
#      x y z
#    x 1.734890 0.000000 -0.002580 
#    y 0.000000 1.732740 0.000000 
#    z -0.002580 0.000000 1.717690 
# 
# From -- ./inp_files/55286.got.cif
#   From: 2010.06.25/outbox.cif.g09.slc.cpg/sg10_28_cif.got.tgz:55286.got - 2010.06.27 22:07:45.
