data_PCOD8061700
_publ_section_title
;
Structure prediction by ZEFSAII (Michael W. Deem and Ramdas Pophale) SiO2 
 PCOD8061700
Probable space group: P 2/M
;
_chemical_formula_sum "Si O2"
_cell_formula_units_Z 32
_cell_length_a 12.061142
_cell_length_b 9.083956
_cell_length_c 21.518366
_cell_angle_alpha 90.000000
_cell_angle_beta 128.805477
_cell_angle_gamma 90.000000
_cell_volume 1837.237044
_symmetry_space_group_name_H-M "P 2/M"
_symmetry_group_IT_number 10
_symmetry_cell_setting 'monoclinic'
loop_
_space_group_symop_operation_xyz
x,y,z
-x,y,-z
-x,-y,-z
x,-y,z
loop_
_atom_site_type_symbol
_atom_site_label
_atom_site_fract_x
_atom_site_fract_y
_atom_site_fract_z
Si Si1 0.277299 0.829122 0.051371
Si Si2 0.964082 0.831865 0.132178
Si Si3 0.566313 0.673261 0.162471
Si Si4 0.788084 0.327041 0.847352
Si Si5 0.774618 0.826396 0.431888
Si Si6 0.472748 0.330860 0.709373
Si Si7 0.846669 0.172634 0.224425
Si Si8 0.982330 0.174133 0.397771
O O1 0.424002 0.748412 0.086302
O O2 0.198832 0.758156 0.083024
O O3 0.306682 0.000000 0.075690
O O4 0.177253 0.806602 0.957152
O O5 0.930227 0.791694 0.191132
O O6 0.087527 0.722572 0.154464
O O7 0.017055 0.000000 0.144191
O O8 0.555167 0.500000 0.146538
O O9 0.580740 0.710137 0.240384
O O10 0.699490 0.739119 0.172587
O O11 0.798565 0.500000 0.865389
O O12 0.638593 0.288904 0.761638
O O13 0.617253 0.757580 0.373686
O O14 0.863171 0.767075 0.403593
O O15 0.860128 0.774694 0.524091
O O16 0.756307 0.000000 0.424082
O O17 0.447594 0.500000 0.686077
O O18 0.947342 0.229504 0.316147
O O19 0.811393 0.000000 0.218372
O O20 0.978571 0.000000 0.399686
#
# Coordination Sequence:
#
# PCOD8061700 Si02
#       8
#     4   4   4   4   4   4   4   4
#     4  10  20  35  54  75 100 127 163 213 256 293
#     4  10  22  36  52  75  98 129 173 210 246 298
#     4  10  20  33  49  74 104 133 168 204 246 300
#     4  10  21  36  54  75 100 129 165 210 255 296
#     4   9  15  26  48  76 100 126 162 199 241 290
#     4   9  18  31  47  72 102 127 158 203 247 292
#     4  10  19  34  53  71 101 139 168 201 247 297
#     4   8  15  27  46  74 103 128 160 200 239 288
#
# _framework density 17.417459000000001
#
# number of rings (size 3 to 8) (size 9 to 14) (size 15 to 20)
#    0.000    2.500    1.250    3.000    0.000    6.000 
#    0.000    4.375    0.000    0.750    0.000    5.250 
#    0.000    0.000    0.000    0.000    0.000    0.000 
#
# Total GULP energy -396763.702616 kJ/mol
# GULP energy per Si atom -12398.865707 kJ/mol
# Density = 1.737782 g / cm^3
# Si number density = 17.417459 Si / 1000 Ang^3
#
#
#
# Elastic Constant Matrix: (Units=GPa)
#
#
# Indices 1 2 3 4 5 6 
#
# 1 57.1257 35.5699 53.9955 0.0000 -8.1128 0.0000
# 2 35.5699 69.4498 46.0194 0.0000 3.6718 0.0000
# 3 53.9955 46.0194 121.5997 0.0000 2.0335 0.0000
# 4 0.0000 0.0000 0.0000 13.0216 0.0000 7.1564
# 5 -8.1128 3.6718 2.0335 0.0000 17.7348 0.0000
# 6 0.0000 0.0000 0.0000 7.1564 0.0000 27.3210
#
#
#
# Elastic Compliance Matrix: (Units=1/GPa)
#
#
# Indices 1 2 3 4 5 6 
#
# 1 0.043096 -0.013887 -0.014286 0.000000 0.024228 0.000000
# 2 -0.013887 0.023870 -0.002684 0.000000 -0.010987 0.000000
# 3 -0.014286 -0.002684 0.015713 0.000000 -0.007781 0.000000
# 4 0.000000 0.000000 0.000000 0.089710 0.000000 -0.023498
# 5 0.024228 -0.010987 -0.007781 0.000000 0.070636 0.000000
# 6 0.000000 0.000000 0.000000 -0.023498 0.000000 0.042757
#
#
# Mechanical properties :
#
#
# Convention : Reuss Voigt Hill
#
# Bulk Modulus (GPa) = 47.69573 57.70498 52.70036
# Shear Modulus (GPa) = 14.10496 19.12149 16.61323
#
# Velocity S-wave (km/s) = 2.84882 3.31695 3.09176
# Velocity P-wave (km/s) = 6.18582 6.91896 6.56263
#
# Compressibility (1/GPa) = 0.02096624
#
# Stress axis : x y z
#
# Youngs Moduli (GPa) = 23.20391 41.89275 63.64099
#
# Poissons Ratio (x) = 0.58176 0.90919
# Poissons Ratio (y) = 0.32223 0.17079
# Poissons Ratio (z) = 0.33150 0.11243
#
# Static dielectric constant tensor:
#      x y z
#    x 3.030600 0.000000 0.085810 
#    y 0.000000 3.128920 0.000000 
#    z 0.085810 0.000000 3.443200 
# 
# 
# High freq. dielectric constant tensor:
#      x y z
#    x 1.647770 0.000000 0.015770 
#    y 0.000000 1.665420 0.000000 
#    z 0.015770 0.000000 1.677530 
# 
# From -- ./inp_files/55281.got.cif
#   From: 2010.06.25/outbox.cif.g09.slc.cpg/sg10_28_cif.got.tgz:55281.got - 2010.06.27 22:07:45.
