data_PCOD8061267
_publ_section_title
;
Structure prediction by ZEFSAII (Michael W. Deem and Ramdas Pophale) SiO2 
 PCOD8061267
Probable space group: P 2/M
;
_chemical_formula_sum "Si O2"
_cell_formula_units_Z 32
_cell_length_a 11.086392
_cell_length_b 9.357822
_cell_length_c 20.413194
_cell_angle_alpha 90.000000
_cell_angle_beta 52.960233
_cell_angle_gamma 90.000000
_cell_volume 1690.430357
_symmetry_space_group_name_H-M "P 2/M"
_symmetry_group_IT_number 10
_symmetry_cell_setting 'monoclinic'
loop_
_space_group_symop_operation_xyz
x,y,z
-x,y,-z
-x,-y,-z
x,-y,z
loop_
_atom_site_type_symbol
_atom_site_label
_atom_site_fract_x
_atom_site_fract_y
_atom_site_fract_z
Si Si1 0.940570 0.163956 0.122978
Si Si2 0.883807 0.666476 0.269333
Si Si3 0.887395 0.836381 0.590263
Si Si4 0.155976 0.663227 0.270564
Si Si5 0.764729 0.163410 0.046895
Si Si6 0.495713 0.332251 0.175716
Si Si7 0.608549 0.167640 0.404980
Si Si8 0.457677 0.837025 0.317094
O O1 0.876164 0.265372 0.200096
O O2 0.839344 0.190154 0.092755
O O3 0.927427 0.000000 0.150763
O O4 0.114508 0.201563 0.049127
O O5 0.842596 0.500000 0.278395
O O6 0.764421 0.743468 0.356802
O O7 0.054208 0.690025 0.239993
O O8 0.914319 0.755063 0.648616
O O9 0.720478 0.817511 0.616582
O O10 0.000000 0.770203 0.500000
O O11 0.928286 0.000000 0.591007
O O12 0.149059 0.500000 0.295843
O O13 0.330575 0.706139 0.200294
O O14 0.619048 0.264736 0.086237
O O15 0.712480 0.000000 0.057031
O O16 0.522865 0.500000 0.172065
O O17 0.519260 0.264676 0.239871
O O18 0.500000 0.215637 0.500000
O O19 0.529304 0.207032 0.362491
O O20 0.645590 0.000000 0.398403
O O21 0.499744 0.000000 0.284512
#
# Coordination Sequence:
#
# PCOD8061267 Si02
#       8
#     4   4   4   4   4   4   4   4
#     4   9  19  36  57  82 110 143 174 210 264 320
#     4  11  23  38  55  76 108 144 180 220 261 312
#     4   9  18  31  53  79  99 125 171 226 265 303
#     4   9  21  38  51  71 105 145 179 212 263 319
#     4   9  18  34  57  83 111 137 171 217 265 314
#     4  10  19  33  54  78 104 138 178 217 261 312
#     4  10  22  37  55  77 104 140 176 214 266 322
#     4   9  18  33  50  74 105 133 167 214 266 313
#
# _framework density 18.930091000000001
#
# number of rings (size 3 to 8) (size 9 to 14) (size 15 to 20)
#    0.000    2.500    0.000    2.250    1.750    6.500 
#    0.000    1.875    0.000    3.750    0.000    0.000 
#    0.000    0.000    0.000    0.000    0.000    0.000 
#
# Total GULP energy -396828.483522 kJ/mol
# GULP energy per Si atom -12400.890110 kJ/mol
# Density = 1.888700 g / cm^3
# Si number density = 18.930091 Si / 1000 Ang^3
#
#
#
# Elastic Constant Matrix: (Units=GPa)
#
#
# Indices 1 2 3 4 5 6 
#
# 1 58.1983 30.4005 24.2871 0.0000 -5.9009 0.0000
# 2 30.4005 77.6613 48.5248 0.0000 -9.5803 0.0000
# 3 24.2871 48.5248 103.5925 0.0000 -20.7316 0.0000
# 4 0.0000 0.0000 0.0000 -27.6811 0.0000 -15.8412
# 5 -5.9009 -9.5803 -20.7316 0.0000 24.1325 0.0000
# 6 0.0000 0.0000 0.0000 -15.8412 0.0000 23.5808
#
#
#
# Elastic Compliance Matrix: (Units=1/GPa)
#
#
# Indices 1 2 3 4 5 6 
#
# 1 0.021807 -0.007555 -0.001337 0.000000 0.001185 0.000000
# 2 -0.007555 0.020822 -0.008088 0.000000 -0.000530 0.000000
# 3 -0.001337 -0.008088 0.015756 0.000000 0.009998 0.000000
# 4 0.000000 0.000000 0.000000 -0.026094 0.000000 -0.017530
# 5 0.001185 -0.000530 0.009998 0.000000 0.050106 0.000000
# 6 0.000000 0.000000 0.000000 -0.017530 0.000000 0.030631
#
#
# Mechanical properties :
#
#
# Convention : Reuss Voigt Hill
#
# Bulk Modulus (GPa) = 40.94074 49.54188 45.24131
# Shear Modulus (GPa) = 32.23085 13.08908 22.65996
#
# Velocity S-wave (km/s) = 4.13076 2.63238 3.46357
# Velocity P-wave (km/s) = 6.66523 5.95542 6.32030
#
# Compressibility (1/GPa) = 0.02442555
#
# Stress axis : x y z
#
# Youngs Moduli (GPa) = 45.85679 48.02536 63.46723
#
# Poissons Ratio (x) = 0.36284 0.08483
# Poissons Ratio (y) = 0.34645 0.51334
# Poissons Ratio (z) = 0.06129 0.38844
#
# Static dielectric constant tensor:
#      x y z
#    x 3.432720 0.000000 -0.244780 
#    y 0.000000 3.417400 0.000000 
#    z -0.244780 0.000000 3.529730 
# 
# 
# High freq. dielectric constant tensor:
#      x y z
#    x 1.729160 0.000000 -0.018870 
#    y 0.000000 1.730070 0.000000 
#    z -0.018870 0.000000 1.735180 
# 
# From -- ./inp_files/83533.got.cif
#   From: 2010.06.25/outbox.cif.g09.slc.cpg/sg10_42_cif.got.tgz:83533.got - 2010.06.27 22:07:45.
