data_PCOD8061317
_publ_section_title
;
Structure prediction by ZEFSAII (Michael W. Deem and Ramdas Pophale) SiO2 
 PCOD8061317
Probable space group: P 2/M
;
_chemical_formula_sum "Si O2"
_cell_formula_units_Z 28
_cell_length_a 13.394040
_cell_length_b 9.372260
_cell_length_c 19.630381
_cell_angle_alpha 90.000000
_cell_angle_beta 145.084736
_cell_angle_gamma 90.000000
_cell_volume 1410.448464
_symmetry_space_group_name_H-M "P 2/M"
_symmetry_group_IT_number 10
_symmetry_cell_setting 'monoclinic'
loop_
_space_group_symop_operation_xyz
x,y,z
-x,y,-z
-x,-y,-z
x,-y,z
loop_
_atom_site_type_symbol
_atom_site_label
_atom_site_fract_x
_atom_site_fract_y
_atom_site_fract_z
Si Si1 0.850532 0.663229 0.468478
Si Si2 0.711336 0.835614 0.941586
Si Si3 0.997456 0.668066 0.825236
Si Si4 0.419289 0.165267 0.882078
Si Si5 0.088766 0.663081 0.725447
Si Si6 0.400757 0.334493 0.375009
Si Si7 0.479959 0.165606 0.687486
O O1 0.797132 0.500000 0.422425
O O2 0.683956 0.764143 0.365550
O O3 0.000000 0.713987 0.500000
O O4 0.916201 0.677238 0.583058
O O5 0.555732 0.779757 0.902556
O O6 0.652019 0.815389 0.830397
O O7 0.753719 0.000000 0.982043
O O8 0.884107 0.744220 0.051857
O O9 0.025042 0.500000 0.846580
O O10 0.047429 0.723050 0.777620
O O11 0.799362 0.710946 0.729044
O O12 0.240372 0.249643 0.773361
O O13 0.376124 0.000000 0.847543
O O14 0.500000 0.199228 0.000000
O O15 0.150406 0.500000 0.764440
O O16 0.500000 0.301003 0.500000
O O17 0.419904 0.500000 0.365594
O O18 0.489442 0.240901 0.366843
O O19 0.438170 0.000000 0.652136
#
# Coordination Sequence:
#
# PCOD8061317 Si02
#       7
#     4   4   4   4   4   4   4
#     4  10  21  38  60  86 118 156 196 239 291 347
#     4  10  22  39  56  81 120 157 190 234 288 343
#     4  10  21  36  58  86 111 145 193 240 288 342
#     4  10  19  33  54  80 114 158 197 228 278 342
#     4  10  20  34  55  85 116 146 189 243 292 338
#     4  10  22  43  67  87 114 150 190 242 296 346
#     4  11  24  40  60  87 119 155 193 238 292 349
#
# _framework density 19.851842999999999
#
# number of rings (size 3 to 8) (size 9 to 14) (size 15 to 20)
#    0.000    1.857    1.429    2.143    0.000    6.571 
#    0.000    4.286    0.000    0.000    0.000    0.000 
#    0.000    0.000    0.000    0.000    0.000    0.000 
#
# Total GULP energy -347342.142851 kJ/mol
# GULP energy per Si atom -12405.076530 kJ/mol
# Density = 1.980666 g / cm^3
# Si number density = 19.851843 Si / 1000 Ang^3
#
#
#
# Elastic Constant Matrix: (Units=GPa)
#
#
# Indices 1 2 3 4 5 6 
#
# 1 101.4353 49.4119 44.7199 0.0000 6.7783 0.0000
# 2 49.4119 73.3408 53.7070 0.0000 9.5005 0.0000
# 3 44.7199 53.7070 106.1999 0.0000 12.7931 0.0000
# 4 0.0000 0.0000 0.0000 18.9961 0.0000 -11.2195
# 5 6.7783 9.5005 12.7931 0.0000 32.0495 0.0000
# 6 0.0000 0.0000 0.0000 -11.2195 0.0000 16.7309
#
#
#
# Elastic Compliance Matrix: (Units=1/GPa)
#
#
# Indices 1 2 3 4 5 6 
#
# 1 0.014914 -0.008666 -0.001920 0.000000 0.000181 0.000000
# 2 -0.008666 0.026832 -0.009647 0.000000 -0.002270 0.000000
# 3 -0.001920 -0.009647 0.015453 0.000000 -0.002903 0.000000
# 4 0.000000 0.000000 0.000000 0.087165 0.000000 0.058451
# 5 0.000181 -0.002270 -0.002903 0.000000 0.032995 0.000000
# 6 0.000000 0.000000 0.000000 0.058451 0.000000 0.098966
#
#
# Mechanical properties :
#
#
# Convention : Reuss Voigt Hill
#
# Bulk Modulus (GPa) = 59.75707 64.07263 61.91485
# Shear Modulus (GPa) = 15.51030 22.43112 18.97071
#
# Velocity S-wave (km/s) = 2.79821 3.36508 3.09466
# Velocity P-wave (km/s) = 6.37235 6.88795 6.63516
#
# Compressibility (1/GPa) = 0.01673442
#
# Stress axis : x y z
#
# Youngs Moduli (GPa) = 67.05096 37.26949 64.71415
#
# Poissons Ratio (x) = 0.32297 0.12422
# Poissons Ratio (y) = 0.58105 0.62427
# Poissons Ratio (z) = 0.12871 0.35952
#
# Static dielectric constant tensor:
#      x y z
#    x 3.580360 0.000000 -0.041610 
#    y 0.000000 3.471650 0.000000 
#    z -0.041610 0.000000 3.597260 
# 
# 
# High freq. dielectric constant tensor:
#      x y z
#    x 1.776530 0.000000 -0.003960 
#    y 0.000000 1.763960 0.000000 
#    z -0.003960 0.000000 1.781080 
# 
# From -- ./inp_files/49544.got.cif
#   From: 2010.06.25/outbox.cif.g09.slc.cpg/sg10_25_cif.got.tgz:49544.got - 2010.06.27 22:07:45.
