data_PCOD8061691
_publ_section_title
;
Structure prediction by ZEFSAII (Michael W. Deem and Ramdas Pophale) SiO2 
 PCOD8061691
Probable space group: P 2/M
;
_chemical_formula_sum "Si O2"
_cell_formula_units_Z 32
_cell_length_a 26.256244
_cell_length_b 8.840276
_cell_length_c 20.412432
_cell_angle_alpha 90.000000
_cell_angle_beta 158.673837
_cell_angle_gamma 90.000000
_cell_volume 1723.092414
_symmetry_space_group_name_H-M "P 2/M"
_symmetry_group_IT_number 10
_symmetry_cell_setting 'monoclinic'
loop_
_space_group_symop_operation_xyz
x,y,z
-x,y,-z
-x,-y,-z
x,-y,z
loop_
_atom_site_type_symbol
_atom_site_label
_atom_site_fract_x
_atom_site_fract_y
_atom_site_fract_z
Si Si1 0.082726 0.177578 0.362275
Si Si2 0.154690 0.320472 0.202250
Si Si3 0.906776 0.179075 0.480457
Si Si4 0.214158 0.320877 0.019113
Si Si5 0.597262 0.820249 0.866954
Si Si6 0.797838 0.179561 0.217225
Si Si7 0.279376 0.822712 0.479204
Si Si8 0.657054 0.679817 0.690347
O O1 0.137530 0.230945 0.499783
O O2 0.205171 0.218190 0.458587
O O3 0.944051 0.267757 0.178091
O O4 0.046340 0.000000 0.318364
O O5 0.157922 0.500000 0.208455
O O6 0.197497 0.260355 0.323960
O O7 0.259883 0.256821 0.273058
O O8 0.000000 0.260981 0.000000
O O9 0.799955 0.239086 0.295577
O O10 0.063024 0.239956 0.652787
O O11 0.908551 0.000000 0.478819
O O12 0.221688 0.500000 0.021799
O O13 0.316094 0.249671 0.088135
O O14 0.266484 0.264033 0.152571
O O15 0.438115 0.762288 0.673232
O O16 0.605948 0.000000 0.871634
O O17 0.662810 0.763276 0.014873
O O18 0.798780 0.000000 0.218369
O O19 0.275516 0.000000 0.460597
O O20 0.500000 0.746113 0.500000
O O21 0.653892 0.500000 0.684280
#
# Coordination Sequence:
#
# PCOD8061691 Si02
#       8
#     4   4   4   4   4   4   4   4
#     4  10  19  34  52  74 105 138 168 207 255 302
#     4  10  20  36  56  73  94 132 176 214 254 299
#     4   8  13  24  47  75  98 129 172 211 248 291
#     4  11  21  33  54  80 100 126 171 218 258 304
#     4  10  19  34  52  75 108 141 169 206 257 309
#     4   8  13  24  47  75  99 129 171 211 247 294
#     4  10  22  35  51  77 109 140 169 205 258 315
#     4   9  18  32  49  70  95 122 158 207 254 294
#
# _framework density 18.571262000000001
#
# number of rings (size 3 to 8) (size 9 to 14) (size 15 to 20)
#    0.000    2.500    1.250    2.625    0.000    3.250 
#    0.000    1.875    0.000    8.625    0.000    0.000 
#    0.000    3.000    0.000    0.000    0.000    0.000 
#
# Total GULP energy -396664.364985 kJ/mol
# GULP energy per Si atom -12395.761406 kJ/mol
# Density = 1.852899 g / cm^3
# Si number density = 18.571262 Si / 1000 Ang^3
#
#
#
# Elastic Constant Matrix: (Units=GPa)
#
#
# Indices 1 2 3 4 5 6 
#
# 1 115.5527 11.1738 54.8198 0.0000 -16.3630 0.0000
# 2 11.1738 14.1630 16.7918 0.0000 -1.2877 0.0000
# 3 54.8198 16.7918 108.4197 0.0000 -9.0690 0.0000
# 4 0.0000 0.0000 0.0000 8.5717 0.0000 1.7861
# 5 -16.3630 -1.2877 -9.0690 0.0000 40.7077 0.0000
# 6 0.0000 0.0000 0.0000 1.7861 0.0000 4.8532
#
#
#
# Elastic Compliance Matrix: (Units=1/GPa)
#
#
# Indices 1 2 3 4 5 6 
#
# 1 0.011944 -0.002808 -0.005309 0.000000 0.003529 0.000000
# 2 -0.002808 0.087150 -0.012169 0.000000 -0.001083 0.000000
# 3 -0.005309 -0.012169 0.013840 0.000000 0.000564 0.000000
# 4 0.000000 0.000000 0.000000 0.126353 0.000000 -0.046501
# 5 0.003529 -0.001083 0.000564 0.000000 0.026076 0.000000
# 6 0.000000 0.000000 0.000000 -0.046501 0.000000 0.223162
#
#
# Mechanical properties :
#
#
# Convention : Reuss Voigt Hill
#
# Bulk Modulus (GPa) = 13.81917 44.85624 29.33770
# Shear Modulus (GPa) = 9.03805 21.18319 15.11062
#
# Velocity S-wave (km/s) = 2.20845 3.38101 2.85556
# Velocity P-wave (km/s) = 3.73635 6.28073 5.16759
#
# Compressibility (1/GPa) = 0.07236327
#
# Stress axis : x y z
#
# Youngs Moduli (GPa) = 83.72332 11.47442 72.25596
#
# Poissons Ratio (x) = 0.03222 0.38362
# Poissons Ratio (y) = 0.23508 0.87925
# Poissons Ratio (z) = 0.44450 0.13963
#
# Static dielectric constant tensor:
#      x y z
#    x 3.753410 0.000000 -0.191950 
#    y 0.000000 3.002990 0.000000 
#    z -0.191950 0.000000 3.744480 
# 
# 
# High freq. dielectric constant tensor:
#      x y z
#    x 1.732540 0.000000 -0.014510 
#    y 0.000000 1.674500 0.000000 
#    z -0.014510 0.000000 1.726420 
# 
# From -- ./inp_files/87004.got.cif
#   From: 2010.06.25/outbox.cif.g09.slc.cpg/sg10_44_cif.got.tgz:87004.got - 2010.06.27 22:07:45.
