data_PCOD8061086
_publ_section_title
;
Structure prediction by ZEFSAII (Michael W. Deem and Ramdas Pophale) SiO2 
 PCOD8061086
Probable space group: P 2/M
;
_chemical_formula_sum "Si O2"
_cell_formula_units_Z 32
_cell_length_a 21.967019
_cell_length_b 10.726913
_cell_length_c 21.162583
_cell_angle_alpha 90.000000
_cell_angle_beta 159.654049
_cell_angle_gamma 90.000000
_cell_volume 1733.819626
_symmetry_space_group_name_H-M "P 2/M"
_symmetry_group_IT_number 10
_symmetry_cell_setting 'monoclinic'
loop_
_space_group_symop_operation_xyz
x,y,z
-x,y,-z
-x,-y,-z
x,-y,z
loop_
_atom_site_type_symbol
_atom_site_label
_atom_site_fract_x
_atom_site_fract_y
_atom_site_fract_z
Si Si1 0.221889 0.850395 0.889271
Si Si2 0.675666 0.858995 0.459565
Si Si3 0.934191 0.144067 0.133208
Si Si4 0.481233 0.362243 0.624441
Si Si5 0.606922 0.140153 0.248761
Si Si6 0.211740 0.639362 0.256244
Si Si7 0.051963 0.850903 0.481664
Si Si8 0.160313 0.703317 0.072047
O O1 0.162492 0.794991 0.899830
O O2 0.089673 0.801934 0.706831
O O3 0.229270 0.000000 0.898983
O O4 0.415705 0.794677 0.061956
O O5 0.537945 0.751206 0.344696
O O6 0.692502 0.859149 0.401060
O O7 0.861634 0.819360 0.669610
O O8 0.618800 0.000000 0.426477
O O9 0.912712 0.000000 0.122489
O O10 0.848557 0.176932 0.982391
O O11 0.416660 0.500000 0.585869
O O12 0.369739 0.319583 0.454798
O O13 0.683366 0.380737 0.802953
O O14 0.753717 0.202691 0.346125
O O15 0.577728 0.000000 0.196385
O O16 0.245257 0.500000 0.262295
O O17 0.202201 0.733645 0.186781
O O18 0.027780 0.635851 0.115073
O O19 0.000000 0.800448 0.500000
O O20 0.055713 0.000000 0.483263
#
# Coordination Sequence:
#
# PCOD8061086 Si02
#       8
#     4   4   4   4   4   4   4   4
#     4   9  16  27  43  63  89 128 170 206 247 300
#     4  10  19  35  55  75 102 139 176 213 259 309
#     4  10  19  33  52  73 100 135 175 214 256 309
#     4  11  22  36  56  81 104 131 169 214 262 311
#     4   9  16  27  45  65  91 129 170 207 248 299
#     4  10  21  37  53  73  99 130 168 208 254 316
#     4   9  16  25  38  61  96 133 168 206 246 294
#     4  11  20  34  54  74  96 129 166 208 256 305
#
# _framework density 18.456361000000001
#
# number of rings (size 3 to 8) (size 9 to 14) (size 15 to 20)
#    0.000    2.125    2.500    2.625    0.000    3.000 
#    0.000    4.375    0.000    1.500    0.000    0.000 
#    0.000    0.500    0.000    3.500    0.000    2.625 
#
# Total GULP energy -396427.841386 kJ/mol
# GULP energy per Si atom -12388.370043 kJ/mol
# Density = 1.841435 g / cm^3
# Si number density = 18.456361 Si / 1000 Ang^3
#
#
#
# Elastic Constant Matrix: (Units=GPa)
#
#
# Indices 1 2 3 4 5 6 
#
# 1 109.9421 25.1080 45.9776 0.0000 15.3708 0.0000
# 2 25.1080 29.1633 20.4978 0.0000 13.9327 0.0000
# 3 45.9776 20.4978 95.7133 0.0000 15.5533 0.0000
# 4 0.0000 0.0000 0.0000 10.2412 0.0000 4.2970
# 5 15.3708 13.9327 15.5533 0.0000 26.5469 0.0000
# 6 0.0000 0.0000 0.0000 4.2970 0.0000 6.0595
#
#
#
# Elastic Compliance Matrix: (Units=1/GPa)
#
#
# Indices 1 2 3 4 5 6 
#
# 1 0.012762 -0.007478 -0.004383 0.000000 -0.000896 0.000000
# 2 -0.007478 0.054148 -0.004520 0.000000 -0.021441 0.000000
# 3 -0.004383 -0.004520 0.014062 0.000000 -0.003329 0.000000
# 4 0.000000 0.000000 0.000000 0.139004 0.000000 -0.098572
# 5 -0.000896 -0.021441 -0.003329 0.000000 0.051391 0.000000
# 6 0.000000 0.000000 0.000000 -0.098572 0.000000 0.234930
#
#
# Mechanical properties :
#
#
# Convention : Reuss Voigt Hill
#
# Bulk Modulus (GPa) = 20.74278 46.44284 33.59281
# Shear Modulus (GPa) = 9.00691 18.11855 13.56273
#
# Velocity S-wave (km/s) = 2.21149 3.13660 2.71376
# Velocity P-wave (km/s) = 4.21713 6.19160 5.29717
#
# Compressibility (1/GPa) = 0.04820954
#
# Stress axis : x y z
#
# Youngs Moduli (GPa) = 78.35816 18.46787 71.11207
#
# Poissons Ratio (x) = 0.13811 0.31170
# Poissons Ratio (y) = 0.58598 0.32142
# Poissons Ratio (z) = 0.34346 0.08347
#
# Static dielectric constant tensor:
#      x y z
#    x 3.457780 0.000000 0.169630 
#    y 0.000000 2.818950 0.000000 
#    z 0.169630 0.000000 3.685420 
# 
# 
# High freq. dielectric constant tensor:
#      x y z
#    x 1.711600 0.000000 0.010460 
#    y 0.000000 1.637630 0.000000 
#    z 0.010460 0.000000 1.738310 
# 
# From -- ./inp_files/86285.got.cif
#   From: 2010.06.25/outbox.cif.g09.slc.cpg/sg10_44_cif.got.tgz:86285.got - 2010.06.27 22:07:45.
