data_PCOD8061066
_publ_section_title
;
Structure prediction by ZEFSAII (Michael W. Deem and Ramdas Pophale) SiO2 
 PCOD8061066
Probable space group: P 2/M
;
_chemical_formula_sum "Si O2"
_cell_formula_units_Z 32
_cell_length_a 19.964830
_cell_length_b 9.135397
_cell_length_c 25.625820
_cell_angle_alpha 90.000000
_cell_angle_beta 21.570282
_cell_angle_gamma 90.000000
_cell_volume 1718.289072
_symmetry_space_group_name_H-M "P 2/M"
_symmetry_group_IT_number 10
_symmetry_cell_setting 'monoclinic'
loop_
_space_group_symop_operation_xyz
x,y,z
-x,y,-z
-x,-y,-z
x,-y,z
loop_
_atom_site_type_symbol
_atom_site_label
_atom_site_fract_x
_atom_site_fract_y
_atom_site_fract_z
Si Si1 0.790226 0.171572 0.644996
Si Si2 0.486953 0.831570 0.948273
Si Si3 0.246147 0.674061 0.537790
Si Si4 0.149183 0.326313 0.145029
Si Si5 0.922448 0.674652 0.109953
Si Si6 0.610073 0.326082 0.677568
Si Si7 0.476854 0.674505 0.575441
Si Si8 0.202559 0.673825 0.990798
O O1 0.670830 0.213045 0.783137
O O2 0.717288 0.255756 0.647629
O O3 0.000000 0.220279 0.500000
O O4 0.777590 0.000000 0.642750
O O5 0.441680 0.000000 0.969784
O O6 0.500000 0.800742 0.000000
O O7 0.318706 0.734216 0.053367
O O8 0.256864 0.500000 0.531700
O O9 0.312419 0.731516 0.433643
O O10 0.370144 0.736048 0.495518
O O11 0.039913 0.730171 0.693628
O O12 0.160848 0.500000 0.137949
O O13 0.158369 0.265345 0.079836
O O14 0.926095 0.500000 0.108410
O O15 0.717716 0.732172 0.263979
O O16 0.000000 0.736547 0.000000
O O17 0.049827 0.739222 0.063224
O O18 0.627353 0.500000 0.670505
O O19 0.401705 0.272932 0.829474
O O20 0.500000 0.735655 0.500000
O O21 0.485800 0.500000 0.568211
O O22 0.193934 0.500000 0.996056
#
# Coordination Sequence:
#
# PCOD8061066 Si02
#       8
#     4   4   4   4   4   4   4   4
#     4  10  22  39  57  77 101 129 162 204 251 298
#     4  10  22  39  57  77 101 128 162 206 250 296
#     4   9  18  29  44  70 105 139 170 208 250 292
#     4  10  19  33  51  74 103 135 168 203 248 296
#     4   9  15  22  36  60  91 129 167 200 239 288
#     4  10  19  33  51  74 105 137 167 204 251 299
#     4   9  15  24  38  60  95 137 172 201 242 293
#     4   9  16  27  44  66  97 133 167 205 247 290
#
# _framework density 18.623176000000001
#
# number of rings (size 3 to 8) (size 9 to 14) (size 15 to 20)
#    0.000    2.500    1.250    1.500    1.750    6.500 
#    0.000    0.000    0.000    0.000    0.000    0.000 
#    0.000   20.000    0.000    0.000    0.000    0.000 
#
# Total GULP energy -396709.170962 kJ/mol
# GULP energy per Si atom -12397.161593 kJ/mol
# Density = 1.858079 g / cm^3
# Si number density = 18.623176 Si / 1000 Ang^3
#
#
#
# Elastic Constant Matrix: (Units=GPa)
#
#
# Indices 1 2 3 4 5 6 
#
# 1 132.8329 22.8810 79.7756 0.0000 10.8440 0.0000
# 2 22.8810 13.5459 21.6069 0.0000 -1.4543 0.0000
# 3 79.7756 21.6069 183.6335 0.0000 6.3520 0.0000
# 4 0.0000 0.0000 0.0000 6.1124 0.0000 6.7351
# 5 10.8440 -1.4543 6.3520 0.0000 42.5001 0.0000
# 6 0.0000 0.0000 0.0000 6.7351 0.0000 -2.3360
#
#
#
# Elastic Compliance Matrix: (Units=1/GPa)
#
#
# Indices 1 2 3 4 5 6 
#
# 1 0.012683 -0.016208 -0.003490 0.000000 -0.003269 0.000000
# 2 -0.016208 0.112549 -0.006512 0.000000 0.008960 0.000000
# 3 -0.003490 -0.006512 0.007745 0.000000 -0.000490 0.000000
# 4 0.000000 0.000000 0.000000 0.039169 0.000000 0.112928
# 5 -0.003269 0.008960 -0.000490 0.000000 0.024743 0.000000
# 6 0.000000 0.000000 0.000000 0.112928 0.000000 -0.102486
#
#
# Mechanical properties :
#
#
# Convention : Reuss Voigt Hill
#
# Bulk Modulus (GPa) = 12.41337 64.28216 38.34776
# Shear Modulus (GPa) = 28.78980 22.97188 25.88084
#
# Velocity S-wave (km/s) = 3.93607 3.51595 3.73193
# Velocity P-wave (km/s) = 5.22847 7.14666 6.26146
#
# Compressibility (1/GPa) = 0.08055828
#
# Stress axis : x y z
#
# Youngs Moduli (GPa) = 78.84723 8.88503 129.11978
#
# Poissons Ratio (x) = 0.14401 0.45058
# Poissons Ratio (y) = 1.27794 0.84078
# Poissons Ratio (z) = 0.27515 0.05786
#
# Static dielectric constant tensor:
#      x y z
#    x 3.147180 0.000000 -0.181780 
#    y 0.000000 2.813640 0.000000 
#    z -0.181780 0.000000 3.610940 
# 
# 
# High freq. dielectric constant tensor:
#      x y z
#    x 1.738890 0.000000 0.002840 
#    y 0.000000 1.653170 0.000000 
#    z 0.002840 0.000000 1.744240 
# 
# From -- ./inp_files/34611.got.cif
#   From: 2010.06.25/outbox.cif.g09.slc.cpg/sg10_18_cif.got.tgz:34611.got - 2010.06.27 22:07:45.
