data_PCOD8061571
_publ_section_title
;
Structure prediction by ZEFSAII (Michael W. Deem and Ramdas Pophale) SiO2 
 PCOD8061571
Probable space group: P 2/M
;
_chemical_formula_sum "Si O2"
_cell_formula_units_Z 28
_cell_length_a 16.087347
_cell_length_b 9.065837
_cell_length_c 20.376726
_cell_angle_alpha 90.000000
_cell_angle_beta 150.208550
_cell_angle_gamma 90.000000
_cell_volume 1476.546728
_symmetry_space_group_name_H-M "P 2/M"
_symmetry_group_IT_number 10
_symmetry_cell_setting 'monoclinic'
loop_
_space_group_symop_operation_xyz
x,y,z
-x,y,-z
-x,-y,-z
x,-y,z
loop_
_atom_site_type_symbol
_atom_site_label
_atom_site_fract_x
_atom_site_fract_y
_atom_site_fract_z
Si Si1 0.955879 0.675590 0.397921
Si Si2 0.992831 0.327381 0.820467
Si Si3 0.185164 0.673821 0.435950
Si Si4 0.138390 0.827709 0.145777
Si Si5 0.414355 0.324363 0.876487
Si Si6 0.477913 0.173192 0.305687
Si Si7 0.627144 0.674698 0.898654
O O1 0.953075 0.500000 0.396938
O O2 0.773720 0.737606 0.254619
O O3 0.000000 0.738192 0.500000
O O4 0.090186 0.729694 0.436328
O O5 0.979235 0.500000 0.823428
O O6 0.929371 0.285246 0.704690
O O7 0.877650 0.248946 0.795082
O O8 0.183405 0.273476 0.958830
O O9 0.221375 0.500000 0.464040
O O10 0.358998 0.759540 0.548221
O O11 0.321981 0.790393 0.245443
O O12 0.108892 0.000000 0.135727
O O13 0.000000 0.765110 0.000000
O O14 0.413940 0.500000 0.878762
O O15 0.517281 0.270049 0.884264
O O16 0.500000 0.258431 0.000000
O O17 0.449556 0.247274 0.216542
O O18 0.500799 0.000000 0.311361
O O19 0.614718 0.500000 0.880246
#
# Coordination Sequence:
#
# PCOD8061571 Si02
#       7
#     4   4   4   4   4   4   4
#     4   9  16  28  49  75 105 143 180 213 256 312
#     4  10  21  35  56  85 115 144 175 223 282 330
#     4  10  21  37  55  82 117 146 179 224 274 325
#     4  10  21  39  59  79 106 142 185 228 269 323
#     4   9  16  27  48  79 110 138 174 220 266 316
#     4  11  23  38  57  80 106 142 187 228 269 323
#     4  10  19  33  56  85 112 141 180 227 275 321
#
# _framework density 18.963166000000001
#
# number of rings (size 3 to 8) (size 9 to 14) (size 15 to 20)
#    0.000    2.143    1.429    2.143    0.000    8.286 
#    0.000    2.857    0.000    4.286    0.000    0.000 
#    0.000    0.000    0.000    0.000    0.000    0.000 
#
# Total GULP energy -347273.089679 kJ/mol
# GULP energy per Si atom -12402.610346 kJ/mol
# Density = 1.892000 g / cm^3
# Si number density = 18.963166 Si / 1000 Ang^3
#
#
#
# Elastic Constant Matrix: (Units=GPa)
#
#
# Indices 1 2 3 4 5 6 
#
# 1 123.1111 25.7435 36.7160 0.0000 3.0882 0.0000
# 2 25.7435 21.5700 15.9430 0.0000 3.1249 0.0000
# 3 36.7160 15.9430 109.7142 0.0000 8.1571 0.0000
# 4 0.0000 0.0000 0.0000 20.5973 0.0000 3.5236
# 5 3.0882 3.1249 8.1571 0.0000 34.8107 0.0000
# 6 0.0000 0.0000 0.0000 3.5236 0.0000 -2.8611
#
#
#
# Elastic Compliance Matrix: (Units=1/GPa)
#
#
# Indices 1 2 3 4 5 6 
#
# 1 0.011222 -0.011952 -0.002060 0.000000 0.000560 0.000000
# 2 -0.011952 0.064967 -0.005176 0.000000 -0.003559 0.000000
# 3 -0.002060 -0.005176 0.010694 0.000000 -0.001859 0.000000
# 4 0.000000 0.000000 0.000000 0.040101 0.000000 0.049387
# 5 0.000560 -0.003559 -0.001859 0.000000 0.029432 0.000000
# 6 0.000000 0.000000 0.000000 0.049387 0.000000 -0.288698
#
#
# Mechanical properties :
#
#
# Convention : Reuss Voigt Hill
#
# Bulk Modulus (GPa) = 20.61589 45.68890 33.15239
# Shear Modulus (GPa) = -64.32109 22.24225 -21.03942
#
# Velocity S-wave (km/s) = -5.83032 3.42851 -3.33451
# Velocity P-wave (km/s) = 5.86757 6.31020 1.64170
#
# Compressibility (1/GPa) = 0.04850628
#
# Stress axis : x y z
#
# Youngs Moduli (GPa) = 89.10701 15.39249 93.50621
#
# Poissons Ratio (x) = 0.18397 0.19267
# Poissons Ratio (y) = 1.06501 0.48401
# Poissons Ratio (z) = 0.18360 0.07967
#
# Static dielectric constant tensor:
#      x y z
#    x 3.594400 0.000000 0.038790 
#    y 0.000000 3.085030 0.000000 
#    z 0.038790 0.000000 3.661310 
# 
# 
# High freq. dielectric constant tensor:
#      x y z
#    x 1.751330 0.000000 0.002090 
#    y 0.000000 1.693660 0.000000 
#    z 0.002090 0.000000 1.751800 
# 
# From -- ./inp_files/84986.got.cif
#   From: 2010.06.25/outbox.cif.g09.slc.cpg/sg10_43_cif.got.tgz:84986.got - 2010.06.27 22:07:45.
