data_PCOD8061149
_publ_section_title
;
Structure prediction by ZEFSAII (Michael W. Deem and Ramdas Pophale) SiO2 
 PCOD8061149
Probable space group: P 2/M
;
_chemical_formula_sum "Si O2"
_cell_formula_units_Z 28
_cell_length_a 19.504078
_cell_length_b 9.205588
_cell_length_c 15.322233
_cell_angle_alpha 90.000000
_cell_angle_beta 36.431231
_cell_angle_gamma 90.000000
_cell_volume 1633.733788
_symmetry_space_group_name_H-M "P 2/M"
_symmetry_group_IT_number 10
_symmetry_cell_setting 'monoclinic'
loop_
_space_group_symop_operation_xyz
x,y,z
-x,y,-z
-x,-y,-z
x,-y,z
loop_
_atom_site_type_symbol
_atom_site_label
_atom_site_fract_x
_atom_site_fract_y
_atom_site_fract_z
Si Si1 0.001226 0.170322 0.595965
Si Si2 0.239956 0.829154 0.426614
Si Si3 0.365330 0.668654 0.149065
Si Si4 0.636887 0.663874 0.351771
Si Si5 0.352088 0.167865 0.491472
Si Si6 0.252342 0.170408 0.104019
Si Si7 0.617387 0.830363 0.202648
O O1 0.110696 0.228544 0.538637
O O2 0.000000 0.240420 0.500000
O O3 0.883406 0.207024 0.767757
O O4 0.017087 0.000000 0.569103
O O5 0.330556 0.743176 0.275015
O O6 0.267097 0.793707 0.499311
O O7 0.255439 0.000000 0.391950
O O8 0.332334 0.500000 0.185378
O O9 0.298422 0.742768 0.138869
O O10 0.500000 0.693892 0.000000
O O11 0.500000 0.670553 0.500000
O O12 0.683260 0.500000 0.299643
O O13 0.691106 0.740636 0.381140
O O14 0.674584 0.746877 0.225491
O O15 0.482641 0.208233 0.329963
O O16 0.345346 0.000000 0.524961
O O17 0.272628 0.000000 0.100600
O O18 0.317714 0.223225 0.950563
O O19 0.637094 0.000000 0.198561
#
# Coordination Sequence:
#
# PCOD8061149 Si02
#       7
#     4   4   4   4   4   4   4
#     4   9  16  30  52  75  96 123 165 212 246 278
#     4  10  19  33  53  73  96 129 167 204 244 290
#     4  11  23  34  45  68 102 133 160 199 248 293
#     4   9  17  29  47  70  97 128 156 189 240 297
#     4   9  17  29  47  72  98 124 158 199 240 287
#     4  10  19  33  53  73  96 129 167 204 244 290
#     4   9  17  29  47  72  98 124 158 199 240 287
#
# _framework density 17.138655
#
# number of rings (size 3 to 8) (size 9 to 14) (size 15 to 20)
#    0.000    2.429    1.429    1.714    0.000    5.143 
#    0.000    4.286    0.000    0.857    0.000    6.000 
#    0.000    0.000    0.000    0.000    0.000    0.000 
#
# Total GULP energy -347203.495679 kJ/mol
# GULP energy per Si atom -12400.124846 kJ/mol
# Density = 1.709965 g / cm^3
# Si number density = 17.138655 Si / 1000 Ang^3
#
#
#
# Elastic Constant Matrix: (Units=GPa)
#
#
# Indices 1 2 3 4 5 6 
#
# 1 123.4513 39.6722 32.4556 0.0000 3.2282 0.0000
# 2 39.6722 54.8722 14.1673 0.0000 1.1389 0.0000
# 3 32.4556 14.1673 28.7403 0.0000 -4.6577 0.0000
# 4 0.0000 0.0000 0.0000 12.9840 0.0000 0.3296
# 5 3.2282 1.1389 -4.6577 0.0000 22.1604 0.0000
# 6 0.0000 0.0000 0.0000 0.3296 0.0000 10.4488
#
#
#
# Elastic Compliance Matrix: (Units=1/GPa)
#
#
# Indices 1 2 3 4 5 6 
#
# 1 0.013714 -0.006464 -0.013014 0.000000 -0.004401 0.000000
# 2 -0.006464 0.024172 -0.004829 0.000000 -0.001316 0.000000
# 3 -0.013014 -0.004829 0.054060 0.000000 0.013506 0.000000
# 4 0.000000 0.000000 0.000000 0.077080 0.000000 -0.002431
# 5 -0.004401 -0.001316 0.013506 0.000000 0.048673 0.000000
# 6 0.000000 0.000000 0.000000 -0.002431 0.000000 0.095781
#
#
# Mechanical properties :
#
#
# Convention : Reuss Voigt Hill
#
# Bulk Modulus (GPa) = 23.07760 42.18379 32.63069
# Shear Modulus (GPa) = 13.27894 17.16989 15.22441
#
# Velocity S-wave (km/s) = 2.78653 3.16859 2.98368
# Velocity P-wave (km/s) = 4.88339 6.16874 5.56331
#
# Compressibility (1/GPa) = 0.04333206
#
# Stress axis : x y z
#
# Youngs Moduli (GPa) = 72.91839 41.37097 18.49808
#
# Poissons Ratio (x) = 0.26741 0.24073
# Poissons Ratio (y) = 0.47133 0.08933
# Poissons Ratio (z) = 0.94894 0.19978
#
# Static dielectric constant tensor:
#      x y z
#    x 3.289600 0.000000 0.028880 
#    y 0.000000 3.131190 0.000000 
#    z 0.028880 0.000000 3.203070 
# 
# 
# High freq. dielectric constant tensor:
#      x y z
#    x 1.661460 0.000000 0.011280 
#    y 0.000000 1.646140 0.000000 
#    z 0.011280 0.000000 1.645100 
# 
# From -- ./inp_files/54723.got.cif
#   From: 2010.06.25/outbox.cif.g09.slc.cpg/sg10_28_cif.got.tgz:54723.got - 2010.06.27 22:07:45.
