data_PCOD8061945
_publ_section_title
;
Structure prediction by ZEFSAII (Michael W. Deem and Ramdas Pophale) SiO2 
 PCOD8061945
Probable space group: P 2/M
;
_chemical_formula_sum "Si O2"
_cell_formula_units_Z 26
_cell_length_a 10.651856
_cell_length_b 9.595262
_cell_length_c 19.609084
_cell_angle_alpha 90.000000
_cell_angle_beta 138.474768
_cell_angle_gamma 90.000000
_cell_volume 1328.679033
_symmetry_space_group_name_H-M "P 2/M"
_symmetry_group_IT_number 10
_symmetry_cell_setting 'monoclinic'
loop_
_space_group_symop_operation_xyz
x,y,z
-x,y,-z
-x,-y,-z
x,-y,z
loop_
_atom_site_type_symbol
_atom_site_label
_atom_site_fract_x
_atom_site_fract_y
_atom_site_fract_z
Si Si1 0.000000 0.267052 0.000000
Si Si2 0.509001 0.154024 0.908795
Si Si3 0.694845 0.340994 0.375099
Si Si4 0.394731 0.847889 0.202069
Si Si5 0.080931 0.838574 0.773102
Si Si6 0.994393 0.661450 0.609179
Si Si7 0.150948 0.343677 0.920960
O O1 0.174618 0.173862 0.096052
O O2 0.940578 0.357764 0.041121
O O3 0.484878 0.163987 0.818180
O O4 0.306602 0.174128 0.860530
O O5 0.592072 0.000000 0.961884
O O6 0.642204 0.275898 0.990018
O O7 0.637964 0.500000 0.341821
O O8 0.495289 0.258788 0.294663
O O9 0.832969 0.294821 0.369805
O O10 0.798055 0.317436 0.489027
O O11 0.415129 0.000000 0.243354
O O12 0.984186 0.763402 0.669568
O O13 0.024097 0.753320 0.818785
O O14 0.014101 0.000000 0.749761
O O15 0.016584 0.500000 0.640980
O O16 0.168682 0.500000 0.898377
#
# Coordination Sequence:
#
# PCOD8061945 Si02
#       7
#     2   4   4   4   4   4   4
#     4  10  24  42  56  78 108 142 186 236 276 322
#     4   9  19  34  50  76 112 145 176 217 271 328
#     4   9  18  32  53  81 115 149 181 223 270 316
#     4  10  19  34  57  81 109 147 187 225 270 321
#     4  11  21  34  53  80 113 146 178 222 274 327
#     4   9  18  33  52  80 116 151 182 216 267 328
#     4  11  23  37  55  77 103 141 186 230 275 327
#
# _framework density 19.568306
#
# number of rings (size 3 to 8) (size 9 to 14) (size 15 to 20)
#    0.000    2.154    1.538    2.769    0.000    8.615 
#    0.000    1.538    0.000    0.923    0.000    5.385 
#    0.000    0.000    0.000    0.000    0.000    0.000 
#
# Total GULP energy -322255.505188 kJ/mol
# GULP energy per Si atom -12394.442507 kJ/mol
# Density = 1.952377 g / cm^3
# Si number density = 19.568306 Si / 1000 Ang^3
#
#
#
# Elastic Constant Matrix: (Units=GPa)
#
#
# Indices 1 2 3 4 5 6 
#
# 1 42.6283 17.5507 33.3345 0.0000 -3.6827 0.0000
# 2 17.5507 137.4332 76.1851 0.0000 -3.5351 0.0000
# 3 33.3345 76.1851 108.6324 0.0000 -4.7062 0.0000
# 4 0.0000 0.0000 0.0000 33.4303 0.0000 -3.2662
# 5 -3.6827 -3.5351 -4.7062 0.0000 27.5149 0.0000
# 6 0.0000 0.0000 0.0000 -3.2662 0.0000 7.4339
#
#
#
# Elastic Compliance Matrix: (Units=1/GPa)
#
#
# Indices 1 2 3 4 5 6 
#
# 1 0.031438 0.002188 -0.011069 0.000000 0.002596 0.000000
# 2 0.002188 0.012057 -0.009115 0.000000 0.000283 0.000000
# 3 -0.011069 -0.009115 0.019020 0.000000 0.000601 0.000000
# 4 0.000000 0.000000 0.000000 0.031255 0.000000 0.013732
# 5 0.002596 0.000283 0.000601 0.000000 0.036830 0.000000
# 6 0.000000 0.000000 0.000000 0.013732 0.000000 0.140552
#
#
# Mechanical properties :
#
#
# Convention : Reuss Voigt Hill
#
# Bulk Modulus (GPa) = 37.70241 60.31493 49.00867
# Shear Modulus (GPa) = 15.82359 24.45072 20.13715
#
# Velocity S-wave (km/s) = 2.84673 3.53867 3.21139
# Velocity P-wave (km/s) = 5.48763 6.89826 6.23298
#
# Compressibility (1/GPa) = 0.02652350
#
# Stress axis : x y z
#
# Youngs Moduli (GPa) = 31.80899 82.94081 52.57581
#
# Poissons Ratio (x) = -0.18147 0.58195
# Poissons Ratio (y) = -0.06960 0.47921
# Poissons Ratio (z) = 0.35209 0.75598
#
# Static dielectric constant tensor:
#      x y z
#    x 3.405590 0.000000 -0.196340 
#    y 0.000000 3.572990 0.000000 
#    z -0.196340 0.000000 3.462910 
# 
# 
# High freq. dielectric constant tensor:
#      x y z
#    x 1.730650 0.000000 -0.015380 
#    y 0.000000 1.767050 0.000000 
#    z -0.015380 0.000000 1.755720 
# 
# From -- ./inp_files/83662.got.cif
#   From: 2010.06.25/outbox.cif.g09.slc.cpg/sg10_42_cif.got.tgz:83662.got - 2010.06.27 22:07:45.
