data_PCOD8061798
_publ_section_title
;
Structure prediction by ZEFSAII (Michael W. Deem and Ramdas Pophale) SiO2 
 PCOD8061798
Probable space group: P 2/M
;
_chemical_formula_sum "Si O2"
_cell_formula_units_Z 32
_cell_length_a 13.068614
_cell_length_b 8.977749
_cell_length_c 30.458476
_cell_angle_alpha 90.000000
_cell_angle_beta 27.716660
_cell_angle_gamma 90.000000
_cell_volume 1662.076493
_symmetry_space_group_name_H-M "P 2/M"
_symmetry_group_IT_number 10
_symmetry_cell_setting 'monoclinic'
loop_
_space_group_symop_operation_xyz
x,y,z
-x,y,-z
-x,-y,-z
x,-y,z
loop_
_atom_site_type_symbol
_atom_site_label
_atom_site_fract_x
_atom_site_fract_y
_atom_site_fract_z
Si Si1 0.580500 0.325878 0.772759
Si Si2 0.034660 0.176116 0.593522
Si Si3 0.928628 0.675692 0.886527
Si Si4 0.781650 0.324660 0.556614
Si Si5 0.743199 0.823783 0.402897
Si Si6 0.638813 0.324648 0.230514
Si Si7 0.914213 0.823638 0.797646
Si Si8 0.478839 0.674185 0.104759
O O1 0.636670 0.500000 0.748426
O O2 0.387850 0.283887 0.811080
O O3 0.507672 0.279864 0.849204
O O4 0.794340 0.239196 0.675341
O O5 0.211971 0.240605 0.492153
O O6 0.106830 0.232521 0.614082
O O7 0.030516 0.000000 0.591237
O O8 0.947160 0.500000 0.871999
O O9 0.919683 0.752318 0.843038
O O10 0.134649 0.741047 0.835991
O O11 0.711417 0.717634 0.995746
O O12 0.767829 0.500000 0.553520
O O13 0.569306 0.263153 0.663151
O O14 0.000000 0.281043 0.500000
O O15 0.500000 0.752044 0.500000
O O16 0.862144 0.775328 0.312580
O O17 0.722721 0.000000 0.412802
O O18 0.647004 0.500000 0.232896
O O19 0.706052 0.767916 0.849315
O O20 0.895106 0.000000 0.809180
O O21 0.426161 0.500000 0.118987
#
# Coordination Sequence:
#
# PCOD8061798 Si02
#       8
#     4   4   4   4   4   4   4   4
#     4  10  19  36  60  83 110 148 188 228 277 334
#     4  11  21  34  55  82 110 144 184 232 276 325
#     4  10  22  39  57  83 115 146 184 234 284 326
#     4  10  19  34  55  78 109 148 182 218 267 327
#     4   9  20  37  54  77 111 146 179 222 277 327
#     4   9  19  36  57  81 114 150 185 227 277 332
#     4  11  22  38  61  84 111 149 188 226 276 340
#     4  10  21  37  61  86 110 142 186 238 282 327
#
# _framework density 19.253025000000001
#
# number of rings (size 3 to 8) (size 9 to 14) (size 15 to 20)
#    0.000    2.000    2.500    1.125    1.750    2.750 
#    0.000    3.125    0.000    3.000    0.000    2.625 
#    0.000    0.000    0.000    0.000    0.000    0.000 
#
# Total GULP energy -396794.801270 kJ/mol
# GULP energy per Si atom -12399.837540 kJ/mol
# Density = 1.920920 g / cm^3
# Si number density = 19.253025 Si / 1000 Ang^3
#
#
#
# Elastic Constant Matrix: (Units=GPa)
#
#
# Indices 1 2 3 4 5 6 
#
# 1 146.3420 36.9082 83.3731 0.0000 18.4663 0.0000
# 2 36.9082 34.9968 35.8452 0.0000 1.5697 0.0000
# 3 83.3731 35.8452 153.6544 0.0000 2.1438 0.0000
# 4 0.0000 0.0000 0.0000 22.6785 0.0000 3.4230
# 5 18.4663 1.5697 2.1438 0.0000 28.7034 0.0000
# 6 0.0000 0.0000 0.0000 3.4230 0.0000 14.6928
#
#
#
# Elastic Compliance Matrix: (Units=1/GPa)
#
#
# Indices 1 2 3 4 5 6 
#
# 1 0.012495 -0.007899 -0.004836 0.000000 -0.007245 0.000000
# 2 -0.007899 0.042595 -0.005695 0.000000 0.003178 0.000000
# 3 -0.004836 -0.005695 0.010424 0.000000 0.002644 0.000000
# 4 0.000000 0.000000 0.000000 0.045702 0.000000 -0.010647
# 5 -0.007245 0.003178 0.002644 0.000000 0.039129 0.000000
# 6 0.000000 0.000000 0.000000 -0.010647 0.000000 0.070541
#
#
# Mechanical properties :
#
#
# Convention : Reuss Voigt Hill
#
# Bulk Modulus (GPa) = 34.89964 71.91625 53.40795
# Shear Modulus (GPa) = 18.70580 25.13940 21.92260
#
# Velocity S-wave (km/s) = 3.12040 3.61742 3.37806
# Velocity P-wave (km/s) = 5.58110 7.40823 6.55861
#
# Compressibility (1/GPa) = 0.02865359
#
# Stress axis : x y z
#
# Youngs Moduli (GPa) = 80.03295 23.47685 95.93487
#
# Poissons Ratio (x) = 0.18545 0.46393
# Poissons Ratio (y) = 0.63219 0.54635
# Poissons Ratio (z) = 0.38703 0.13370
#
# Static dielectric constant tensor:
#      x y z
#    x 3.761250 0.000000 -0.016490 
#    y 0.000000 3.206410 0.000000 
#    z -0.016490 0.000000 3.762410 
# 
# 
# High freq. dielectric constant tensor:
#      x y z
#    x 1.762620 0.000000 0.006660 
#    y 0.000000 1.717820 0.000000 
#    z 0.006660 0.000000 1.756530 
# 
# From -- ./inp_files/49887.got.cif
#   From: 2010.06.25/outbox.cif.g09.slc.cpg/sg10_25_cif.got.tgz:49887.got - 2010.06.27 22:07:45.
