data_PCOD8061632
_publ_section_title
;
Structure prediction by ZEFSAII (Michael W. Deem and Ramdas Pophale) SiO2 
 PCOD8061632
Probable space group: P 2/M
;
_chemical_formula_sum "Si O2"
_cell_formula_units_Z 24
_cell_length_a 14.019465
_cell_length_b 13.594013
_cell_length_c 11.157021
_cell_angle_alpha 90.000000
_cell_angle_beta 146.998144
_cell_angle_gamma 90.000000
_cell_volume 1158.131300
_symmetry_space_group_name_H-M "P 2/M"
_symmetry_group_IT_number 10
_symmetry_cell_setting 'monoclinic'
loop_
_space_group_symop_operation_xyz
x,y,z
-x,y,-z
-x,-y,-z
x,-y,z
loop_
_atom_site_type_symbol
_atom_site_label
_atom_site_fract_x
_atom_site_fract_y
_atom_site_fract_z
Si Si1 0.735529 0.219113 0.504070
Si Si2 0.694054 0.729803 0.723110
Si Si3 0.945342 0.202862 0.307767
Si Si4 0.555580 0.611036 0.190179
Si Si5 0.803241 0.611056 0.051432
Si Si6 0.374630 0.884984 0.155460
O O1 0.785532 0.248259 0.692807
O O2 0.707559 0.318967 0.398863
O O3 0.566425 0.149615 0.315704
O O4 0.901766 0.164172 0.620443
O O5 0.500000 0.685013 0.500000
O O6 0.807255 0.651776 0.919055
O O7 0.678841 0.832965 0.777297
O O8 0.000000 0.181495 0.500000
O O9 0.920677 0.319929 0.259894
O O10 0.766023 0.143953 0.094369
O O11 0.629260 0.500000 0.260273
O O12 0.395548 0.617618 0.113538
O O13 0.500000 0.647618 0.000000
O O14 0.876225 0.500000 0.132806
O O15 0.376389 0.000000 0.180300
#
# Coordination Sequence:
#
# PCOD8061632 Si02
#       6
#     4   4   4   4   4   4
#     4  11  22  38  65  89 119 161 202 239 310 356
#     4   9  18  37  59  91 119 159 197 250 299 357
#     4  11  24  41  62  87 121 159 200 249 298 359
#     4  10  19  33  57  87 120 160 202 237 282 347
#     4  10  20  36  57  86 125 162 197 246 297 346
#     4  10  23  43  63  90 121 151 198 257 307 360
#
# _framework density 20.723037999999999
#
# number of rings (size 3 to 8) (size 9 to 14) (size 15 to 20)
#    0.000    1.833    5.000    1.000    0.000    8.667 
#    0.000    2.500    0.000    0.000    0.000    0.000 
#    0.000    0.000    0.000    0.000    0.000    0.000 
#
# Total GULP energy -297625.922992 kJ/mol
# GULP energy per Si atom -12401.080125 kJ/mol
# Density = 2.067587 g / cm^3
# Si number density = 20.723038 Si / 1000 Ang^3
#
#
#
# Elastic Constant Matrix: (Units=GPa)
#
#
# Indices 1 2 3 4 5 6 
#
# 1 96.2995 6.8181 19.4955 0.0000 -10.2098 0.0000
# 2 6.8181 103.3331 12.6616 0.0000 -1.1072 0.0000
# 3 19.4955 12.6616 57.9472 0.0000 -9.7616 0.0000
# 4 0.0000 0.0000 0.0000 11.9517 0.0000 -1.5532
# 5 -10.2098 -1.1072 -9.7616 0.0000 38.5041 0.0000
# 6 0.0000 0.0000 0.0000 -1.5532 0.0000 12.9648
#
#
#
# Elastic Compliance Matrix: (Units=1/GPa)
#
#
# Indices 1 2 3 4 5 6 
#
# 1 0.011317 -0.000310 -0.003380 0.000000 0.002135 0.000000
# 2 -0.000310 0.009955 -0.002127 0.000000 -0.000335 0.000000
# 3 -0.003380 -0.002127 0.019532 0.000000 0.003994 0.000000
# 4 0.000000 0.000000 0.000000 0.084994 0.000000 0.010183
# 5 0.002135 -0.000335 0.003994 0.000000 0.027540 0.000000
# 6 0.000000 0.000000 0.000000 0.010183 0.000000 0.078352
#
#
# Mechanical properties :
#
#
# Convention : Reuss Voigt Hill
#
# Bulk Modulus (GPa) = 34.28254 37.28114 35.78184
# Shear Modulus (GPa) = 19.75915 27.25775 23.50845
#
# Velocity S-wave (km/s) = 3.09121 3.63069 3.37176
# Velocity P-wave (km/s) = 5.41478 5.96700 5.69759
#
# Compressibility (1/GPa) = 0.02916937
#
# Stress axis : x y z
#
# Youngs Moduli (GPa) = 88.36395 100.45241 51.19804
#
# Poissons Ratio (x) = 0.03111 0.17305
# Poissons Ratio (y) = 0.02736 0.10892
# Poissons Ratio (z) = 0.29868 0.21371
#
# Static dielectric constant tensor:
#      x y z
#    x 3.721130 0.000000 -0.083490 
#    y 0.000000 3.626120 0.000000 
#    z -0.083490 0.000000 3.787920 
# 
# 
# High freq. dielectric constant tensor:
#      x y z
#    x 1.808630 0.000000 -0.007940 
#    y 0.000000 1.788990 0.000000 
#    z -0.007940 0.000000 1.814510 
# 
# From -- ./inp_files/51695.got.cif
#   From: 2010.06.25/outbox.cif.g09.slc.cpg/sg10_26_cif.got.tgz:51695.got - 2010.06.27 22:07:45.
