data_PCOD8061062
_publ_section_title
;
Structure prediction by ZEFSAII (Michael W. Deem and Ramdas Pophale) SiO2 
 PCOD8061062
Probable space group: P 2/M
;
_chemical_formula_sum "Si O2"
_cell_formula_units_Z 28
_cell_length_a 9.738176
_cell_length_b 8.605726
_cell_length_c 28.918506
_cell_angle_alpha 90.000000
_cell_angle_beta 141.588040
_cell_angle_gamma 90.000000
_cell_volume 1505.741006
_symmetry_space_group_name_H-M "P 2/M"
_symmetry_group_IT_number 10
_symmetry_cell_setting 'monoclinic'
loop_
_space_group_symop_operation_xyz
x,y,z
-x,y,-z
-x,-y,-z
x,-y,z
loop_
_atom_site_type_symbol
_atom_site_label
_atom_site_fract_x
_atom_site_fract_y
_atom_site_fract_z
Si Si1 0.248000 0.819015 0.317237
Si Si2 0.125143 0.180768 0.595843
Si Si3 0.404875 0.679745 0.747247
Si Si4 0.815997 0.679734 0.797348
Si Si5 0.213159 0.682262 0.792272
Si Si6 0.697718 0.318559 0.449660
Si Si7 0.307507 0.681883 0.918159
O O1 0.256383 0.783386 0.264881
O O2 0.448955 0.732492 0.396156
O O3 0.020154 0.763105 0.279964
O O4 0.277905 0.000000 0.333067
O O5 0.230025 0.217574 0.673086
O O6 0.253224 0.279206 0.590889
O O7 0.867101 0.227552 0.527803
O O8 0.150438 0.000000 0.590898
O O9 0.347855 0.500000 0.723252
O O10 0.656409 0.717642 0.798416
O O11 0.382620 0.720953 0.795617
O O12 0.796874 0.500000 0.776932
O O13 0.068838 0.718200 0.878242
O O14 0.166367 0.500000 0.784771
O O15 0.313366 0.747230 0.867033
O O16 0.727565 0.500000 0.466010
O O17 0.354096 0.500000 0.928336
O O18 0.500000 0.761714 0.000000
#
# Coordination Sequence:
#
# PCOD8061062 Si02
#       7
#     4   4   4   4   4   4   4
#     4  11  20  32  51  76 102 133 176 224 263 306
#     4  11  21  32  49  76 106 135 172 220 264 303
#     4  10  19  33  51  73 103 140 179 215 260 315
#     4   9  17  30  51  75 101 136 175 214 256 311
#     4   9  19  34  52  74 103 140 176 214 261 315
#     4  11  20  33  52  74 102 137 176 217 260 308
#     4   8  14  28  51  78 106 136 172 215 258 301
#
# _framework density 18.595495
#
# number of rings (size 3 to 8) (size 9 to 14) (size 15 to 20)
#    0.000    2.143    1.429    5.571    0.000    0.571 
#    0.000    1.429    0.000   15.429    0.000    0.000 
#    0.000   10.286    0.000    0.000    0.000    0.000 
#
# Total GULP energy -347171.041679 kJ/mol
# GULP energy per Si atom -12398.965774 kJ/mol
# Density = 1.855317 g / cm^3
# Si number density = 18.595495 Si / 1000 Ang^3
#
#
#
# Elastic Constant Matrix: (Units=GPa)
#
#
# Indices 1 2 3 4 5 6 
#
# 1 121.6810 18.0278 49.8912 0.0000 6.5429 0.0000
# 2 18.0278 64.3790 19.1429 0.0000 1.7370 0.0000
# 3 49.8912 19.1429 122.3500 0.0000 9.0621 0.0000
# 4 0.0000 0.0000 0.0000 6.8622 0.0000 0.9267
# 5 6.5429 1.7370 9.0621 0.0000 21.2311 0.0000
# 6 0.0000 0.0000 0.0000 0.9267 0.0000 12.2606
#
#
#
# Elastic Compliance Matrix: (Units=1/GPa)
#
#
# Indices 1 2 3 4 5 6 
#
# 1 0.010075 -0.001671 -0.003746 0.000000 -0.001370 0.000000
# 2 -0.001671 0.016569 -0.001909 0.000000 -0.000026 0.000000
# 3 -0.003746 -0.001909 0.010226 0.000000 -0.003054 0.000000
# 4 0.000000 0.000000 0.000000 0.147230 0.000000 -0.011128
# 5 -0.001370 -0.000026 -0.003054 0.000000 0.048828 0.000000
# 6 0.000000 0.000000 0.000000 -0.011128 0.000000 0.082403
#
#
# Mechanical properties :
#
#
# Convention : Reuss Voigt Hill
#
# Bulk Modulus (GPa) = 45.00655 53.61490 49.31072
# Shear Modulus (GPa) = 14.81971 22.82732 18.82351
#
# Velocity S-wave (km/s) = 2.82610 3.50747 3.18506
# Velocity P-wave (km/s) = 5.90801 6.73038 6.33256
#
# Compressibility (1/GPa) = 0.02221899
#
# Stress axis : x y z
#
# Youngs Moduli (GPa) = 99.25463 60.35278 97.79431
#
# Poissons Ratio (x) = 0.10083 0.36629
# Poissons Ratio (y) = 0.16582 0.18672
# Poissons Ratio (z) = 0.37176 0.11523
#
# Static dielectric constant tensor:
#      x y z
#    x 3.357320 0.000000 0.153380 
#    y 0.000000 3.210650 0.000000 
#    z 0.153380 0.000000 3.607910 
# 
# 
# High freq. dielectric constant tensor:
#      x y z
#    x 1.703810 0.000000 0.017210 
#    y 0.000000 1.706250 0.000000 
#    z 0.017210 0.000000 1.713350 
# 
# From -- ./inp_files/94542.got.cif
#   From: 2010.06.25/outbox.cif.g09.slc.cpg/sg10_48_cif.got.tgz:94542.got - 2010.06.27 22:07:45.
