data_PCOD8061077
_publ_section_title
;
Structure prediction by ZEFSAII (Michael W. Deem and Ramdas Pophale) SiO2 
 PCOD8061077
Probable space group: P 2/M
;
_chemical_formula_sum "Si O2"
_cell_formula_units_Z 32
_cell_length_a 11.257846
_cell_length_b 8.860974
_cell_length_c 23.170776
_cell_angle_alpha 90.000000
_cell_angle_beta 124.652375
_cell_angle_gamma 90.000000
_cell_volume 1901.406605
_symmetry_space_group_name_H-M "P 2/M"
_symmetry_group_IT_number 10
_symmetry_cell_setting 'monoclinic'
loop_
_space_group_symop_operation_xyz
x,y,z
-x,y,-z
-x,-y,-z
x,-y,z
loop_
_atom_site_type_symbol
_atom_site_label
_atom_site_fract_x
_atom_site_fract_y
_atom_site_fract_z
Si Si1 0.587901 0.673460 0.652135
Si Si2 0.630832 0.321206 0.967305
Si Si3 0.025206 0.826776 0.777969
Si Si4 0.335895 0.177549 0.902275
Si Si5 0.190533 0.677010 0.194849
Si Si6 0.161090 0.824464 0.064760
Si Si7 0.614704 0.831460 0.479827
Si Si8 0.195209 0.174108 0.372336
O O1 0.560682 0.500000 0.638404
O O2 0.651551 0.712607 0.733184
O O3 0.433106 0.744382 0.591508
O O4 0.709472 0.721861 0.641427
O O5 0.631887 0.500000 0.977408
O O6 0.468179 0.265625 0.909303
O O7 0.730426 0.278407 0.941403
O O8 0.690684 0.237464 0.040447
O O9 0.194009 0.786022 0.825489
O O10 0.938621 0.719774 0.797520
O O11 0.969363 0.805362 0.695897
O O12 0.001606 0.000000 0.791539
O O13 0.370210 0.000000 0.914015
O O14 0.175817 0.500000 0.175784
O O15 0.177609 0.779811 0.135504
O O16 0.199309 0.000000 0.066957
O O17 0.000000 0.788502 0.000000
O O18 0.500000 0.810631 0.500000
O O19 0.770876 0.780887 0.551084
O O20 0.625506 0.000000 0.460504
O O21 0.245700 0.000000 0.378289
#
# Coordination Sequence:
#
# PCOD8061077 Si02
#       8
#     4   4   4   4   4   4   4   4
#     4   9  16  24  35  54  81 112 146 181 216 256
#     4  11  22  35  51  70  92 118 148 184 226 267
#     4   9  17  29  46  66  90 122 154 186 224 263
#     4  10  19  33  52  71  92 118 151 187 222 264
#     4  10  20  31  44  65  92 121 152 187 225 267
#     4  11  23  37  52  69  90 117 149 185 224 266
#     4   8  13  21  34  51  75 110 147 180 213 253
#     4   8  14  24  36  54  81 112 147 181 215 257
#
# _framework density 16.829647000000001
#
# number of rings (size 3 to 8) (size 9 to 14) (size 15 to 20)
#    0.000    2.500    0.000    4.875    0.000    8.750 
#    0.000    0.000    0.000    0.000    0.000    0.000 
#    0.000    1.000    0.000   11.500    0.000    4.125 
#
# Total GULP energy -396437.756280 kJ/mol
# GULP energy per Si atom -12388.679884 kJ/mol
# Density = 1.679134 g / cm^3
# Si number density = 16.829647 Si / 1000 Ang^3
#
#
#
# Elastic Constant Matrix: (Units=GPa)
#
#
# Indices 1 2 3 4 5 6 
#
# 1 49.1839 21.7909 38.2010 0.0000 13.7697 0.0000
# 2 21.7909 63.5317 51.9310 0.0000 5.7707 0.0000
# 3 38.2010 51.9310 136.3163 0.0000 34.8913 0.0000
# 4 0.0000 0.0000 0.0000 21.6693 0.0000 -0.8336
# 5 13.7697 5.7707 34.8913 0.0000 22.2354 0.0000
# 6 0.0000 0.0000 0.0000 -0.8336 0.0000 16.6975
#
#
#
# Elastic Compliance Matrix: (Units=1/GPa)
#
#
# Indices 1 2 3 4 5 6 
#
# 1 0.028573 -0.006869 -0.002202 0.000000 -0.012456 0.000000
# 2 -0.006869 0.026970 -0.012780 0.000000 0.017308 0.000000
# 3 -0.002202 -0.012780 0.019426 0.000000 -0.025802 0.000000
# 4 0.000000 0.000000 0.000000 0.046237 0.000000 0.002308
# 5 -0.012456 0.017308 -0.025802 0.000000 0.088683 0.000000
# 6 0.000000 0.000000 0.000000 0.002308 0.000000 0.060004
#
#
# Mechanical properties :
#
#
# Convention : Reuss Voigt Hill
#
# Bulk Modulus (GPa) = 31.98229 52.54196 42.26212
# Shear Modulus (GPa) = 15.43131 21.26106 18.34618
#
# Velocity S-wave (km/s) = 3.03134 3.55816 3.30526
# Velocity P-wave (km/s) = 5.59436 6.94034 6.30338
#
# Compressibility (1/GPa) = 0.03126730
#
# Stress axis : x y z
#
# Youngs Moduli (GPa) = 34.99846 37.07805 51.47777
#
# Poissons Ratio (x) = 0.25468 0.11337
# Poissons Ratio (y) = 0.24039 0.65787
# Poissons Ratio (z) = 0.07708 0.47385
#
# Static dielectric constant tensor:
#      x y z
#    x 2.731500 0.000000 0.389500 
#    y 0.000000 3.223220 0.000000 
#    z 0.389500 0.000000 3.757890 
# 
# 
# High freq. dielectric constant tensor:
#      x y z
#    x 1.583980 0.000000 0.031260 
#    y 0.000000 1.658790 0.000000 
#    z 0.031260 0.000000 1.667020 
# 
# From -- ./inp_files/83403.got.cif
#   From: 2010.06.25/outbox.cif.g09.slc.cpg/sg10_42_cif.got.tgz:83403.got - 2010.06.27 22:07:45.
