data_PCOD8061452
_publ_section_title
;
Structure prediction by ZEFSAII (Michael W. Deem and Ramdas Pophale) SiO2 
 PCOD8061452
Probable space group: P 2/M
;
_chemical_formula_sum "Si O2"
_cell_formula_units_Z 28
_cell_length_a 20.345569
_cell_length_b 9.167067
_cell_length_c 14.531734
_cell_angle_alpha 90.000000
_cell_angle_beta 147.791983
_cell_angle_gamma 90.000000
_cell_volume 1444.576527
_symmetry_space_group_name_H-M "P 2/M"
_symmetry_group_IT_number 10
_symmetry_cell_setting 'monoclinic'
loop_
_space_group_symop_operation_xyz
x,y,z
-x,y,-z
-x,-y,-z
x,-y,z
loop_
_atom_site_type_symbol
_atom_site_label
_atom_site_fract_x
_atom_site_fract_y
_atom_site_fract_z
Si Si1 0.430609 0.670839 0.755673
Si Si2 0.359442 0.169233 0.321910
Si Si3 0.055625 0.166204 0.286569
Si Si4 0.250042 0.170205 0.671824
Si Si5 0.717443 0.668762 0.109130
Si Si6 0.718814 0.167750 0.569419
Si Si7 0.808224 0.670861 0.017229
O O1 0.402832 0.500000 0.729318
O O2 0.367751 0.748762 0.768065
O O3 0.378901 0.730982 0.598319
O O4 0.574306 0.706177 0.928395
O O5 0.500000 0.220098 0.500000
O O6 0.284594 0.202041 0.326703
O O7 0.301415 0.259918 0.170983
O O8 0.352802 0.000000 0.287330
O O9 0.129599 0.199548 0.467702
O O10 0.143355 0.198472 0.303287
O O11 0.008408 0.000000 0.229122
O O12 0.939739 0.270995 0.140156
O O13 0.222749 0.233507 0.740184
O O14 0.281054 0.000000 0.713901
O O15 0.736649 0.500000 0.157108
O O16 0.788263 0.710973 0.100009
O O17 0.682075 0.000000 0.505126
O O18 0.803382 0.500000 0.994812
#
# Coordination Sequence:
#
# PCOD8061452 Si02
#       7
#     4   4   4   4   4   4   4
#     4  10  19  33  55  82 113 146 179 220 274 331
#     4  10  21  38  61  87 113 143 179 221 273 328
#     4   9  20  39  57  77 108 143 182 226 273 323
#     4  10  21  36  57  83 109 142 184 229 273 321
#     4  10  22  37  52  77 113 149 182 223 277 327
#     4   9  19  36  58  83 111 144 182 226 273 321
#     4  11  24  39  56  80 111 146 185 228 271 321
#
# _framework density 19.382843999999999
#
# number of rings (size 3 to 8) (size 9 to 14) (size 15 to 20)
#    0.000    2.143    0.000    3.429    0.000    8.857 
#    0.000    5.714    0.000    0.000    0.000    0.000 
#    0.000    0.000    0.000    0.000    0.000    0.000 
#
# Total GULP energy -347336.404874 kJ/mol
# GULP energy per Si atom -12404.871603 kJ/mol
# Density = 1.933873 g / cm^3
# Si number density = 19.382844 Si / 1000 Ang^3
#
#
#
# Elastic Constant Matrix: (Units=GPa)
#
#
# Indices 1 2 3 4 5 6 
#
# 1 96.0443 45.9920 40.2788 0.0000 5.0421 0.0000
# 2 45.9920 85.4840 46.9960 0.0000 0.2595 0.0000
# 3 40.2788 46.9960 72.4957 0.0000 12.0935 0.0000
# 4 0.0000 0.0000 0.0000 32.1225 0.0000 -5.8062
# 5 5.0421 0.2595 12.0935 0.0000 21.8036 0.0000
# 6 0.0000 0.0000 0.0000 -5.8062 0.0000 28.6221
#
#
#
# Elastic Compliance Matrix: (Units=1/GPa)
#
#
# Indices 1 2 3 4 5 6 
#
# 1 0.015055 -0.005558 -0.004620 0.000000 -0.000853 0.000000
# 2 -0.005558 0.021240 -0.011960 0.000000 0.007666 0.000000
# 3 -0.004620 -0.011960 0.026350 0.000000 -0.013405 0.000000
# 4 0.000000 0.000000 0.000000 0.032316 0.000000 0.006556
# 5 -0.000853 0.007666 -0.013405 0.000000 0.053405 0.000000
# 6 0.000000 0.000000 0.000000 0.006556 0.000000 0.036268
#
#
# Mechanical properties :
#
#
# Convention : Reuss Voigt Hill
#
# Bulk Modulus (GPa) = 54.43492 57.83973 56.13733
# Shear Modulus (GPa) = 21.27361 24.56012 22.91687
#
# Velocity S-wave (km/s) = 3.31652 3.56351 3.44223
# Velocity P-wave (km/s) = 6.54300 6.84375 6.69506
#
# Compressibility (1/GPa) = 0.01837056
#
# Stress axis : x y z
#
# Youngs Moduli (GPa) = 66.42111 47.08031 37.95070
#
# Poissons Ratio (x) = 0.26166 0.17532
# Poissons Ratio (y) = 0.36916 0.45390
# Poissons Ratio (z) = 0.30684 0.56309
#
# Static dielectric constant tensor:
#      x y z
#    x 3.688750 0.000000 -0.056620 
#    y 0.000000 3.521210 0.000000 
#    z -0.056620 0.000000 3.381260 
# 
# 
# High freq. dielectric constant tensor:
#      x y z
#    x 1.763340 0.000000 -0.002340 
#    y 0.000000 1.755470 0.000000 
#    z -0.002340 0.000000 1.749450 
# 
# From -- ./inp_files/49554.got.cif
#   From: 2010.06.25/outbox.cif.g09.slc.cpg/sg10_25_cif.got.tgz:49554.got - 2010.06.27 22:07:45.
