data_PCOD8061115
_publ_section_title
;
Structure prediction by ZEFSAII (Michael W. Deem and Ramdas Pophale) SiO2 
 PCOD8061115
Probable space group: P 2/M
;
_chemical_formula_sum "Si O2"
_cell_formula_units_Z 32
_cell_length_a 14.322747
_cell_length_b 13.486278
_cell_length_c 15.034928
_cell_angle_alpha 90.000000
_cell_angle_beta 141.114421
_cell_angle_gamma 90.000000
_cell_volume 1823.133088
_symmetry_space_group_name_H-M "P 2/M"
_symmetry_group_IT_number 10
_symmetry_cell_setting 'monoclinic'
loop_
_space_group_symop_operation_xyz
x,y,z
-x,y,-z
-x,-y,-z
x,-y,z
loop_
_atom_site_type_symbol
_atom_site_label
_atom_site_fract_x
_atom_site_fract_y
_atom_site_fract_z
Si Si1 0.365738 0.386343 0.555008
Si Si2 0.833173 0.296226 0.079427
Si Si3 0.798980 0.297635 0.410116
Si Si4 0.338377 0.887368 0.770655
Si Si5 0.132643 0.617009 0.234442
Si Si6 0.698681 0.613934 0.814179
Si Si7 0.105897 0.384982 0.692919
Si Si8 0.320573 0.887541 0.965296
O O1 0.335401 0.500000 0.555116
O O2 0.329490 0.327022 0.617329
O O3 0.266632 0.353355 0.398568
O O4 0.535540 0.366415 0.653476
O O5 0.812091 0.359669 0.154171
O O6 0.800114 0.181212 0.074855
O O7 0.995935 0.313726 0.159804
O O8 0.714339 0.328093 0.917707
O O9 0.772370 0.182123 0.367930
O O10 0.785141 0.362075 0.308989
O O11 0.959355 0.316089 0.574437
O O12 0.298161 0.875443 0.843812
O O13 0.310886 0.000000 0.718851
O O14 0.510860 0.857755 0.883355
O O15 0.091729 0.500000 0.211800
O O16 0.180340 0.645482 0.169872
O O17 0.723298 0.500000 0.855789
O O18 0.058017 0.500000 0.656703
O O19 0.288160 0.000000 0.970851
#
# Coordination Sequence:
#
# PCOD8061115 Si02
#       8
#     4   4   4   4   4   4   4   4
#     4  10  19  33  52  75 107 145 185 221 263 319
#     4  12  20  34  55  80 104 141 182 219 264 325
#     4  11  19  33  51  75 104 146 185 212 258 319
#     4   9  18  35  56  76 103 139 180 225 271 315
#     4  10  20  35  54  75 106 144 181 223 273 317
#     4  10  21  34  52  79 106 137 183 234 268 310
#     4  11  22  33  48  74 114 153 179 207 257 323
#     4   9  19  36  56  78 104 136 175 225 278 321
#
# _framework density 17.552201
#
# number of rings (size 3 to 8) (size 9 to 14) (size 15 to 20)
#    0.000    1.750    2.500    4.875    0.000    2.500 
#    0.000    1.875    0.000    4.500    0.000    0.000 
#    0.000    5.000    0.000    0.000    0.000    0.000 
#
# Total GULP energy -396767.627807 kJ/mol
# GULP energy per Si atom -12398.988369 kJ/mol
# Density = 1.751225 g / cm^3
# Si number density = 17.552201 Si / 1000 Ang^3
#
#
#
# Elastic Constant Matrix: (Units=GPa)
#
#
# Indices 1 2 3 4 5 6 
#
# 1 92.2309 45.2086 23.6015 0.0000 -4.5688 0.0000
# 2 45.2086 106.9730 46.0655 0.0000 4.4473 0.0000
# 3 23.6015 46.0655 78.8213 0.0000 -4.8200 0.0000
# 4 0.0000 0.0000 0.0000 27.4589 0.0000 3.2821
# 5 -4.5688 4.4473 -4.8200 0.0000 25.5042 0.0000
# 6 0.0000 0.0000 0.0000 3.2821 0.0000 25.7549
#
#
#
# Elastic Compliance Matrix: (Units=1/GPa)
#
#
# Indices 1 2 3 4 5 6 
#
# 1 0.014009 -0.005807 -0.000592 0.000000 0.003410 0.000000
# 2 -0.005807 0.015235 -0.007477 0.000000 -0.005110 0.000000
# 3 -0.000592 -0.007477 0.017510 0.000000 0.004507 0.000000
# 4 0.000000 0.000000 0.000000 0.036981 0.000000 -0.004713
# 5 0.003410 -0.005110 0.004507 0.000000 0.041563 0.000000
# 6 0.000000 0.000000 0.000000 -0.004713 0.000000 0.039428
#
#
# Mechanical properties :
#
#
# Convention : Reuss Voigt Hill
#
# Bulk Modulus (GPa) = 52.63097 56.41960 54.52529
# Shear Modulus (GPa) = 25.14917 26.62025 25.88471
#
# Velocity S-wave (km/s) = 3.78937 3.89862 3.84438
# Velocity P-wave (km/s) = 7.01400 7.24426 7.13006
#
# Compressibility (1/GPa) = 0.01900022
#
# Stress axis : x y z
#
# Youngs Moduli (GPa) = 71.38047 65.63922 57.11077
#
# Poissons Ratio (x) = 0.38119 0.03383
# Poissons Ratio (y) = 0.41453 0.42703
# Poissons Ratio (z) = 0.04228 0.49080
#
# Static dielectric constant tensor:
#      x y z
#    x 3.298070 0.000000 -0.076420 
#    y 0.000000 3.104290 0.000000 
#    z -0.076420 0.000000 3.268910 
# 
# 
# High freq. dielectric constant tensor:
#      x y z
#    x 1.677580 0.000000 -0.003030 
#    y 0.000000 1.650210 0.000000 
#    z -0.003030 0.000000 1.680830 
# 
# From -- ./inp_files/67333.got.cif
#   From: 2010.06.25/outbox.cif.g09.slc.cpg/sg10_34_cif.got.tgz:67333.got - 2010.06.27 22:07:45.
