data_PCOD8061840
_publ_section_title
;
Structure prediction by ZEFSAII (Michael W. Deem and Ramdas Pophale) SiO2 
 PCOD8061840
Probable space group: P 2/M
;
_chemical_formula_sum "Si O2"
_cell_formula_units_Z 24
_cell_length_a 12.792350
_cell_length_b 12.737362
_cell_length_c 18.134229
_cell_angle_alpha 90.000000
_cell_angle_beta 155.729969
_cell_angle_gamma 90.000000
_cell_volume 1214.536181
_symmetry_space_group_name_H-M "P 2/M"
_symmetry_group_IT_number 10
_symmetry_cell_setting 'monoclinic'
loop_
_space_group_symop_operation_xyz
x,y,z
-x,y,-z
-x,-y,-z
x,-y,z
loop_
_atom_site_type_symbol
_atom_site_label
_atom_site_fract_x
_atom_site_fract_y
_atom_site_fract_z
Si Si1 0.009821 0.612477 0.320287
Si Si2 0.431273 0.622183 0.310127
Si Si3 0.746036 0.615794 0.297884
Si Si4 0.967646 0.878176 0.822489
Si Si5 0.500000 0.256552 0.500000
Si Si6 0.000000 0.230714 0.000000
Si Si7 0.354961 0.763251 0.984255
O O1 0.048829 0.500000 0.304567
O O2 0.279159 0.643957 0.531356
O O3 0.797910 0.598571 0.245601
O O4 0.899123 0.694378 0.191354
O O5 0.354257 0.500000 0.254764
O O6 0.417762 0.663004 0.384296
O O7 0.241601 0.693318 0.140261
O O8 0.667240 0.500000 0.280794
O O9 0.000000 0.659749 0.500000
O O10 0.525791 0.703076 0.155734
O O11 0.235973 0.862882 0.950568
O O12 0.738702 0.817682 0.633563
O O13 0.978122 0.841904 0.914254
O O14 0.903114 0.000000 0.779954
O O15 0.500000 0.792914 0.000000
#
# Coordination Sequence:
#
# PCOD8061840 Si02
#       7
#     4   4   4   4   2   2   4
#     4   9  17  31  52  79 114 150 183 220 272 345
#     4  10  19  34  55  85 120 148 181 225 285 352
#     4   9  18  31  51  81 114 151 188 219 271 348
#     4  11  23  41  62  83 109 150 201 248 287 328
#     4  10  20  38  60  84 112 150 194 236 286 336
#     4  10  24  38  56  82 118 154 192 230 286 340
#     4  10  20  36  58  84 113 145 183 239 290 337
#
# _framework density 19.760631
#
# number of rings (size 3 to 8) (size 9 to 14) (size 15 to 20)
#    0.000    2.167    1.667    1.500    2.333    2.333 
#    0.000    1.667    0.000    0.500    0.000    0.000 
#    0.000    0.000    0.000    0.000    0.000    0.000 
#
# Total GULP energy -297314.631554 kJ/mol
# GULP energy per Si atom -12388.109648 kJ/mol
# Density = 1.971565 g / cm^3
# Si number density = 19.760631 Si / 1000 Ang^3
#
#
#
# Elastic Constant Matrix: (Units=GPa)
#
#
# Indices 1 2 3 4 5 6 
#
# 1 57.2546 22.9103 8.3815 0.0000 13.3104 0.0000
# 2 22.9103 72.1742 21.1538 0.0000 9.6816 0.0000
# 3 8.3815 21.1538 84.6238 0.0000 6.8697 0.0000
# 4 0.0000 0.0000 0.0000 14.2336 0.0000 5.3592
# 5 13.3104 9.6816 6.8697 0.0000 28.7382 0.0000
# 6 0.0000 0.0000 0.0000 5.3592 0.0000 23.5300
#
#
#
# Elastic Compliance Matrix: (Units=1/GPa)
#
#
# Indices 1 2 3 4 5 6 
#
# 1 0.021663 -0.005780 -0.000045 0.000000 -0.008075 0.000000
# 2 -0.005780 0.017014 -0.003500 0.000000 -0.002218 0.000000
# 3 -0.000045 -0.003500 0.012848 0.000000 -0.001871 0.000000
# 4 0.000000 0.000000 0.000000 0.076846 0.000000 -0.017502
# 5 -0.008075 -0.002218 -0.001871 0.000000 0.039731 0.000000
# 6 0.000000 0.000000 0.000000 -0.017502 0.000000 0.046485
#
#
# Mechanical properties :
#
#
# Convention : Reuss Voigt Hill
#
# Bulk Modulus (GPa) = 30.41964 35.43821 32.92893
# Shear Modulus (GPa) = 20.47532 24.07417 22.27474
#
# Velocity S-wave (km/s) = 3.22245 3.49419 3.36106
# Velocity P-wave (km/s) = 5.41046 5.85250 5.63582
#
# Compressibility (1/GPa) = 0.03287350
#
# Stress axis : x y z
#
# Youngs Moduli (GPa) = 46.16250 58.77667 77.83068
#
# Poissons Ratio (x) = 0.33972 0.00352
# Poissons Ratio (y) = 0.26681 0.27244
# Poissons Ratio (z) = 0.00209 0.20574
#
# Static dielectric constant tensor:
#      x y z
#    x 3.374100 0.000000 0.121540 
#    y 0.000000 3.508600 0.000000 
#    z 0.121540 0.000000 3.792010 
# 
# 
# High freq. dielectric constant tensor:
#      x y z
#    x 1.758870 0.000000 0.006430 
#    y 0.000000 1.745470 0.000000 
#    z 0.006430 0.000000 1.781730 
# 
# From -- ./inp_files/42045.got.cif
#   From: 2010.06.25/outbox.cif.g09.slc.cpg/sg10_22_cif.got.tgz:42045.got - 2010.06.27 22:07:45.
