data_PCOD8061596
_publ_section_title
;
Structure prediction by ZEFSAII (Michael W. Deem and Ramdas Pophale) SiO2 
 PCOD8061596
Probable space group: P 2/M
;
_chemical_formula_sum "Si O2"
_cell_formula_units_Z 28
_cell_length_a 13.416371
_cell_length_b 8.813782
_cell_length_c 14.495451
_cell_angle_alpha 90.000000
_cell_angle_beta 123.219452
_cell_angle_gamma 90.000000
_cell_volume 1433.955671
_symmetry_space_group_name_H-M "P 2/M"
_symmetry_group_IT_number 10
_symmetry_cell_setting 'monoclinic'
loop_
_space_group_symop_operation_xyz
x,y,z
-x,y,-z
-x,-y,-z
x,-y,z
loop_
_atom_site_type_symbol
_atom_site_label
_atom_site_fract_x
_atom_site_fract_y
_atom_site_fract_z
Si Si1 0.926922 0.675057 0.627867
Si Si2 0.930369 0.822068 0.816872
Si Si3 0.294039 0.324963 0.611216
Si Si4 0.807512 0.322804 0.256014
Si Si5 0.504224 0.178791 0.606435
Si Si6 0.724792 0.675289 0.819321
Si Si7 0.818020 0.674944 0.057996
O O1 0.935997 0.500000 0.664162
O O2 0.882250 0.773117 0.692040
O O3 0.836002 0.695418 0.498707
O O4 0.056950 0.737124 0.663840
O O5 0.853134 0.734609 0.853368
O O6 0.067674 0.779320 0.901225
O O7 0.912989 0.000000 0.821753
O O8 0.336177 0.500000 0.630267
O O9 0.280057 0.257689 0.708625
O O10 0.388568 0.227860 0.603733
O O11 0.809576 0.500000 0.277240
O O12 0.760044 0.284120 0.128667
O O13 0.500000 0.245528 0.500000
O O14 0.620910 0.233530 0.717973
O O15 0.508629 0.000000 0.604534
O O16 0.709808 0.500000 0.785783
O O17 0.720309 0.700354 0.928274
O O18 0.861220 0.500000 0.081237
#
# Coordination Sequence:
#
# PCOD8061596 Si02
#       7
#     4   4   4   4   4   4   4
#     4   9  17  31  53  81 112 144 179 219 261 310
#     4  11  21  32  51  81 115 147 176 213 266 321
#     4  10  19  33  57  83 106 139 181 222 265 312
#     4   8  15  31  55  83 111 137 172 219 265 309
#     4  11  25  42  57  76 106 141 176 218 267 318
#     4  11  22  37  58  80 103 138 183 225 265 311
#     4   9  19  36  57  81 109 140 176 219 263 311
#
# _framework density 19.526403999999999
#
# number of rings (size 3 to 8) (size 9 to 14) (size 15 to 20)
#    0.000    2.143    0.000    4.714    0.000    8.571 
#    0.000    3.571    0.000    8.571    0.000    0.000 
#    0.000    0.000    0.000    0.000    0.000    0.000 
#
# Total GULP energy -347120.946378 kJ/mol
# GULP energy per Si atom -12397.176656 kJ/mol
# Density = 1.948196 g / cm^3
# Si number density = 19.526404 Si / 1000 Ang^3
#
#
#
# Elastic Constant Matrix: (Units=GPa)
#
#
# Indices 1 2 3 4 5 6 
#
# 1 112.1298 30.2726 59.7674 0.0000 -27.5547 0.0000
# 2 30.2726 49.3286 27.1078 0.0000 -7.0634 0.0000
# 3 59.7674 27.1078 127.5989 0.0000 -21.1467 0.0000
# 4 0.0000 0.0000 0.0000 17.3537 0.0000 11.4231
# 5 -27.5547 -7.0634 -21.1467 0.0000 27.9601 0.0000
# 6 0.0000 0.0000 0.0000 11.4231 0.0000 3.2991
#
#
#
# Elastic Compliance Matrix: (Units=1/GPa)
#
#
# Indices 1 2 3 4 5 6 
#
# 1 0.015223 -0.005527 -0.004232 0.000000 0.010405 0.000000
# 2 -0.005527 0.025101 -0.002968 0.000000 -0.001350 0.000000
# 3 -0.004232 -0.002968 0.011015 0.000000 0.003411 0.000000
# 4 0.000000 0.000000 0.000000 -0.045048 0.000000 0.155977
# 5 0.010405 -0.001350 0.003411 0.000000 0.048258 0.000000
# 6 0.000000 0.000000 0.000000 0.155977 0.000000 -0.236957
#
#
# Mechanical properties :
#
#
# Convention : Reuss Voigt Hill
#
# Bulk Modulus (GPa) = 38.62954 58.15034 48.38994
# Shear Modulus (GPa) = -33.70959 21.18322 -6.26319
#
# Velocity S-wave (km/s) = -4.15946 3.29728 -1.79291
# Velocity P-wave (km/s) = 1.80053 6.65891 4.53316
#
# Compressibility (1/GPa) = 0.02588692
#
# Stress axis : x y z
#
# Youngs Moduli (GPa) = 65.68996 39.83830 90.78554
#
# Poissons Ratio (x) = 0.22017 0.38419
# Poissons Ratio (y) = 0.36305 0.26942
# Poissons Ratio (z) = 0.27799 0.11823
#
# Static dielectric constant tensor:
#      x y z
#    x 3.647570 0.000000 -0.355760 
#    y 0.000000 3.359480 0.000000 
#    z -0.355760 0.000000 3.740290 
# 
# 
# High freq. dielectric constant tensor:
#      x y z
#    x 1.750670 0.000000 -0.021040 
#    y 0.000000 1.737740 0.000000 
#    z -0.021040 0.000000 1.767400 
# 
# From -- ./inp_files/63923.got.cif
#   From: 2010.06.25/outbox.cif.g09.slc.cpg/sg10_32_cif.got.tgz:63923.got - 2010.06.27 22:07:45.
