data_PCOD8061961
_publ_section_title
;
Structure prediction by ZEFSAII (Michael W. Deem and Ramdas Pophale) SiO2 
 PCOD8061961
Probable space group: P 2/M
;
_chemical_formula_sum "Si O2"
_cell_formula_units_Z 32
_cell_length_a 19.374510
_cell_length_b 9.606721
_cell_length_c 11.934976
_cell_angle_alpha 90.000000
_cell_angle_beta 51.974334
_cell_angle_gamma 90.000000
_cell_volume 1749.877047
_symmetry_space_group_name_H-M "P 2/M"
_symmetry_group_IT_number 10
_symmetry_cell_setting 'monoclinic'
loop_
_space_group_symop_operation_xyz
x,y,z
-x,y,-z
-x,-y,-z
x,-y,z
loop_
_atom_site_type_symbol
_atom_site_label
_atom_site_fract_x
_atom_site_fract_y
_atom_site_fract_z
Si Si1 0.901834 0.165231 0.112981
Si Si2 0.648912 0.842077 0.608823
Si Si3 0.096864 0.344062 0.448740
Si Si4 0.401834 0.165231 0.583352
Si Si5 0.596864 0.344062 0.857532
Si Si6 0.851088 0.157923 0.406647
Si Si7 0.750000 0.336164 0.869960
Si Si8 0.750000 0.833908 0.098378
O O1 0.865913 0.219297 0.267833
O O2 0.836594 0.215050 0.079957
O O3 0.902533 0.000000 0.112038
O O4 0.000000 0.225432 0.000000
O O5 0.634087 0.780703 0.499659
O O6 0.595647 0.752018 0.750151
O O7 0.750000 0.833689 0.539551
O O8 0.613971 0.000000 0.650776
O O9 0.123555 0.500000 0.458526
O O10 0.095647 0.247982 0.558554
O O11 0.164373 0.292547 0.286442
O O12 0.000000 0.338698 0.500000
O O13 0.500000 0.225432 0.500000
O O14 0.336594 0.215050 0.746855
O O15 0.402533 0.000000 0.582896
O O16 0.623555 0.500000 0.794365
O O17 0.664373 0.292547 0.884811
O O18 0.500000 0.338698 0.000000
O O19 0.886029 0.000000 0.378719
O O20 0.750000 0.500000 0.900368
O O21 0.750000 0.245433 0.981608
O O22 0.750000 0.000000 0.078550
#
# Coordination Sequence:
#
# PCOD8061961 Si02
#       8
#     4   4   4   4   4   4   4   4
#     4   9  18  33  53  79 110 140 169 213 270 313
#     4  10  19  34  57  82 108 138 179 226 264 310
#     4  10  22  39  57  77 106 145 182 219 269 321
#     4   9  18  33  53  79 110 140 169 213 270 313
#     4  10  22  39  57  77 106 145 182 219 269 321
#     4  10  19  34  57  82 108 138 179 226 264 310
#     4  10  22  39  54  74 110 145 173 218 273 316
#     4  10  20  35  56  80 106 139 179 214 255 320
#
# _framework density 18.286999999999999
#
# number of rings (size 3 to 8) (size 9 to 14) (size 15 to 20)
#    0.000    2.250    2.500    0.000    3.500    1.500 
#    0.000    1.250    0.000    1.500    0.000    0.000 
#    0.000    0.000    0.000    0.000    0.000    0.000 
#
# Total GULP energy -396793.247323 kJ/mol
# GULP energy per Si atom -12399.788979 kJ/mol
# Density = 1.824538 g / cm^3
# Si number density = 18.287000 Si / 1000 Ang^3
#
#
#
# Elastic Constant Matrix: (Units=GPa)
#
#
# Indices 1 2 3 4 5 6 
#
# 1 106.6447 33.0045 58.2392 0.0000 2.1637 0.0000
# 2 33.0045 50.2589 41.5085 0.0000 15.3747 0.0000
# 3 58.2392 41.5085 113.6664 0.0000 10.5311 0.0000
# 4 0.0000 0.0000 0.0000 -9.2263 0.0000 5.4972
# 5 2.1637 15.3747 10.5311 0.0000 39.9291 0.0000
# 6 0.0000 0.0000 0.0000 5.4972 0.0000 -12.2669
#
#
#
# Elastic Compliance Matrix: (Units=1/GPa)
#
#
# Indices 1 2 3 4 5 6 
#
# 1 0.013995 -0.005606 -0.005385 0.000000 0.002820 0.000000
# 2 -0.005606 0.033803 -0.008502 0.000000 -0.010470 0.000000
# 3 -0.005385 -0.008502 0.014690 0.000000 -0.000309 0.000000
# 4 0.000000 0.000000 0.000000 -0.147868 0.000000 -0.066265
# 5 0.002820 -0.010470 -0.000309 0.000000 0.029004 0.000000
# 6 0.000000 0.000000 0.000000 -0.066265 0.000000 -0.111216
#
#
# Mechanical properties :
#
#
# Convention : Reuss Voigt Hill
#
# Bulk Modulus (GPa) = 42.54812 59.56383 51.05597
# Shear Modulus (GPa) = -41.40033 12.87504 -14.26265
#
# Velocity S-wave (km/s) = -4.76323 2.65628 -2.79576
# Velocity P-wave (km/s) = 2.63321 6.48461 4.19025
#
# Compressibility (1/GPa) = 0.02350280
#
# Stress axis : x y z
#
# Youngs Moduli (GPa) = 71.45201 29.58356 68.07372
#
# Poissons Ratio (x) = 0.16585 0.36657
# Poissons Ratio (y) = 0.40057 0.57873
# Poissons Ratio (z) = 0.38476 0.25151
#
# Static dielectric constant tensor:
#      x y z
#    x 3.495270 0.000000 -0.102990 
#    y 0.000000 3.150020 0.000000 
#    z -0.102990 0.000000 3.438310 
# 
# 
# High freq. dielectric constant tensor:
#      x y z
#    x 1.719640 0.000000 -0.002860 
#    y 0.000000 1.673930 0.000000 
#    z -0.002860 0.000000 1.718060 
# 
# From -- ./inp_files/55239.got.cif
#   From: 2010.06.25/outbox.cif.g09.slc.cpg/sg10_28_cif.got.tgz:55239.got - 2010.06.27 22:07:45.
