data_PCOD8061220
_publ_section_title
;
Structure prediction by ZEFSAII (Michael W. Deem and Ramdas Pophale) SiO2 
 PCOD8061220
Probable space group: P 2/M
;
_chemical_formula_sum "Si O2"
_cell_formula_units_Z 32
_cell_length_a 25.271743
_cell_length_b 9.244727
_cell_length_c 20.705918
_cell_angle_alpha 90.000000
_cell_angle_beta 21.997516
_cell_angle_gamma 90.000000
_cell_volume 1811.976618
_symmetry_space_group_name_H-M "P 2/M"
_symmetry_group_IT_number 10
_symmetry_cell_setting 'monoclinic'
loop_
_space_group_symop_operation_xyz
x,y,z
-x,y,-z
-x,-y,-z
x,-y,z
loop_
_atom_site_type_symbol
_atom_site_label
_atom_site_fract_x
_atom_site_fract_y
_atom_site_fract_z
Si Si1 0.333124 0.668724 0.506946
Si Si2 0.079395 0.831015 0.844369
Si Si3 0.349019 0.664490 0.840866
Si Si4 0.356333 0.668209 0.981103
Si Si5 0.947632 0.330360 0.628646
Si Si6 0.630304 0.167822 0.666760
Si Si7 0.080696 0.166306 0.595176
Si Si8 0.905353 0.829728 0.917068
O O1 0.300751 0.500000 0.532160
O O2 0.223246 0.738982 0.681096
O O3 0.488065 0.689747 0.362559
O O4 0.321559 0.749644 0.451914
O O5 0.982536 0.778754 0.894694
O O6 0.117187 0.000000 0.795868
O O7 0.000000 0.794724 0.000000
O O8 0.303164 0.500000 0.881544
O O9 0.325429 0.708321 0.941984
O O10 0.250900 0.762490 0.906903
O O11 0.397737 0.500000 0.940801
O O12 0.487510 0.763492 0.858067
O O13 0.217902 0.709105 0.178556
O O14 0.970985 0.500000 0.611013
O O15 0.000000 0.275271 0.500000
O O16 0.041117 0.255102 0.576992
O O17 0.752471 0.185475 0.581624
O O18 0.605690 0.000000 0.677306
O O19 0.994932 0.225370 0.754237
O O20 0.041431 0.000000 0.627450
O O21 0.888749 0.000000 0.935273
#
# Coordination Sequence:
#
# PCOD8061220 Si02
#       8
#     4   4   4   4   4   4   4   4
#     4  10  20  34  53  79 110 140 176 219 265 317
#     4  10  21  38  57  78 109 145 179 220 267 317
#     4   9  18  32  51  78 106 136 172 219 266 308
#     4   9  18  33  51  77 108 136 176 220 262 315
#     4  10  21  37  56  78 108 145 181 218 265 321
#     4  10  19  33  54  80 108 138 176 221 268 314
#     4  10  20  34  53  80 109 135 177 226 263 313
#     4  10  19  33  53  80 106 134 177 221 261 312
#
# _framework density 17.660271000000002
#
# number of rings (size 3 to 8) (size 9 to 14) (size 15 to 20)
#    0.000    2.250    2.500    1.500    0.000    5.000 
#    0.000    1.250    0.000    7.500    0.000    0.000 
#    0.000    0.000    0.000    0.000    0.000    0.000 
#
# Total GULP energy -396869.103316 kJ/mol
# GULP energy per Si atom -12402.159479 kJ/mol
# Density = 1.762008 g / cm^3
# Si number density = 17.660271 Si / 1000 Ang^3
#
#
#
# Elastic Constant Matrix: (Units=GPa)
#
#
# Indices 1 2 3 4 5 6 
#
# 1 97.5791 41.3962 63.3392 0.0000 -0.9479 0.0000
# 2 41.3962 66.2687 57.6767 0.0000 -5.5980 0.0000
# 3 63.3392 57.6767 135.6284 0.0000 -1.9727 0.0000
# 4 0.0000 0.0000 0.0000 32.8464 0.0000 -8.2017
# 5 -0.9479 -5.5980 -1.9727 0.0000 25.9965 0.0000
# 6 0.0000 0.0000 0.0000 -8.2017 0.0000 14.3486
#
#
#
# Elastic Compliance Matrix: (Units=1/GPa)
#
#
# Indices 1 2 3 4 5 6 
#
# 1 0.015902 -0.005625 -0.005049 0.000000 -0.001015 0.000000
# 2 -0.005625 0.026458 -0.008554 0.000000 0.004843 0.000000
# 3 -0.005049 -0.008554 0.013354 0.000000 -0.001013 0.000000
# 4 0.000000 0.000000 0.000000 0.035514 0.000000 0.020300
# 5 -0.001015 0.004843 -0.001013 0.000000 0.039396 0.000000
# 6 0.000000 0.000000 0.000000 0.020300 0.000000 0.081297
#
#
# Mechanical properties :
#
#
# Convention : Reuss Voigt Hill
#
# Bulk Modulus (GPa) = 57.94462 69.36674 63.65568
# Shear Modulus (GPa) = 19.52147 23.77590 21.64868
#
# Velocity S-wave (km/s) = 3.32835 3.67317 3.50500
# Velocity P-wave (km/s) = 6.90308 7.57319 7.24588
#
# Compressibility (1/GPa) = 0.01725786
#
# Stress axis : x y z
#
# Youngs Moduli (GPa) = 62.88604 37.79598 74.88405
#
# Poissons Ratio (x) = 0.21259 0.37809
# Poissons Ratio (y) = 0.35371 0.64057
# Poissons Ratio (z) = 0.31751 0.32331
#
# Static dielectric constant tensor:
#      x y z
#    x 3.069420 0.000000 -0.111780 
#    y 0.000000 3.251710 0.000000 
#    z -0.111780 0.000000 3.405500 
# 
# 
# High freq. dielectric constant tensor:
#      x y z
#    x 1.661480 0.000000 -0.016940 
#    y 0.000000 1.683730 0.000000 
#    z -0.016940 0.000000 1.686120 
# 
# From -- ./inp_files/86736.got.cif
#   From: 2010.06.25/outbox.cif.g09.slc.cpg/sg10_44_cif.got.tgz:86736.got - 2010.06.27 22:07:45.
