data_PCOD8061959
_publ_section_title
;
Structure prediction by ZEFSAII (Michael W. Deem and Ramdas Pophale) SiO2 
 PCOD8061959
Probable space group: P 2/M
;
_chemical_formula_sum "Si O2"
_cell_formula_units_Z 32
_cell_length_a 21.127571
_cell_length_b 8.747138
_cell_length_c 14.752040
_cell_angle_alpha 90.000000
_cell_angle_beta 36.828850
_cell_angle_gamma 90.000000
_cell_volume 1634.194416
_symmetry_space_group_name_H-M "P 2/M"
_symmetry_group_IT_number 10
_symmetry_cell_setting 'monoclinic'
loop_
_space_group_symop_operation_xyz
x,y,z
-x,y,-z
-x,-y,-z
x,-y,z
loop_
_atom_site_type_symbol
_atom_site_label
_atom_site_fract_x
_atom_site_fract_y
_atom_site_fract_z
Si Si1 0.698799 0.179855 0.877843
Si Si2 0.308979 0.819091 0.316530
Si Si3 0.502714 0.181661 0.773342
Si Si4 0.019913 0.826548 0.073531
Si Si5 0.121456 0.678412 0.223009
Si Si6 0.076645 0.182425 0.631552
Si Si7 0.442176 0.676479 0.660576
Si Si8 0.226592 0.173134 0.935511
O O1 0.663998 0.231152 0.816939
O O2 0.811165 0.258594 0.769664
O O3 0.717076 0.000000 0.860441
O O4 0.607280 0.230058 0.052742
O O5 0.399559 0.754576 0.279102
O O6 0.193699 0.755772 0.476742
O O7 0.307794 0.000000 0.325764
O O8 0.510911 0.260198 0.665772
O O9 0.508895 0.000000 0.755338
O O10 0.956962 0.752504 0.230555
O O11 0.978864 0.000000 0.112248
O O12 0.144900 0.819391 0.946593
O O13 0.000000 0.741208 0.000000
O O14 0.104358 0.500000 0.254464
O O15 0.005928 0.755773 0.348807
O O16 0.190698 0.714236 0.055456
O O17 0.068519 0.000000 0.638563
O O18 0.500000 0.701329 0.500000
O O19 0.415717 0.500000 0.708423
O O20 0.337339 0.774960 0.769992
O O21 0.234008 0.000000 0.966126
#
# Coordination Sequence:
#
# PCOD8061959 Si02
#       8
#     4   4   4   4   4   4   4   4
#     4  10  19  34  58  85 113 146 189 236 288 342
#     4   9  19  35  57  85 114 148 188 239 292 341
#     4  10  20  36  60  86 113 146 191 240 284 336
#     4   8  15  28  50  79 105 133 174 227 279 327
#     4  11  21  34  55  80 111 147 186 231 281 336
#     4   9  18  34  54  77 110 147 188 232 284 339
#     4  11  24  39  55  80 116 154 188 227 281 335
#     4  10  19  34  57  82 107 140 184 233 281 331
#
# _framework density 19.581513000000001
#
# number of rings (size 3 to 8) (size 9 to 14) (size 15 to 20)
#    0.000    2.250    1.250    3.000    0.000    4.000 
#    0.000    6.875    0.000   12.375    0.000    0.000 
#    0.000    0.000    0.000    0.000    0.000    0.000 
#
# Total GULP energy -396727.249447 kJ/mol
# GULP energy per Si atom -12397.726545 kJ/mol
# Density = 1.953694 g / cm^3
# Si number density = 19.581513 Si / 1000 Ang^3
#
#
#
# Elastic Constant Matrix: (Units=GPa)
#
#
# Indices 1 2 3 4 5 6 
#
# 1 152.7509 36.2524 57.6488 0.0000 1.0653 0.0000
# 2 36.2524 46.9484 23.6244 0.0000 -0.8951 0.0000
# 3 57.6488 23.6244 79.9334 0.0000 -5.9749 0.0000
# 4 0.0000 0.0000 0.0000 17.0161 0.0000 3.2614
# 5 1.0653 -0.8951 -5.9749 0.0000 33.7448 0.0000
# 6 0.0000 0.0000 0.0000 3.2614 0.0000 4.4245
#
#
#
# Elastic Compliance Matrix: (Units=1/GPa)
#
#
# Indices 1 2 3 4 5 6 
#
# 1 0.009882 -0.004719 -0.005842 0.000000 -0.001472 0.000000
# 2 -0.004719 0.027289 -0.004659 0.000000 0.000048 0.000000
# 3 -0.005842 -0.004659 0.018348 0.000000 0.003310 0.000000
# 4 0.000000 0.000000 0.000000 0.068437 0.000000 -0.050447
# 5 -0.001472 0.000048 0.003310 0.000000 0.030268 0.000000
# 6 0.000000 0.000000 0.000000 -0.050447 0.000000 0.263202
#
#
# Mechanical properties :
#
#
# Convention : Reuss Voigt Hill
#
# Bulk Modulus (GPa) = 39.87269 57.18711 48.52990
# Shear Modulus (GPa) = 10.95956 21.84422 16.40189
#
# Velocity S-wave (km/s) = 2.36834 3.34361 2.89731
# Velocity P-wave (km/s) = 5.28066 6.64638 6.00249
#
# Compressibility (1/GPa) = 0.02507982
#
# Stress axis : x y z
#
# Youngs Moduli (GPa) = 101.19855 36.64523 54.50183
#
# Poissons Ratio (x) = 0.17291 0.31840
# Poissons Ratio (y) = 0.47752 0.25390
# Poissons Ratio (z) = 0.59121 0.17071
#
# Static dielectric constant tensor:
#      x y z
#    x 3.860610 0.000000 -0.050930 
#    y 0.000000 3.217670 0.000000 
#    z -0.050930 0.000000 3.600490 
# 
# 
# High freq. dielectric constant tensor:
#      x y z
#    x 1.777800 0.000000 -0.003940 
#    y 0.000000 1.726170 0.000000 
#    z -0.003940 0.000000 1.756980 
# 
# From -- ./inp_files/69979.got.cif
#   From: 2010.06.25/outbox.cif.g09.slc.cpg/sg10_35_cif.got.tgz:69979.got - 2010.06.27 22:07:45.
