data_PCOD8061919
_publ_section_title
;
Structure prediction by ZEFSAII (Michael W. Deem and Ramdas Pophale) SiO2 
 PCOD8061919
Probable space group: P 2/M
;
_chemical_formula_sum "Si O2"
_cell_formula_units_Z 32
_cell_length_a 11.977731
_cell_length_b 8.811162
_cell_length_c 28.988571
_cell_angle_alpha 90.000000
_cell_angle_beta 30.764844
_cell_angle_gamma 90.000000
_cell_volume 1564.925022
_symmetry_space_group_name_H-M "P 2/M"
_symmetry_group_IT_number 10
_symmetry_cell_setting 'monoclinic'
loop_
_space_group_symop_operation_xyz
x,y,z
-x,y,-z
-x,-y,-z
x,-y,z
loop_
_atom_site_type_symbol
_atom_site_label
_atom_site_fract_x
_atom_site_fract_y
_atom_site_fract_z
Si Si1 0.909847 0.825703 0.158155
Si Si2 0.037616 0.322926 0.684318
Si Si3 0.581817 0.178913 0.835433
Si Si4 0.730619 0.822381 0.476330
Si Si5 0.095220 0.179907 0.418833
Si Si6 0.454340 0.820064 0.780547
Si Si7 0.626842 0.678928 0.000273
Si Si8 0.730356 0.826863 0.320447
O O1 0.769333 0.764463 0.164420
O O2 0.752699 0.809664 0.257884
O O3 0.983307 0.000000 0.124527
O O4 0.121453 0.724586 0.090766
O O5 0.990050 0.500000 0.697369
O O6 0.244798 0.270867 0.579962
O O7 0.091668 0.279758 0.717903
O O8 0.829463 0.230250 0.740761
O O9 0.451125 0.228240 0.835513
O O10 0.479064 0.256401 0.916164
O O11 0.573515 0.000000 0.845405
O O12 0.511407 0.773451 0.580235
O O13 0.931975 0.773672 0.436410
O O14 0.729889 0.000000 0.464873
O O15 0.333568 0.247554 0.321355
O O16 0.000000 0.250495 0.500000
O O17 0.109996 0.000000 0.418735
O O18 0.468921 0.000000 0.771322
O O19 0.605771 0.500000 0.009622
O O20 0.500000 0.741945 0.000000
O O21 0.773048 0.000000 0.320723
#
# Coordination Sequence:
#
# PCOD8061919 Si02
#       8
#     4   4   4   4   4   4   4   4
#     4  10  21  39  63  92 121 151 193 244 299 355
#     4  12  24  37  55  82 120 162 202 245 298 359
#     4  11  22  40  66  91 118 154 197 249 301 353
#     4  10  19  34  56  85 117 154 202 251 298 349
#     4   9  15  27  53  86 118 152 194 245 294 340
#     4   9  18  34  58  90 122 151 191 243 297 350
#     4  11  25  44  64  89 121 157 197 241 296 360
#     4  10  21  36  58  87 118 154 201 253 298 347
#
# _framework density 20.448264999999999
#
# number of rings (size 3 to 8) (size 9 to 14) (size 15 to 20)
#    0.000    1.750    1.250    3.750    0.000    9.000 
#    0.000    3.750    0.000    0.375    0.000    0.000 
#    0.000    0.000    0.000    0.000    0.000    0.000 
#
# Total GULP energy -396843.376955 kJ/mol
# GULP energy per Si atom -12401.355530 kJ/mol
# Density = 2.040172 g / cm^3
# Si number density = 20.448265 Si / 1000 Ang^3
#
#
#
# Elastic Constant Matrix: (Units=GPa)
#
#
# Indices 1 2 3 4 5 6 
#
# 1 156.9363 38.3687 62.1793 0.0000 -1.3309 0.0000
# 2 38.3687 44.2072 28.2999 0.0000 1.2613 0.0000
# 3 62.1793 28.2999 115.5145 0.0000 2.5265 0.0000
# 4 0.0000 0.0000 0.0000 1.0166 0.0000 -3.1853
# 5 -1.3309 1.2613 2.5265 0.0000 37.9848 0.0000
# 6 0.0000 0.0000 0.0000 -3.1853 0.0000 9.3374
#
#
#
# Elastic Compliance Matrix: (Units=1/GPa)
#
#
# Indices 1 2 3 4 5 6 
#
# 1 0.009187 -0.005715 -0.003561 0.000000 0.000749 0.000000
# 2 -0.005715 0.030391 -0.004349 0.000000 -0.000920 0.000000
# 3 -0.003561 -0.004349 0.011656 0.000000 -0.000756 0.000000
# 4 0.000000 0.000000 0.000000-14.276617 0.000000 -4.870240
# 5 0.000749 -0.000920 -0.000756 0.000000 0.026433 0.000000
# 6 0.000000 0.000000 0.000000 -4.870240 0.000000 -1.554309
#
#
# Mechanical properties :
#
#
# Convention : Reuss Voigt Hill
#
# Bulk Modulus (GPa) = 41.69601 63.81710 52.75655
# Shear Modulus (GPa) = -0.31811 22.18844 10.93517
#
# Velocity S-wave (km/s) = -0.39485 3.29766 2.31502
# Velocity P-wave (km/s) = 4.49748 6.76581 5.74472
#
# Compressibility (1/GPa) = 0.02398311
#
# Stress axis : x y z
#
# Youngs Moduli (GPa) = 108.85485 32.90414 85.79328
#
# Poissons Ratio (x) = 0.18804 0.30553
# Poissons Ratio (y) = 0.62209 0.37314
# Poissons Ratio (z) = 0.38766 0.14311
#
# Static dielectric constant tensor:
#      x y z
#    x 4.000800 0.000000 0.018500 
#    y 0.000000 3.322730 0.000000 
#    z 0.018500 0.000000 3.786320 
# 
# 
# High freq. dielectric constant tensor:
#      x y z
#    x 1.815650 0.000000 0.003300 
#    y 0.000000 1.757030 0.000000 
#    z 0.003300 0.000000 1.805840 
# 
# From -- ./inp_files/94981.got.cif
#   From: 2010.06.25/outbox.cif.g09.slc.cpg/sg10_48_cif.got.tgz:94981.got - 2010.06.27 22:07:45.
