data_PCOD8061521
_publ_section_title
;
Structure prediction by ZEFSAII (Michael W. Deem and Ramdas Pophale) SiO2 
 PCOD8061521
Probable space group: P 2/M
;
_chemical_formula_sum "Si O2"
_cell_formula_units_Z 24
_cell_length_a 15.485347
_cell_length_b 8.563495
_cell_length_c 17.904479
_cell_angle_alpha 90.000000
_cell_angle_beta 29.983516
_cell_angle_gamma 90.000000
_cell_volume 1186.553150
_symmetry_space_group_name_H-M "P 2/M"
_symmetry_group_IT_number 10
_symmetry_cell_setting 'monoclinic'
loop_
_space_group_symop_operation_xyz
x,y,z
-x,y,-z
-x,-y,-z
x,-y,z
loop_
_atom_site_type_symbol
_atom_site_label
_atom_site_fract_x
_atom_site_fract_y
_atom_site_fract_z
Si Si1 0.484266 0.183031 0.669342
Si Si2 0.843102 0.315829 0.165967
Si Si3 0.487887 0.185562 0.835106
Si Si4 0.171734 0.682780 0.653498
Si Si5 0.176332 0.815192 0.333390
Si Si6 0.158029 0.815719 0.175724
O O1 0.340355 0.262522 0.726912
O O2 0.474066 0.249672 0.761232
O O3 0.669769 0.219148 0.496544
O O4 0.451481 0.000000 0.693526
O O5 0.850739 0.500000 0.155086
O O6 0.864988 0.260201 0.234706
O O7 0.000000 0.242062 0.000000
O O8 0.660239 0.255569 0.744391
O O9 0.498773 0.000000 0.827774
O O10 0.321208 0.241912 0.005631
O O11 0.216227 0.500000 0.616931
O O12 0.006554 0.719584 0.727465
O O13 0.194310 0.769136 0.233706
O O14 0.000000 0.744467 0.500000
O O15 0.174946 0.000000 0.344011
O O16 0.123209 0.000000 0.192734
#
# Coordination Sequence:
#
# PCOD8061521 Si02
#       6
#     4   4   4   4   4   4
#     4  11  22  36  57  83 110 140 178 225 269 312
#     4  10  22  40  59  79 107 144 181 217 265 324
#     4   9  18  32  52  82 113 140 175 220 270 318
#     4  11  23  38  56  78 108 144 179 218 268 324
#     4   9  16  28  50  80 112 143 175 215 265 319
#     4  10  19  33  56  82 108 140 180 224 265 311
#
# _framework density 20.226654
#
# number of rings (size 3 to 8) (size 9 to 14) (size 15 to 20)
#    0.000    2.000    0.000    4.000    0.000    8.333 
#    0.000    0.833    0.000    7.500    0.000    0.000 
#    0.000    0.000    0.000    0.000    0.000    0.000 
#
# Total GULP energy -297679.436383 kJ/mol
# GULP energy per Si atom -12403.309849 kJ/mol
# Density = 2.018062 g / cm^3
# Si number density = 20.226654 Si / 1000 Ang^3
#
#
#
# Elastic Constant Matrix: (Units=GPa)
#
#
# Indices 1 2 3 4 5 6 
#
# 1 83.7481 23.5873 4.1136 0.0000 -5.4156 0.0000
# 2 23.5873 -27.0329 15.4550 0.0000 19.1133 0.0000
# 3 4.1136 15.4550 105.7465 0.0000 -0.4625 0.0000
# 4 0.0000 0.0000 0.0000 22.0116 0.0000 4.5483
# 5 -5.4156 19.1133 -0.4625 0.0000 43.7515 0.0000
# 6 0.0000 0.0000 0.0000 4.5483 0.0000 -22.3318
#
#
#
# Elastic Compliance Matrix: (Units=1/GPa)
#
#
# Indices 1 2 3 4 5 6 
#
# 1 0.010003 0.006727 -0.001380 0.000000 -0.001715 0.000000
# 2 0.006727 -0.022001 0.003000 0.000000 0.010476 0.000000
# 3 -0.001380 0.003000 0.009066 0.000000 -0.001385 0.000000
# 4 0.000000 0.000000 0.000000 0.043596 0.000000 0.008879
# 5 -0.001715 0.010476 -0.001385 0.000000 0.018053 0.000000
# 6 0.000000 0.000000 0.000000 0.008879 0.000000 -0.042971
#
#
# Mechanical properties :
#
#
# Convention : Reuss Voigt Hill
#
# Bulk Modulus (GPa) = 72.67098 27.64151 50.15625
# Shear Modulus (GPa) = 1373.76575 16.63999 695.20287
#
# Velocity S-wave (km/s) = 26.08947 2.87134 18.55943
# Velocity P-wave (km/s) = 30.71731 4.96874 22.00275
#
# Compressibility (1/GPa) = 0.01376065
#
# Stress axis : x y z
#
# Youngs Moduli (GPa) = 99.97083 -45.45235 110.30479
#
# Poissons Ratio (x) = 0.30574 0.15219
# Poissons Ratio (y) = -0.67246 -0.33087
# Poissons Ratio (z) = 0.13793 0.13634
#
# Static dielectric constant tensor:
#      x y z
#    x 3.900170 0.000000 0.083010 
#    y 0.000000 3.223560 0.000000 
#    z 0.083010 0.000000 3.973030 
# 
# 
# High freq. dielectric constant tensor:
#      x y z
#    x 1.808800 0.000000 0.001740 
#    y 0.000000 1.746650 0.000000 
#    z 0.001740 0.000000 1.809570 
# 
# From -- ./inp_files/27035.got.cif
#   From: 2010.06.25/outbox.cif.g09.slc.cpg/sg10_14_cif.got.tgz:27035.got - 2010.06.27 22:07:45.
