data_PCOD8061274
_publ_section_title
;
Structure prediction by ZEFSAII (Michael W. Deem and Ramdas Pophale) SiO2 
 PCOD8061274
Probable space group: P 2/M
;
_chemical_formula_sum "Si O2"
_cell_formula_units_Z 32
_cell_length_a 24.567491
_cell_length_b 9.269515
_cell_length_c 16.005399
_cell_angle_alpha 90.000000
_cell_angle_beta 152.995098
_cell_angle_gamma 90.000000
_cell_volume 1655.022885
_symmetry_space_group_name_H-M "P 2/M"
_symmetry_group_IT_number 10
_symmetry_cell_setting 'monoclinic'
loop_
_space_group_symop_operation_xyz
x,y,z
-x,y,-z
-x,-y,-z
x,-y,z
loop_
_atom_site_type_symbol
_atom_site_label
_atom_site_fract_x
_atom_site_fract_y
_atom_site_fract_z
Si Si1 0.831071 0.668905 0.957821
Si Si2 0.251296 0.166032 0.858563
Si Si3 0.510285 0.169203 0.273325
Si Si4 0.263098 0.832628 0.519711
Si Si5 0.589790 0.668941 0.547830
Si Si6 0.946840 0.336064 0.836227
Si Si7 0.159967 0.165888 0.554701
Si Si8 0.915726 0.668991 0.250405
O O1 0.832028 0.500000 0.939712
O O2 0.716812 0.734007 0.753287
O O3 0.825727 0.698370 0.049589
O O4 0.955089 0.734298 0.092138
O O5 0.246757 0.185550 0.752716
O O6 0.142949 0.257724 0.749341
O O7 0.231795 0.000000 0.857570
O O8 0.379569 0.223287 0.065687
O O9 0.601468 0.205856 0.322260
O O10 0.547895 0.250009 0.408335
O O11 0.509491 0.000000 0.291519
O O12 0.175406 0.751831 0.335996
O O13 0.237592 0.785106 0.580331
O O14 0.237678 0.000000 0.473380
O O15 0.500000 0.699490 0.500000
O O16 0.597220 0.500000 0.536868
O O17 0.917378 0.500000 0.770852
O O18 0.000000 0.325238 0.000000
O O19 0.044691 0.265945 0.406347
O O20 0.117363 0.000000 0.488435
O O21 0.931952 0.500000 0.289970
#
# Coordination Sequence:
#
# PCOD8061274 Si02
#       8
#     4   4   4   4   4   4   4   4
#     4   9  18  32  51  79 110 142 179 220 273 331
#     4  10  22  39  58  80 111 150 190 232 283 341
#     4  10  22  39  57  82 115 149 188 235 282 330
#     4  10  21  37  57  82 113 146 187 235 279 328
#     4  10  20  36  58  82 111 149 191 231 273 330
#     4  10  19  33  54  78 107 145 185 223 271 331
#     4  10  21  38  59  83 112 149 189 231 283 339
#     4  11  21  36  59  86 116 145 183 236 286 336
#
# _framework density 19.335080999999999
#
# number of rings (size 3 to 8) (size 9 to 14) (size 15 to 20)
#    0.000    2.000    1.250    2.250    0.000    6.000 
#    0.000    4.375    0.000    0.000    0.000    3.500 
#    0.000    0.000    0.000    0.000    0.000    0.000 
#
# Total GULP energy -396818.961176 kJ/mol
# GULP energy per Si atom -12400.592537 kJ/mol
# Density = 1.929107 g / cm^3
# Si number density = 19.335081 Si / 1000 Ang^3
#
#
#
# Elastic Constant Matrix: (Units=GPa)
#
#
# Indices 1 2 3 4 5 6 
#
# 1 114.4470 44.4277 41.8486 0.0000 0.6866 0.0000
# 2 44.4277 54.9978 37.6687 0.0000 0.7128 0.0000
# 3 41.8486 37.6687 101.6836 0.0000 -1.5047 0.0000
# 4 0.0000 0.0000 0.0000 24.2003 0.0000 -0.3060
# 5 0.6866 0.7128 -1.5047 0.0000 29.4931 0.0000
# 6 0.0000 0.0000 0.0000 -0.3060 0.0000 19.4164
#
#
#
# Elastic Compliance Matrix: (Units=1/GPa)
#
#
# Indices 1 2 3 4 5 6 
#
# 1 0.013015 -0.009167 -0.001963 0.000000 -0.000182 0.000000
# 2 -0.009167 0.030853 -0.007671 0.000000 -0.000924 0.000000
# 3 -0.001963 -0.007671 0.013498 0.000000 0.000920 0.000000
# 4 0.000000 0.000000 0.000000 0.041330 0.000000 0.000651
# 5 -0.000182 -0.000924 0.000920 0.000000 0.033980 0.000000
# 6 0.000000 0.000000 0.000000 0.000651 0.000000 0.051513
#
#
# Mechanical properties :
#
#
# Convention : Reuss Voigt Hill
#
# Bulk Modulus (GPa) = 50.59539 57.66871 54.13205
# Shear Modulus (GPa) = 21.89351 24.43419 23.16385
#
# Velocity S-wave (km/s) = 3.36865 3.55875 3.46500
# Velocity P-wave (km/s) = 6.43077 6.83937 6.63821
#
# Compressibility (1/GPa) = 0.01976465
#
# Stress axis : x y z
#
# Youngs Moduli (GPa) = 76.83373 32.41168 74.08698
#
# Poissons Ratio (x) = 0.29711 0.14546
# Poissons Ratio (y) = 0.70431 0.56829
# Poissons Ratio (z) = 0.15085 0.24862
#
# Static dielectric constant tensor:
#      x y z
#    x 3.764170 0.000000 0.025890 
#    y 0.000000 3.388610 0.000000 
#    z 0.025890 0.000000 3.616380 
# 
# 
# High freq. dielectric constant tensor:
#      x y z
#    x 1.764860 0.000000 -0.002140 
#    y 0.000000 1.731350 0.000000 
#    z -0.002140 0.000000 1.758020 
# 
# From -- ./inp_files/71703.got.cif
#   From: 2010.06.25/outbox.cif.g09.slc.cpg/sg10_36_cif.got.tgz:71703.got - 2010.06.27 22:07:45.
