data_PCOD8061353
_publ_section_title
;
Structure prediction by ZEFSAII (Michael W. Deem and Ramdas Pophale) SiO2 
 PCOD8061353
Probable space group: P 2/M
;
_chemical_formula_sum "Si O2"
_cell_formula_units_Z 32
_cell_length_a 30.650213
_cell_length_b 9.071030
_cell_length_c 13.037716
_cell_angle_alpha 90.000000
_cell_angle_beta 153.108550
_cell_angle_gamma 90.000000
_cell_volume 1639.531500
_symmetry_space_group_name_H-M "P 2/M"
_symmetry_group_IT_number 10
_symmetry_cell_setting 'monoclinic'
loop_
_space_group_symop_operation_xyz
x,y,z
-x,y,-z
-x,-y,-z
x,-y,z
loop_
_atom_site_type_symbol
_atom_site_label
_atom_site_fract_x
_atom_site_fract_y
_atom_site_fract_z
Si Si1 0.137988 0.674236 0.081287
Si Si2 0.397516 0.174872 0.326487
Si Si3 0.081101 0.673460 0.393222
Si Si4 0.652217 0.663531 0.118037
Si Si5 0.822317 0.332004 0.610675
Si Si6 0.751900 0.827498 0.154385
Si Si7 0.545040 0.667787 0.198455
Si Si8 0.685914 0.174275 0.633091
O O1 0.157959 0.500000 0.119389
O O2 0.155909 0.741579 0.233454
O O3 0.207799 0.754233 0.146203
O O4 0.029749 0.713965 0.820235
O O5 0.500000 0.241200 0.500000
O O6 0.373776 0.227823 0.392116
O O7 0.404621 0.000000 0.335933
O O8 0.306958 0.228950 0.068263
O O9 0.099076 0.500000 0.435227
O O10 0.115268 0.735402 0.353134
O O11 0.145090 0.746501 0.617734
O O12 0.680544 0.500000 0.134935
O O13 0.708475 0.684593 0.344792
O O14 0.683906 0.791179 0.108077
O O15 0.538455 0.673924 0.891865
O O16 0.855379 0.500000 0.692227
O O17 0.771780 0.000000 0.191066
O O18 0.582384 0.500000 0.260328
O O19 0.631879 0.769421 0.417956
O O20 0.500000 0.732514 0.000000
O O21 0.696119 0.000000 0.652363
#
# Coordination Sequence:
#
# PCOD8061353 Si02
#       8
#     4   4   4   4   4   4   4   4
#     4  10  19  34  55  76 104 143 180 214 258 313
#     4   9  19  37  58  77 100 135 175 213 260 319
#     4   9  18  33  54  79 106 138 178 220 257 301
#     4   9  17  30  50  76 104 132 167 214 259 302
#     4   8  14  28  52  78 102 135 177 210 243 298
#     4  10  19  33  55  78 101 132 171 216 266 316
#     4  10  20  35  54  75 104 143 179 207 245 308
#     4  11  23  37  54  78 107 136 173 223 269 311
#
# _framework density 19.517771
#
# number of rings (size 3 to 8) (size 9 to 14) (size 15 to 20)
#    0.000    2.500    0.000    3.375    0.000    5.750 
#    0.000    8.125    0.000   12.000    0.000    0.000 
#    0.000    0.000    0.000    0.000    0.000    0.000 
#
# Total GULP energy -396661.913449 kJ/mol
# GULP energy per Si atom -12395.684795 kJ/mol
# Density = 1.947335 g / cm^3
# Si number density = 19.517771 Si / 1000 Ang^3
#
#
#
# Elastic Constant Matrix: (Units=GPa)
#
#
# Indices 1 2 3 4 5 6 
#
# 1 85.2440 26.6189 51.7463 0.0000 7.6919 0.0000
# 2 26.6189 46.3181 39.9353 0.0000 2.5725 0.0000
# 3 51.7463 39.9353 127.1822 0.0000 4.8208 0.0000
# 4 0.0000 0.0000 0.0000 28.1517 0.0000 2.8971
# 5 7.6919 2.5725 4.8208 0.0000 35.3412 0.0000
# 6 0.0000 0.0000 0.0000 2.8971 0.0000 24.2204
#
#
#
# Elastic Compliance Matrix: (Units=1/GPa)
#
#
# Indices 1 2 3 4 5 6 
#
# 1 0.016618 -0.005022 -0.005088 0.000000 -0.002557 0.000000
# 2 -0.005022 0.031150 -0.007733 0.000000 -0.000119 0.000000
# 3 -0.005088 -0.007733 0.012362 0.000000 -0.000016 0.000000
# 4 0.000000 0.000000 0.000000 0.035965 0.000000 -0.004302
# 5 -0.002557 -0.000119 -0.000016 0.000000 0.028863 0.000000
# 6 0.000000 0.000000 0.000000 -0.004302 0.000000 0.041802
#
#
# Mechanical properties :
#
#
# Convention : Reuss Voigt Hill
#
# Bulk Modulus (GPa) = 40.90935 55.03837 47.97386
# Shear Modulus (GPa) = 23.74233 26.90557 25.32395
#
# Velocity S-wave (km/s) = 3.49154 3.71687 3.60596
# Velocity P-wave (km/s) = 6.10410 6.83231 6.47844
#
# Compressibility (1/GPa) = 0.02444429
#
# Stress axis : x y z
#
# Youngs Moduli (GPa) = 60.17431 32.10237 80.89547
#
# Poissons Ratio (x) = 0.16122 0.41157
# Poissons Ratio (y) = 0.30219 0.62560
# Poissons Ratio (z) = 0.30614 0.24826
#
# Static dielectric constant tensor:
#      x y z
#    x 3.522390 0.000000 0.048370 
#    y 0.000000 3.172550 0.000000 
#    z 0.048370 0.000000 3.727770 
# 
# 
# High freq. dielectric constant tensor:
#      x y z
#    x 1.746760 0.000000 0.010140 
#    y 0.000000 1.720790 0.000000 
#    z 0.010140 0.000000 1.770000 
# 
# From -- ./inp_files/58340.got.cif
#   From: 2010.06.25/outbox.cif.g09.slc.cpg/sg10_30_cif.got.tgz:58340.got - 2010.06.27 22:07:45.
