data_PCOD8061364
_publ_section_title
;
Structure prediction by ZEFSAII (Michael W. Deem and Ramdas Pophale) SiO2 
 PCOD8061364
Probable space group: P 2/M
;
_chemical_formula_sum "Si O2"
_cell_formula_units_Z 32
_cell_length_a 14.155173
_cell_length_b 8.981133
_cell_length_c 20.681731
_cell_angle_alpha 90.000000
_cell_angle_beta 39.828844
_cell_angle_gamma 90.000000
_cell_volume 1684.030220
_symmetry_space_group_name_H-M "P 2/M"
_symmetry_group_IT_number 10
_symmetry_cell_setting 'monoclinic'
loop_
_space_group_symop_operation_xyz
x,y,z
-x,y,-z
-x,-y,-z
x,-y,z
loop_
_atom_site_type_symbol
_atom_site_label
_atom_site_fract_x
_atom_site_fract_y
_atom_site_fract_z
Si Si1 0.329991 0.174070 0.075261
Si Si2 0.146937 0.325631 0.792011
Si Si3 0.174791 0.168103 0.401640
Si Si4 0.824808 0.168011 0.094968
Si Si5 0.159157 0.326099 0.280959
Si Si6 0.184408 0.326476 0.524520
Si Si7 0.804680 0.674997 0.976315
Si Si8 0.662762 0.677195 0.427359
O O1 0.230495 0.248204 0.182183
O O2 0.294105 0.246146 0.025334
O O3 0.293905 0.000000 0.091992
O O4 0.500000 0.205882 0.000000
O O5 0.170634 0.500000 0.790718
O O6 0.222391 0.243660 0.813044
O O7 0.228338 0.265168 0.685617
O O8 0.975389 0.287547 0.873173
O O9 0.227255 0.258732 0.311043
O O10 0.242060 0.241625 0.430622
O O11 0.000000 0.174569 0.500000
O O12 0.232979 0.000000 0.364568
O O13 0.763907 0.000000 0.124018
O O14 0.756995 0.260689 0.071074
O O15 0.000000 0.171788 0.000000
O O16 0.195434 0.500000 0.259619
O O17 0.985414 0.294353 0.369752
O O18 0.209903 0.500000 0.498573
O O19 0.280371 0.264191 0.533561
O O20 0.773953 0.500000 0.991240
O O21 0.500000 0.741032 0.500000
O O22 0.663403 0.500000 0.427449
#
# Coordination Sequence:
#
# PCOD8061364 Si02
#       8
#     4   4   4   4   4   4   4   4
#     4  11  24  39  53  73 104 137 168 208 258 311
#     4   9  17  31  52  78 104 132 171 215 255 297
#     4   9  17  30  50  77 105 132 166 210 259 306
#     4   9  17  30  50  77 105 132 166 210 259 306
#     4  10  19  33  55  79 102 131 169 212 255 303
#     4   9  17  31  52  78 104 132 171 215 255 297
#     4  10  19  33  55  79 102 131 169 212 255 303
#     4   9  17  30  49  73 102 135 170 208 248 291
#
# _framework density 19.002034999999999
#
# number of rings (size 3 to 8) (size 9 to 14) (size 15 to 20)
#    0.000    2.500    0.000    2.625    0.000    7.000 
#    0.000    1.875    0.000    6.000    0.000    0.000 
#    0.000    0.000    0.000    0.000    0.000    0.000 
#
# Total GULP energy -396838.983865 kJ/mol
# GULP energy per Si atom -12401.218246 kJ/mol
# Density = 1.895879 g / cm^3
# Si number density = 19.002035 Si / 1000 Ang^3
#
#
#
# Elastic Constant Matrix: (Units=GPa)
#
#
# Indices 1 2 3 4 5 6 
#
# 1 157.6329 68.8982 58.2411 0.0000 35.8575 0.0000
# 2 68.8982 100.6272 28.4177 0.0000 10.5822 0.0000
# 3 58.2411 28.4177 28.8746 0.0000 15.4626 0.0000
# 4 0.0000 0.0000 0.0000 20.5238 0.0000 6.9255
# 5 35.8575 10.5822 15.4626 0.0000 29.9491 0.0000
# 6 0.0000 0.0000 0.0000 6.9255 0.0000 25.0579
#
#
#
# Elastic Compliance Matrix: (Units=1/GPa)
#
#
# Indices 1 2 3 4 5 6 
#
# 1 0.027067 -0.004750 -0.046253 0.000000 -0.006848 0.000000
# 2 -0.004750 0.014787 -0.007214 0.000000 0.004187 0.000000
# 3 -0.046253 -0.007214 0.143751 0.000000 -0.016291 0.000000
# 4 0.000000 0.000000 0.000000 0.053735 0.000000 -0.014851
# 5 -0.006848 0.004187 -0.016291 0.000000 0.048521 0.000000
# 6 0.000000 0.000000 0.000000 -0.014851 0.000000 0.044012
#
#
# Mechanical properties :
#
#
# Convention : Reuss Voigt Hill
#
# Bulk Modulus (GPa) = 14.45703 66.47208 40.46455
# Shear Modulus (GPa) = 10.60749 23.87801 17.24275
#
# Velocity S-wave (km/s) = 2.36525 3.54871 3.01560
# Velocity P-wave (km/s) = 3.88380 7.20060 5.78500
#
# Compressibility (1/GPa) = 0.06917052
#
# Stress axis : x y z
#
# Youngs Moduli (GPa) = 36.94507 67.62702 6.95647
#
# Poissons Ratio (x) = 0.32124 0.32176
# Poissons Ratio (y) = 0.17550 0.05018
# Poissons Ratio (z) = 1.70883 0.48785
#
# Static dielectric constant tensor:
#      x y z
#    x 3.601250 0.000000 0.261470 
#    y 0.000000 3.463010 0.000000 
#    z 0.261470 0.000000 3.357280 
# 
# 
# High freq. dielectric constant tensor:
#      x y z
#    x 1.739280 0.000000 0.027430 
#    y 0.000000 1.732800 0.000000 
#    z 0.027430 0.000000 1.721930 
# 
# From -- ./inp_files/84727.got.cif
#   From: 2010.06.25/outbox.cif.g09.slc.cpg/sg10_43_cif.got.tgz:84727.got - 2010.06.27 22:07:45.
