data_PCOD8061576
_publ_section_title
;
Structure prediction by ZEFSAII (Michael W. Deem and Ramdas Pophale) SiO2 
 PCOD8061576
Probable space group: P 2/M
;
_chemical_formula_sum "Si O2"
_cell_formula_units_Z 28
_cell_length_a 29.364760
_cell_length_b 8.732097
_cell_length_c 9.845602
_cell_angle_alpha 90.000000
_cell_angle_beta 146.606407
_cell_angle_gamma 90.000000
_cell_volume 1389.491042
_symmetry_space_group_name_H-M "P 2/M"
_symmetry_group_IT_number 10
_symmetry_cell_setting 'monoclinic'
loop_
_space_group_symop_operation_xyz
x,y,z
-x,y,-z
-x,-y,-z
x,-y,z
loop_
_atom_site_type_symbol
_atom_site_label
_atom_site_fract_x
_atom_site_fract_y
_atom_site_fract_z
Si Si1 0.119950 0.318017 0.048364
Si Si2 0.498312 0.680402 0.153147
Si Si3 0.194608 0.321790 0.510544
Si Si4 0.636455 0.177965 0.998840
Si Si5 0.634377 0.820929 0.686842
Si Si6 0.809813 0.318001 0.059219
Si Si7 0.936297 0.321836 0.593368
O O1 0.112314 0.500000 0.034768
O O2 0.167518 0.260491 0.034097
O O3 0.027466 0.245817 0.823609
O O4 0.176097 0.262762 0.313133
O O5 0.510864 0.500000 0.190941
O O6 0.571298 0.757916 0.419062
O O7 0.500000 0.735835 0.000000
O O8 0.411912 0.724875 0.008339
O O9 0.220730 0.500000 0.582064
O O10 0.267275 0.220910 0.754680
O O11 0.109539 0.293443 0.378976
O O12 0.623904 0.000000 0.000928
O O13 0.603868 0.214256 0.765033
O O14 0.643246 0.000000 0.686128
O O15 0.722252 0.745014 0.884540
O O16 0.805375 0.500000 0.058151
O O17 0.880608 0.251017 0.334446
O O18 0.947466 0.500000 0.590528
#
# Coordination Sequence:
#
# PCOD8061576 Si02
#       7
#     4   4   4   4   4   4   4
#     4   9  18  30  51  84 119 152 195 253 304 345
#     4  11  26  45  68  96 122 147 186 241 296 352
#     4  10  19  33  56  85 117 154 200 250 296 345
#     4  11  24  42  63  88 122 161 200 239 287 350
#     4  11  24  42  63  88 122 161 200 239 287 350
#     4  10  19  33  56  85 117 154 200 250 296 345
#     4   9  16  30  53  82 115 154 199 249 302 345
#
# _framework density 20.151264000000001
#
# number of rings (size 3 to 8) (size 9 to 14) (size 15 to 20)
#    0.000    1.857    1.429    2.571    2.000    8.000 
#    0.000    0.000    0.000    5.143    0.000    0.000 
#    0.000    0.000    0.000    0.000    0.000    0.000 
#
# Total GULP energy -347200.256466 kJ/mol
# GULP energy per Si atom -12400.009159 kJ/mol
# Density = 2.010540 g / cm^3
# Si number density = 20.151264 Si / 1000 Ang^3
#
#
#
# Elastic Constant Matrix: (Units=GPa)
#
#
# Indices 1 2 3 4 5 6 
#
# 1 130.3347 71.7391 73.1014 0.0000 -22.2425 0.0000
# 2 71.7391 126.7135 90.8520 0.0000 -16.3320 0.0000
# 3 73.1014 90.8520 159.1913 0.0000 -23.6157 0.0000
# 4 0.0000 0.0000 0.0000 -2.8266 0.0000 -21.9973
# 5 -22.2425 -16.3320 -23.6157 0.0000 41.6533 0.0000
# 6 0.0000 0.0000 0.0000 -21.9973 0.0000 1.0387
#
#
#
# Elastic Compliance Matrix: (Units=1/GPa)
#
#
# Indices 1 2 3 4 5 6 
#
# 1 0.012200 -0.004767 -0.002394 0.000000 0.003288 0.000000
# 2 -0.004767 0.015258 -0.006561 0.000000 -0.000283 0.000000
# 3 -0.002394 -0.006561 0.011524 0.000000 0.002682 0.000000
# 4 0.000000 0.000000 0.000000 -0.002134 0.000000 -0.045186
# 5 0.003288 -0.000283 0.002682 0.000000 0.027174 0.000000
# 6 0.000000 0.000000 0.000000 -0.045186 0.000000 0.005806
#
#
# Mechanical properties :
#
#
# Convention : Reuss Voigt Hill
#
# Bulk Modulus (GPa) = 86.66891 98.62494 92.64692
# Shear Modulus (GPa) = 49.44686 20.00955 34.72820
#
# Velocity S-wave (km/s) = 4.95894 3.15456 4.15586
# Velocity P-wave (km/s) = 8.71153 7.89410 8.31287
#
# Compressibility (1/GPa) = 0.01153816
#
# Stress axis : x y z
#
# Youngs Moduli (GPa) = 81.96497 65.53800 86.77903
#
# Poissons Ratio (x) = 0.31241 0.20776
# Poissons Ratio (y) = 0.39071 0.56936
# Poissons Ratio (z) = 0.19624 0.43000
#
# Static dielectric constant tensor:
#      x y z
#    x 4.008270 0.000000 -0.135960 
#    y 0.000000 3.292320 0.000000 
#    z -0.135960 0.000000 3.879760 
# 
# 
# High freq. dielectric constant tensor:
#      x y z
#    x 1.801100 0.000000 -0.003820 
#    y 0.000000 1.746970 0.000000 
#    z -0.003820 0.000000 1.802820 
# 
# From -- ./inp_files/37344.got.cif
#   From: 2010.06.25/outbox.cif.g09.slc.cpg/sg10_19_cif.got.tgz:37344.got - 2010.06.27 22:07:45.
