data_PCOD8061550
_publ_section_title
;
Structure prediction by ZEFSAII (Michael W. Deem and Ramdas Pophale) SiO2 
 PCOD8061550
Probable space group: P 2/M
;
_chemical_formula_sum "Si O2"
_cell_formula_units_Z 32
_cell_length_a 24.099066
_cell_length_b 9.002056
_cell_length_c 24.168254
_cell_angle_alpha 90.000000
_cell_angle_beta 18.666514
_cell_angle_gamma 90.000000
_cell_volume 1678.099520
_symmetry_space_group_name_H-M "P 2/M"
_symmetry_group_IT_number 10
_symmetry_cell_setting 'monoclinic'
loop_
_space_group_symop_operation_xyz
x,y,z
-x,y,-z
-x,-y,-z
x,-y,z
loop_
_atom_site_type_symbol
_atom_site_label
_atom_site_fract_x
_atom_site_fract_y
_atom_site_fract_z
Si Si1 0.653201 0.172257 0.522382
Si Si2 0.093649 0.325190 0.967131
Si Si3 0.372827 0.177147 0.870903
Si Si4 0.842093 0.672498 0.723608
Si Si5 0.022008 0.823514 0.146710
Si Si6 0.443411 0.171734 0.614559
Si Si7 0.430823 0.175931 0.940165
Si Si8 0.769941 0.327491 0.665396
O O1 0.524111 0.247245 0.689077
O O2 0.598913 0.202082 0.510254
O O3 0.851184 0.227254 0.342494
O O4 0.643532 0.000000 0.544896
O O5 0.078482 0.500000 0.989123
O O6 0.291957 0.277758 0.777561
O O7 0.003603 0.246665 0.103761
O O8 0.000000 0.270057 0.000000
O O9 0.400569 0.235214 0.906694
O O10 0.371718 0.000000 0.870237
O O11 0.189164 0.236902 0.021503
O O12 0.813071 0.500000 0.764232
O O13 0.778439 0.709100 0.722156
O O14 0.045842 0.713761 0.537039
O O15 0.728507 0.768020 0.872649
O O16 0.027903 0.000000 0.133530
O O17 0.500000 0.219236 0.500000
O O18 0.382850 0.000000 0.673569
O O19 0.617477 0.231694 0.783405
O O20 0.431976 0.000000 0.941855
O O21 0.728066 0.500000 0.695801
#
# Coordination Sequence:
#
# PCOD8061550 Si02
#       8
#     4   4   4   4   4   4   4   4
#     4   9  17  32  56  82 103 130 175 227 271 311
#     4  11  23  36  51  77 114 145 170 210 273 339
#     4   9  19  35  53  79 112 145 181 223 273 330
#     4   9  19  37  59  81 110 151 196 237 277 329
#     4  10  19  36  62  80  99 137 183 229 267 308
#     4  10  19  33  56  84 107 131 177 227 263 315
#     4  11  22  33  53  86 119 149 185 231 289 345
#     4   9  19  37  59  81 109 151 197 236 278 329
#
# _framework density 19.069189999999999
#
# number of rings (size 3 to 8) (size 9 to 14) (size 15 to 20)
#    0.000    2.250    1.250    2.625    0.000    5.750 
#    0.000    5.625    0.000    0.000    0.000    0.000 
#    0.000    0.000    0.000    0.000    0.000    0.000 
#
# Total GULP energy -396756.445982 kJ/mol
# GULP energy per Si atom -12398.638937 kJ/mol
# Density = 1.902579 g / cm^3
# Si number density = 19.069190 Si / 1000 Ang^3
#
#
#
# Elastic Constant Matrix: (Units=GPa)
#
#
# Indices 1 2 3 4 5 6 
#
# 1 124.1566 38.3674 85.8170 0.0000 9.1123 0.0000
# 2 38.3674 42.5522 39.1069 0.0000 0.8530 0.0000
# 3 85.8170 39.1069 173.0314 0.0000 -0.5774 0.0000
# 4 0.0000 0.0000 0.0000 13.7927 0.0000 -2.8004
# 5 9.1123 0.8530 -0.5774 0.0000 21.1490 0.0000
# 6 0.0000 0.0000 0.0000 -2.8004 0.0000 9.9038
#
#
#
# Elastic Compliance Matrix: (Units=1/GPa)
#
#
# Indices 1 2 3 4 5 6 
#
# 1 0.014878 -0.008191 -0.005549 0.000000 -0.006231 0.000000
# 2 -0.008191 0.034211 -0.003663 0.000000 0.002049 0.000000
# 3 -0.005549 -0.003663 0.009368 0.000000 0.002794 0.000000
# 4 0.000000 0.000000 0.000000 0.076918 0.000000 0.021750
# 5 -0.006231 0.002049 0.002794 0.000000 0.049962 0.000000
# 6 0.000000 0.000000 0.000000 0.021750 0.000000 0.107121
#
#
# Mechanical properties :
#
#
# Convention : Reuss Voigt Hill
#
# Bulk Modulus (GPa) = 42.27779 74.03587 58.15683
# Shear Modulus (GPa) = 14.91880 20.73234 17.82557
#
# Velocity S-wave (km/s) = 2.80009 3.30087 3.06074
# Velocity P-wave (km/s) = 5.71602 7.31005 6.56162
#
# Compressibility (1/GPa) = 0.02365308
#
# Stress axis : x y z
#
# Youngs Moduli (GPa) = 67.21371 29.23042 106.74226
#
# Poissons Ratio (x) = 0.23941 0.59226
# Poissons Ratio (y) = 0.55052 0.39100
# Poissons Ratio (z) = 0.37294 0.10707
#
# Static dielectric constant tensor:
#      x y z
#    x 3.616680 0.000000 0.055250 
#    y 0.000000 3.133260 0.000000 
#    z 0.055250 0.000000 3.811620 
# 
# 
# High freq. dielectric constant tensor:
#      x y z
#    x 1.741360 0.000000 -0.001600 
#    y 0.000000 1.707350 0.000000 
#    z -0.001600 0.000000 1.759150 
# 
# From -- ./inp_files/90578.got.cif
#   From: 2010.06.25/outbox.cif.g09.slc.cpg/sg10_46_cif.got.tgz:90578.got - 2010.06.27 22:07:45.
