data_PCOD8061890
_publ_section_title
;
Structure prediction by ZEFSAII (Michael W. Deem and Ramdas Pophale) SiO2 
 PCOD8061890
Probable space group: P 2/M
;
_chemical_formula_sum "Si O2"
_cell_formula_units_Z 28
_cell_length_a 19.593041
_cell_length_b 9.008885
_cell_length_c 17.955743
_cell_angle_alpha 90.000000
_cell_angle_beta 151.539786
_cell_angle_gamma 90.000000
_cell_volume 1510.369770
_symmetry_space_group_name_H-M "P 2/M"
_symmetry_group_IT_number 10
_symmetry_cell_setting 'monoclinic'
loop_
_space_group_symop_operation_xyz
x,y,z
-x,y,-z
-x,-y,-z
x,-y,z
loop_
_atom_site_type_symbol
_atom_site_label
_atom_site_fract_x
_atom_site_fract_y
_atom_site_fract_z
Si Si1 0.226251 0.671171 0.520390
Si Si2 0.536289 0.324784 0.771107
Si Si3 0.892528 0.177054 0.957391
Si Si4 0.779577 0.834988 0.101190
Si Si5 0.428269 0.176495 0.352868
Si Si6 0.016981 0.324369 0.600587
Si Si7 0.964145 0.161943 0.762313
O O1 0.197030 0.500000 0.481970
O O2 0.395633 0.705186 0.687758
O O3 0.129961 0.727254 0.497930
O O4 0.173641 0.745850 0.393614
O O5 0.564972 0.500000 0.789827
O O6 0.512953 0.255145 0.665991
O O7 0.665203 0.250960 0.940651
O O8 0.733216 0.233602 0.791239
O O9 0.891023 0.000000 0.957669
O O10 0.951960 0.243690 0.091132
O O11 0.000000 0.242036 0.000000
O O12 0.832616 0.744430 0.224761
O O13 0.926471 0.855039 0.199283
O O14 0.719737 0.000000 0.064258
O O15 0.500000 0.225276 0.500000
O O16 0.442273 0.000000 0.354057
O O17 0.035734 0.500000 0.623789
O O18 0.000000 0.269205 0.500000
O O19 0.908286 0.000000 0.734680
#
# Coordination Sequence:
#
# PCOD8061890 Si02
#       7
#     4   4   4   4   4   4   4
#     4   9  20  35  52  78 108 137 176 218 261 316
#     4  11  22  36  54  76 110 148 180 220 267 320
#     4   9  17  30  48  73 101 128 169 221 268 314
#     4  10  19  34  56  81 108 139 179 221 262 315
#     4  10  21  36  54  76 104 140 182 227 273 319
#     4   9  18  36  61  85 110 141 177 217 265 321
#     4   9  17  31  52  75  99 131 174 222 266 311
#
# _framework density 18.538508
#
# number of rings (size 3 to 8) (size 9 to 14) (size 15 to 20)
#    0.000    2.429    1.429    0.857    2.000    2.286 
#    0.000    0.714    0.000    5.143    0.000    0.000 
#    0.000    0.000    0.000    0.000    0.000    0.000 
#
# Total GULP energy -346875.807619 kJ/mol
# GULP energy per Si atom -12388.421701 kJ/mol
# Density = 1.849631 g / cm^3
# Si number density = 18.538508 Si / 1000 Ang^3
#
#
#
# Elastic Constant Matrix: (Units=GPa)
#
#
# Indices 1 2 3 4 5 6 
#
# 1 86.5346 33.0442 53.5678 0.0000 -8.8067 0.0000
# 2 33.0442 59.5605 45.7532 0.0000 -3.5625 0.0000
# 3 53.5678 45.7532 118.8242 0.0000 -18.7481 0.0000
# 4 0.0000 0.0000 0.0000 14.2951 0.0000 -3.5580
# 5 -8.8067 -3.5625 -18.7481 0.0000 35.7760 0.0000
# 6 0.0000 0.0000 0.0000 -3.5580 0.0000 15.3923
#
#
#
# Elastic Compliance Matrix: (Units=1/GPa)
#
#
# Indices 1 2 3 4 5 6 
#
# 1 0.017052 -0.005114 -0.005599 0.000000 0.000754 0.000000
# 2 -0.005114 0.025609 -0.008014 0.000000 -0.002909 0.000000
# 3 -0.005599 -0.008014 0.014916 0.000000 0.005640 0.000000
# 4 0.000000 0.000000 0.000000 0.074224 0.000000 0.017157
# 5 0.000754 -0.002909 0.005640 0.000000 0.030803 0.000000
# 6 0.000000 0.000000 0.000000 0.017157 0.000000 0.068933
#
#
# Mechanical properties :
#
#
# Convention : Reuss Voigt Hill
#
# Bulk Modulus (GPa) = 49.69686 58.84997 54.27341
# Shear Modulus (GPa) = 18.13566 21.92962 20.03264
#
# Velocity S-wave (km/s) = 3.13112 3.44310 3.29081
# Velocity P-wave (km/s) = 6.31961 6.90074 6.61656
#
# Compressibility (1/GPa) = 0.02012200
#
# Stress axis : x y z
#
# Youngs Moduli (GPa) = 58.64529 39.04819 67.04343
#
# Poissons Ratio (x) = 0.19970 0.37538
# Poissons Ratio (y) = 0.29992 0.53730
# Poissons Ratio (z) = 0.32835 0.31294
#
# Static dielectric constant tensor:
#      x y z
#    x 3.481300 0.000000 -0.018000 
#    y 0.000000 3.459050 0.000000 
#    z -0.018000 0.000000 3.519430 
# 
# 
# High freq. dielectric constant tensor:
#      x y z
#    x 1.705430 0.000000 -0.001130 
#    y 0.000000 1.701930 0.000000 
#    z -0.001130 0.000000 1.726620 
# 
# From -- ./inp_files/79298.got.cif
#   From: 2010.06.25/outbox.cif.g09.slc.cpg/sg10_40_cif.got.tgz:79298.got - 2010.06.27 22:07:45.
