data_PCOD8061643
_publ_section_title
;
Structure prediction by ZEFSAII (Michael W. Deem and Ramdas Pophale) SiO2 
 PCOD8061643
Probable space group: P 2/M
;
_chemical_formula_sum "Si O2"
_cell_formula_units_Z 24
_cell_length_a 14.953843
_cell_length_b 8.517445
_cell_length_c 9.575120
_cell_angle_alpha 90.000000
_cell_angle_beta 98.195578
_cell_angle_gamma 90.000000
_cell_volume 1207.113839
_symmetry_space_group_name_H-M "P 2/M"
_symmetry_group_IT_number 10
_symmetry_cell_setting 'monoclinic'
loop_
_space_group_symop_operation_xyz
x,y,z
-x,y,-z
-x,-y,-z
x,-y,z
loop_
_atom_site_type_symbol
_atom_site_label
_atom_site_fract_x
_atom_site_fract_y
_atom_site_fract_z
Si Si1 0.919130 0.315611 0.885052
Si Si2 0.547312 0.812468 0.371978
Si Si3 0.238023 0.187100 0.963897
Si Si4 0.915040 0.813760 0.571321
Si Si5 0.252219 0.813424 0.648675
Si Si6 0.570249 0.816686 0.898580
O O1 0.926366 0.500000 0.865440
O O2 0.921668 0.240199 0.732400
O O3 0.830021 0.271102 0.948064
O O4 0.000000 0.250884 0.000000
O O5 0.500000 0.752560 0.500000
O O6 0.649106 0.745662 0.373248
O O7 0.475810 0.741461 0.246851
O O8 0.552746 0.000000 0.362105
O O9 0.225529 0.240137 0.799791
O O10 0.228809 0.000000 0.974859
O O11 0.333523 0.254467 0.039135
O O12 0.823160 0.750282 0.477019
O O13 0.000000 0.750252 0.500000
O O14 0.914973 0.000000 0.570687
O O15 0.256071 0.000000 0.645421
O O16 0.585176 0.000000 0.880163
O O17 0.500000 0.776996 0.000000
#
# Coordination Sequence:
#
# PCOD8061643 Si02
#       6
#     4   4   4   4   4   4
#     4  11  25  42  58  79 108 144 186 228 274 331
#     4   9  16  24  39  70 114 150 175 211 262 321
#     4  10  19  33  58  86 113 144 183 230 275 320
#     4  10  21  37  59  86 113 139 175 225 279 330
#     4   9  17  30  49  80 116 145 175 219 275 326
#     4   9  15  26  45  77 114 146 178 217 268 321
#
# _framework density 19.882135000000002
#
# number of rings (size 3 to 8) (size 9 to 14) (size 15 to 20)
#    0.000    2.333    1.667    1.500    2.333    3.000 
#    0.000    0.833    0.000    0.500    0.000    1.167 
#    0.000    0.000    0.000    0.000    0.000    0.000 
#
# Total GULP energy -297407.883692 kJ/mol
# GULP energy per Si atom -12391.995154 kJ/mol
# Density = 1.983688 g / cm^3
# Si number density = 19.882135 Si / 1000 Ang^3
#
#
#
# Elastic Constant Matrix: (Units=GPa)
#
#
# Indices 1 2 3 4 5 6 
#
# 1 163.1012 6.5897 91.0889 0.0000 11.2797 0.0000
# 2 6.5897 6.2474 4.7727 0.0000 4.4062 0.0000
# 3 91.0889 4.7727 193.2936 0.0000 9.1998 0.0000
# 4 0.0000 0.0000 0.0000 8.5670 0.0000 4.5088
# 5 11.2797 4.4062 9.1998 0.0000 49.0526 0.0000
# 6 0.0000 0.0000 0.0000 4.5088 0.0000 5.1411
#
#
#
# Elastic Compliance Matrix: (Units=1/GPa)
#
#
# Indices 1 2 3 4 5 6 
#
# 1 0.008565 -0.005557 -0.003863 0.000000 -0.000746 0.000000
# 2 -0.005557 0.176906 -0.001064 0.000000 -0.014414 0.000000
# 3 -0.003863 -0.001064 0.007036 0.000000 -0.000336 0.000000
# 4 0.000000 0.000000 0.000000 0.216792 0.000000 -0.190130
# 5 -0.000746 -0.014414 -0.000336 0.000000 0.021915 0.000000
# 6 0.000000 0.000000 0.000000 -0.190130 0.000000 0.361258
#
#
# Mechanical properties :
#
#
# Convention : Reuss Voigt Hill
#
# Bulk Modulus (GPa) = 5.82954 63.06055 34.44504
# Shear Modulus (GPa) = 5.74303 29.89819 17.82061
#
# Velocity S-wave (km/s) = 1.70141 3.88206 2.99710
# Velocity P-wave (km/s) = 2.60733 7.20277 5.41655
#
# Compressibility (1/GPa) = 0.17154021
#
# Stress axis : x y z
#
# Youngs Moduli (GPa) = 116.75521 5.65271 142.11876
#
# Poissons Ratio (x) = 0.03141 0.54907
# Poissons Ratio (y) = 0.64877 0.15115
# Poissons Ratio (z) = 0.45108 0.00601
#
# Static dielectric constant tensor:
#      x y z
#    x 4.004760 0.000000 0.221270 
#    y 0.000000 2.958610 0.000000 
#    z 0.221270 0.000000 3.846630 
# 
# 
# High freq. dielectric constant tensor:
#      x y z
#    x 1.796310 0.000000 0.005280 
#    y 0.000000 1.707960 0.000000 
#    z 0.005280 0.000000 1.794970 
# 
# From -- ./inp_files/27235.got.cif
#   From: 2010.06.25/outbox.cif.g09.slc.cpg/sg10_14_cif.got.tgz:27235.got - 2010.06.27 22:07:45.
