data_PCOD8061435
_publ_section_title
;
Structure prediction by ZEFSAII (Michael W. Deem and Ramdas Pophale) SiO2 
 PCOD8061435
Probable space group: P 2/M
;
_chemical_formula_sum "Si O2"
_cell_formula_units_Z 28
_cell_length_a 27.664913
_cell_length_b 8.904270
_cell_length_c 7.929836
_cell_angle_alpha 90.000000
_cell_angle_beta 45.552750
_cell_angle_gamma 90.000000
_cell_volume 1394.525457
_symmetry_space_group_name_H-M "P 2/M"
_symmetry_group_IT_number 10
_symmetry_cell_setting 'monoclinic'
loop_
_space_group_symop_operation_xyz
x,y,z
-x,y,-z
-x,-y,-z
x,-y,z
loop_
_atom_site_type_symbol
_atom_site_label
_atom_site_fract_x
_atom_site_fract_y
_atom_site_fract_z
Si Si1 0.354901 0.673053 0.683830
Si Si2 0.783982 0.828126 0.477827
Si Si3 0.657886 0.323590 0.908110
Si Si4 0.067879 0.672776 0.265994
Si Si5 0.577669 0.176483 0.796637
Si Si6 0.212835 0.325044 0.886453
Si Si7 0.931566 0.168834 0.069034
O O1 0.372764 0.500000 0.603889
O O2 0.374002 0.716676 0.830267
O O3 0.395913 0.771448 0.450285
O O4 0.274495 0.701179 0.862932
O O5 0.774385 0.774184 0.309456
O O6 0.862522 0.811128 0.346953
O O7 0.760164 0.000000 0.544714
O O8 0.735619 0.731716 0.716723
O O9 0.656936 0.500000 0.880756
O O10 0.616727 0.248939 0.857491
O O11 0.059670 0.500000 0.330465
O O12 0.000000 0.758248 0.500000
O O13 0.142097 0.726763 0.151903
O O14 0.070160 0.700359 0.062409
O O15 0.587490 0.000000 0.785628
O O16 0.500000 0.225271 0.000000
O O17 0.206954 0.500000 0.846662
O O18 0.931290 0.000000 0.991050
O O19 0.000000 0.196709 0.000000
#
# Coordination Sequence:
#
# PCOD8061435 Si02
#       7
#     4   4   4   4   4   4   4
#     4  10  22  39  62  91 121 158 202 246 292 353
#     4  10  19  33  55  81 110 151 200 247 298 352
#     4  11  23  39  62  93 125 158 199 244 295 357
#     4   9  18  31  49  75 107 144 188 239 291 343
#     4  11  25  44  66  92 124 160 197 245 300 352
#     4   9  17  33  55  78 109 150 194 242 296 351
#     4   9  19  34  50  72 107 149 193 240 290 347
#
# _framework density 20.078513999999998
#
# number of rings (size 3 to 8) (size 9 to 14) (size 15 to 20)
#    0.000    2.143    1.429    1.286    0.000    5.143 
#    0.000    4.286    0.000    0.000    0.000    0.000 
#    0.000    0.000    0.000    0.000    0.000    0.000 
#
# Total GULP energy -346941.601967 kJ/mol
# GULP energy per Si atom -12390.771499 kJ/mol
# Density = 2.003281 g / cm^3
# Si number density = 20.078514 Si / 1000 Ang^3
#
#
#
# Elastic Constant Matrix: (Units=GPa)
#
#
# Indices 1 2 3 4 5 6 
#
# 1 86.3471 34.1547 61.5086 0.0000 -7.3124 0.0000
# 2 34.1547 50.2164 46.1335 0.0000 -5.3001 0.0000
# 3 61.5086 46.1335 142.3024 0.0000 -12.8722 0.0000
# 4 0.0000 0.0000 0.0000 21.9835 0.0000 -5.1540
# 5 -7.3124 -5.3001 -12.8722 0.0000 30.3832 0.0000
# 6 0.0000 0.0000 0.0000 -5.1540 0.0000 13.1253
#
#
#
# Elastic Compliance Matrix: (Units=1/GPa)
#
#
# Indices 1 2 3 4 5 6 
#
# 1 0.018528 -0.007443 -0.005521 0.000000 0.000822 0.000000
# 2 -0.007443 0.031385 -0.006889 0.000000 0.000765 0.000000
# 3 -0.005521 -0.006889 0.011873 0.000000 0.002500 0.000000
# 4 0.000000 0.000000 0.000000 0.050101 0.000000 0.019673
# 5 0.000822 0.000765 0.002500 0.000000 0.034303 0.000000
# 6 0.000000 0.000000 0.000000 0.019673 0.000000 0.083914
#
#
# Mechanical properties :
#
#
# Convention : Reuss Voigt Hill
#
# Bulk Modulus (GPa) = 45.28761 62.49550 53.89155
# Shear Modulus (GPa) = 18.03952 22.23636 20.13794
#
# Velocity S-wave (km/s) = 3.00067 3.33148 3.17039
# Velocity P-wave (km/s) = 5.88299 6.78170 6.34827
#
# Compressibility (1/GPa) = 0.02208110
#
# Stress axis : x y z
#
# Youngs Moduli (GPa) = 53.97345 31.86215 84.22357
#
# Poissons Ratio (x) = 0.23713 0.46502
# Poissons Ratio (y) = 0.40170 0.58019
# Poissons Ratio (z) = 0.29800 0.21949
#
# Static dielectric constant tensor:
#      x y z
#    x 3.634200 0.000000 -0.347990 
#    y 0.000000 3.622360 0.000000 
#    z -0.347990 0.000000 3.934000 
# 
# 
# High freq. dielectric constant tensor:
#      x y z
#    x 1.773240 0.000000 -0.023140 
#    y 0.000000 1.779250 0.000000 
#    z -0.023140 0.000000 1.788190 
# 
# From -- ./inp_files/37899.got.cif
#   From: 2010.06.25/outbox.cif.g09.slc.cpg/sg10_19_cif.got.tgz:37899.got - 2010.06.27 22:07:45.
