data_PCOD8061187
_publ_section_title
;
Structure prediction by ZEFSAII (Michael W. Deem and Ramdas Pophale) SiO2 
 PCOD8061187
Probable space group: P 2/M
;
_chemical_formula_sum "Si O2"
_cell_formula_units_Z 28
_cell_length_a 10.112320
_cell_length_b 12.670455
_cell_length_c 15.461816
_cell_angle_alpha 90.000000
_cell_angle_beta 59.415428
_cell_angle_gamma 90.000000
_cell_volume 1705.476197
_symmetry_space_group_name_H-M "P 2/M"
_symmetry_group_IT_number 10
_symmetry_cell_setting 'monoclinic'
loop_
_space_group_symop_operation_xyz
x,y,z
-x,y,-z
-x,-y,-z
x,-y,z
loop_
_atom_site_type_symbol
_atom_site_label
_atom_site_fract_x
_atom_site_fract_y
_atom_site_fract_z
Si Si1 0.321608 0.694746 0.200644
Si Si2 0.181393 0.500000 0.940229
Si Si3 0.322651 0.881330 0.079262
Si Si4 0.167182 0.622199 0.417338
Si Si5 0.322870 0.500000 0.079638
Si Si6 0.821226 0.877847 0.053862
Si Si7 0.470322 0.622859 0.412929
Si Si8 0.361793 0.305340 0.809196
O O1 0.279805 0.806381 0.172546
O O2 0.213243 0.689630 0.319366
O O3 0.279166 0.603231 0.148089
O O4 0.499244 0.685050 0.168891
O O5 0.242775 0.397695 0.869812
O O6 0.227214 0.500000 0.024485
O O7 0.000000 0.500000 0.000000
O O8 0.283188 0.000000 0.121350
O O9 0.500000 0.867283 0.000000
O O10 0.226982 0.848588 0.027105
O O11 0.163782 0.500000 0.391387
O O12 0.290061 0.640656 0.453005
O O13 0.000000 0.662695 0.500000
O O14 0.500000 0.500000 0.000000
O O15 0.724247 0.806860 0.153097
O O16 0.785245 0.000000 0.087718
O O17 0.000000 0.851733 0.000000
O O18 0.500000 0.665054 0.500000
O O19 0.514277 0.500000 0.390073
O O20 0.576160 0.686014 0.309600
#
# Coordination Sequence:
#
# PCOD8061187 Si02
#       8
#     4   2   4   4   2   4   4   4
#     4  11  19  32  54  78  98 135 172 205 252 301
#     4  12  24  34  43  74 112 134 163 206 254 296
#     4  10  19  33  53  77 102 131 173 211 238 296
#     4   9  18  34  51  72 101 128 167 212 250 298
#     4  12  20  32  51  70 104 138 165 198 250 310
#     4  10  21  36  52  74 105 139 171 206 250 296
#     4   9  18  34  53  71  96 133 171 206 249 302
#     4  11  19  34  54  73 102 137 169 207 252 303
#
# _framework density 16.417702999999999
#
# number of rings (size 3 to 8) (size 9 to 14) (size 15 to 20)
#    0.000    1.714    4.286    1.714    0.000    0.000 
#    5.143    0.000    0.000    0.857    0.000    0.000 
#    0.000    0.000    0.000    0.000    0.000    0.000 
#
# Total GULP energy -347259.176066 kJ/mol
# GULP energy per Si atom -12402.113431 kJ/mol
# Density = 1.638034 g / cm^3
# Si number density = 16.417703 Si / 1000 Ang^3
#
#
#
# Elastic Constant Matrix: (Units=GPa)
#
#
# Indices 1 2 3 4 5 6 
#
# 1 116.8645 35.2187 66.6632 0.0000 -0.7874 0.0000
# 2 35.2187 87.7083 59.0688 0.0000 0.4393 0.0000
# 3 66.6632 59.0688 107.9156 0.0000 4.6439 0.0000
# 4 0.0000 0.0000 0.0000 17.3863 0.0000 4.3669
# 5 -0.7874 0.4393 4.6439 0.0000 30.6614 0.0000
# 6 0.0000 0.0000 0.0000 4.3669 0.0000 17.2291
#
#
#
# Elastic Compliance Matrix: (Units=1/GPa)
#
#
# Indices 1 2 3 4 5 6 
#
# 1 0.013297 0.000367 -0.008485 0.000000 0.001621 0.000000
# 2 0.000367 0.018116 -0.010198 0.000000 0.001294 0.000000
# 3 -0.008485 -0.010198 0.020225 0.000000 -0.003135 0.000000
# 4 0.000000 0.000000 0.000000 0.061427 0.000000 -0.015569
# 5 0.001621 0.001294 -0.003135 0.000000 0.033112 0.000000
# 6 0.000000 0.000000 0.000000 -0.015569 0.000000 0.061987
#
#
# Mechanical properties :
#
#
# Convention : Reuss Voigt Hill
#
# Bulk Modulus (GPa) = 66.64182 70.48773 68.56478
# Shear Modulus (GPa) = 20.01615 23.15789 21.58702
#
# Velocity S-wave (km/s) = 3.49547 3.75980 3.63004
# Velocity P-wave (km/s) = 7.54789 7.86608 7.70863
#
# Compressibility (1/GPa) = 0.01500559
#
# Stress axis : x y z
#
# Youngs Moduli (GPa) = 75.20362 55.20041 49.44469
#
# Poissons Ratio (x) = -0.02023 0.41952
# Poissons Ratio (y) = -0.02757 0.50424
# Poissons Ratio (z) = 0.63807 0.56293
#
# Static dielectric constant tensor:
#      x y z
#    x 3.141130 0.000000 0.025670 
#    y 0.000000 3.072880 0.000000 
#    z 0.025670 0.000000 2.983960 
# 
# 
# High freq. dielectric constant tensor:
#      x y z
#    x 1.637890 0.000000 0.004930 
#    y 0.000000 1.620160 0.000000 
#    z 0.004930 0.000000 1.620120 
# 
# From -- ./inp_files/60949.got.cif
#   From: 2010.06.25/outbox.cif.g09.slc.cpg/sg10_31_cif.got.tgz:60949.got - 2010.06.27 22:07:45.
