data_PCOD8061300
_publ_section_title
;
Structure prediction by ZEFSAII (Michael W. Deem and Ramdas Pophale) SiO2 
 PCOD8061300
Probable space group: P 2/M
;
_chemical_formula_sum "Si O2"
_cell_formula_units_Z 32
_cell_length_a 14.324743
_cell_length_b 15.782226
_cell_length_c 10.908245
_cell_angle_alpha 90.000000
_cell_angle_beta 137.791730
_cell_angle_gamma 90.000000
_cell_volume 1656.791141
_symmetry_space_group_name_H-M "P 2/M"
_symmetry_group_IT_number 10
_symmetry_cell_setting 'monoclinic'
loop_
_space_group_symop_operation_xyz
x,y,z
-x,y,-z
-x,-y,-z
x,-y,z
loop_
_atom_site_type_symbol
_atom_site_label
_atom_site_fract_x
_atom_site_fract_y
_atom_site_fract_z
Si Si1 0.384997 0.251880 0.091143
Si Si2 0.804753 0.737502 0.875671
Si Si3 0.684798 0.322504 0.387016
Si Si4 0.351693 0.596340 0.401893
Si Si5 0.659110 0.594760 0.117204
Si Si6 0.086476 0.782507 0.261900
Si Si7 0.092952 0.097051 0.481048
Si Si8 0.343393 0.906296 0.886268
O O1 0.331049 0.238250 0.177428
O O2 0.552553 0.258319 0.244246
O O3 0.319750 0.339842 0.974706
O O4 0.324384 0.169988 0.962863
O O5 0.775169 0.646960 0.783557
O O6 0.832942 0.802202 0.788624
O O7 0.941757 0.733918 0.093501
O O8 0.646634 0.393813 0.449688
O O9 0.733513 0.367532 0.309433
O O10 0.820801 0.273431 0.558868
O O11 0.500000 0.630975 0.500000
O O12 0.330166 0.500000 0.342562
O O13 0.714469 0.500000 0.136575
O O14 0.500000 0.589063 0.000000
O O15 0.057627 0.866498 0.312253
O O16 0.252805 0.111911 0.676174
O O17 0.000000 0.137577 0.500000
O O18 0.052717 0.000000 0.427310
O O19 0.300744 0.000000 0.899096
O O20 0.500000 0.909673 0.000000
#
# Coordination Sequence:
#
# PCOD8061300 Si02
#       8
#     4   4   4   4   4   4   4   4
#     4  11  19  33  55  78 108 142 184 224 273 326
#     4  10  22  37  52  79 107 142 181 219 270 330
#     4  10  19  33  54  80 106 144 183 224 274 329
#     4  10  19  34  56  79 103 139 187 232 265 312
#     4   9  18  30  49  79 108 134 173 227 275 318
#     4  10  21  37  54  75 112 144 173 222 278 323
#     4  10  20  36  59  84 107 140 186 227 269 329
#     4  10  20  34  54  82 111 140 179 227 278 327
#
# _framework density 19.314443000000001
#
# number of rings (size 3 to 8) (size 9 to 14) (size 15 to 20)
#    0.000    2.000    1.250    3.750    0.000    1.000 
#    0.000    7.500    0.000    0.750    0.000    5.250 
#    0.000    0.000    0.000    0.000    0.000    0.000 
#
# Total GULP energy -396556.328689 kJ/mol
# GULP energy per Si atom -12392.385272 kJ/mol
# Density = 1.927048 g / cm^3
# Si number density = 19.314443 Si / 1000 Ang^3
#
#
#
# Elastic Constant Matrix: (Units=GPa)
#
#
# Indices 1 2 3 4 5 6 
#
# 1 81.2534 36.5136 25.4853 0.0000 -12.0307 0.0000
# 2 36.5136 100.8362 44.0693 0.0000 -12.0182 0.0000
# 3 25.4853 44.0693 116.8425 0.0000 -4.8662 0.0000
# 4 0.0000 0.0000 0.0000 17.3124 0.0000 48.0582
# 5 -12.0307 -12.0182 -4.8662 0.0000 27.4603 0.0000
# 6 0.0000 0.0000 0.0000 48.0582 0.0000 -320.8837
#
#
#
# Elastic Compliance Matrix: (Units=1/GPa)
#
#
# Indices 1 2 3 4 5 6 
#
# 1 0.015429 -0.004375 -0.001525 0.000000 0.004574 0.000000
# 2 -0.004375 0.013677 -0.004065 0.000000 0.003349 0.000000
# 3 -0.001525 -0.004065 0.010399 0.000000 -0.000604 0.000000
# 4 0.000000 0.000000 0.000000 0.040800 0.000000 0.006111
# 5 0.004574 0.003349 -0.000604 0.000000 0.039779 0.000000
# 6 0.000000 0.000000 0.000000 0.006111 0.000000 -0.002201
#
#
# Mechanical properties :
#
#
# Convention : Reuss Voigt Hill
#
# Bulk Modulus (GPa) = 51.08419 56.78540 53.93480
# Shear Modulus (GPa) = 34.64125 -42.36460 -3.86168
#
# Velocity S-wave (km/s) = 4.23962 -4.68847 -1.41553
# Velocity P-wave (km/s) = 7.10436 0.39406 5.03126
#
# Compressibility (1/GPa) = 0.01957553
#
# Stress axis : x y z
#
# Youngs Moduli (GPa) = 64.81341 73.11543 96.16336
#
# Poissons Ratio (x) = 0.31991 0.14660
# Poissons Ratio (y) = 0.28359 0.39088
# Poissons Ratio (z) = 0.09881 0.29719
#
# Static dielectric constant tensor:
#      x y z
#    x 3.588570 0.000000 -0.198840 
#    y 0.000000 3.688010 0.000000 
#    z -0.198840 0.000000 3.684570 
# 
# 
# High freq. dielectric constant tensor:
#      x y z
#    x 1.740630 0.000000 -0.007420 
#    y 0.000000 1.735820 0.000000 
#    z -0.007420 0.000000 1.756980 
# 
# From -- ./inp_files/51652.got.cif
#   From: 2010.06.25/outbox.cif.g09.slc.cpg/sg10_26_cif.got.tgz:51652.got - 2010.06.27 22:07:45.
