data_PCOD8061536
_publ_section_title
;
Structure prediction by ZEFSAII (Michael W. Deem and Ramdas Pophale) SiO2 
 PCOD8061536
Probable space group: P 2/M
;
_chemical_formula_sum "Si O2"
_cell_formula_units_Z 26
_cell_length_a 22.036479
_cell_length_b 13.579804
_cell_length_c 19.570685
_cell_angle_alpha 90.000000
_cell_angle_beta 12.386892
_cell_angle_gamma 90.000000
_cell_volume 1256.299199
_symmetry_space_group_name_H-M "P 2/M"
_symmetry_group_IT_number 10
_symmetry_cell_setting 'monoclinic'
loop_
_space_group_symop_operation_xyz
x,y,z
-x,y,-z
-x,-y,-z
x,-y,z
loop_
_atom_site_type_symbol
_atom_site_label
_atom_site_fract_x
_atom_site_fract_y
_atom_site_fract_z
Si Si1 0.375313 0.390984 0.212135
Si Si2 0.124527 0.728848 0.288104
Si Si3 0.435525 0.802695 0.651057
Si Si4 0.322113 0.000000 0.626478
Si Si5 0.705333 0.888445 0.000455
Si Si6 0.084593 0.113099 0.714538
Si Si7 0.679380 0.607342 0.370752
O O1 0.309821 0.500000 0.313074
O O2 0.091744 0.327426 0.523319
O O3 0.500000 0.399686 0.000000
O O4 0.598644 0.338731 0.015509
O O5 0.000000 0.749862 0.500000
O O6 0.198993 0.832733 0.172979
O O7 0.500000 0.798549 0.500000
O O8 0.549394 0.699160 0.557995
O O9 0.597267 0.900264 0.504696
O O10 0.100454 0.816801 0.031920
O O11 0.500000 0.000000 0.500000
O O12 0.000000 0.000000 0.000000
O O13 0.405592 0.846474 0.358476
O O14 0.655693 0.000000 0.031348
O O15 0.947937 0.878767 0.789844
O O16 0.071661 0.000000 0.756422
O O17 0.500000 0.597268 0.500000
O O18 0.664683 0.500000 0.425469
O O19 0.000000 0.634395 0.000000
#
# Coordination Sequence:
#
# PCOD8061536 Si02
#       7
#     4   4   4   2   4   4   4
#     4   9  17  30  52  84 116 141 173 223 280 328
#     4  10  19  33  56  83 108 142 187 230 266 314
#     4  10  20  35  55  82 106 136 176 225 267 317
#     4  10  20  30  46  76 108 126 153 212 267 302
#     4  10  22  38  55  76 110 149 184 218 270 331
#     4  10  21  37  53  75 107 147 177 214 273 335
#     4   9  18  32  50  73 100 131 169 213 262 311
#
# _framework density 20.695706999999999
#
# number of rings (size 3 to 8) (size 9 to 14) (size 15 to 20)
#    0.000    2.308    0.769    1.846    0.000    7.077 
#    0.000    0.000    0.000   11.077    0.000    0.000 
#    0.000    0.000    0.000    0.000    0.000    0.000 
#
# Total GULP energy -322325.529434 kJ/mol
# GULP energy per Si atom -12397.135747 kJ/mol
# Density = 2.064860 g / cm^3
# Si number density = 20.695707 Si / 1000 Ang^3
#
#
#
# Elastic Constant Matrix: (Units=GPa)
#
#
# Indices 1 2 3 4 5 6 
#
# 1 20.9998 12.5134 29.1734 0.0000 7.9801 0.0000
# 2 12.5134 150.3656 34.6643 0.0000 8.7849 0.0000
# 3 29.1734 34.6643 85.1162 0.0000 -25.9846 0.0000
# 4 0.0000 0.0000 0.0000 31.6197 0.0000 -3.8280
# 5 7.9801 8.7849 -25.9846 0.0000 27.0725 0.0000
# 6 0.0000 0.0000 0.0000 -3.8280 0.0000 14.7574
#
#
#
# Elastic Compliance Matrix: (Units=1/GPa)
#
#
# Indices 1 2 3 4 5 6 
#
# 1 -0.160812 -0.022684 0.114677 0.000000 0.164831 0.000000
# 2 -0.022684 0.005373 0.010037 0.000000 0.014577 0.000000
# 3 0.114677 0.010037 -0.060762 0.000000 -0.095380 0.000000
# 4 0.000000 0.000000 0.000000 0.032651 0.000000 0.008469
# 5 0.164831 0.014577 -0.095380 0.000000 -0.107927 0.000000
# 6 0.000000 0.000000 0.000000 0.008469 0.000000 0.069960
#
#
# Mechanical properties :
#
#
# Convention : Reuss Voigt Hill
#
# Bulk Modulus (GPa) = -82.35485 45.46487 -18.44499
# Shear Modulus (GPa) = -11.63808 26.69863 7.53027
#
# Velocity S-wave (km/s) = -2.37395 3.59563 1.90957
# Velocity P-wave (km/s) = 6.88431 6.26531 2.01739
#
# Compressibility (1/GPa) = -0.01214258
#
# Stress axis : x y z
#
# Youngs Moduli (GPa) = -6.21844 186.12356 -16.45756
#
# Poissons Ratio (x) = 4.22205 1.88730
# Poissons Ratio (y) = -0.14106 0.16518
# Poissons Ratio (z) = 0.71311 -1.86810
#
# Static dielectric constant tensor:
#      x y z
#    x 3.198330 0.000000 -0.299530 
#    y 0.000000 5.230640 0.000000 
#    z -0.299530 0.000000 3.850950 
# 
# 
# High freq. dielectric constant tensor:
#      x y z
#    x 1.777170 0.000000 -0.030940 
#    y 0.000000 1.817100 0.000000 
#    z -0.030940 0.000000 1.814850 
# 
# From -- ./inp_files/86617.got.cif
#   From: 2010.06.25/outbox.cif.g09.slc.cpg/sg10_44_cif.got.tgz:86617.got - 2010.06.27 22:07:45.
