data_PCOD8061409
_publ_section_title
;
Structure prediction by ZEFSAII (Michael W. Deem and Ramdas Pophale) SiO2 
 PCOD8061409
Probable space group: P 2/M
;
_chemical_formula_sum "Si O2"
_cell_formula_units_Z 28
_cell_length_a 15.145944
_cell_length_b 9.177868
_cell_length_c 14.480430
_cell_angle_alpha 90.000000
_cell_angle_beta 46.648232
_cell_angle_gamma 90.000000
_cell_volume 1463.677168
_symmetry_space_group_name_H-M "P 2/M"
_symmetry_group_IT_number 10
_symmetry_cell_setting 'monoclinic'
loop_
_space_group_symop_operation_xyz
x,y,z
-x,y,-z
-x,-y,-z
x,-y,z
loop_
_atom_site_type_symbol
_atom_site_label
_atom_site_fract_x
_atom_site_fract_y
_atom_site_fract_z
Si Si1 0.159198 0.828058 0.683770
Si Si2 0.884441 0.672028 0.462739
Si Si3 0.048079 0.334152 0.068126
Si Si4 0.674356 0.328608 0.131885
Si Si5 0.383198 0.326938 0.030578
Si Si6 0.154309 0.327634 0.304502
Si Si7 0.613255 0.171415 0.357175
O O1 0.189507 0.757142 0.562983
O O2 0.263519 0.780282 0.680201
O O3 0.030004 0.768694 0.810231
O O4 0.153460 0.000000 0.677189
O O5 0.874083 0.500000 0.452781
O O6 0.825878 0.716664 0.602892
O O7 0.024420 0.726656 0.360424
O O8 0.038496 0.500000 0.111936
O O9 0.185808 0.278484 0.972683
O O10 0.000000 0.321190 0.000000
O O11 0.665906 0.500000 0.156276
O O12 0.604626 0.248412 0.264321
O O13 0.610999 0.282811 0.081156
O O14 0.379503 0.500000 0.042912
O O15 0.262104 0.260562 0.165004
O O16 0.500000 0.262818 0.000000
O O17 0.153574 0.500000 0.298339
O O18 0.500000 0.223273 0.500000
O O19 0.609075 0.000000 0.343162
#
# Coordination Sequence:
#
# PCOD8061409 Si02
#       7
#     4   4   4   4   4   4   4
#     4  11  22  34  52  79 108 140 178 218 263 316
#     4   9  17  31  54  77 101 135 173 215 261 311
#     4  10  19  33  55  80 108 138 171 217 268 314
#     4  10  20  35  57  84 108 135 174 221 267 311
#     4   9  17  29  48  76 108 134 163 210 264 312
#     4   8  15  30  50  73 101 136 173 208 258 318
#     4  10  23  41  55  70 103 148 182 211 258 317
#
# _framework density 19.129901
#
# number of rings (size 3 to 8) (size 9 to 14) (size 15 to 20)
#    0.000    2.429    1.429    2.143    0.000    5.143 
#    0.000    2.857    0.000    1.286    0.000    0.000 
#    0.000    0.000    0.000    0.000    0.000    0.000 
#
# Total GULP energy -347200.189307 kJ/mol
# GULP energy per Si atom -12400.006761 kJ/mol
# Density = 1.908636 g / cm^3
# Si number density = 19.129901 Si / 1000 Ang^3
#
#
#
# Elastic Constant Matrix: (Units=GPa)
#
#
# Indices 1 2 3 4 5 6 
#
# 1 113.5816 29.2476 60.5523 0.0000 17.1637 0.0000
# 2 29.2476 38.7650 34.7356 0.0000 8.8441 0.0000
# 3 60.5523 34.7356 138.8622 0.0000 13.9684 0.0000
# 4 0.0000 0.0000 0.0000 17.2601 0.0000 -0.1318
# 5 17.1637 8.8441 13.9684 0.0000 30.8487 0.0000
# 6 0.0000 0.0000 0.0000 -0.1318 0.0000 6.9399
#
#
#
# Elastic Compliance Matrix: (Units=1/GPa)
#
#
# Indices 1 2 3 4 5 6 
#
# 1 0.012822 -0.005326 -0.003871 0.000000 -0.003854 0.000000
# 2 -0.005326 0.036572 -0.006359 0.000000 -0.004642 0.000000
# 3 -0.003871 -0.006359 0.010561 0.000000 -0.000805 0.000000
# 4 0.000000 0.000000 0.000000 0.057946 0.000000 0.001100
# 5 -0.003854 -0.004642 -0.000805 0.000000 0.036256 0.000000
# 6 0.000000 0.000000 0.000000 0.001100 0.000000 0.144115
#
#
# Mechanical properties :
#
#
# Convention : Reuss Voigt Hill
#
# Bulk Modulus (GPa) = 34.67047 60.03109 47.35078
# Shear Modulus (GPa) = 14.74936 22.12129 18.43532
#
# Velocity S-wave (km/s) = 2.77972 3.40424 3.10771
# Velocity P-wave (km/s) = 5.33531 6.84841 6.13865
#
# Compressibility (1/GPa) = 0.02884299
#
# Stress axis : x y z
#
# Youngs Moduli (GPa) = 77.99178 27.34353 94.68724
#
# Poissons Ratio (x) = 0.14563 0.36655
# Poissons Ratio (y) = 0.41537 0.60210
# Poissons Ratio (z) = 0.30192 0.17387
#
# Static dielectric constant tensor:
#      x y z
#    x 3.657410 0.000000 0.005140 
#    y 0.000000 3.053210 0.000000 
#    z 0.005140 0.000000 3.700360 
# 
# 
# High freq. dielectric constant tensor:
#      x y z
#    x 1.750590 0.000000 0.011900 
#    y 0.000000 1.697730 0.000000 
#    z 0.011900 0.000000 1.750580 
# 
# From -- ./inp_files/66409.got.cif
#   From: 2010.06.25/outbox.cif.g09.slc.cpg/sg10_34_cif.got.tgz:66409.got - 2010.06.27 22:07:45.
