data_PCOD8061642
_publ_section_title
;
Structure prediction by ZEFSAII (Michael W. Deem and Ramdas Pophale) SiO2 
 PCOD8061642
Probable space group: P 2/M
;
_chemical_formula_sum "Si O2"
_cell_formula_units_Z 28
_cell_length_a 17.227309
_cell_length_b 8.874751
_cell_length_c 14.143793
_cell_angle_alpha 90.000000
_cell_angle_beta 136.319712
_cell_angle_gamma 90.000000
_cell_volume 1493.438150
_symmetry_space_group_name_H-M "P 2/M"
_symmetry_group_IT_number 10
_symmetry_cell_setting 'monoclinic'
loop_
_space_group_symop_operation_xyz
x,y,z
-x,y,-z
-x,-y,-z
x,-y,z
loop_
_atom_site_type_symbol
_atom_site_label
_atom_site_fract_x
_atom_site_fract_y
_atom_site_fract_z
Si Si1 0.855407 0.825046 0.137026
Si Si2 0.929399 0.322434 0.729649
Si Si3 0.582476 0.175421 0.404618
Si Si4 0.124242 0.323015 0.643937
Si Si5 0.729348 0.676523 0.686787
Si Si6 0.218936 0.176893 0.555036
Si Si7 0.671093 0.174073 0.825163
O O1 0.855282 0.728238 0.231593
O O2 0.953504 0.765045 0.153812
O O3 0.874942 0.000000 0.177770
O O4 0.737340 0.798125 0.980632
O O5 0.951591 0.500000 0.744230
O O6 0.847877 0.276856 0.743982
O O7 0.876091 0.269458 0.584056
O O8 0.625559 0.255940 0.537002
O O9 0.659135 0.215058 0.381431
O O10 0.456448 0.230154 0.271144
O O11 0.586775 0.000000 0.430816
O O12 0.145581 0.500000 0.654835
O O13 0.215077 0.235079 0.659182
O O14 0.000000 0.278056 0.500000
O O15 0.713707 0.500000 0.671601
O O16 0.730314 0.733931 0.794153
O O17 0.192298 0.000000 0.525746
O O18 0.674250 0.000000 0.798492
#
# Coordination Sequence:
#
# PCOD8061642 Si02
#       7
#     4   4   4   4   4   4   4
#     4  11  23  37  56  81 109 144 186 226 266 323
#     4  10  20  35  53  79 114 145 176 223 277 323
#     4   9  19  37  59  82 110 144 182 226 272 315
#     4  11  22  36  57  83 112 144 175 217 275 330
#     4  10  21  35  56  84 111 143 185 227 270 321
#     4  10  19  33  58  86 108 137 181 227 267 316
#     4  10  22  39  56  78 111 148 184 225 272 318
#
# _framework density 18.748684000000001
#
# number of rings (size 3 to 8) (size 9 to 14) (size 15 to 20)
#    0.000    1.857    1.429    2.571    0.000    6.857 
#    0.000    3.571    0.000    4.286    0.000    0.000 
#    0.000    0.000    0.000    0.000    0.000    0.000 
#
# Total GULP energy -347303.677987 kJ/mol
# GULP energy per Si atom -12403.702785 kJ/mol
# Density = 1.870601 g / cm^3
# Si number density = 18.748684 Si / 1000 Ang^3
#
#
#
# Elastic Constant Matrix: (Units=GPa)
#
#
# Indices 1 2 3 4 5 6 
#
# 1 91.2513 22.5492 33.7717 0.0000 -8.0939 0.0000
# 2 22.5492 43.7309 18.8514 0.0000 -2.0390 0.0000
# 3 33.7717 18.8514 77.8154 0.0000 -1.2101 0.0000
# 4 0.0000 0.0000 0.0000 8.9058 0.0000 -5.9152
# 5 -8.0939 -2.0390 -1.2101 0.0000 23.3664 0.0000
# 6 0.0000 0.0000 0.0000 -5.9152 0.0000 33.2020
#
#
#
# Elastic Compliance Matrix: (Units=1/GPa)
#
#
# Indices 1 2 3 4 5 6 
#
# 1 0.014438 -0.005105 -0.004963 0.000000 0.004299 0.000000
# 2 -0.005105 0.027424 -0.004422 0.000000 0.000396 0.000000
# 3 -0.004963 -0.004422 0.016056 0.000000 -0.001273 0.000000
# 4 0.000000 0.000000 0.000000 0.127357 0.000000 0.022689
# 5 0.004299 0.000396 -0.001273 0.000000 0.044254 0.000000
# 6 0.000000 0.000000 0.000000 0.022689 0.000000 0.034161
#
#
# Mechanical properties :
#
#
# Convention : Reuss Voigt Hill
#
# Bulk Modulus (GPa) = 34.55519 40.34913 37.45216
# Shear Modulus (GPa) = 16.53897 22.26986 19.40442
#
# Velocity S-wave (km/s) = 2.97331 3.45020 3.22059
# Velocity P-wave (km/s) = 5.50074 6.11879 5.81798
#
# Compressibility (1/GPa) = 0.02893922
#
# Stress axis : x y z
#
# Youngs Moduli (GPa) = 69.26076 36.46412 62.28160
#
# Poissons Ratio (x) = 0.18616 0.30907
# Poissons Ratio (y) = 0.35359 0.27541
# Poissons Ratio (z) = 0.34371 0.16124
#
# Static dielectric constant tensor:
#      x y z
#    x 3.687570 0.000000 0.161640 
#    y 0.000000 3.464120 0.000000 
#    z 0.161640 0.000000 3.299960 
# 
# 
# High freq. dielectric constant tensor:
#      x y z
#    x 1.737650 0.000000 0.002330 
#    y 0.000000 1.736210 0.000000 
#    z 0.002330 0.000000 1.707390 
# 
# From -- ./inp_files/49161.got.cif
#   From: 2010.06.25/outbox.cif.g09.slc.cpg/sg10_25_cif.got.tgz:49161.got - 2010.06.27 22:07:45.
