data_PCOD8061002
_publ_section_title
;
Structure prediction by ZEFSAII (Michael W. Deem and Ramdas Pophale) SiO2 
 PCOD8061002
Probable space group: P 2/M
;
_chemical_formula_sum "Si O2"
_cell_formula_units_Z 26
_cell_length_a 24.752884
_cell_length_b 9.839934
_cell_length_c 7.944286
_cell_angle_alpha 90.000000
_cell_angle_beta 139.002823
_cell_angle_gamma 90.000000
_cell_volume 1269.378572
_symmetry_space_group_name_H-M "P 2/M"
_symmetry_group_IT_number 10
_symmetry_cell_setting 'monoclinic'
loop_
_space_group_symop_operation_xyz
x,y,z
-x,y,-z
-x,-y,-z
x,-y,z
loop_
_atom_site_type_symbol
_atom_site_label
_atom_site_fract_x
_atom_site_fract_y
_atom_site_fract_z
Si Si1 0.007377 0.649484 0.316689
Si Si2 0.820408 0.342152 0.180046
Si Si3 0.134926 0.840137 0.029259
Si Si4 0.500000 0.713605 0.500000
Si Si5 0.551193 0.155361 0.274196
Si Si6 0.332553 0.352066 0.960950
Si Si7 0.699213 0.153263 0.408137
O O1 0.981116 0.500000 0.185118
O O2 0.104224 0.677019 0.508325
O O3 0.000000 0.650942 0.500000
O O4 0.948917 0.767070 0.101231
O O5 0.818749 0.500000 0.112202
O O6 0.735455 0.299764 0.067401
O O7 0.832725 0.237227 0.058210
O O8 0.204221 0.821470 0.334678
O O9 0.118600 0.000000 0.952878
O O10 0.470010 0.797343 0.589833
O O11 0.579090 0.627512 0.742303
O O12 0.648227 0.178725 0.461271
O O13 0.525798 0.000000 0.214792
O O14 0.500000 0.226725 0.000000
O O15 0.305543 0.500000 0.828715
O O16 0.338312 0.248323 0.822420
O O17 0.684426 0.000000 0.310377
#
# Coordination Sequence:
#
# PCOD8061002 Si02
#       7
#     4   4   4   2   4   4   4
#     4   8  15  30  53  79 109 148 192 235 283 345
#     4   9  19  36  56  80 112 150 194 239 283 351
#     4  10  19  32  55  86 116 146 186 241 297 348
#     4  12  22  38  64  90 119 154 193 252 309 346
#     4  10  20  37  61  89 118 154 200 241 286 355
#     4  11  24  40  58  83 116 152 196 244 297 355
#     4  10  22  40  57  82 119 153 194 241 288 352
#
# _framework density 20.482462000000002
#
# number of rings (size 3 to 8) (size 9 to 14) (size 15 to 20)
#    0.000    2.154    1.538    2.769    0.000    5.231 
#    0.000    3.077    0.000    4.615    0.000    0.000 
#    0.000    0.000    0.000    0.000    0.000    0.000 
#
# Total GULP energy -322147.750881 kJ/mol
# GULP energy per Si atom -12390.298111 kJ/mol
# Density = 2.043584 g / cm^3
# Si number density = 20.482462 Si / 1000 Ang^3
#
#
#
# Elastic Constant Matrix: (Units=GPa)
#
#
# Indices 1 2 3 4 5 6 
#
# 1 78.9448 40.2583 42.4453 0.0000 11.5218 0.0000
# 2 40.2583 110.3010 50.6999 0.0000 0.9343 0.0000
# 3 42.4453 50.6999 104.4022 0.0000 16.3862 0.0000
# 4 0.0000 0.0000 0.0000 18.2903 0.0000 15.3875
# 5 11.5218 0.9343 16.3862 0.0000 39.1945 0.0000
# 6 0.0000 0.0000 0.0000 15.3875 0.0000 2.3794
#
#
#
# Elastic Compliance Matrix: (Units=1/GPa)
#
#
# Indices 1 2 3 4 5 6 
#
# 1 0.017850 -0.004356 -0.004639 0.000000 -0.003204 0.000000
# 2 -0.004356 0.012921 -0.004983 0.000000 0.003056 0.000000
# 3 -0.004639 -0.004983 0.014610 0.000000 -0.004626 0.000000
# 4 0.000000 0.000000 0.000000 -0.012312 0.000000 0.079623
# 5 -0.003204 0.003056 -0.004626 0.000000 0.028317 0.000000
# 6 0.000000 0.000000 0.000000 0.079623 0.000000 -0.094643
#
#
# Mechanical properties :
#
#
# Convention : Reuss Voigt Hill
#
# Bulk Modulus (GPa) = 57.38821 62.27278 59.83050
# Shear Modulus (GPa) = 9878.15413 22.65582 4950.40497
#
# Velocity S-wave (km/s) = 69.52127 3.32943 49.21531
# Velocity P-wave (km/s) = 80.45095 6.72675 57.08592
#
# Compressibility (1/GPa) = 0.01742518
#
# Stress axis : x y z
#
# Youngs Moduli (GPa) = 56.02237 77.39636 68.44461
#
# Poissons Ratio (x) = 0.33710 0.31751
# Poissons Ratio (y) = 0.24401 0.34108
# Poissons Ratio (z) = 0.25989 0.38569
#
# Static dielectric constant tensor:
#      x y z
#    x 3.713780 0.000000 0.522000 
#    y 0.000000 3.638030 0.000000 
#    z 0.522000 0.000000 4.000490 
# 
# 
# High freq. dielectric constant tensor:
#      x y z
#    x 1.790880 0.000000 0.030890 
#    y 0.000000 1.792580 0.000000 
#    z 0.030890 0.000000 1.800210 
# 
# From -- ./inp_files/36815.got.cif
#   From: 2010.06.25/outbox.cif.g09.slc.cpg/sg10_19_cif.got.tgz:36815.got - 2010.06.27 22:07:45.
