data_PCOD8061533
_publ_section_title
;
Structure prediction by ZEFSAII (Michael W. Deem and Ramdas Pophale) SiO2 
 PCOD8061533
Probable space group: P 2/M
;
_chemical_formula_sum "Si O2"
_cell_formula_units_Z 20
_cell_length_a 10.281947
_cell_length_b 14.041734
_cell_length_c 16.647833
_cell_angle_alpha 90.000000
_cell_angle_beta 158.246551
_cell_angle_gamma 90.000000
_cell_volume 890.789050
_symmetry_space_group_name_H-M "P 2/M"
_symmetry_group_IT_number 10
_symmetry_cell_setting 'monoclinic'
loop_
_space_group_symop_operation_xyz
x,y,z
-x,y,-z
-x,-y,-z
x,-y,z
loop_
_atom_site_type_symbol
_atom_site_label
_atom_site_fract_x
_atom_site_fract_y
_atom_site_fract_z
Si Si1 0.026840 0.393891 0.883979
Si Si2 0.423401 0.607271 0.665106
Si Si3 0.836885 0.802879 0.511671
Si Si4 0.859972 0.222203 0.156517
Si Si5 0.473464 0.111584 0.168672
O O1 0.007753 0.500000 0.838095
O O2 0.026424 0.326414 0.806667
O O3 0.692598 0.374047 0.747571
O O4 0.380690 0.379663 0.137939
O O5 0.261505 0.500000 0.567300
O O6 0.126423 0.689356 0.487789
O O7 0.484012 0.844736 0.265961
O O8 0.838709 0.816666 0.609492
O O9 0.160473 0.861896 0.662430
O O10 0.500000 0.227846 0.000000
O O11 0.835250 0.155234 0.063522
O O12 0.415270 0.000000 0.140353
#
# Coordination Sequence:
#
# PCOD8061533 Si02
#       5
#     4   4   4   4   4
#     4   9  18  35  56  80 113 151 185 217 263 322
#     4   9  18  34  58  81 109 151 187 218 261 320
#     4  10  19  33  56  83 107 139 183 221 272 320
#     4  10  21  34  55  84 113 142 178 228 273 321
#     4  10  21  38  57  79 109 144 182 228 278 326
#
# _framework density 22.452006000000001
#
# number of rings (size 3 to 8) (size 9 to 14) (size 15 to 20)
#    0.000    2.400    2.000    2.400    0.000    6.400 
#    0.000    7.000    0.000    3.600    0.000   14.000 
#    0.000    0.000    0.000    0.000    0.000    0.000 
#
# Total GULP energy -247831.207987 kJ/mol
# GULP energy per Si atom -12391.560399 kJ/mol
# Density = 2.240090 g / cm^3
# Si number density = 22.452006 Si / 1000 Ang^3
#
#
#
# Elastic Constant Matrix: (Units=GPa)
#
#
# Indices 1 2 3 4 5 6 
#
# 1 77.7247 43.2244 47.3220 0.0000 -45.1037 0.0000
# 2 43.2244 155.9808 48.9335 0.0000 -35.1878 0.0000
# 3 47.3220 48.9335 89.1358 0.0000 -57.1131 0.0000
# 4 0.0000 0.0000 0.0000 8.9845 0.0000 9.1902
# 5 -45.1037 -35.1878 -57.1131 0.0000 50.8292 0.0000
# 6 0.0000 0.0000 0.0000 9.1902 0.0000 -125.3250
#
#
#
# Elastic Compliance Matrix: (Units=1/GPa)
#
#
# Indices 1 2 3 4 5 6 
#
# 1 0.027874 -0.002887 0.004836 0.000000 0.028169 0.000000
# 2 -0.002887 0.008106 -0.003439 0.000000 -0.000814 0.000000
# 3 0.004836 -0.003439 0.042006 0.000000 0.049109 0.000000
# 4 0.000000 0.000000 0.000000 0.103537 0.000000 0.007592
# 5 0.028169 -0.000814 0.049109 0.000000 0.099287 0.000000
# 6 0.000000 0.000000 0.000000 0.007592 0.000000 -0.007422
#
#
# Mechanical properties :
#
#
# Convention : Reuss Voigt Hill
#
# Bulk Modulus (GPa) = 13.33229 66.86679 40.09954
# Shear Modulus (GPa) = 16.59095 -0.87816 7.85640
#
# Velocity S-wave (km/s) = 2.72132 -0.62608 1.87264
# Velocity P-wave (km/s) = 3.97808 5.41518 4.75127
#
# Compressibility (1/GPa) = 0.07500590
#
# Stress axis : x y z
#
# Youngs Moduli (GPa) = 35.87633 123.36166 23.80600
#
# Poissons Ratio (x) = 0.35608 -0.11512
# Poissons Ratio (y) = 0.10356 0.08188
# Poissons Ratio (z) = -0.17349 0.42430
#
# Static dielectric constant tensor:
#      x y z
#    x 3.988110 0.000000 -0.750870 
#    y 0.000000 4.000280 0.000000 
#    z -0.750870 0.000000 4.374110 
# 
# 
# High freq. dielectric constant tensor:
#      x y z
#    x 1.862170 0.000000 -0.037230 
#    y 0.000000 1.883250 0.000000 
#    z -0.037230 0.000000 1.871000 
# 
# From -- ./inp_files/23465.got.cif
#   From: 2010.06.25/outbox.cif.g09.slc.cpg/sg10_12_cif.got.tgz:23465.got - 2010.06.27 22:07:45.
