data_PCOD8061365
_publ_section_title
;
Structure prediction by ZEFSAII (Michael W. Deem and Ramdas Pophale) SiO2 
 PCOD8061365
Probable space group: P 2/M
;
_chemical_formula_sum "Si O2"
_cell_formula_units_Z 32
_cell_length_a 20.827274
_cell_length_b 8.892737
_cell_length_c 26.242420
_cell_angle_alpha 90.000000
_cell_angle_beta 158.629233
_cell_angle_gamma 90.000000
_cell_volume 1771.137002
_symmetry_space_group_name_H-M "P 2/M"
_symmetry_group_IT_number 10
_symmetry_cell_setting 'monoclinic'
loop_
_space_group_symop_operation_xyz
x,y,z
-x,y,-z
-x,-y,-z
x,-y,z
loop_
_atom_site_type_symbol
_atom_site_label
_atom_site_fract_x
_atom_site_fract_y
_atom_site_fract_z
Si Si1 0.015140 0.677979 0.594086
Si Si2 0.934762 0.327176 0.101982
Si Si3 0.276302 0.322898 0.698695
Si Si4 0.671962 0.321752 0.994329
Si Si5 0.459034 0.177142 0.412294
Si Si6 0.048436 0.178060 0.727482
Si Si7 0.216630 0.675694 0.394318
Si Si8 0.065526 0.177614 0.102084
O O1 0.013751 0.500000 0.604858
O O2 0.834040 0.730209 0.432408
O O3 0.040647 0.773152 0.663417
O O4 0.177344 0.722371 0.677321
O O5 0.928045 0.500000 0.081422
O O6 0.763719 0.281553 0.008412
O O7 0.937361 0.232916 0.052156
O O8 0.108558 0.290312 0.263088
O O9 0.290107 0.500000 0.705617
O O10 0.473831 0.255868 0.845270
O O11 0.679592 0.500000 0.009902
O O12 0.774644 0.243920 0.116535
O O13 0.500000 0.224937 0.500000
O O14 0.587168 0.262228 0.467945
O O15 0.263663 0.235183 0.256200
O O16 0.481966 0.000000 0.420911
O O17 0.873459 0.240109 0.625215
O O18 0.052499 0.000000 0.734992
O O19 0.219988 0.500000 0.409715
O O20 0.058291 0.000000 0.097220
O O21 0.000000 0.243477 0.000000
#
# Coordination Sequence:
#
# PCOD8061365 Si02
#       8
#     4   4   4   4   4   4   4   4
#     4   9  17  34  58  82 107 141 180 220 264 313
#     4   9  18  32  52  75 102 132 169 219 265 304
#     4   8  16  33  59  82 105 140 182 221 262 315
#     4   9  18  35  56  80 106 137 178 222 266 316
#     4  10  19  33  55  79 102 135 174 212 257 313
#     4  11  22  35  52  78 112 145 175 218 269 317
#     4  10  20  35  56  80 103 133 177 225 264 307
#     4  10  21  36  52  72 104 141 172 207 255 312
#
# _framework density 18.067489999999999
#
# number of rings (size 3 to 8) (size 9 to 14) (size 15 to 20)
#    0.000    2.500    1.250    3.000    0.000    3.500 
#    2.250    5.000    0.000    0.000    0.000    0.000 
#    0.000    0.000    0.000    0.000    0.000    0.000 
#
# Total GULP energy -396797.561708 kJ/mol
# GULP energy per Si atom -12399.923803 kJ/mol
# Density = 1.802637 g / cm^3
# Si number density = 18.067490 Si / 1000 Ang^3
#
#
#
# Elastic Constant Matrix: (Units=GPa)
#
#
# Indices 1 2 3 4 5 6 
#
# 1 136.3578 45.6099 86.5361 0.0000 -3.4194 0.0000
# 2 45.6099 57.1782 39.1410 0.0000 -0.1635 0.0000
# 3 86.5361 39.1410 133.7132 0.0000 8.0867 0.0000
# 4 0.0000 0.0000 0.0000 13.6091 0.0000 0.1620
# 5 -3.4194 -0.1635 8.0867 0.0000 28.6541 0.0000
# 6 0.0000 0.0000 0.0000 0.1620 0.0000 17.3736
#
#
#
# Elastic Compliance Matrix: (Units=1/GPa)
#
#
# Indices 1 2 3 4 5 6 
#
# 1 0.014423 -0.006182 -0.007759 0.000000 0.003875 0.000000
# 2 -0.006182 0.024631 -0.003228 0.000000 0.000314 0.000000
# 3 -0.007759 -0.003228 0.013736 0.000000 -0.004821 0.000000
# 4 0.000000 0.000000 0.000000 0.073488 0.000000 -0.000685
# 5 0.003875 0.000314 -0.004821 0.000000 0.036724 0.000000
# 6 0.000000 0.000000 0.000000 -0.000685 0.000000 0.057565
#
#
# Mechanical properties :
#
#
# Convention : Reuss Voigt Hill
#
# Bulk Modulus (GPa) = 54.19400 74.42481 64.30941
# Shear Modulus (GPa) = 19.15295 22.32485 20.73890
#
# Velocity S-wave (km/s) = 3.25942 3.51898 3.39168
# Velocity P-wave (km/s) = 6.65022 7.60217 7.14208
#
# Compressibility (1/GPa) = 0.01845223
#
# Stress axis : x y z
#
# Youngs Moduli (GPa) = 69.33582 40.59851 72.79950
#
# Poissons Ratio (x) = 0.25100 0.56482
# Poissons Ratio (y) = 0.42866 0.23500
# Poissons Ratio (z) = 0.53795 0.13105
#
# Static dielectric constant tensor:
#      x y z
#    x 3.350430 0.000000 0.164780 
#    y 0.000000 3.086120 0.000000 
#    z 0.164780 0.000000 3.707690 
# 
# 
# High freq. dielectric constant tensor:
#      x y z
#    x 1.702950 0.000000 0.007460 
#    y 0.000000 1.680690 0.000000 
#    z 0.007460 0.000000 1.697320 
# 
# From -- ./inp_files/93747.got.cif
#   From: 2010.06.25/outbox.cif.g09.slc.cpg/sg10_47_cif.got.tgz:93747.got - 2010.06.27 22:07:45.
