data_PCOD8061635
_publ_section_title
;
Structure prediction by ZEFSAII (Michael W. Deem and Ramdas Pophale) SiO2 
 PCOD8061635
Probable space group: P 2/M
;
_chemical_formula_sum "Si O2"
_cell_formula_units_Z 28
_cell_length_a 12.251993
_cell_length_b 8.418995
_cell_length_c 15.045603
_cell_angle_alpha 90.000000
_cell_angle_beta 53.268953
_cell_angle_gamma 90.000000
_cell_volume 1243.809698
_symmetry_space_group_name_H-M "P 2/M"
_symmetry_group_IT_number 10
_symmetry_cell_setting 'monoclinic'
loop_
_space_group_symop_operation_xyz
x,y,z
-x,y,-z
-x,-y,-z
x,-y,z
loop_
_atom_site_type_symbol
_atom_site_label
_atom_site_fract_x
_atom_site_fract_y
_atom_site_fract_z
Si Si1 0.963230 0.313184 0.291349
Si Si2 0.491901 0.184190 0.408816
Si Si3 0.625233 0.685319 0.760664
Si Si4 0.327509 0.187004 0.893324
Si Si5 0.769705 0.684087 0.223930
Si Si6 0.741399 0.184988 0.875508
Si Si7 0.783187 0.811819 0.535666
O O1 0.991533 0.500000 0.272950
O O2 0.875667 0.256765 0.247104
O O3 0.894800 0.272086 0.419559
O O4 0.100901 0.216561 0.219743
O O5 0.500000 0.269101 0.500000
O O6 0.633877 0.210507 0.292890
O O7 0.362029 0.258816 0.424917
O O8 0.458824 0.000000 0.434800
O O9 0.612609 0.500000 0.748774
O O10 0.485493 0.767777 0.793620
O O11 0.644528 0.719549 0.855540
O O12 0.766889 0.754522 0.645958
O O13 0.207259 0.275369 0.891893
O O14 0.308874 0.000000 0.891613
O O15 0.296077 0.244735 0.008088
O O16 0.741101 0.500000 0.253383
O O17 0.709736 0.000000 0.878851
O O18 0.807220 0.000000 0.519140
#
# Coordination Sequence:
#
# PCOD8061635 Si02
#       7
#     4   4   4   4   4   4   4
#     4  11  25  43  63  94 134 172 211 258 315 379
#     4  10  19  33  57  89 125 165 207 255 310 370
#     4  12  25  42  68  99 129 162 206 264 325 378
#     4  11  24  43  68  96 126 163 213 267 315 372
#     4  11  23  37  61  95 131 167 205 257 318 378
#     4  11  26  47  68  90 122 169 220 265 312 373
#     4  11  22  38  64  96 130 168 211 258 311 375
#
# _framework density 22.511479999999999
#
# number of rings (size 3 to 8) (size 9 to 14) (size 15 to 20)
#    0.000    1.000    2.857    3.857    0.000    7.714 
#    0.000    5.714    0.000    0.000    0.000    0.000 
#    0.000    0.000    0.000    0.000    0.000    0.000 
#
# Total GULP energy -346979.471572 kJ/mol
# GULP energy per Si atom -12392.123985 kJ/mol
# Density = 2.246024 g / cm^3
# Si number density = 22.511480 Si / 1000 Ang^3
#
#
#
# Elastic Constant Matrix: (Units=GPa)
#
#
# Indices 1 2 3 4 5 6 
#
# 1 47.8998 8.5237 1.2362 0.0000 3.1980 0.0000
# 2 8.5237 61.8752 6.3929 0.0000 8.4775 0.0000
# 3 1.2362 6.3929 91.7961 0.0000 9.0536 0.0000
# 4 0.0000 0.0000 0.0000 19.8357 0.0000 8.6862
# 5 3.1980 8.4775 9.0536 0.0000 37.1740 0.0000
# 6 0.0000 0.0000 0.0000 8.6862 0.0000 23.1698
#
#
#
# Elastic Compliance Matrix: (Units=1/GPa)
#
#
# Indices 1 2 3 4 5 6 
#
# 1 0.021454 -0.002792 0.000025 0.000000 -0.001215 0.000000
# 2 -0.002792 0.017104 -0.000812 0.000000 -0.003463 0.000000
# 3 0.000025 -0.000812 0.011201 0.000000 -0.002545 0.000000
# 4 0.000000 0.000000 0.000000 0.060316 0.000000 -0.022612
# 5 -0.001215 -0.003463 -0.002545 0.000000 0.028415 0.000000
# 6 0.000000 0.000000 0.000000 -0.022612 0.000000 0.051637
#
#
# Mechanical properties :
#
#
# Convention : Reuss Voigt Hill
#
# Bulk Modulus (GPa) = 23.47255 25.98627 24.72941
# Shear Modulus (GPa) = 23.64239 28.39713 26.01976
#
# Velocity S-wave (km/s) = 3.24425 3.55554 3.40346
# Velocity P-wave (km/s) = 4.94804 5.33146 5.14333
#
# Compressibility (1/GPa) = 0.04260295
#
# Stress axis : x y z
#
# Youngs Moduli (GPa) = 46.61107 58.46434 89.27832
#
# Poissons Ratio (x) = 0.16321 -0.00226
# Poissons Ratio (y) = 0.13012 0.07250
# Poissons Ratio (z) = -0.00118 0.04748
#
# Static dielectric constant tensor:
#      x y z
#    x 4.286100 0.000000 0.418660 
#    y 0.000000 3.769590 0.000000 
#    z 0.418660 0.000000 4.494550 
# 
# 
# High freq. dielectric constant tensor:
#      x y z
#    x 1.889970 0.000000 0.025210 
#    y 0.000000 1.877830 0.000000 
#    z 0.025210 0.000000 1.901870 
# 
# From -- ./inp_files/63665.got.cif
#   From: 2010.06.25/outbox.cif.g09.slc.cpg/sg10_32_cif.got.tgz:63665.got - 2010.06.27 22:07:45.
