data_PCOD8061334
_publ_section_title
;
Structure prediction by ZEFSAII (Michael W. Deem and Ramdas Pophale) SiO2 
 PCOD8061334
Probable space group: P 2/M
;
_chemical_formula_sum "Si O2"
_cell_formula_units_Z 32
_cell_length_a 13.979156
_cell_length_b 9.661467
_cell_length_c 23.112151
_cell_angle_alpha 90.000000
_cell_angle_beta 29.708226
_cell_angle_gamma 90.000000
_cell_volume 1546.967252
_symmetry_space_group_name_H-M "P 2/M"
_symmetry_group_IT_number 10
_symmetry_cell_setting 'monoclinic'
loop_
_space_group_symop_operation_xyz
x,y,z
-x,y,-z
-x,-y,-z
x,-y,z
loop_
_atom_site_type_symbol
_atom_site_label
_atom_site_fract_x
_atom_site_fract_y
_atom_site_fract_z
Si Si1 0.318194 0.153586 0.416366
Si Si2 0.934652 0.659462 0.142597
Si Si3 0.715020 0.658296 0.372431
Si Si4 0.707344 0.157111 0.772553
Si Si5 0.062712 0.158444 0.659176
Si Si6 0.286941 0.157972 0.959350
Si Si7 0.786772 0.350754 0.628811
Si Si8 0.728125 0.152440 0.166578
O O1 0.199728 0.204703 0.533957
O O2 0.310485 0.262597 0.369481
O O3 0.547839 0.147926 0.305756
O O4 0.242098 0.000000 0.438158
O O5 0.983610 0.500000 0.103351
O O6 0.760878 0.670114 0.280186
O O7 0.878747 0.735568 0.111957
O O8 0.124594 0.736583 0.067450
O O9 0.500000 0.715276 0.500000
O O10 0.730697 0.500000 0.385415
O O11 0.880499 0.745472 0.317431
O O12 0.478014 0.185616 0.898317
O O13 0.798423 0.264946 0.681090
O O14 0.833749 0.177061 0.764799
O O15 0.737641 0.000000 0.733696
O O16 0.106292 0.000000 0.653060
O O17 0.335144 0.188060 0.866267
O O18 0.217083 0.000000 0.005033
O O19 0.678396 0.500000 0.693654
O O20 0.000000 0.386648 0.500000
O O21 0.826479 0.000000 0.115886
#
# Coordination Sequence:
#
# PCOD8061334 Si02
#       8
#     4   4   4   4   4   4   4   4
#     4  10  19  33  54  82 117 154 190 234 286 338
#     4  11  24  40  59  84 113 150 192 241 295 345
#     4  10  23  44  65  84 113 152 189 233 294 350
#     4  10  20  37  58  82 117 157 194 236 288 339
#     4  10  21  35  60  91 115 147 195 245 289 333
#     4  10  21  38  60  85 116 156 193 232 286 346
#     4  11  21  30  46  78 118 159 197 231 276 334
#     4  10  20  35  58  87 116 153 194 233 287 345
#
# _framework density 20.685635999999999
#
# number of rings (size 3 to 8) (size 9 to 14) (size 15 to 20)
#    0.000    1.750    2.500    1.875    0.000    5.750 
#    0.000    0.625    0.000    3.750    0.000    0.000 
#    0.000    0.000    0.000    0.000    0.000    0.000 
#
# Total GULP energy -396600.580399 kJ/mol
# GULP energy per Si atom -12393.768137 kJ/mol
# Density = 2.063855 g / cm^3
# Si number density = 20.685636 Si / 1000 Ang^3
#
#
#
# Elastic Constant Matrix: (Units=GPa)
#
#
# Indices 1 2 3 4 5 6 
#
# 1 86.5429 46.6829 15.9279 0.0000 -17.1750 0.0000
# 2 46.6829 115.6491 21.4778 0.0000 -5.6631 0.0000
# 3 15.9279 21.4778 76.5814 0.0000 -17.4974 0.0000
# 4 0.0000 0.0000 0.0000 -10.7994 0.0000 99.2379
# 5 -17.1750 -5.6631 -17.4974 0.0000 29.0683 0.0000
# 6 0.0000 0.0000 0.0000 99.2379 0.0000 -221.2077
#
#
#
# Elastic Compliance Matrix: (Units=1/GPa)
#
#
# Indices 1 2 3 4 5 6 
#
# 1 0.016674 -0.006360 0.000329 0.000000 0.008811 0.000000
# 2 -0.006360 0.011550 -0.002621 0.000000 -0.003086 0.000000
# 3 0.000329 -0.002621 0.015830 0.000000 0.009212 0.000000
# 4 0.000000 0.000000 0.000000 0.029655 0.000000 0.013304
# 5 0.008811 -0.003086 0.009212 0.000000 0.044551 0.000000
# 6 0.000000 0.000000 0.000000 0.013304 0.000000 0.001448
#
#
# Mechanical properties :
#
#
# Convention : Reuss Voigt Hill
#
# Bulk Modulus (GPa) = 37.38623 49.66115 43.52369
# Shear Modulus (GPa) = 34.26317 -27.60874 3.32721
#
# Velocity S-wave (km/s) = 4.07427 -3.65729 1.26963
# Velocity P-wave (km/s) = 6.34395 2.49505 4.82032
#
# Compressibility (1/GPa) = 0.02674781
#
# Stress axis : x y z
#
# Youngs Moduli (GPa) = 59.97453 86.58060 63.17285
#
# Poissons Ratio (x) = 0.55067 -0.02078
# Poissons Ratio (y) = 0.38145 0.16560
# Poissons Ratio (z) = -0.01973 0.22697
#
# Static dielectric constant tensor:
#      x y z
#    x 3.492320 0.000000 -0.227670 
#    y 0.000000 3.865810 0.000000 
#    z -0.227670 0.000000 4.021990 
# 
# 
# High freq. dielectric constant tensor:
#      x y z
#    x 1.786420 0.000000 -0.019780 
#    y 0.000000 1.812770 0.000000 
#    z -0.019780 0.000000 1.800930 
# 
# From -- ./inp_files/89510.got.cif
#   From: 2010.06.25/outbox.cif.g09.slc.cpg/sg10_45_cif.got.tgz:89510.got - 2010.06.27 22:07:45.
