data_PCOD8061897
_publ_section_title
;
Structure prediction by ZEFSAII (Michael W. Deem and Ramdas Pophale) SiO2 
 PCOD8061897
Probable space group: P 2/M
;
_chemical_formula_sum "Si O2"
_cell_formula_units_Z 32
_cell_length_a 30.048627
_cell_length_b 8.944812
_cell_length_c 12.598385
_cell_angle_alpha 90.000000
_cell_angle_beta 151.663726
_cell_angle_gamma 90.000000
_cell_volume 1607.237788
_symmetry_space_group_name_H-M "P 2/M"
_symmetry_group_IT_number 10
_symmetry_cell_setting 'monoclinic'
loop_
_space_group_symop_operation_xyz
x,y,z
-x,y,-z
-x,-y,-z
x,-y,z
loop_
_atom_site_type_symbol
_atom_site_label
_atom_site_fract_x
_atom_site_fract_y
_atom_site_fract_z
Si Si1 0.320561 0.676474 0.385264
Si Si2 0.241286 0.322736 0.844648
Si Si3 0.271646 0.175860 0.688419
Si Si4 0.134779 0.824307 0.028772
Si Si5 0.043558 0.174881 0.479156
Si Si6 0.100657 0.176126 0.188909
Si Si7 0.402958 0.322865 0.341108
Si Si8 0.610305 0.670712 0.241081
O O1 0.311372 0.500000 0.366616
O O2 0.218722 0.743382 0.143380
O O3 0.390339 0.727612 0.437217
O O4 0.359442 0.734613 0.579978
O O5 0.235996 0.500000 0.827077
O O6 0.282627 0.261775 0.821255
O O7 0.138497 0.262296 0.655232
O O8 0.313939 0.266297 0.086479
O O9 0.169285 0.217673 0.428419
O O10 0.348555 0.227463 0.765384
O O11 0.282450 0.000000 0.730059
O O12 0.140458 0.763545 0.161224
O O13 0.151529 0.000000 0.053051
O O14 0.033358 0.780741 0.770035
O O15 0.000000 0.222100 0.500000
O O16 0.067680 0.000000 0.526206
O O17 0.088475 0.000000 0.150703
O O18 0.000000 0.250867 0.000000
O O19 0.500000 0.252884 0.500000
O O20 0.408178 0.500000 0.343337
O O21 0.644969 0.500000 0.299561
O O22 0.500000 0.680764 0.000000
#
# Coordination Sequence:
#
# PCOD8061897 Si02
#       8
#     4   4   4   4   4   4   4   4
#     4  10  20  36  60  88 116 147 190 244 290 340
#     4  11  23  38  60  88 120 156 197 246 295 345
#     4  11  22  38  60  85 120 158 196 241 289 349
#     4  10  19  34  56  81 113 153 190 228 283 346
#     4  10  21  37  59  86 117 157 199 240 290 350
#     4   9  17  31  52  77 106 146 189 225 271 333
#     4   9  20  38  61  85 111 151 197 237 286 348
#     4  10  22  38  60  89 119 153 193 240 296 353
#
# _framework density 19.909935000000001
#
# number of rings (size 3 to 8) (size 9 to 14) (size 15 to 20)
#    0.000    2.000    1.250    2.250    1.750    3.000 
#    0.000    0.625    0.000    3.750    0.000    0.000 
#    0.000    0.000    0.000    0.000    0.000    0.000 
#
# Total GULP energy -396810.869735 kJ/mol
# GULP energy per Si atom -12400.339679 kJ/mol
# Density = 1.986462 g / cm^3
# Si number density = 19.909935 Si / 1000 Ang^3
#
#
#
# Elastic Constant Matrix: (Units=GPa)
#
#
# Indices 1 2 3 4 5 6 
#
# 1 139.5003 33.8578 60.0507 0.0000 0.5107 0.0000
# 2 33.8578 41.4379 33.0126 0.0000 0.0218 0.0000
# 3 60.0507 33.0126 102.4630 0.0000 2.0292 0.0000
# 4 0.0000 0.0000 0.0000 19.5408 0.0000 0.7444
# 5 0.5107 0.0218 2.0292 0.0000 39.5546 0.0000
# 6 0.0000 0.0000 0.0000 0.7444 0.0000 26.1233
#
#
#
# Elastic Compliance Matrix: (Units=1/GPa)
#
#
# Indices 1 2 3 4 5 6 
#
# 1 0.010260 -0.004831 -0.004458 0.000000 0.000099 0.000000
# 2 -0.004831 0.034752 -0.008375 0.000000 0.000473 0.000000
# 3 -0.004458 -0.008375 0.015085 0.000000 -0.000712 0.000000
# 4 0.000000 0.000000 0.000000 0.051231 0.000000 -0.001460
# 5 0.000099 0.000473 -0.000712 0.000000 0.025316 0.000000
# 6 0.000000 0.000000 0.000000 -0.001460 0.000000 0.038322
#
#
# Mechanical properties :
#
#
# Convention : Reuss Voigt Hill
#
# Bulk Modulus (GPa) = 40.37476 59.69370 50.03423
# Shear Modulus (GPa) = 22.87816 27.47576 25.17696
#
# Velocity S-wave (km/s) = 3.39349 3.71887 3.55990
# Velocity P-wave (km/s) = 5.97303 6.96326 6.48706
#
# Compressibility (1/GPa) = 0.02476795
#
# Stress axis : x y z
#
# Youngs Moduli (GPa) = 97.46722 28.77572 66.29167
#
# Poissons Ratio (x) = 0.13902 0.29556
# Poissons Ratio (y) = 0.47088 0.55516
# Poissons Ratio (z) = 0.43455 0.24098
#
# Static dielectric constant tensor:
#      x y z
#    x 3.877780 0.000000 -0.065860 
#    y 0.000000 3.327630 0.000000 
#    z -0.065860 0.000000 3.781970 
# 
# 
# High freq. dielectric constant tensor:
#      x y z
#    x 1.793110 0.000000 -0.001530 
#    y 0.000000 1.743390 0.000000 
#    z -0.001530 0.000000 1.786700 
# 
# From -- ./inp_files/58214.got.cif
#   From: 2010.06.25/outbox.cif.g09.slc.cpg/sg10_30_cif.got.tgz:58214.got - 2010.06.27 22:07:45.
