data_PCOD8061156
_publ_section_title
;
Structure prediction by ZEFSAII (Michael W. Deem and Ramdas Pophale) SiO2 
 PCOD8061156
Probable space group: P 2/M
;
_chemical_formula_sum "Si O2"
_cell_formula_units_Z 24
_cell_length_a 18.863076
_cell_length_b 9.265416
_cell_length_c 7.960852
_cell_angle_alpha 90.000000
_cell_angle_beta 114.963120
_cell_angle_gamma 90.000000
_cell_volume 1261.371296
_symmetry_space_group_name_H-M "P 2/M"
_symmetry_group_IT_number 10
_symmetry_cell_setting 'monoclinic'
loop_
_space_group_symop_operation_xyz
x,y,z
-x,y,-z
-x,-y,-z
x,-y,z
loop_
_atom_site_type_symbol
_atom_site_label
_atom_site_fract_x
_atom_site_fract_y
_atom_site_fract_z
Si Si1 0.500000 0.831219 0.694624
Si Si2 0.351049 0.337981 0.044725
Si Si3 0.813898 0.328563 0.999263
Si Si4 0.813900 0.328563 0.628540
Si Si5 0.648953 0.662019 0.342631
Si Si6 0.911495 0.327590 0.411497
O O1 0.500000 0.792385 0.500000
O O2 0.576395 0.765953 0.855482
O O3 0.423604 0.765953 0.702688
O O4 0.499999 0.000000 0.729800
O O5 0.372890 0.500000 0.127643
O O6 0.275631 0.276439 0.067513
O O7 0.327331 0.340908 0.827330
O O8 0.815074 0.500000 0.014204
O O9 0.869516 0.265452 0.201481
O O10 0.843128 0.278073 0.843131
O O11 0.815075 0.500000 0.615950
O O12 0.724371 0.276438 0.516254
O O13 0.869518 0.265453 0.537559
O O14 0.627111 0.500000 0.381866
O O15 0.909263 0.500000 0.409264
O O16 0.000000 0.270075 0.500000
#
# Coordination Sequence:
#
# PCOD8061156 Si02
#       6
#     4   4   4   4   4   4
#     4  11  24  37  48  70 104 135 168 212 257 303
#     4  10  19  33  53  74  97 130 174 216 251 297
#     4   9  16  27  44  66  94 129 167 206 247 293
#     4   9  16  27  44  66  94 129 167 206 247 293
#     4  10  19  33  53  74  97 130 174 216 251 297
#     4   9  16  26  40  63  97 130 162 203 249 301
#
# _framework density 19.026911999999999
#
# number of rings (size 3 to 8) (size 9 to 14) (size 15 to 20)
#    0.000    2.333    1.667    2.000    0.000    6.000 
#    0.000    3.333    0.000    0.000    0.000    0.000 
#    0.000    2.667    0.000    7.000    0.000    6.667 
#
# Total GULP energy -297540.142341 kJ/mol
# GULP energy per Si atom -12397.505931 kJ/mol
# Density = 1.898361 g / cm^3
# Si number density = 19.026912 Si / 1000 Ang^3
#
#
#
# Elastic Constant Matrix: (Units=GPa)
#
#
# Indices 1 2 3 4 5 6 
#
# 1 130.9740 17.3603 81.0040 0.0000 2.3781 0.0000
# 2 17.3603 27.8314 17.3512 0.0000 0.0099 0.0000
# 3 81.0040 17.3512 133.3218 0.0000 -4.9653 0.0000
# 4 0.0000 0.0000 0.0000 2.0340 0.0000 -18.8926
# 5 2.3781 0.0099 -4.9653 0.0000 31.9666 0.0000
# 6 0.0000 0.0000 0.0000 -18.8926 0.0000 -15.1646
#
#
#
# Elastic Compliance Matrix: (Units=1/GPa)
#
#
# Indices 1 2 3 4 5 6 
#
# 1 0.012645 -0.003318 -0.007329 0.000000 -0.002078 0.000000
# 2 -0.003318 0.039995 -0.003199 0.000000 -0.000262 0.000000
# 3 -0.007329 -0.003199 0.012462 0.000000 0.002482 0.000000
# 4 0.000000 0.000000 0.000000 0.039107 0.000000 -0.048721
# 5 -0.002078 -0.000262 0.002482 0.000000 0.031823 0.000000
# 6 0.000000 0.000000 0.000000 -0.048721 0.000000 -0.005245
#
#
# Mechanical properties :
#
#
# Convention : Reuss Voigt Hill
#
# Bulk Modulus (GPa) = 26.73005 58.17313 42.45159
# Shear Modulus (GPa) = 29.24873 15.52797 22.38835
#
# Velocity S-wave (km/s) = 3.92501 2.85986 3.43398
# Velocity P-wave (km/s) = 5.88387 6.44558 6.17112
#
# Compressibility (1/GPa) = 0.03741107
#
# Stress axis : x y z
#
# Youngs Moduli (GPa) = 79.08184 25.00328 80.24326
#
# Poissons Ratio (x) = 0.08296 0.58807
# Poissons Ratio (y) = 0.26239 0.25669
# Poissons Ratio (z) = 0.57955 0.07998
#
# Static dielectric constant tensor:
#      x y z
#    x 3.587720 0.000000 -0.129090 
#    y 0.000000 2.852790 0.000000 
#    z -0.129090 0.000000 3.705250 
# 
# 
# High freq. dielectric constant tensor:
#      x y z
#    x 1.747650 0.000000 -0.008190 
#    y 0.000000 1.665750 0.000000 
#    z -0.008190 0.000000 1.755100 
# 
# From -- ./inp_files/33723.got.cif
#   From: 2010.06.25/outbox.cif.g09.slc.cpg/sg10_17_cif.got.tgz:33723.got - 2010.06.27 22:07:45.
