data_PCOD8061009
_publ_section_title
;
Structure prediction by ZEFSAII (Michael W. Deem and Ramdas Pophale) SiO2 
 PCOD8061009
Probable space group: P 2/M
;
_chemical_formula_sum "Si O2"
_cell_formula_units_Z 32
_cell_length_a 10.024567
_cell_length_b 13.167356
_cell_length_c 21.785069
_cell_angle_alpha 90.000000
_cell_angle_beta 144.857701
_cell_angle_gamma 90.000000
_cell_volume 1655.201196
_symmetry_space_group_name_H-M "P 2/M"
_symmetry_group_IT_number 10
_symmetry_cell_setting 'monoclinic'
loop_
_space_group_symop_operation_xyz
x,y,z
-x,y,-z
-x,-y,-z
x,-y,z
loop_
_atom_site_type_symbol
_atom_site_label
_atom_site_fract_x
_atom_site_fract_y
_atom_site_fract_z
Si Si1 0.124253 0.180184 0.136348
Si Si2 0.814913 0.115030 0.709891
Si Si3 0.493758 0.698667 0.429245
Si Si4 0.733967 0.389013 0.770852
Si Si5 0.442417 0.388194 0.777680
Si Si6 0.945445 0.617681 0.548858
Si Si7 0.360791 0.189979 0.103361
Si Si8 0.330303 0.882311 0.883502
O O1 0.199144 0.112149 0.221545
O O2 0.098903 0.299496 0.143920
O O3 0.320610 0.156470 0.158877
O O4 0.867570 0.154409 0.018145
O O5 0.611461 0.187032 0.607499
O O6 0.068267 0.161341 0.787349
O O7 0.777274 0.000000 0.671079
O O8 0.500000 0.652781 0.500000
O O9 0.338308 0.628388 0.326818
O O10 0.754354 0.696714 0.501458
O O11 0.855448 0.500000 0.821252
O O12 0.510407 0.385040 0.731143
O O13 0.494896 0.500000 0.824522
O O14 0.585953 0.310637 0.874530
O O15 0.169327 0.364674 0.676192
O O16 0.861103 0.500000 0.521292
O O17 0.000000 0.647874 0.500000
O O18 0.572521 0.135213 0.148659
O O19 0.307782 0.000000 0.889874
O O20 0.500000 0.833205 0.000000
#
# Coordination Sequence:
#
# PCOD8061009 Si02
#       8
#     4   4   4   4   4   4   4   4
#     4   9  19  33  53  87 109 143 177 221 268 313
#     4  10  22  41  58  75 105 143 182 221 273 333
#     4  11  23  35  55  82 106 137 181 230 280 313
#     4   9  17  33  53  78 111 145 179 214 260 319
#     4   9  18  32  54  81 110 147 183 216 258 312
#     4  10  19  35  58  80 106 143 183 220 262 316
#     4  10  19  32  56  83 116 138 180 225 263 312
#     4  10  20  36  58  79 101 138 179 219 270 326
#
# _framework density 19.332996999999999
#
# number of rings (size 3 to 8) (size 9 to 14) (size 15 to 20)
#    0.000    2.250    2.500    0.375    1.750    2.250 
#    0.000    3.750    0.000    0.750    0.000    0.000 
#    0.000    0.000    0.000    0.000    0.000    0.000 
#
# Total GULP energy -396550.848785 kJ/mol
# GULP energy per Si atom -12392.214025 kJ/mol
# Density = 1.928899 g / cm^3
# Si number density = 19.332997 Si / 1000 Ang^3
#
#
#
# Elastic Constant Matrix: (Units=GPa)
#
#
# Indices 1 2 3 4 5 6 
#
# 1 115.3640 15.7286 27.7955 0.0000 8.0813 0.0000
# 2 15.7286 50.0619 6.9277 0.0000 13.0553 0.0000
# 3 27.7955 6.9277 42.7172 0.0000 3.9968 0.0000
# 4 0.0000 0.0000 0.0000 18.4076 0.0000 5.4554
# 5 8.0813 13.0553 3.9968 0.0000 30.8661 0.0000
# 6 0.0000 0.0000 0.0000 5.4554 0.0000 22.5091
#
#
#
# Elastic Compliance Matrix: (Units=1/GPa)
#
#
# Indices 1 2 3 4 5 6 
#
# 1 0.010587 -0.002169 -0.006442 0.000000 -0.001021 0.000000
# 2 -0.002169 0.023229 -0.001508 0.000000 -0.009062 0.000000
# 3 -0.006442 -0.001508 0.027967 0.000000 -0.001297 0.000000
# 4 0.000000 0.000000 0.000000 0.058529 0.000000 -0.014185
# 5 -0.001021 -0.009062 -0.001297 0.000000 0.036666 0.000000
# 6 0.000000 0.000000 0.000000 -0.014185 0.000000 0.047864
#
#
# Mechanical properties :
#
#
# Convention : Reuss Voigt Hill
#
# Bulk Modulus (GPa) = 24.06982 34.33853 29.20417
# Shear Modulus (GPa) = 20.92669 24.86932 22.89800
#
# Velocity S-wave (km/s) = 3.29361 3.59049 3.44524
# Velocity P-wave (km/s) = 5.19047 5.91515 5.56462
#
# Compressibility (1/GPa) = 0.04154581
#
# Stress axis : x y z
#
# Youngs Moduli (GPa) = 94.45102 43.05054 35.75597
#
# Poissons Ratio (x) = 0.09337 0.23034
# Poissons Ratio (y) = 0.20485 0.05392
# Poissons Ratio (z) = 0.60845 0.06492
#
# Static dielectric constant tensor:
#      x y z
#    x 3.567210 0.000000 0.050180 
#    y 0.000000 3.377060 0.000000 
#    z 0.050180 0.000000 3.402610 
# 
# 
# High freq. dielectric constant tensor:
#      x y z
#    x 1.750880 0.000000 0.000930 
#    y 0.000000 1.732150 0.000000 
#    z 0.000930 0.000000 1.735990 
# 
# From -- ./inp_files/35119.got.cif
#   From: 2010.06.25/outbox.cif.g09.slc.cpg/sg10_18_cif.got.tgz:35119.got - 2010.06.27 22:07:45.
