data_PCOD8061296
_publ_section_title
;
Structure prediction by ZEFSAII (Michael W. Deem and Ramdas Pophale) SiO2 
 PCOD8061296
Probable space group: P 2/M
;
_chemical_formula_sum "Si O2"
_cell_formula_units_Z 32
_cell_length_a 11.110903
_cell_length_b 14.037757
_cell_length_c 11.959030
_cell_angle_alpha 90.000000
_cell_angle_beta 115.658877
_cell_angle_gamma 90.000000
_cell_volume 1681.337205
_symmetry_space_group_name_H-M "P 2/M"
_symmetry_group_IT_number 10
_symmetry_cell_setting 'monoclinic'
loop_
_space_group_symop_operation_xyz
x,y,z
-x,y,-z
-x,-y,-z
x,-y,z
loop_
_atom_site_type_symbol
_atom_site_label
_atom_site_fract_x
_atom_site_fract_y
_atom_site_fract_z
Si Si1 0.213631 0.393760 0.300686
Si Si2 0.659558 0.609756 0.417558
Si Si3 0.207493 0.737923 0.696184
Si Si4 0.642822 0.766585 0.020113
Si Si5 0.949058 0.778070 0.699159
Si Si6 0.895972 0.112611 0.056546
Si Si7 0.846677 0.895743 0.474329
Si Si8 0.593768 0.392424 0.817952
O O1 0.152077 0.500000 0.298441
O O2 0.321407 0.370700 0.442372
O O3 0.273256 0.393597 0.201507
O O4 0.106803 0.309116 0.250894
O O5 0.670929 0.500000 0.396030
O O6 0.773258 0.659548 0.391004
O O7 0.518455 0.646991 0.313043
O O8 0.293048 0.722793 0.842059
O O9 0.050721 0.728396 0.655256
O O10 0.238421 0.842769 0.656256
O O11 0.748357 0.836496 0.997792
O O12 0.500000 0.815129 0.000000
O O13 0.609053 0.677169 0.928399
O O14 0.028978 0.856883 0.801564
O O15 0.835319 0.835066 0.584888
O O16 0.869131 0.000000 0.044019
O O17 0.000000 0.142359 0.000000
O O18 0.000000 0.905119 0.500000
O O19 0.783266 0.000000 0.467162
O O20 0.563424 0.500000 0.849228
#
# Coordination Sequence:
#
# PCOD8061296 Si02
#       8
#     4   4   4   4   4   4   4   4
#     4  10  20  34  55  84 115 148 185 233 283 335
#     4  10  19  33  54  79 110 146 186 228 277 334
#     4  10  20  33  50  82 112 140 179 230 286 335
#     4  11  22  37  60  84 115 150 196 241 286 332
#     4  10  19  33  57  81 113 145 184 226 280 342
#     4  10  22  40  60  84 115 153 194 238 291 347
#     4   9  17  31  52  77 105 139 179 224 275 337
#     4  10  21  37  57  80 110 152 197 230 276 342
#
# _framework density 19.03247
#
# number of rings (size 3 to 8) (size 9 to 14) (size 15 to 20)
#    0.000    2.000    2.500    1.500    0.000    6.000 
#    0.000    3.125    0.000    6.750    0.000    0.875 
#    0.000    0.000    0.000    0.000    0.000    0.000 
#
# Total GULP energy -396455.586068 kJ/mol
# GULP energy per Si atom -12389.237065 kJ/mol
# Density = 1.898915 g / cm^3
# Si number density = 19.032470 Si / 1000 Ang^3
#
#
#
# Elastic Constant Matrix: (Units=GPa)
#
#
# Indices 1 2 3 4 5 6 
#
# 1 82.6560 36.5690 21.7201 0.0000 -7.8025 0.0000
# 2 36.5690 77.9416 35.8747 0.0000 -0.4211 0.0000
# 3 21.7201 35.8747 75.7859 0.0000 -1.4276 0.0000
# 4 0.0000 0.0000 0.0000 31.8734 0.0000 -3.0245
# 5 -7.8025 -0.4211 -1.4276 0.0000 23.2724 0.0000
# 6 0.0000 0.0000 0.0000 -3.0245 0.0000 24.7233
#
#
#
# Elastic Compliance Matrix: (Units=1/GPa)
#
#
# Indices 1 2 3 4 5 6 
#
# 1 0.015956 -0.006902 -0.001209 0.000000 0.005150 0.000000
# 2 -0.006902 0.019391 -0.007246 0.000000 -0.002408 0.000000
# 3 -0.001209 -0.007246 0.016981 0.000000 0.000505 0.000000
# 4 0.000000 0.000000 0.000000 0.031743 0.000000 0.003883
# 5 0.005150 -0.002408 0.000505 0.000000 0.044683 0.000000
# 6 0.000000 0.000000 0.000000 0.003883 0.000000 0.040923
#
#
# Mechanical properties :
#
#
# Convention : Reuss Voigt Hill
#
# Bulk Modulus (GPa) = 46.26683 47.19014 46.72848
# Shear Modulus (GPa) = 24.08537 25.45512 24.77025
#
# Velocity S-wave (km/s) = 3.56123 3.66109 3.61151
# Velocity P-wave (km/s) = 6.42433 6.53604 6.48043
#
# Compressibility (1/GPa) = 0.02161376
#
# Stress axis : x y z
#
# Youngs Moduli (GPa) = 62.67325 51.57116 58.88900
#
# Poissons Ratio (x) = 0.35595 0.07118
# Poissons Ratio (y) = 0.43257 0.42672
# Poissons Ratio (z) = 0.07575 0.37369
#
# Static dielectric constant tensor:
#      x y z
#    x 3.506340 0.000000 -0.078910 
#    y 0.000000 3.563730 0.000000 
#    z -0.078910 0.000000 3.589170 
# 
# 
# High freq. dielectric constant tensor:
#      x y z
#    x 1.719640 0.000000 -0.010520 
#    y 0.000000 1.736340 0.000000 
#    z -0.010520 0.000000 1.744110 
# 
# From -- ./inp_files/47034.got.cif
#   From: 2010.06.25/outbox.cif.g09.slc.cpg/sg10_24_cif.got.tgz:47034.got - 2010.06.27 22:07:45.
