data_PCOD8061229
_publ_section_title
;
Structure prediction by ZEFSAII (Michael W. Deem and Ramdas Pophale) SiO2 
 PCOD8061229
Probable space group: P 2/M
;
_chemical_formula_sum "Si O2"
_cell_formula_units_Z 32
_cell_length_a 32.381686
_cell_length_b 8.680396
_cell_length_c 12.435936
_cell_angle_alpha 90.000000
_cell_angle_beta 153.336419
_cell_angle_gamma 90.000000
_cell_volume 1568.638805
_symmetry_space_group_name_H-M "P 2/M"
_symmetry_group_IT_number 10
_symmetry_cell_setting 'monoclinic'
loop_
_space_group_symop_operation_xyz
x,y,z
-x,y,-z
-x,-y,-z
x,-y,z
loop_
_atom_site_type_symbol
_atom_site_label
_atom_site_fract_x
_atom_site_fract_y
_atom_site_fract_z
Si Si1 0.222075 0.820195 0.636966
Si Si2 0.405811 0.179890 0.568574
Si Si3 0.065591 0.321338 0.854282
Si Si4 0.160578 0.178754 0.263551
Si Si5 0.345229 0.323615 0.638854
Si Si6 0.124099 0.820742 0.628952
Si Si7 0.225945 0.679103 0.062382
Si Si8 0.410872 0.676000 0.028088
O O1 0.165916 0.765444 0.400090
O O2 0.159702 0.779216 0.593135
O O3 0.319383 0.734771 0.874622
O O4 0.243898 0.000000 0.677516
O O5 0.407416 0.275778 0.683196
O O6 0.318693 0.223593 0.292964
O O7 0.405089 0.000000 0.591300
O O8 0.500179 0.226611 0.726782
O O9 0.039857 0.500000 0.788093
O O10 0.982294 0.224905 0.610114
O O11 0.082451 0.272709 0.017525
O O12 0.155314 0.280401 0.993380
O O13 0.258172 0.210810 0.435113
O O14 0.135261 0.000000 0.195749
O O15 0.311259 0.500000 0.546053
O O16 0.402384 0.303259 0.880250
O O17 0.135778 0.000000 0.682961
O O18 0.182766 0.721577 0.848110
O O19 0.251360 0.500000 0.123186
O O20 0.425952 0.500000 0.096361
#
# Coordination Sequence:
#
# PCOD8061229 Si02
#       8
#     4   4   4   4   4   4   4   4
#     4   9  21  41  61  86 121 158 197 246 295 345
#     4  12  23  35  57  87 119 156 198 241 292 352
#     4  11  23  39  61  89 122 155 193 245 302 354
#     4  10  19  34  59  88 120 157 196 239 294 352
#     4  10  19  33  53  83 122 158 192 236 293 350
#     4  11  24  42  64  87 116 155 201 248 296 353
#     4  11  24  42  62  86 121 155 195 249 300 349
#     4  10  21  36  58  86 119 158 197 240 291 349
#
# _framework density 20.399854000000001
#
# number of rings (size 3 to 8) (size 9 to 14) (size 15 to 20)
#    0.000    1.500    1.250    4.125    0.000    8.000 
#    0.000    3.125    0.000    3.750    0.000    0.000 
#    0.000    0.000    0.000    0.000    0.000    0.000 
#
# Total GULP energy -396940.933630 kJ/mol
# GULP energy per Si atom -12404.404176 kJ/mol
# Density = 2.035342 g / cm^3
# Si number density = 20.399854 Si / 1000 Ang^3
#
#
#
# Elastic Constant Matrix: (Units=GPa)
#
#
# Indices 1 2 3 4 5 6 
#
# 1 49.5793 26.4808 19.5079 0.0000 -10.2833 0.0000
# 2 26.4808 66.6678 31.2817 0.0000 -0.0843 0.0000
# 3 19.5079 31.2817 99.1392 0.0000 -1.3847 0.0000
# 4 0.0000 0.0000 0.0000 36.6661 0.0000 -0.9197
# 5 -10.2833 -0.0843 -1.3847 0.0000 16.1339 0.0000
# 6 0.0000 0.0000 0.0000 -0.9197 0.0000 27.0705
#
#
#
# Elastic Compliance Matrix: (Units=1/GPa)
#
#
# Indices 1 2 3 4 5 6 
#
# 1 0.031163 -0.011274 -0.002301 0.000000 0.019606 0.000000
# 2 -0.011274 0.021687 -0.004729 0.000000 -0.007478 0.000000
# 3 -0.002301 -0.004729 0.012025 0.000000 -0.000459 0.000000
# 4 0.000000 0.000000 0.000000 0.027296 0.000000 0.000927
# 5 0.019606 -0.007478 -0.000459 0.000000 0.074399 0.000000
# 6 0.000000 0.000000 0.000000 0.000927 0.000000 0.036972
#
#
# Mechanical properties :
#
#
# Convention : Reuss Voigt Hill
#
# Bulk Modulus (GPa) = 35.37563 41.10301 38.23932
# Shear Modulus (GPa) = 20.03418 25.18182 22.60800
#
# Velocity S-wave (km/s) = 3.13721 3.51723 3.33264
# Velocity P-wave (km/s) = 5.52282 6.05698 5.79605
#
# Compressibility (1/GPa) = 0.02826805
#
# Stress axis : x y z
#
# Youngs Moduli (GPa) = 32.08939 46.11010 83.15750
#
# Poissons Ratio (x) = 0.51983 0.19134
# Poissons Ratio (y) = 0.36176 0.39326
# Poissons Ratio (z) = 0.07384 0.21806
#
# Static dielectric constant tensor:
#      x y z
#    x 3.558880 0.000000 -0.037770 
#    y 0.000000 3.695000 0.000000 
#    z -0.037770 0.000000 3.687410 
# 
# 
# High freq. dielectric constant tensor:
#      x y z
#    x 1.777630 0.000000 0.002220 
#    y 0.000000 1.803740 0.000000 
#    z 0.002220 0.000000 1.803160 
# 
# From -- ./inp_files/58347.got.cif
#   From: 2010.06.25/outbox.cif.g09.slc.cpg/sg10_30_cif.got.tgz:58347.got - 2010.06.27 22:07:45.
