data_PCOD8061696
_publ_section_title
;
Structure prediction by ZEFSAII (Michael W. Deem and Ramdas Pophale) SiO2 
 PCOD8061696
Probable space group: P 2/M
;
_chemical_formula_sum "Si O2"
_cell_formula_units_Z 30
_cell_length_a 28.731957
_cell_length_b 10.718186
_cell_length_c 28.215345
_cell_angle_alpha 90.000000
_cell_angle_beta 169.552552
_cell_angle_gamma 90.000000
_cell_volume 1575.615161
_symmetry_space_group_name_H-M "P 2/M"
_symmetry_group_IT_number 10
_symmetry_cell_setting 'monoclinic'
loop_
_space_group_symop_operation_xyz
x,y,z
-x,y,-z
-x,-y,-z
x,-y,z
loop_
_atom_site_type_symbol
_atom_site_label
_atom_site_fract_x
_atom_site_fract_y
_atom_site_fract_z
Si Si1 0.236974 0.289140 0.128529
Si Si2 0.786806 0.636717 0.000261
Si Si3 0.248706 0.500000 0.216884
Si Si4 0.251399 0.640763 0.783077
Si Si5 0.261254 0.139885 0.388423
Si Si6 0.237929 0.860243 0.573091
Si Si7 0.285573 0.220731 0.517067
Si Si8 0.260211 0.848076 0.872319
O O1 0.230892 0.367959 0.074241
O O2 0.248531 0.377804 0.184789
O O3 0.485485 0.202763 0.378200
O O4 0.983610 0.206446 0.879079
O O5 0.728603 0.500000 0.961912
O O6 0.574356 0.727669 0.809194
O O7 0.073568 0.670635 0.303518
O O8 0.500000 0.500000 0.500000
O O9 0.000000 0.500000 0.000000
O O10 0.253346 0.500000 0.808701
O O11 0.251017 0.760323 0.817307
O O12 0.000000 0.655149 0.500000
O O13 0.500000 0.656186 0.000000
O O14 0.252174 0.137759 0.436654
O O15 0.258759 0.000000 0.367241
O O16 0.239422 0.858708 0.517701
O O17 0.978496 0.802459 0.334496
O O18 0.240564 0.000000 0.593349
O O19 0.491614 0.800432 0.849949
O O20 0.259601 0.000000 0.860627
#
# Coordination Sequence:
#
# PCOD8061696 Si02
#       8
#     4   4   2   4   4   4   4   4
#     4  10  21  37  58  83 113 146 179 235 286 325
#     4  10  19  34  52  76 111 142 181 229 282 321
#     4  12  24  40  64  88 112 142 192 236 280 350
#     4  10  21  38  59  82 108 138 178 230 285 337
#     4  10  20  35  59  87 114 147 190 231 277 332
#     4  10  20  36  53  75 112 146 184 225 267 321
#     4  10  20  32  54  80 108 151 188 225 268 319
#     4  10  21  36  57  81 108 146 182 226 278 327
#
# _framework density 19.040181
#
# number of rings (size 3 to 8) (size 9 to 14) (size 15 to 20)
#    0.000    1.867    0.667    3.600    0.000    0.533 
#    0.000    8.000    0.000    8.000    0.000    0.000 
#    0.000    0.000    0.000    0.000    0.000    0.000 
#
# Total GULP energy -371861.705674 kJ/mol
# GULP energy per Si atom -12395.390189 kJ/mol
# Density = 1.899684 g / cm^3
# Si number density = 19.040181 Si / 1000 Ang^3
#
#
#
# Elastic Constant Matrix: (Units=GPa)
#
#
# Indices 1 2 3 4 5 6 
#
# 1 106.1775 48.1011 57.2882 0.0000 6.2348 0.0000
# 2 48.1011 106.1752 47.8022 0.0000 -0.3906 0.0000
# 3 57.2882 47.8022 168.6592 0.0000 11.9578 0.0000
# 4 0.0000 0.0000 0.0000 -4.2731 0.0000 3.4197
# 5 6.2348 -0.3906 11.9578 0.0000 27.7644 0.0000
# 6 0.0000 0.0000 0.0000 3.4197 0.0000 23.8091
#
#
#
# Elastic Compliance Matrix: (Units=1/GPa)
#
#
# Indices 1 2 3 4 5 6 
#
# 1 0.013279 -0.004638 -0.003074 0.000000 -0.001723 0.000000
# 2 -0.004638 0.012478 -0.002112 0.000000 0.002127 0.000000
# 3 -0.003074 -0.002112 0.007762 0.000000 -0.002682 0.000000
# 4 0.000000 0.000000 0.000000 -0.209895 0.000000 0.030147
# 5 -0.001723 0.002127 -0.002682 0.000000 0.037590 0.000000
# 6 0.000000 0.000000 0.000000 0.030147 0.000000 0.037671
#
#
# Mechanical properties :
#
#
# Convention : Reuss Voigt Hill
#
# Bulk Modulus (GPa) = 72.09092 76.37720 74.23406
# Shear Modulus (GPa) = -65.06696 24.64812 -20.20942
#
# Velocity S-wave (km/s) = -5.85215 3.60186 -3.26146
# Velocity P-wave (km/s) = 2.77829 7.58279 4.98898
#
# Compressibility (1/GPa) = 0.01387137
#
# Stress axis : x y z
#
# Youngs Moduli (GPa) = 75.30626 80.13832 128.83439
#
# Poissons Ratio (x) = 0.37172 0.39599
# Poissons Ratio (y) = 0.34930 0.27209
# Poissons Ratio (z) = 0.23147 0.16925
#
# Static dielectric constant tensor:
#      x y z
#    x 3.279810 0.000000 0.091660 
#    y 0.000000 3.443240 0.000000 
#    z 0.091660 0.000000 3.914970 
# 
# 
# High freq. dielectric constant tensor:
#      x y z
#    x 1.721620 0.000000 0.007210 
#    y 0.000000 1.734640 0.000000 
#    z 0.007210 0.000000 1.767590 
# 
# From -- ./inp_files/94099.got.cif
#   From: 2010.06.25/outbox.cif.g09.slc.cpg/sg10_48_cif.got.tgz:94099.got - 2010.06.27 22:07:45.
