data_PCOD8061901
_publ_section_title
;
Structure prediction by ZEFSAII (Michael W. Deem and Ramdas Pophale) SiO2 
 PCOD8061901
Probable space group: P 2/M
;
_chemical_formula_sum "Si O2"
_cell_formula_units_Z 32
_cell_length_a 20.127389
_cell_length_b 9.265026
_cell_length_c 25.799289
_cell_angle_alpha 90.000000
_cell_angle_beta 158.828031
_cell_angle_gamma 90.000000
_cell_volume 1737.607046
_symmetry_space_group_name_H-M "P 2/M"
_symmetry_group_IT_number 10
_symmetry_cell_setting 'monoclinic'
loop_
_space_group_symop_operation_xyz
x,y,z
-x,y,-z
-x,-y,-z
x,-y,z
loop_
_atom_site_type_symbol
_atom_site_label
_atom_site_fract_x
_atom_site_fract_y
_atom_site_fract_z
Si Si1 0.096748 0.331141 0.374420
Si Si2 0.205583 0.329539 0.161059
Si Si3 0.502183 0.332645 0.294050
Si Si4 0.700712 0.166333 0.667878
Si Si5 0.202585 0.829330 0.787715
Si Si6 0.588838 0.831364 0.873709
Si Si7 0.995813 0.831839 0.797478
Si Si8 0.479335 0.829761 0.904701
O O1 0.052617 0.500000 0.340743
O O2 0.311083 0.300622 0.539274
O O3 0.035897 0.260784 0.276547
O O4 0.985508 0.257971 0.340905
O O5 0.214978 0.500000 0.175184
O O6 0.334053 0.278241 0.207277
O O7 0.278051 0.260223 0.265922
O O8 0.000000 0.275438 0.000000
O O9 0.481054 0.500000 0.265297
O O10 0.502821 0.247987 0.240929
O O11 0.500000 0.195884 0.500000
O O12 0.848012 0.216494 0.732498
O O13 0.730800 0.000000 0.704523
O O14 0.287597 0.787813 0.793217
O O15 0.164284 0.000000 0.763792
O O16 0.345838 0.773962 0.935512
O O17 0.488636 0.770895 0.852812
O O18 0.552299 0.000000 0.840024
O O19 0.805056 0.797592 0.034106
O O20 0.976413 0.000000 0.768465
O O21 0.500464 0.000000 0.919303
#
# Coordination Sequence:
#
# PCOD8061901 Si02
#       8
#     4   4   4   4   4   4   4   4
#     4  11  22  35  52  78 111 145 180 216 259 318
#     4  10  21  38  58  77 101 140 186 224 262 317
#     4  10  23  39  52  74 111 147 178 216 266 319
#     4  10  21  35  53  81 111 136 170 219 272 322
#     4   9  16  32  57  80 107 140 172 217 268 310
#     4  10  19  34  56  82 104 132 179 224 262 311
#     4  10  20  35  56  80 107 137 174 222 270 318
#     4   8  15  30  55  83 107 134 172 220 267 309
#
# _framework density 18.416132000000001
#
# number of rings (size 3 to 8) (size 9 to 14) (size 15 to 20)
#    0.000    2.250    1.250    2.625    0.000    3.000 
#    0.000    2.500    0.000    3.750    0.000    0.000 
#    0.000    0.000    0.000    0.000    0.000    0.000 
#
# Total GULP energy -396830.788385 kJ/mol
# GULP energy per Si atom -12400.962137 kJ/mol
# Density = 1.837422 g / cm^3
# Si number density = 18.416132 Si / 1000 Ang^3
#
#
#
# Elastic Constant Matrix: (Units=GPa)
#
#
# Indices 1 2 3 4 5 6 
#
# 1 126.0464 37.2255 29.4771 0.0000 8.3310 0.0000
# 2 37.2255 48.3039 29.0548 0.0000 -0.3001 0.0000
# 3 29.4771 29.0548 49.4596 0.0000 3.9736 0.0000
# 4 0.0000 0.0000 0.0000 27.9916 0.0000 -1.1727
# 5 8.3310 -0.3001 3.9736 0.0000 24.4264 0.0000
# 6 0.0000 0.0000 0.0000 -1.1727 0.0000 17.1493
#
#
#
# Elastic Compliance Matrix: (Units=1/GPa)
#
#
# Indices 1 2 3 4 5 6 
#
# 1 0.010713 -0.007117 -0.001928 0.000000 -0.003428 0.000000
# 2 -0.007117 0.037041 -0.017984 0.000000 0.005808 0.000000
# 3 -0.001928 -0.017984 0.032320 0.000000 -0.004821 0.000000
# 4 0.000000 0.000000 0.000000 0.035828 0.000000 0.002450
# 5 -0.003428 0.005808 -0.004821 0.000000 0.042964 0.000000
# 6 0.000000 0.000000 0.000000 0.002450 0.000000 0.058479
#
#
# Mechanical properties :
#
#
# Convention : Reuss Voigt Hill
#
# Bulk Modulus (GPa) = 38.44118 46.14719 42.29419
# Shear Modulus (GPa) = 17.85231 22.45031 20.15131
#
# Velocity S-wave (km/s) = 3.11687 3.49529 3.31149
# Velocity P-wave (km/s) = 5.81998 6.43442 6.13490
#
# Compressibility (1/GPa) = 0.02601377
#
# Stress axis : x y z
#
# Youngs Moduli (GPa) = 93.34363 26.99713 30.94070
#
# Poissons Ratio (x) = 0.19215 0.05966
# Poissons Ratio (y) = 0.66437 0.55645
# Poissons Ratio (z) = 0.18000 0.48552
#
# Static dielectric constant tensor:
#      x y z
#    x 3.720330 0.000000 0.219090 
#    y 0.000000 3.193000 0.000000 
#    z 0.219090 0.000000 3.310500 
# 
# 
# High freq. dielectric constant tensor:
#      x y z
#    x 1.729860 0.000000 0.012350 
#    y 0.000000 1.693860 0.000000 
#    z 0.012350 0.000000 1.708970 
# 
# From -- ./inp_files/86825.got.cif
#   From: 2010.06.25/outbox.cif.g09.slc.cpg/sg10_44_cif.got.tgz:86825.got - 2010.06.27 22:07:45.
