data_PCOD8061678
_publ_section_title
;
Structure prediction by ZEFSAII (Michael W. Deem and Ramdas Pophale) SiO2 
 PCOD8061678
Probable space group: P 2/M
;
_chemical_formula_sum "Si O2"
_cell_formula_units_Z 28
_cell_length_a 11.809418
_cell_length_b 9.153995
_cell_length_c 15.452761
_cell_angle_alpha 90.000000
_cell_angle_beta 120.313240
_cell_angle_gamma 90.000000
_cell_volume 1442.103397
_symmetry_space_group_name_H-M "P 2/M"
_symmetry_group_IT_number 10
_symmetry_cell_setting 'monoclinic'
loop_
_space_group_symop_operation_xyz
x,y,z
-x,y,-z
-x,-y,-z
x,-y,z
loop_
_atom_site_type_symbol
_atom_site_label
_atom_site_fract_x
_atom_site_fract_y
_atom_site_fract_z
Si Si1 0.850425 0.332032 0.683838
Si Si2 0.627664 0.174649 0.995464
Si Si3 0.141787 0.670839 0.817673
Si Si4 0.860181 0.339205 0.489602
Si Si5 0.470485 0.163376 0.219195
Si Si6 0.235696 0.836925 0.693477
Si Si7 0.586429 0.173838 0.614859
O O1 0.807679 0.500000 0.680754
O O2 0.874471 0.293840 0.593618
O O3 0.736320 0.226749 0.672348
O O4 0.989480 0.302063 0.785982
O O5 0.619874 0.230891 0.892094
O O6 0.638218 0.000000 0.005271
O O7 0.500000 0.228783 0.000000
O O8 0.761959 0.242666 0.082213
O O9 0.175490 0.500000 0.832603
O O10 0.160582 0.726859 0.727196
O O11 0.795510 0.500000 0.455605
O O12 0.772815 0.217853 0.408638
O O13 0.000000 0.337952 0.500000
O O14 0.611098 0.162074 0.226733
O O15 0.468036 0.237742 0.313769
O O16 0.421219 0.000000 0.217876
O O17 0.176660 0.000000 0.679869
O O18 0.500000 0.236282 0.500000
O O19 0.582332 0.000000 0.608257
#
# Coordination Sequence:
#
# PCOD8061678 Si02
#       7
#     4   4   4   4   4   4   4
#     4  10  22  39  57  78 115 157 191 233 287 343
#     4  10  19  36  59  84 115 152 190 236 290 345
#     4  11  22  37  55  82 118 152 187 234 291 343
#     4  10  19  34  51  74 112 152 182 224 286 341
#     4   9  19  36  57  82 115 148 183 236 296 338
#     4  11  20  33  55  84 114 147 188 234 285 344
#     4  10  21  39  62  86 114 148 192 241 282 334
#
# _framework density 19.416083
#
# number of rings (size 3 to 8) (size 9 to 14) (size 15 to 20)
#    0.000    1.857    2.857    1.714    0.000    3.714 
#    0.000    2.857    0.000    4.286    0.000    0.000 
#    0.000    0.000    0.000    0.000    0.000    0.000 
#
# Total GULP energy -346974.871235 kJ/mol
# GULP energy per Si atom -12391.959687 kJ/mol
# Density = 1.937189 g / cm^3
# Si number density = 19.416083 Si / 1000 Ang^3
#
#
#
# Elastic Constant Matrix: (Units=GPa)
#
#
# Indices 1 2 3 4 5 6 
#
# 1 80.4849 20.6745 34.8641 0.0000 2.3351 0.0000
# 2 20.6745 46.8048 35.9957 0.0000 5.5439 0.0000
# 3 34.8641 35.9957 128.5773 0.0000 5.2114 0.0000
# 4 0.0000 0.0000 0.0000 27.6776 0.0000 3.3131
# 5 2.3351 5.5439 5.2114 0.0000 31.0498 0.0000
# 6 0.0000 0.0000 0.0000 3.3131 0.0000 21.1114
#
#
#
# Elastic Compliance Matrix: (Units=1/GPa)
#
#
# Indices 1 2 3 4 5 6 
#
# 1 0.014752 -0.004400 -0.002774 0.000000 0.000142 0.000000
# 2 -0.004400 0.028947 -0.006761 0.000000 -0.003703 0.000000
# 3 -0.002774 -0.006761 0.010436 0.000000 -0.000336 0.000000
# 4 0.000000 0.000000 0.000000 0.036822 0.000000 -0.005779
# 5 0.000142 -0.003703 -0.000336 0.000000 0.032913 0.000000
# 6 0.000000 0.000000 0.000000 -0.005779 0.000000 0.048275
#
#
# Mechanical properties :
#
#
# Convention : Reuss Voigt Hill
#
# Bulk Modulus (GPa) = 38.07203 48.77061 43.42132
# Shear Modulus (GPa) = 23.94987 26.92327 25.43657
#
# Velocity S-wave (km/s) = 3.51594 3.72781 3.62343
# Velocity P-wave (km/s) = 6.01112 6.61075 6.31805
#
# Compressibility (1/GPa) = 0.02626600
#
# Stress axis : x y z
#
# Youngs Moduli (GPa) = 67.78530 34.54625 95.82262
#
# Poissons Ratio (x) = 0.15199 0.26583
# Poissons Ratio (y) = 0.29823 0.64783
# Poissons Ratio (z) = 0.18805 0.23356
#
# Static dielectric constant tensor:
#      x y z
#    x 3.472270 0.000000 -0.043480 
#    y 0.000000 3.417360 0.000000 
#    z -0.043480 0.000000 3.904120 
# 
# 
# High freq. dielectric constant tensor:
#      x y z
#    x 1.739350 0.000000 0.005320 
#    y 0.000000 1.735580 0.000000 
#    z 0.005320 0.000000 1.766080 
# 
# From -- ./inp_files/50044.got.cif
#   From: 2010.06.25/outbox.cif.g09.slc.cpg/sg10_26_cif.got.tgz:50044.got - 2010.06.27 22:07:45.
