data_PCOD8061722
_publ_section_title
;
Structure prediction by ZEFSAII (Michael W. Deem and Ramdas Pophale) SiO2 
 PCOD8061722
Probable space group: P 2/M
;
_chemical_formula_sum "Si O2"
_cell_formula_units_Z 32
_cell_length_a 15.361042
_cell_length_b 14.174986
_cell_length_c 12.932698
_cell_angle_alpha 90.000000
_cell_angle_beta 37.891123
_cell_angle_gamma 90.000000
_cell_volume 1729.482040
_symmetry_space_group_name_H-M "P 2/M"
_symmetry_group_IT_number 10
_symmetry_cell_setting 'monoclinic'
loop_
_space_group_symop_operation_xyz
x,y,z
-x,y,-z
-x,-y,-z
x,-y,z
loop_
_atom_site_type_symbol
_atom_site_label
_atom_site_fract_x
_atom_site_fract_y
_atom_site_fract_z
Si Si1 0.664997 0.894835 0.146892
Si Si2 0.669069 0.764925 0.725545
Si Si3 0.656862 0.234582 0.969726
Si Si4 0.154970 0.393187 0.125050
Si Si5 0.100473 0.607999 0.500541
Si Si6 0.159125 0.391595 0.881711
Si Si7 0.671280 0.894605 0.538841
Si Si8 0.668127 0.779619 0.342898
O O1 0.496853 0.901361 0.307816
O O2 0.721379 0.837641 0.193104
O O3 0.730537 0.000000 0.087384
O O4 0.714870 0.843836 0.994896
O O5 0.680439 0.804539 0.831715
O O6 0.759765 0.670948 0.624172
O O7 0.722961 0.845688 0.596595
O O8 0.506176 0.739741 0.853579
O O9 0.743816 0.330387 0.899327
O O10 0.198314 0.500000 0.110147
O O11 0.990194 0.377493 0.309500
O O12 0.178422 0.369436 0.984003
O O13 0.150393 0.500000 0.440646
O O14 0.000000 0.638918 0.500000
O O15 0.196586 0.500000 0.819892
O O16 0.264665 0.324603 0.719250
O O17 0.000000 0.367542 0.000000
O O18 0.724316 0.834506 0.391089
O O19 0.736496 0.000000 0.473123
O O20 0.500000 0.767474 0.500000
#
# Coordination Sequence:
#
# PCOD8061722 Si02
#       8
#     4   4   4   4   4   4   4   4
#     4   9  17  32  55  81 106 136 179 227 273 324
#     4  10  21  33  54  81 112 143 180 226 269 314
#     4  10  19  34  53  83 111 139 179 226 274 317
#     4  10  20  36  56  75 106 147 182 220 268 324
#     4  10  20  35  54  77 103 141 186 219 259 320
#     4  10  22  38  55  80 112 147 181 216 269 331
#     4   9  19  34  53  80 111 142 177 222 275 324
#     4  10  19  34  59  83 107 138 181 227 273 318
#
# _framework density 18.502649999999999
#
# number of rings (size 3 to 8) (size 9 to 14) (size 15 to 20)
#    0.000    2.250    2.500    0.375    1.750    2.750 
#    0.000    3.750    0.000    4.125    0.000    0.000 
#    0.000    0.000    0.000    0.000    0.000    0.000 
#
# Total GULP energy -396806.459064 kJ/mol
# GULP energy per Si atom -12400.201846 kJ/mol
# Density = 1.846054 g / cm^3
# Si number density = 18.502650 Si / 1000 Ang^3
#
#
#
# Elastic Constant Matrix: (Units=GPa)
#
#
# Indices 1 2 3 4 5 6 
#
# 1 80.8098 57.7744 38.4355 0.0000 19.6016 0.0000
# 2 57.7744 136.6473 62.2230 0.0000 12.4640 0.0000
# 3 38.4355 62.2230 78.0254 0.0000 20.2378 0.0000
# 4 0.0000 0.0000 0.0000 16.8456 0.0000 10.9752
# 5 19.6016 12.4640 20.2378 0.0000 27.8058 0.0000
# 6 0.0000 0.0000 0.0000 10.9752 0.0000 21.7297
#
#
#
# Elastic Compliance Matrix: (Units=1/GPa)
#
#
# Indices 1 2 3 4 5 6 
#
# 1 0.020731 -0.006882 -0.002137 0.000000 -0.009974 0.000000
# 2 -0.006882 0.013855 -0.009007 0.000000 0.005196 0.000000
# 3 -0.002137 -0.009007 0.024178 0.000000 -0.012054 0.000000
# 4 0.000000 0.000000 0.000000 0.088478 0.000000 -0.044689
# 5 -0.009974 0.005196 -0.012054 0.000000 0.049439 0.000000
# 6 0.000000 0.000000 0.000000 -0.044689 0.000000 0.068591
#
#
# Mechanical properties :
#
#
# Convention : Reuss Voigt Hill
#
# Bulk Modulus (GPa) = 44.02824 68.03870 56.03347
# Shear Modulus (GPa) = 16.18677 22.41285 19.29981
#
# Velocity S-wave (km/s) = 2.96097 3.48420 3.23318
# Velocity P-wave (km/s) = 5.96130 7.28275 6.65490
#
# Compressibility (1/GPa) = 0.02271269
#
# Stress axis : x y z
#
# Youngs Moduli (GPa) = 48.23754 72.17506 41.36016
#
# Poissons Ratio (x) = 0.49673 0.08837
# Poissons Ratio (y) = 0.33199 0.37252
# Poissons Ratio (z) = 0.10306 0.65006
#
# Static dielectric constant tensor:
#      x y z
#    x 3.327630 0.000000 0.315400 
#    y 0.000000 3.461190 0.000000 
#    z 0.315400 0.000000 3.432450 
# 
# 
# High freq. dielectric constant tensor:
#      x y z
#    x 1.707730 0.000000 0.026120 
#    y 0.000000 1.717170 0.000000 
#    z 0.026120 0.000000 1.707630 
# 
# From -- ./inp_files/29558.got.cif
#   From: 2010.06.25/outbox.cif.g09.slc.cpg/sg10_15_cif.got.tgz:29558.got - 2010.06.27 22:07:45.
