data_PCOD8061402
_publ_section_title
;
Structure prediction by ZEFSAII (Michael W. Deem and Ramdas Pophale) SiO2 
 PCOD8061402
Probable space group: P 2/M
;
_chemical_formula_sum "Si O2"
_cell_formula_units_Z 28
_cell_length_a 9.410305
_cell_length_b 9.245546
_cell_length_c 26.786492
_cell_angle_alpha 90.000000
_cell_angle_beta 138.013265
_cell_angle_gamma 90.000000
_cell_volume 1559.018631
_symmetry_space_group_name_H-M "P 2/M"
_symmetry_group_IT_number 10
_symmetry_cell_setting 'monoclinic'
loop_
_space_group_symop_operation_xyz
x,y,z
-x,y,-z
-x,-y,-z
x,-y,z
loop_
_atom_site_type_symbol
_atom_site_label
_atom_site_fract_x
_atom_site_fract_y
_atom_site_fract_z
Si Si1 0.450151 0.843104 0.212244
Si Si2 0.769854 0.838457 0.948116
Si Si3 0.021354 0.329209 0.760320
Si Si4 0.851646 0.331002 0.317140
Si Si5 0.557526 0.671278 0.071254
Si Si6 0.635506 0.837123 0.703539
Si Si7 0.857207 0.829833 0.417445
O O1 0.307706 0.850638 0.127748
O O2 0.604590 0.707177 0.248217
O O3 0.300258 0.824255 0.221485
O O4 0.572427 0.000000 0.250681
O O5 0.628665 0.733336 0.943723
O O6 0.778165 0.000000 0.974403
O O7 0.000000 0.768739 0.000000
O O8 0.011027 0.500000 0.762554
O O9 0.049095 0.282083 0.709856
O O10 0.214525 0.272559 0.847025
O O11 0.793234 0.266386 0.715188
O O12 0.882811 0.500000 0.334622
O O13 0.943502 0.245230 0.389037
O O14 0.550754 0.500000 0.073435
O O15 0.500000 0.722620 0.000000
O O16 0.387920 0.789099 0.634475
O O17 0.664865 0.000000 0.690693
O O18 0.000000 0.770557 0.500000
O O19 0.887125 0.000000 0.418533
#
# Coordination Sequence:
#
# PCOD8061402 Si02
#       7
#     4   4   4   4   4   4   4
#     4   9  18  34  52  74 103 137 178 224 269 317
#     4  10  21  35  53  77 105 135 177 231 280 323
#     4  10  21  36  52  76 110 144 181 224 266 314
#     4  10  19  33  55  80 106 139 179 218 260 315
#     4  10  22  39  54  73 106 147 188 228 271 319
#     4   9  19  33  54  81 105 135 177 217 261 317
#     4   9  19  38  61  84 111 140 173 216 264 318
#
# _framework density 17.960016
#
# number of rings (size 3 to 8) (size 9 to 14) (size 15 to 20)
#    0.000    2.429    1.429    1.286    2.000    4.857 
#    0.000    0.714    0.000    4.286    0.000    0.000 
#    0.000    0.000    0.000    0.000    0.000    0.000 
#
# Total GULP energy -346920.156143 kJ/mol
# GULP energy per Si atom -12390.005577 kJ/mol
# Density = 1.791914 g / cm^3
# Si number density = 17.960016 Si / 1000 Ang^3
#
#
#
# Elastic Constant Matrix: (Units=GPa)
#
#
# Indices 1 2 3 4 5 6 
#
# 1 125.5454 38.2124 68.4490 0.0000 -10.2283 0.0000
# 2 38.2124 26.1876 29.7479 0.0000 -8.7372 0.0000
# 3 68.4490 29.7479 98.6618 0.0000 -19.1000 0.0000
# 4 0.0000 0.0000 0.0000 20.5950 0.0000 -3.7568
# 5 -10.2283 -8.7372 -19.1000 0.0000 25.7459 0.0000
# 6 0.0000 0.0000 0.0000 -3.7568 0.0000 18.8762
#
#
#
# Elastic Compliance Matrix: (Units=1/GPa)
#
#
# Indices 1 2 3 4 5 6 
#
# 1 0.017119 -0.018307 -0.007290 0.000000 -0.004820 0.000000
# 2 -0.018307 0.079044 -0.008579 0.000000 0.013187 0.000000
# 3 -0.007290 -0.008579 0.019449 0.000000 0.008621 0.000000
# 4 0.000000 0.000000 0.000000 0.050385 0.000000 0.010028
# 5 -0.004820 0.013187 0.008621 0.000000 0.047797 0.000000
# 6 0.000000 0.000000 0.000000 0.010028 0.000000 0.054972
#
#
# Mechanical properties :
#
#
# Convention : Reuss Voigt Hill
#
# Bulk Modulus (GPa) = 21.15955 58.13483 39.64719
# Shear Modulus (GPa) = 14.16939 20.64245 17.40592
#
# Velocity S-wave (km/s) = 2.81186 3.39389 3.11649
# Velocity P-wave (km/s) = 4.72748 6.91356 5.92226
#
# Compressibility (1/GPa) = 0.04725998
#
# Stress axis : x y z
#
# Youngs Moduli (GPa) = 58.41304 12.65113 51.41622
#
# Poissons Ratio (x) = 0.23160 0.37484
# Poissons Ratio (y) = 1.06937 0.44111
# Poissons Ratio (z) = 0.42585 0.10854
#
# Static dielectric constant tensor:
#      x y z
#    x 3.300080 0.000000 -0.269520 
#    y 0.000000 3.287690 0.000000 
#    z -0.269520 0.000000 3.536930 
# 
# 
# High freq. dielectric constant tensor:
#      x y z
#    x 1.692180 0.000000 -0.015400 
#    y 0.000000 1.688150 0.000000 
#    z -0.015400 0.000000 1.692480 
# 
# From -- ./inp_files/37237.got.cif
#   From: 2010.06.25/outbox.cif.g09.slc.cpg/sg10_19_cif.got.tgz:37237.got - 2010.06.27 22:07:45.
