data_PCOD8061405
_publ_section_title
;
Structure prediction by ZEFSAII (Michael W. Deem and Ramdas Pophale) SiO2 
 PCOD8061405
Probable space group: P 2/M
;
_chemical_formula_sum "Si O2"
_cell_formula_units_Z 24
_cell_length_a 11.691763
_cell_length_b 8.938908
_cell_length_c 24.219246
_cell_angle_alpha 90.000000
_cell_angle_beta 150.602564
_cell_angle_gamma 90.000000
_cell_volume 1242.472969
_symmetry_space_group_name_H-M "P 2/M"
_symmetry_group_IT_number 10
_symmetry_cell_setting 'monoclinic'
loop_
_space_group_symop_operation_xyz
x,y,z
-x,y,-z
-x,-y,-z
x,-y,z
loop_
_atom_site_type_symbol
_atom_site_label
_atom_site_fract_x
_atom_site_fract_y
_atom_site_fract_z
Si Si1 0.958864 0.322807 0.596888
Si Si2 0.176130 0.328380 0.801175
Si Si3 0.011066 0.175638 0.172281
Si Si4 0.483446 0.321756 0.344440
Si Si5 0.423570 0.677769 0.738996
Si Si6 0.666634 0.328069 0.950170
O O1 0.963054 0.500000 0.593155
O O2 0.711358 0.260650 0.472284
O O3 0.002833 0.278058 0.679025
O O4 0.167049 0.257686 0.646064
O O5 0.128469 0.500000 0.798345
O O6 0.441435 0.309022 0.893915
O O7 0.135503 0.222138 0.835859
O O8 0.262821 0.251677 0.281757
O O9 0.042666 0.000000 0.183860
O O10 0.877017 0.228117 0.060985
O O11 0.466366 0.500000 0.339974
O O12 0.495397 0.263030 0.286370
O O13 0.406909 0.500000 0.732094
O O14 0.608507 0.727299 0.863629
O O15 0.749546 0.500000 0.984944
#
# Coordination Sequence:
#
# PCOD8061405 Si02
#       6
#     4   4   4   4   4   4
#     4   8  15  30  56  86 106 124 161 213 260 302
#     4   9  18  35  58  80 101 128 167 214 260 305
#     4  12  25  36  47  70 107 144 177 212 250 296
#     4  10  19  33  55  80 107 137 167 202 250 308
#     4   8  15  30  56  86 106 124 161 213 260 302
#     4   9  18  35  58  80 101 128 167 214 260 305
#
# _framework density 19.316313999999998
#
# number of rings (size 3 to 8) (size 9 to 14) (size 15 to 20)
#    0.000    2.667    0.000    4.500    0.000    6.000 
#    0.000    8.333    0.000    4.000    0.000    0.000 
#    0.000    0.000    0.000    0.000    0.000    0.000 
#
# Total GULP energy -297573.706468 kJ/mol
# GULP energy per Si atom -12398.904436 kJ/mol
# Density = 1.927235 g / cm^3
# Si number density = 19.316314 Si / 1000 Ang^3
#
#
#
# Elastic Constant Matrix: (Units=GPa)
#
#
# Indices 1 2 3 4 5 6 
#
# 1 35.1758 13.7987 15.7207 0.0000 -4.7052 0.0000
# 2 13.7987 47.2571 25.6042 0.0000 0.6729 0.0000
# 3 15.7207 25.6042 97.8100 0.0000 -4.6315 0.0000
# 4 0.0000 0.0000 0.0000 -0.1399 0.0000 -0.2230
# 5 -4.7052 0.6729 -4.6315 0.0000 23.2650 0.0000
# 6 0.0000 0.0000 0.0000 -0.2230 0.0000 0.5963
#
#
#
# Elastic Compliance Matrix: (Units=1/GPa)
#
#
# Indices 1 2 3 4 5 6 
#
# 1 0.033911 -0.008400 -0.002943 0.000000 0.006515 0.000000
# 2 -0.008400 0.026833 -0.005846 0.000000 -0.003639 0.000000
# 3 -0.002943 -0.005846 0.012323 0.000000 0.002027 0.000000
# 4 0.000000 0.000000 0.000000 -4.477342 0.000000 -1.674515
# 5 0.006515 -0.003639 0.002027 0.000000 0.044809 0.000000
# 6 0.000000 0.000000 0.000000 -1.674515 0.000000 1.050766
#
#
# Mechanical properties :
#
#
# Convention : Reuss Voigt Hill
#
# Bulk Modulus (GPa) = 25.84756 32.27669 29.06213
# Shear Modulus (GPa) = -1.53307 13.08557 5.77625
#
# Velocity S-wave (km/s) = -0.89185 2.60558 1.73114
# Velocity P-wave (km/s) = 3.51422 5.07916 4.36736
#
# Compressibility (1/GPa) = 0.03868837
#
# Stress axis : x y z
#
# Youngs Moduli (GPa) = 29.48938 37.26762 81.14680
#
# Poissons Ratio (x) = 0.31304 0.23881
# Poissons Ratio (y) = 0.24771 0.47442
# Poissons Ratio (z) = 0.08679 0.21788
#
# Static dielectric constant tensor:
#      x y z
#    x 3.562510 0.000000 -0.122860 
#    y 0.000000 2.982460 0.000000 
#    z -0.122860 0.000000 3.881230 
# 
# 
# High freq. dielectric constant tensor:
#      x y z
#    x 1.751030 0.000000 -0.006590 
#    y 0.000000 1.694550 0.000000 
#    z -0.006590 0.000000 1.766510 
# 
# From -- ./inp_files/56678.got.cif
#   From: 2010.06.25/outbox.cif.g09.slc.cpg/sg10_29_cif.got.tgz:56678.got - 2010.06.27 22:07:45.
