data_PCOD8061493
_publ_section_title
;
Structure prediction by ZEFSAII (Michael W. Deem and Ramdas Pophale) SiO2 
 PCOD8061493
Probable space group: P 2/M
;
_chemical_formula_sum "Si O2"
_cell_formula_units_Z 28
_cell_length_a 28.217748
_cell_length_b 9.180152
_cell_length_c 9.764722
_cell_angle_alpha 90.000000
_cell_angle_beta 142.600043
_cell_angle_gamma 90.000000
_cell_volume 1536.346560
_symmetry_space_group_name_H-M "P 2/M"
_symmetry_group_IT_number 10
_symmetry_cell_setting 'monoclinic'
loop_
_space_group_symop_operation_xyz
x,y,z
-x,y,-z
-x,-y,-z
x,-y,z
loop_
_atom_site_type_symbol
_atom_site_label
_atom_site_fract_x
_atom_site_fract_y
_atom_site_fract_z
Si Si1 0.997590 0.327061 0.150616
Si Si2 0.557741 0.332677 0.757065
Si Si3 0.854989 0.329051 0.008968
Si Si4 0.451200 0.664103 0.752170
Si Si5 0.860211 0.670993 0.335746
Si Si6 0.302608 0.831022 0.346190
Si Si7 0.702713 0.169075 0.984045
O O1 0.998206 0.500000 0.148424
O O2 0.920610 0.273035 0.053881
O O3 0.071275 0.271695 0.407908
O O4 0.000000 0.265223 0.000000
O O5 0.500000 0.313567 0.500000
O O6 0.583655 0.500000 0.837110
O O7 0.509700 0.270354 0.774434
O O8 0.634757 0.236524 0.919565
O O9 0.839520 0.500000 0.957117
O O10 0.880893 0.292884 0.224653
O O11 0.776689 0.245390 0.787921
O O12 0.425172 0.500000 0.650995
O O13 0.374587 0.762264 0.593719
O O14 0.500000 0.663803 0.000000
O O15 0.845852 0.500000 0.321001
O O16 0.783250 0.753816 0.207914
O O17 0.296294 0.000000 0.367836
O O18 0.317534 0.802720 0.220528
O O19 0.710738 0.000000 0.036678
#
# Coordination Sequence:
#
# PCOD8061493 Si02
#       7
#     4   4   4   4   4   4   4
#     4   9  17  31  52  79 105 129 164 212 260 303
#     4  10  19  33  56  80 102 132 173 216 258 303
#     4   9  17  31  54  78 100 131 171 212 254 302
#     4  10  21  37  55  77 104 135 173 216 260 306
#     4   9  17  31  53  77 102 132 170 212 253 302
#     4  10  20  34  53  77 106 138 174 213 255 305
#     4  10  20  33  52  79 107 136 173 215 257 301
#
# _framework density 18.225055000000001
#
# number of rings (size 3 to 8) (size 9 to 14) (size 15 to 20)
#    0.000    2.429    1.429    1.286    0.000    4.000 
#    2.571    0.714    0.000    4.286    0.000    0.000 
#    0.000    0.000    0.000    0.000    0.000    0.000 
#
# Total GULP energy -347213.950046 kJ/mol
# GULP energy per Si atom -12400.498216 kJ/mol
# Density = 1.818357 g / cm^3
# Si number density = 18.225055 Si / 1000 Ang^3
#
#
#
# Elastic Constant Matrix: (Units=GPa)
#
#
# Indices 1 2 3 4 5 6 
#
# 1 117.9054 42.8114 68.6258 0.0000 19.0941 0.0000
# 2 42.8114 65.8356 47.0126 0.0000 18.0285 0.0000
# 3 68.6258 47.0126 106.5298 0.0000 20.7558 0.0000
# 4 0.0000 0.0000 0.0000 8.9215 0.0000 -7.4424
# 5 19.0941 18.0285 20.7558 0.0000 31.0786 0.0000
# 6 0.0000 0.0000 0.0000 -7.4424 0.0000 7.8940
#
#
#
# Elastic Compliance Matrix: (Units=1/GPa)
#
#
# Indices 1 2 3 4 5 6 
#
# 1 0.014327 -0.003617 -0.007273 0.000000 -0.001847 0.000000
# 2 -0.003617 0.024622 -0.007111 0.000000 -0.007311 0.000000
# 3 -0.007273 -0.007111 0.017860 0.000000 -0.003334 0.000000
# 4 0.000000 0.000000 0.000000 0.524975 0.000000 0.494944
# 5 -0.001847 -0.007311 -0.003334 0.000000 0.039779 0.000000
# 6 0.000000 0.000000 0.000000 0.494944 0.000000 0.593309
#
#
# Mechanical properties :
#
#
# Convention : Reuss Voigt Hill
#
# Bulk Modulus (GPa) = 48.06332 67.46335 57.76333
# Shear Modulus (GPa) = 3.97516 18.36690 11.17103
#
# Velocity S-wave (km/s) = 1.47847 3.17800 2.47847
# Velocity P-wave (km/s) = 5.41700 7.11080 6.32089
#
# Compressibility (1/GPa) = 0.02080589
#
# Stress axis : x y z
#
# Youngs Moduli (GPa) = 69.79707 40.61471 55.98982
#
# Poissons Ratio (x) = 0.14691 0.40724
# Poissons Ratio (y) = 0.25246 0.39815
# Poissons Ratio (z) = 0.50767 0.28882
#
# Static dielectric constant tensor:
#      x y z
#    x 3.384260 0.000000 0.047350 
#    y 0.000000 3.185470 0.000000 
#    z 0.047350 0.000000 3.308330 
# 
# 
# High freq. dielectric constant tensor:
#      x y z
#    x 1.707200 0.000000 0.012180 
#    y 0.000000 1.685040 0.000000 
#    z 0.012180 0.000000 1.702290 
# 
# From -- ./inp_files/36980.got.cif
#   From: 2010.06.25/outbox.cif.g09.slc.cpg/sg10_19_cif.got.tgz:36980.got - 2010.06.27 22:07:45.
