data_PCOD8061837
_publ_section_title
;
Structure prediction by ZEFSAII (Michael W. Deem and Ramdas Pophale) SiO2 
 PCOD8061837
Probable space group: P 2/M
;
_chemical_formula_sum "Si O2"
_cell_formula_units_Z 32
_cell_length_a 11.905763
_cell_length_b 8.823726
_cell_length_c 28.717781
_cell_angle_alpha 90.000000
_cell_angle_beta 31.145099
_cell_angle_gamma 90.000000
_cell_volume 1560.359443
_symmetry_space_group_name_H-M "P 2/M"
_symmetry_group_IT_number 10
_symmetry_cell_setting 'monoclinic'
loop_
_space_group_symop_operation_xyz
x,y,z
-x,y,-z
-x,-y,-z
x,-y,z
loop_
_atom_site_type_symbol
_atom_site_label
_atom_site_fract_x
_atom_site_fract_y
_atom_site_fract_z
Si Si1 0.633520 0.177546 0.407660
Si Si2 0.166771 0.320610 0.329236
Si Si3 0.296148 0.674394 0.466200
Si Si4 0.558008 0.324271 0.684052
Si Si5 0.864071 0.178472 0.003150
Si Si6 0.920054 0.680301 0.162539
Si Si7 0.367665 0.177449 0.170678
Si Si8 0.049462 0.679466 0.219246
O O1 0.500000 0.237307 0.500000
O O2 0.488179 0.217321 0.414799
O O3 0.864017 0.260442 0.320297
O O4 0.678608 0.000000 0.394988
O O5 0.193127 0.500000 0.312287
O O6 0.333222 0.254014 0.308607
O O7 0.207124 0.231214 0.267965
O O8 0.926466 0.278555 0.430877
O O9 0.358648 0.500000 0.454821
O O10 0.278472 0.700201 0.417102
O O11 0.524073 0.500000 0.705818
O O12 0.322387 0.252157 0.757710
O O13 0.612008 0.224010 0.098087
O O14 0.896884 0.000000 0.985949
O O15 0.937218 0.258140 0.930086
O O16 0.000000 0.237357 0.000000
O O17 0.921928 0.500000 0.160823
O O18 0.011791 0.737286 0.179750
O O19 0.283794 0.258228 0.153154
O O20 0.348000 0.000000 0.169934
O O21 0.049052 0.500000 0.221890
#
# Coordination Sequence:
#
# PCOD8061837 Si02
#       8
#     4   4   4   4   4   4   4   4
#     4  11  23  37  55  82 118 161 206 250 295 347
#     4  10  20  34  59  88 116 157 201 245 298 353
#     4  10  19  34  55  83 118 155 198 245 295 353
#     4   9  17  34  57  86 120 152 194 245 298 352
#     4  10  23  43  65  90 121 159 198 237 293 363
#     4  10  21  38  63  91 119 153 196 253 303 348
#     4  11  24  41  60  85 121 157 194 245 298 352
#     4  11  23  41  63  88 119 155 200 248 300 358
#
# _framework density 20.508095999999998
#
# number of rings (size 3 to 8) (size 9 to 14) (size 15 to 20)
#    0.000    1.750    1.250    3.000    0.000    7.750 
#    0.000    3.125    0.000    1.500    0.000    0.000 
#    0.000    0.000    0.000    0.000    0.000    0.000 
#
# Total GULP energy -396820.593882 kJ/mol
# GULP energy per Si atom -12400.643559 kJ/mol
# Density = 2.046142 g / cm^3
# Si number density = 20.508096 Si / 1000 Ang^3
#
#
#
# Elastic Constant Matrix: (Units=GPa)
#
#
# Indices 1 2 3 4 5 6 
#
# 1 132.1255 29.2827 42.5924 0.0000 -12.1941 0.0000
# 2 29.2827 44.0785 28.5779 0.0000 -4.0531 0.0000
# 3 42.5924 28.5779 102.0044 0.0000 0.3956 0.0000
# 4 0.0000 0.0000 0.0000 13.2227 0.0000 -12.2323
# 5 -12.1941 -4.0531 0.3956 0.0000 36.6582 0.0000
# 6 0.0000 0.0000 0.0000 -12.2323 0.0000 18.3791
#
#
#
# Elastic Compliance Matrix: (Units=1/GPa)
#
#
# Indices 1 2 3 4 5 6 
#
# 1 0.009706 -0.004348 -0.002845 0.000000 0.002779 0.000000
# 2 -0.004348 0.030038 -0.006608 0.000000 0.001946 0.000000
# 3 -0.002845 -0.006608 0.012850 0.000000 -0.001816 0.000000
# 4 0.000000 0.000000 0.000000 0.196794 0.000000 0.130977
# 5 0.002779 0.001946 -0.001816 0.000000 0.028438 0.000000
# 6 0.000000 0.000000 0.000000 0.130977 0.000000 0.141582
#
#
# Mechanical properties :
#
#
# Convention : Reuss Voigt Hill
#
# Bulk Modulus (GPa) = 40.01237 53.23490 46.62364
# Shear Modulus (GPa) = 10.98081 25.50236 18.24158
#
# Velocity S-wave (km/s) = 2.31646 3.53019 2.98565
# Velocity P-wave (km/s) = 5.16793 6.52922 5.88805
#
# Compressibility (1/GPa) = 0.02499227
#
# Stress axis : x y z
#
# Youngs Moduli (GPa) = 103.03103 33.29108 77.82141
#
# Poissons Ratio (x) = 0.14473 0.22144
# Poissons Ratio (y) = 0.44793 0.51423
# Poissons Ratio (z) = 0.29317 0.21998
#
# Static dielectric constant tensor:
#      x y z
#    x 4.028730 0.000000 -0.134070 
#    y 0.000000 3.415020 0.000000 
#    z -0.134070 0.000000 3.787720 
# 
# 
# High freq. dielectric constant tensor:
#      x y z
#    x 1.819760 0.000000 -0.002870 
#    y 0.000000 1.775890 0.000000 
#    z -0.002870 0.000000 1.803380 
# 
# From -- ./inp_files/49971.got.cif
#   From: 2010.06.25/outbox.cif.g09.slc.cpg/sg10_25_cif.got.tgz:49971.got - 2010.06.27 22:07:45.
