data_PCOD8061585
_publ_section_title
;
Structure prediction by ZEFSAII (Michael W. Deem and Ramdas Pophale) SiO2 
 PCOD8061585
Probable space group: P 2/M
;
_chemical_formula_sum "Si O2"
_cell_formula_units_Z 22
_cell_length_a 12.982082
_cell_length_b 13.093657
_cell_length_c 12.980387
_cell_angle_alpha 90.000000
_cell_angle_beta 148.100825
_cell_angle_gamma 90.000000
_cell_volume 1165.942726
_symmetry_space_group_name_H-M "P 2/M"
_symmetry_group_IT_number 10
_symmetry_cell_setting 'monoclinic'
loop_
_space_group_symop_operation_xyz
x,y,z
-x,y,-z
-x,-y,-z
x,-y,z
loop_
_atom_site_type_symbol
_atom_site_label
_atom_site_fract_x
_atom_site_fract_y
_atom_site_fract_z
Si Si1 0.228086 0.882134 0.188373
Si Si2 0.395232 0.618016 0.801879
Si Si3 0.840739 0.884673 0.192950
Si Si4 0.000000 0.265612 0.500000
Si Si5 0.548328 0.787331 0.803848
Si Si6 0.226617 0.114446 0.415923
O O1 0.322761 0.801990 0.189427
O O2 0.303423 0.855549 0.367552
O O3 0.277935 0.000000 0.200179
O O4 0.000000 0.865404 0.000000
O O5 0.383112 0.500000 0.762250
O O6 0.176235 0.662637 0.611807
O O7 0.531429 0.671208 0.830075
O O8 0.500000 0.635166 0.000000
O O9 0.907865 0.806733 0.336004
O O10 0.993054 0.876195 0.226989
O O11 0.831934 0.000000 0.229823
O O12 0.631233 0.855265 0.968365
O O13 0.327618 0.819598 0.590777
O O14 0.294238 0.000000 0.495350
#
# Coordination Sequence:
#
# PCOD8061585 Si02
#       6
#     4   4   4   2   4   4
#     4  10  19  33  56  88 125 162 197 231 275 348
#     4  11  25  44  65  86 108 146 209 264 301 347
#     4  11  22  35  56  91 128 156 189 234 286 363
#     4  12  22  44  62  88 114 156 192 252 310 350
#     4  12  21  37  60  86 118 157 200 239 296 340
#     4  10  20  34  55  87 125 162 196 228 277 353
#
# _framework density 18.868852
#
# number of rings (size 3 to 8) (size 9 to 14) (size 15 to 20)
#    0.000    1.091    5.455    2.727    0.000    1.455 
#    0.000    0.909    0.000    2.727    0.000    0.000 
#    0.000    0.000    0.000    0.000    0.000    0.000 
#
# Total GULP energy -272678.586589 kJ/mol
# GULP energy per Si atom -12394.481209 kJ/mol
# Density = 1.882591 g / cm^3
# Si number density = 18.868852 Si / 1000 Ang^3
#
#
#
# Elastic Constant Matrix: (Units=GPa)
#
#
# Indices 1 2 3 4 5 6 
#
# 1 88.9804 68.2180 21.0445 0.0000 -5.0148 0.0000
# 2 68.2180 137.8213 51.0863 0.0000 -9.4025 0.0000
# 3 21.0445 51.0863 99.2229 0.0000 -7.3380 0.0000
# 4 0.0000 0.0000 0.0000 15.9981 0.0000 4.0147
# 5 -5.0148 -9.4025 -7.3380 0.0000 30.3702 0.0000
# 6 0.0000 0.0000 0.0000 4.0147 0.0000 29.2694
#
#
#
# Elastic Compliance Matrix: (Units=1/GPa)
#
#
# Indices 1 2 3 4 5 6 
#
# 1 0.018189 -0.009342 0.000978 0.000000 0.000347 0.000000
# 2 -0.009342 0.013851 -0.005037 0.000000 0.001529 0.000000
# 3 0.000978 -0.005037 0.012586 0.000000 0.001643 0.000000
# 4 0.000000 0.000000 0.000000 0.064736 0.000000 -0.008879
# 5 0.000347 0.001529 0.001643 0.000000 0.033855 0.000000
# 6 0.000000 0.000000 0.000000 -0.008879 0.000000 0.035383
#
#
# Mechanical properties :
#
#
# Convention : Reuss Voigt Hill
#
# Bulk Modulus (GPa) = 56.10556 67.41357 61.75957
# Shear Modulus (GPa) = 23.65831 27.50593 25.58212
#
# Velocity S-wave (km/s) = 3.54479 3.82218 3.68609
# Velocity P-wave (km/s) = 6.82298 7.43530 7.13571
#
# Compressibility (1/GPa) = 0.01782354
#
# Stress axis : x y z
#
# Youngs Moduli (GPa) = 54.97940 72.19707 79.45431
#
# Poissons Ratio (x) = 0.67443 -0.07768
# Poissons Ratio (y) = 0.51359 0.40021
# Poissons Ratio (z) = -0.05375 0.36366
#
# Static dielectric constant tensor:
#      x y z
#    x 3.607630 0.000000 -0.031700 
#    y 0.000000 3.239780 0.000000 
#    z -0.031700 0.000000 3.726480 
# 
# 
# High freq. dielectric constant tensor:
#      x y z
#    x 1.732510 0.000000 0.002050 
#    y 0.000000 1.693010 0.000000 
#    z 0.002050 0.000000 1.760370 
# 
# From -- ./inp_files/67196.got.cif
#   From: 2010.06.25/outbox.cif.g09.slc.cpg/sg10_34_cif.got.tgz:67196.got - 2010.06.27 22:07:45.
