data_PCOD8061950
_publ_section_title
;
Structure prediction by ZEFSAII (Michael W. Deem and Ramdas Pophale) SiO2 
 PCOD8061950
Probable space group: P 2/M
;
_chemical_formula_sum "Si O2"
_cell_formula_units_Z 24
_cell_length_a 8.015885
_cell_length_b 8.876109
_cell_length_c 23.287407
_cell_angle_alpha 90.000000
_cell_angle_beta 133.136953
_cell_angle_gamma 90.000000
_cell_volume 1209.072514
_symmetry_space_group_name_H-M "P 2/M"
_symmetry_group_IT_number 10
_symmetry_cell_setting 'monoclinic'
loop_
_space_group_symop_operation_xyz
x,y,z
-x,y,-z
-x,-y,-z
x,-y,z
loop_
_atom_site_type_symbol
_atom_site_label
_atom_site_fract_x
_atom_site_fract_y
_atom_site_fract_z
Si Si1 0.182559 0.174511 0.679112
Si Si2 0.002348 0.323040 0.838812
Si Si3 0.789136 0.670042 0.992586
Si Si4 0.431787 0.179272 0.310773
Si Si5 0.645892 0.173712 0.157872
Si Si6 0.316266 0.179858 0.410823
O O1 0.320855 0.235134 0.655688
O O2 0.346283 0.202237 0.772256
O O3 0.931613 0.248599 0.629453
O O4 0.134138 0.000000 0.658454
O O5 0.959868 0.500000 0.829461
O O6 0.155795 0.275910 0.821414
O O7 0.759016 0.242622 0.777053
O O8 0.130591 0.270330 0.926705
O O9 0.689475 0.500000 0.973730
O O10 0.598645 0.781718 0.924282
O O11 0.000000 0.673577 0.000000
O O12 0.392224 0.240706 0.365985
O O13 0.417607 0.000000 0.305478
O O14 0.696177 0.000000 0.154794
O O15 0.500000 0.238608 0.500000
O O16 0.308572 0.000000 0.406932
#
# Coordination Sequence:
#
# PCOD8061950 Si02
#       6
#     4   4   4   4   4   4
#     4   9  18  32  52  82 113 142 180 223 270 322
#     4  11  22  36  55  78 107 144 186 226 271 326
#     4  10  22  38  53  75 109 145 186 232 273 321
#     4  10  19  34  57  81 111 145 180 226 272 321
#     4  11  21  35  55  79 110 144 184 230 274 322
#     4   9  17  31  53  83 116 143 173 220 275 328
#
# _framework density 19.849924000000001
#
# number of rings (size 3 to 8) (size 9 to 14) (size 15 to 20)
#    0.000    2.000    1.667    2.500    0.000    4.333 
#    0.000    4.167    0.000    0.500    0.000    1.167 
#    0.000    0.000    0.000    0.000    0.000    0.000 
#
# Total GULP energy -297562.755611 kJ/mol
# GULP energy per Si atom -12398.448150 kJ/mol
# Density = 1.980474 g / cm^3
# Si number density = 19.849924 Si / 1000 Ang^3
#
#
#
# Elastic Constant Matrix: (Units=GPa)
#
#
# Indices 1 2 3 4 5 6 
#
# 1 164.8086 17.7084 70.5278 0.0000 1.3611 0.0000
# 2 17.7084 19.6315 24.8677 0.0000 0.7850 0.0000
# 3 70.5278 24.8677 127.5425 0.0000 11.4758 0.0000
# 4 0.0000 0.0000 0.0000 10.4358 0.0000 -3.7231
# 5 1.3611 0.7850 11.4758 0.0000 26.5959 0.0000
# 6 0.0000 0.0000 0.0000 -3.7231 0.0000 16.5859
#
#
#
# Elastic Compliance Matrix: (Units=1/GPa)
#
#
# Indices 1 2 3 4 5 6 
#
# 1 0.008070 -0.002017 -0.004200 0.000000 0.001459 0.000000
# 2 -0.002017 0.068529 -0.012561 0.000000 0.003501 0.000000
# 3 -0.004200 -0.012561 0.013067 0.000000 -0.005053 0.000000
# 4 0.000000 0.000000 0.000000 0.104166 0.000000 0.023383
# 5 0.001459 0.003501 -0.005053 0.000000 0.039602 0.000000
# 6 0.000000 0.000000 0.000000 0.023383 0.000000 0.065541
#
#
# Mechanical properties :
#
#
# Convention : Reuss Voigt Hill
#
# Bulk Modulus (GPa) = 19.19048 59.79892 39.49470
# Shear Modulus (GPa) = 14.12821 23.98210 19.05516
#
# Velocity S-wave (km/s) = 2.67076 3.47965 3.10169
# Velocity P-wave (km/s) = 4.38171 6.80697 5.72426
#
# Compressibility (1/GPa) = 0.05210918
#
# Stress axis : x y z
#
# Youngs Moduli (GPa) = 123.91830 14.59226 76.52858
#
# Poissons Ratio (x) = 0.02943 0.32145
# Poissons Ratio (y) = 0.24993 0.96130
# Poissons Ratio (z) = 0.52051 0.18330
#
# Static dielectric constant tensor:
#      x y z
#    x 4.022350 0.000000 0.059390 
#    y 0.000000 3.281570 0.000000 
#    z 0.059390 0.000000 3.932310 
# 
# 
# High freq. dielectric constant tensor:
#      x y z
#    x 1.792190 0.000000 -0.001910 
#    y 0.000000 1.729620 0.000000 
#    z -0.001910 0.000000 1.774980 
# 
# From -- ./inp_files/27024.got.cif
#   From: 2010.06.25/outbox.cif.g09.slc.cpg/sg10_14_cif.got.tgz:27024.got - 2010.06.27 22:07:45.
