data_PCOD8061337
_publ_section_title
;
Structure prediction by ZEFSAII (Michael W. Deem and Ramdas Pophale) SiO2 
 PCOD8061337
Probable space group: P 2/M
;
_chemical_formula_sum "Si O2"
_cell_formula_units_Z 32
_cell_length_a 18.727327
_cell_length_b 14.695410
_cell_length_c 11.954347
_cell_angle_alpha 90.000000
_cell_angle_beta 150.074416
_cell_angle_gamma 90.000000
_cell_volume 1641.250644
_symmetry_space_group_name_H-M "P 2/M"
_symmetry_group_IT_number 10
_symmetry_cell_setting 'monoclinic'
loop_
_space_group_symop_operation_xyz
x,y,z
-x,y,-z
-x,-y,-z
x,-y,z
loop_
_atom_site_type_symbol
_atom_site_label
_atom_site_fract_x
_atom_site_fract_y
_atom_site_fract_z
Si Si1 0.653959 0.723639 0.259920
Si Si2 0.090123 0.777321 0.521917
Si Si3 0.193479 0.396427 0.363052
Si Si4 0.274038 0.102530 0.908622
Si Si5 0.640631 0.894446 0.623510
Si Si6 0.406615 0.898490 0.699039
Si Si7 0.133194 0.395622 0.028705
Si Si8 0.821714 0.783556 0.021709
O O1 0.778324 0.711811 0.335380
O O2 0.685214 0.660516 0.408694
O O3 0.668226 0.827997 0.319967
O O4 0.500000 0.697987 0.000000
O O5 0.150191 0.872544 0.652603
O O6 0.000000 0.727991 0.500000
O O7 0.988138 0.800531 0.278539
O O8 0.226294 0.500000 0.436407
O O9 0.034543 0.371949 0.189261
O O10 0.207290 0.379868 0.249261
O O11 0.276300 0.176885 0.011507
O O12 0.250978 0.000000 0.924510
O O13 0.424133 0.109162 0.048552
O O14 0.500000 0.861386 0.500000
O O15 0.623300 0.874093 0.469857
O O16 0.667762 0.000000 0.684642
O O17 0.779909 0.838531 0.853205
O O18 0.351305 0.000000 0.652556
O O19 0.156769 0.500000 0.020531
O O20 0.201916 0.324894 0.032785
#
# Coordination Sequence:
#
# PCOD8061337 Si02
#       8
#     4   4   4   4   4   4   4   4
#     4  12  22  37  62  87 117 154 199 252 296 344
#     4  10  23  38  54  84 119 151 195 247 294 352
#     4   9  19  37  60  87 116 148 190 240 302 364
#     4  10  20  36  56  81 115 158 202 240 283 345
#     4  10  19  33  54  83 117 154 195 237 292 356
#     4  10  21  36  54  82 117 153 197 239 288 352
#     4   9  18  35  60  86 115 151 191 241 299 363
#     4  11  19  33  60  83 112 151 200 240 289 344
#
# _framework density 19.497326999999999
#
# number of rings (size 3 to 8) (size 9 to 14) (size 15 to 20)
#    0.000    1.875    3.750    1.875    0.000    3.750 
#    0.000    0.000    0.000    9.375    0.000    0.000 
#    0.000    0.000    0.000    0.000    0.000    0.000 
#
# Total GULP energy -396659.681573 kJ/mol
# GULP energy per Si atom -12395.615049 kJ/mol
# Density = 1.945295 g / cm^3
# Si number density = 19.497327 Si / 1000 Ang^3
#
#
#
# Elastic Constant Matrix: (Units=GPa)
#
#
# Indices 1 2 3 4 5 6 
#
# 1 61.1030 40.8229 28.7642 0.0000 -0.3569 0.0000
# 2 40.8229 112.1727 45.0459 0.0000 -14.1393 0.0000
# 3 28.7642 45.0459 133.8887 0.0000 -15.4585 0.0000
# 4 0.0000 0.0000 0.0000 23.6366 0.0000 -5.3295
# 5 -0.3569 -14.1393 -15.4585 0.0000 24.3610 0.0000
# 6 0.0000 0.0000 0.0000 -5.3295 0.0000 29.9694
#
#
#
# Elastic Compliance Matrix: (Units=1/GPa)
#
#
# Indices 1 2 3 4 5 6 
#
# 1 0.023063 -0.007974 -0.002986 0.000000 -0.006185 0.000000
# 2 -0.007974 0.013454 -0.002078 0.000000 0.006374 0.000000
# 3 -0.002986 -0.002078 0.009350 0.000000 0.004684 0.000000
# 4 0.000000 0.000000 0.000000 0.044075 0.000000 0.007838
# 5 -0.006185 0.006374 0.004684 0.000000 0.047630 0.000000
# 6 0.000000 0.000000 0.000000 0.007838 0.000000 0.034761
#
#
# Mechanical properties :
#
#
# Convention : Reuss Voigt Hill
#
# Bulk Modulus (GPa) = 50.52463 59.60338 55.06401
# Shear Modulus (GPa) = 24.38962 28.42883 26.40923
#
# Velocity S-wave (km/s) = 3.54067 3.82264 3.68435
# Velocity P-wave (km/s) = 6.53338 7.07953 6.81193
#
# Compressibility (1/GPa) = 0.01979233
#
# Stress axis : x y z
#
# Youngs Moduli (GPa) = 43.36028 74.32500 106.94940
#
# Poissons Ratio (x) = 0.59264 0.31936
# Poissons Ratio (y) = 0.34574 0.22221
# Poissons Ratio (z) = 0.12948 0.15443
#
# Static dielectric constant tensor:
#      x y z
#    x 3.458920 0.000000 -0.142250 
#    y 0.000000 3.461040 0.000000 
#    z -0.142250 0.000000 3.693880 
# 
# 
# High freq. dielectric constant tensor:
#      x y z
#    x 1.741230 0.000000 -0.018280 
#    y 0.000000 1.740010 0.000000 
#    z -0.018280 0.000000 1.767980 
# 
# From -- ./inp_files/54052.got.cif
#   From: 2010.06.25/outbox.cif.g09.slc.cpg/sg10_28_cif.got.tgz:54052.got - 2010.06.27 22:07:45.
