data_PCOD8061688
_publ_section_title
;
Structure prediction by ZEFSAII (Michael W. Deem and Ramdas Pophale) SiO2 
 PCOD8061688
Probable space group: P 2/M
;
_chemical_formula_sum "Si O2"
_cell_formula_units_Z 28
_cell_length_a 9.617776
_cell_length_b 13.344005
_cell_length_c 19.258382
_cell_angle_alpha 90.000000
_cell_angle_beta 138.233171
_cell_angle_gamma 90.000000
_cell_volume 1646.344006
_symmetry_space_group_name_H-M "P 2/M"
_symmetry_group_IT_number 10
_symmetry_cell_setting 'monoclinic'
loop_
_space_group_symop_operation_xyz
x,y,z
-x,y,-z
-x,-y,-z
x,-y,z
loop_
_atom_site_type_symbol
_atom_site_label
_atom_site_fract_x
_atom_site_fract_y
_atom_site_fract_z
Si Si1 0.018785 0.886142 0.120738
Si Si2 0.351907 0.262048 0.574936
Si Si3 0.866772 0.883823 0.588403
Si Si4 0.810774 0.246313 0.698989
Si Si5 0.043636 0.618074 0.359119
Si Si6 0.733874 0.761802 0.298226
Si Si7 0.341598 0.886369 0.119400
O O1 0.036003 0.803593 0.187420
O O2 0.216767 0.875381 0.144401
O O3 0.012331 0.000000 0.148175
O O4 0.806525 0.862911 0.000768
O O5 0.297921 0.147964 0.532414
O O6 0.594882 0.280680 0.652923
O O7 0.211955 0.338092 0.476830
O O8 0.297496 0.272528 0.634743
O O9 0.784555 0.834959 0.628719
O O10 0.093666 0.847672 0.648020
O O11 0.868569 0.000000 0.599908
O O12 0.904805 0.347550 0.700390
O O13 0.043894 0.500000 0.364455
O O14 0.812642 0.660908 0.289515
O O15 0.523809 0.804372 0.185838
O O16 0.429487 0.000000 0.146460
#
# Coordination Sequence:
#
# PCOD8061688 Si02
#       7
#     4   4   4   4   4   4   4
#     4   9  17  30  52  81 108 136 170 205 244 295
#     4  10  20  32  51  75  98 133 172 215 253 301
#     4  10  20  30  42  69 108 143 169 197 244 309
#     4  10  19  34  52  73 104 134 170 214 258 298
#     4  10  22  38  54  74 101 132 171 218 267 318
#     4  10  19  34  52  73 104 134 170 214 258 298
#     4   9  17  30  52  81 108 136 170 205 244 295
#
# _framework density 17.007382
#
# number of rings (size 3 to 8) (size 9 to 14) (size 15 to 20)
#    0.000    2.571    1.429    5.143    0.000    5.714 
#    0.000    2.857    0.000    9.429    0.000    2.000 
#    0.000    0.000    0.000    0.000    0.000    0.000 
#
# Total GULP energy -347020.792165 kJ/mol
# GULP energy per Si atom -12393.599720 kJ/mol
# Density = 1.696867 g / cm^3
# Si number density = 17.007382 Si / 1000 Ang^3
#
#
#
# Elastic Constant Matrix: (Units=GPa)
#
#
# Indices 1 2 3 4 5 6 
#
# 1 49.4556 16.3332 16.9610 0.0000 7.2114 0.0000
# 2 16.3332 111.4236 29.9048 0.0000 6.0083 0.0000
# 3 16.9610 29.9048 78.2722 0.0000 5.3389 0.0000
# 4 0.0000 0.0000 0.0000 18.8653 0.0000 0.2121
# 5 7.2114 6.0083 5.3389 0.0000 13.6901 0.0000
# 6 0.0000 0.0000 0.0000 0.2121 0.0000 18.6243
#
#
#
# Elastic Compliance Matrix: (Units=1/GPa)
#
#
# Indices 1 2 3 4 5 6 
#
# 1 0.023600 -0.001923 -0.003687 0.000000 -0.010150 0.000000
# 2 -0.001923 0.010276 -0.003360 0.000000 -0.002187 0.000000
# 3 -0.003687 -0.003360 0.015025 0.000000 -0.002443 0.000000
# 4 0.000000 0.000000 0.000000 0.053014 0.000000 -0.000604
# 5 -0.010150 -0.002187 -0.002443 0.000000 0.080304 0.000000
# 6 0.000000 0.000000 0.000000 -0.000604 0.000000 0.053700
#
#
# Mechanical properties :
#
#
# Convention : Reuss Voigt Hill
#
# Bulk Modulus (GPa) = 32.29833 40.61659 36.45746
# Shear Modulus (GPa) = 18.92644 21.96609 20.44626
#
# Velocity S-wave (km/s) = 3.33954 3.59773 3.47104
# Velocity P-wave (km/s) = 5.82255 6.41808 6.12755
#
# Compressibility (1/GPa) = 0.03096135
#
# Stress axis : x y z
#
# Youngs Moduli (GPa) = 42.37373 97.31026 66.55398
#
# Poissons Ratio (x) = 0.18708 0.24539
# Poissons Ratio (y) = 0.08146 0.22365
# Poissons Ratio (z) = 0.15623 0.32701
#
# Static dielectric constant tensor:
#      x y z
#    x 3.311860 0.000000 -0.023060 
#    y 0.000000 3.012590 0.000000 
#    z -0.023060 0.000000 3.126760 
# 
# 
# High freq. dielectric constant tensor:
#      x y z
#    x 1.667730 0.000000 0.000470 
#    y 0.000000 1.632180 0.000000 
#    z 0.000470 0.000000 1.642990 
# 
# From -- ./inp_files/75321.got.cif
#   From: 2010.06.25/outbox.cif.g09.slc.cpg/sg10_38_cif.got.tgz:75321.got - 2010.06.27 22:07:45.
