data_PCOD8061015
_publ_section_title
;
Structure prediction by ZEFSAII (Michael W. Deem and Ramdas Pophale) SiO2 
 PCOD8061015
Probable space group: P 2/M
;
_chemical_formula_sum "Si O2"
_cell_formula_units_Z 32
_cell_length_a 25.892299
_cell_length_b 16.737516
_cell_length_c 9.915574
_cell_angle_alpha 90.000000
_cell_angle_beta 155.414935
_cell_angle_gamma 90.000000
_cell_volume 1787.798235
_symmetry_space_group_name_H-M "P 2/M"
_symmetry_group_IT_number 10
_symmetry_cell_setting 'monoclinic'
loop_
_space_group_symop_operation_xyz
x,y,z
-x,y,-z
-x,-y,-z
x,-y,z
loop_
_atom_site_type_symbol
_atom_site_label
_atom_site_fract_x
_atom_site_fract_y
_atom_site_fract_z
Si Si1 0.033009 0.701620 0.726527
Si Si2 0.539976 0.590422 0.248995
Si Si3 0.098902 0.591161 0.116402
Si Si4 0.684849 0.316999 0.231971
Si Si5 0.522497 0.169263 0.906196
Si Si6 0.297061 0.729975 0.278559
Si Si7 0.780234 0.235460 0.196226
Si Si8 0.614648 0.091252 0.867240
O O1 0.000000 0.667765 0.500000
O O2 0.929249 0.765122 0.530488
O O3 0.036767 0.625524 0.833912
O O4 0.164000 0.748475 0.031196
O O5 0.574446 0.500000 0.366105
O O6 0.660071 0.643103 0.567927
O O7 0.500000 0.602250 0.000000
O O8 0.422624 0.619124 0.059690
O O9 0.142048 0.500000 0.193876
O O10 0.217593 0.644684 0.433902
O O11 0.000000 0.595451 0.000000
O O12 0.748936 0.292857 0.245706
O O13 0.621067 0.241476 0.154510
O O14 0.391322 0.200404 0.540339
O O15 0.574491 0.103015 0.927387
O O16 0.500000 0.130643 0.000000
O O17 0.287143 0.727495 0.093452
O O18 0.733108 0.145609 0.112114
O O19 0.500000 0.115714 0.500000
O O20 0.654612 0.000000 0.939328
#
# Coordination Sequence:
#
# PCOD8061015 Si02
#       8
#     4   4   4   4   4   4   4   4
#     4  10  21  36  55  76 105 146 188 223 266 318
#     4  10  20  33  50  72 102 140 180 226 276 323
#     4  11  21  34  51  75 107 143 185 232 274 310
#     4  10  19  33  54  76 106 139 185 225 272 315
#     4  10  19  32  56  86 110 138 176 223 263 316
#     4  10  19  34  54  76 106 141 183 221 266 316
#     4  10  20  36  54  80 106 137 180 221 256 320
#     4  10  20  36  60  84 110 143 168 208 273 328
#
# _framework density 17.899111999999999
#
# number of rings (size 3 to 8) (size 9 to 14) (size 15 to 20)
#    0.000    1.875    2.500    3.375    0.000    2.000 
#    0.000    3.750    0.000    4.125    0.000   11.375 
#    0.000    0.000    0.000    0.000    0.000    0.000 
#
# Total GULP energy -396802.392443 kJ/mol
# GULP energy per Si atom -12400.074764 kJ/mol
# Density = 1.785837 g / cm^3
# Si number density = 17.899112 Si / 1000 Ang^3
#
#
#
# Elastic Constant Matrix: (Units=GPa)
#
#
# Indices 1 2 3 4 5 6 
#
# 1 112.2000 42.1920 46.4577 0.0000 2.7132 0.0000
# 2 42.1920 86.9742 45.8880 0.0000 3.5253 0.0000
# 3 46.4577 45.8880 101.2471 0.0000 12.0996 0.0000
# 4 0.0000 0.0000 0.0000 21.1821 0.0000 -3.7777
# 5 2.7132 3.5253 12.0996 0.0000 31.1796 0.0000
# 6 0.0000 0.0000 0.0000 -3.7777 0.0000 16.3609
#
#
#
# Elastic Compliance Matrix: (Units=1/GPa)
#
#
# Indices 1 2 3 4 5 6 
#
# 1 0.011909 -0.003777 -0.003859 0.000000 0.000888 0.000000
# 2 -0.003777 0.016339 -0.005757 0.000000 0.000716 0.000000
# 3 -0.003859 -0.005757 0.014827 0.000000 -0.004767 0.000000
# 4 0.000000 0.000000 0.000000 0.049237 0.000000 0.011369
# 5 0.000888 0.000716 -0.004767 0.000000 0.033764 0.000000
# 6 0.000000 0.000000 0.000000 0.011369 0.000000 0.063746
#
#
# Mechanical properties :
#
#
# Convention : Reuss Voigt Hill
#
# Bulk Modulus (GPa) = 61.39702 63.27739 62.33720
# Shear Modulus (GPa) = 22.51862 24.80342 23.66102
#
# Velocity S-wave (km/s) = 3.55080 3.72658 3.63975
# Velocity P-wave (km/s) = 7.15451 7.34477 7.25026
#
# Compressibility (1/GPa) = 0.01628744
#
# Stress axis : x y z
#
# Youngs Moduli (GPa) = 83.96696 61.20409 67.44666
#
# Poissons Ratio (x) = 0.23120 0.26026
# Poissons Ratio (y) = 0.31718 0.38832
# Poissons Ratio (z) = 0.32401 0.35238
#
# Static dielectric constant tensor:
#      x y z
#    x 3.514800 0.000000 0.054830 
#    y 0.000000 3.036280 0.000000 
#    z 0.054830 0.000000 3.402820 
# 
# 
# High freq. dielectric constant tensor:
#      x y z
#    x 1.710050 0.000000 0.002560 
#    y 0.000000 1.659880 0.000000 
#    z 0.002560 0.000000 1.695550 
# 
# From -- ./inp_files/36476.got.cif
#   From: 2010.06.25/outbox.cif.g09.slc.cpg/sg10_19_cif.got.tgz:36476.got - 2010.06.27 22:07:45.
