data_PCOD8061311
_publ_section_title
;
Structure prediction by ZEFSAII (Michael W. Deem and Ramdas Pophale) SiO2 
 PCOD8061311
Probable space group: P 2/M
;
_chemical_formula_sum "Si O2"
_cell_formula_units_Z 20
_cell_length_a 9.446171
_cell_length_b 22.591270
_cell_length_c 8.339757
_cell_angle_alpha 90.000000
_cell_angle_beta 32.331098
_cell_angle_gamma 90.000000
_cell_volume 951.809895
_symmetry_space_group_name_H-M "P 2/M"
_symmetry_group_IT_number 10
_symmetry_cell_setting 'monoclinic'
loop_
_space_group_symop_operation_xyz
x,y,z
-x,y,-z
-x,-y,-z
x,-y,z
loop_
_atom_site_type_symbol
_atom_site_label
_atom_site_fract_x
_atom_site_fract_y
_atom_site_fract_z
Si Si1 0.744234 0.065802 0.149387
Si Si2 0.934876 0.235080 0.246868
Si Si3 0.476317 0.565567 0.833413
Si Si4 0.567314 0.826712 0.118969
Si Si5 0.974113 0.637701 0.335372
O O1 0.500000 0.062330 0.500000
O O2 0.674221 0.109833 0.073475
O O3 0.804802 0.000000 0.021288
O O4 0.000000 0.090075 0.000000
O O5 0.681165 0.195869 0.538832
O O6 0.881906 0.303711 0.331021
O O7 0.000000 0.222554 0.000000
O O8 0.193712 0.219647 0.101982
O O9 0.421520 0.500000 0.814473
O O10 0.753368 0.589413 0.502596
O O11 0.500000 0.560905 0.000000
O O12 0.246192 0.611421 0.004675
O O13 0.500000 0.834286 0.000000
O O14 0.000000 0.650803 0.500000
#
# Coordination Sequence:
#
# PCOD8061311 Si02
#       5
#     4   4   4   4   4
#     4  10  21  39  63  90 123 162 200 239 292 357
#     4  12  25  41  61  86 121 162 202 244 301 366
#     4   9  17  30  52  81 110 143 186 237 290 345
#     4  12  24  40  63  91 122 156 202 254 300 347
#     4  10  19  33  54  80 111 146 191 242 288 342
#
# _framework density 21.012601
#
# number of rings (size 3 to 8) (size 9 to 14) (size 15 to 20)
#    0.000    1.400    0.000    7.200    0.000    4.400 
#    0.000    0.000    0.000    9.600    0.000    0.000 
#    0.000    0.000    0.000    0.000    0.000    0.000 
#
# Total GULP energy -248038.216976 kJ/mol
# GULP energy per Si atom -12401.910849 kJ/mol
# Density = 2.096478 g / cm^3
# Si number density = 21.012601 Si / 1000 Ang^3
#
#
#
# Elastic Constant Matrix: (Units=GPa)
#
#
# Indices 1 2 3 4 5 6 
#
# 1 91.6177 59.0511 36.8696 0.0000 -13.8130 0.0000
# 2 59.0511 136.1082 40.2389 0.0000 -2.3524 0.0000
# 3 36.8696 40.2389 116.9509 0.0000 -25.8641 0.0000
# 4 0.0000 0.0000 0.0000 20.1792 0.0000 -5.1603
# 5 -13.8130 -2.3524 -25.8641 0.0000 30.5982 0.0000
# 6 0.0000 0.0000 0.0000 -5.1603 0.0000 -4.8137
#
#
#
# Elastic Compliance Matrix: (Units=1/GPa)
#
#
# Indices 1 2 3 4 5 6 
#
# 1 0.016748 -0.006649 -0.001763 0.000000 0.005559 0.000000
# 2 -0.006649 0.010936 -0.002637 0.000000 -0.004390 0.000000
# 3 -0.001763 -0.002637 0.012044 0.000000 0.009182 0.000000
# 4 0.000000 0.000000 0.000000 0.038894 0.000000 -0.041694
# 5 0.005559 -0.004390 0.009182 0.000000 0.042615 0.000000
# 6 0.000000 0.000000 0.000000 -0.041694 0.000000 -0.163045
#
#
# Mechanical properties :
#
#
# Convention : Reuss Voigt Hill
#
# Bulk Modulus (GPa) = 56.72166 68.55511 62.63838
# Shear Modulus (GPa) = -361.46048 23.09391 -169.18329
#
# Velocity S-wave (km/s) = -13.12990 3.31879 -8.98276
# Velocity P-wave (km/s) = 14.24101 6.88348 8.81544
#
# Compressibility (1/GPa) = 0.01762995
#
# Stress axis : x y z
#
# Youngs Moduli (GPa) = 59.70867 91.44447 83.02577
#
# Poissons Ratio (x) = 0.60801 0.14635
# Poissons Ratio (y) = 0.39700 0.21897
# Poissons Ratio (z) = 0.10525 0.24117
#
# Static dielectric constant tensor:
#      x y z
#    x 3.571250 0.000000 -0.288130 
#    y 0.000000 4.134230 0.000000 
#    z -0.288130 0.000000 4.053980 
# 
# 
# High freq. dielectric constant tensor:
#      x y z
#    x 1.797850 0.000000 -0.023210 
#    y 0.000000 1.841230 0.000000 
#    z -0.023210 0.000000 1.832790 
# 
# From -- ./inp_files/20587.got.cif
#   From: 2010.06.25/outbox.cif.g09.slc.cpg/sg10_11_cif.got.tgz:20587.got - 2010.06.27 22:07:45.
