data_PCOD8061574
_publ_section_title
;
Structure prediction by ZEFSAII (Michael W. Deem and Ramdas Pophale) SiO2 
 PCOD8061574
Probable space group: P 2/M
;
_chemical_formula_sum "Si O2"
_cell_formula_units_Z 20
_cell_length_a 22.260651
_cell_length_b 7.777307
_cell_length_c 10.158270
_cell_angle_alpha 90.000000
_cell_angle_beta 37.298121
_cell_angle_gamma 90.000000
_cell_volume 1065.693875
_symmetry_space_group_name_H-M "P 2/M"
_symmetry_group_IT_number 10
_symmetry_cell_setting 'monoclinic'
loop_
_space_group_symop_operation_xyz
x,y,z
-x,y,-z
-x,-y,-z
x,-y,z
loop_
_atom_site_type_symbol
_atom_site_label
_atom_site_fract_x
_atom_site_fract_y
_atom_site_fract_z
Si Si1 0.439733 0.305163 0.726402
Si Si2 0.091540 0.500000 0.743259
Si Si3 0.093779 0.500000 0.431059
Si Si4 0.448514 0.801044 0.220578
Si Si5 0.761508 0.191140 0.815807
Si Si6 0.236249 0.193817 0.489584
O O1 0.500000 0.221008 0.500000
O O2 0.410534 0.500000 0.743645
O O3 0.511097 0.305002 0.727673
O O4 0.337670 0.203325 0.924861
O O5 0.061101 0.500000 0.641816
O O6 0.152194 0.329033 0.673894
O O7 0.000000 0.500000 0.000000
O O8 0.156803 0.330555 0.285548
O O9 0.000000 0.500000 0.500000
O O10 0.330545 0.774247 0.417925
O O11 0.477341 0.000000 0.189454
O O12 0.500000 0.727834 0.000000
O O13 0.729363 0.221635 0.720864
O O14 0.806782 0.000000 0.756965
O O15 0.194830 0.000000 0.581931
#
# Coordination Sequence:
#
# PCOD8061574 Si02
#       6
#     4   2   2   4   4   4
#     4  11  23  36  52  84 124 160 188 229 279 334
#     4  10  22  40  60  83 106 148 180 231 303 332
#     4  10  22  42  62  82 110 140 190 246 281 336
#     4  10  19  33  56  85 114 147 189 231 269 331
#     4  10  19  37  62  83 111 152 191 227 281 341
#     4   9  19  35  58  87 113 143 189 231 271 340
#
# _framework density 18.767116000000001
#
# number of rings (size 3 to 8) (size 9 to 14) (size 15 to 20)
#    0.000    2.000    3.000    0.600    1.400    2.800 
#    3.600    0.000    0.000    0.000    0.000    0.000 
#    0.000    0.000    0.000    0.000    0.000    0.000 
#
# Total GULP energy -248021.988962 kJ/mol
# GULP energy per Si atom -12401.099448 kJ/mol
# Density = 1.872440 g / cm^3
# Si number density = 18.767116 Si / 1000 Ang^3
#
#
#
# Elastic Constant Matrix: (Units=GPa)
#
#
# Indices 1 2 3 4 5 6 
#
# 1 102.7096 40.0366 45.4652 0.0000 -10.1345 0.0000
# 2 40.0366 115.0804 53.0589 0.0000 -15.6033 0.0000
# 3 45.4652 53.0589 142.4581 0.0000 -3.6801 0.0000
# 4 0.0000 0.0000 0.0000 15.1907 0.0000 6.2586
# 5 -10.1345 -15.6033 -3.6801 0.0000 24.8842 0.0000
# 6 0.0000 0.0000 0.0000 6.2586 0.0000 10.1019
#
#
#
# Elastic Compliance Matrix: (Units=1/GPa)
#
#
# Indices 1 2 3 4 5 6 
#
# 1 0.012306 -0.002536 -0.002906 0.000000 0.002992 0.000000
# 2 -0.002536 0.011997 -0.003505 0.000000 0.005972 0.000000
# 3 -0.002906 -0.003505 0.009200 0.000000 -0.002020 0.000000
# 4 0.000000 0.000000 0.000000 0.088392 0.000000 -0.054763
# 5 0.002992 0.005972 -0.002020 0.000000 0.044850 0.000000
# 6 0.000000 0.000000 0.000000 -0.054763 0.000000 0.132920
#
#
# Mechanical properties :
#
#
# Convention : Reuss Voigt Hill
#
# Bulk Modulus (GPa) = 64.05832 70.81881 67.43856
# Shear Modulus (GPa) = 15.49125 24.81452 20.15288
#
# Velocity S-wave (km/s) = 2.87617 3.64020 3.28051
# Velocity P-wave (km/s) = 6.72586 7.44886 7.09658
#
# Compressibility (1/GPa) = 0.01561077
#
# Stress axis : x y z
#
# Youngs Moduli (GPa) = 81.26017 83.35077 108.69383
#
# Poissons Ratio (x) = 0.21137 0.31583
# Poissons Ratio (y) = 0.20607 0.38096
# Poissons Ratio (z) = 0.23611 0.29213
#
# Static dielectric constant tensor:
#      x y z
#    x 3.237170 0.000000 0.054460 
#    y 0.000000 3.593510 0.000000 
#    z 0.054460 0.000000 3.286830 
# 
# 
# High freq. dielectric constant tensor:
#      x y z
#    x 1.710620 0.000000 -0.001690 
#    y 0.000000 1.741490 0.000000 
#    z -0.001690 0.000000 1.712520 
# 
# From -- ./inp_files/31433.got.cif
#   From: 2010.06.25/outbox.cif.g09.slc.cpg/sg10_16_cif.got.tgz:31433.got - 2010.06.27 22:07:45.
