data_PCOD8061710
_publ_section_title
;
Structure prediction by ZEFSAII (Michael W. Deem and Ramdas Pophale) SiO2 
 PCOD8061710
Probable space group: P 2/M
;
_chemical_formula_sum "Si O2"
_cell_formula_units_Z 22
_cell_length_a 5.159640
_cell_length_b 28.651566
_cell_length_c 9.276541
_cell_angle_alpha 90.000000
_cell_angle_beta 56.206497
_cell_angle_gamma 90.000000
_cell_volume 1139.671542
_symmetry_space_group_name_H-M "P 2/M"
_symmetry_group_IT_number 10
_symmetry_cell_setting 'monoclinic'
loop_
_space_group_symop_operation_xyz
x,y,z
-x,y,-z
-x,-y,-z
x,-y,z
loop_
_atom_site_type_symbol
_atom_site_label
_atom_site_fract_x
_atom_site_fract_y
_atom_site_fract_z
Si Si1 0.867388 0.631922 0.882611
Si Si2 0.869860 0.799951 0.880140
Si Si3 0.868089 0.283786 0.381910
Si Si4 0.132188 0.901398 0.117812
Si Si5 0.129636 0.000000 0.120365
Si Si6 0.860785 0.445671 0.389213
O O1 0.010650 0.671547 0.739350
O O2 0.958277 0.581513 0.791720
O O3 0.500000 0.637571 0.000000
O O4 0.000000 0.637570 0.000000
O O5 0.965576 0.851325 0.784423
O O6 0.022912 0.763329 0.727088
O O7 0.500000 0.792736 0.000000
O O8 0.000000 0.792736 0.000000
O O9 0.500000 0.285279 0.500000
O O10 0.000000 0.285278 0.500000
O O11 0.500000 0.902058 0.000000
O O12 0.000000 0.902058 0.000000
O O13 0.019725 0.950532 0.230276
O O14 0.500000 0.000000 0.000000
O O15 0.000000 0.000000 0.000000
O O16 0.500000 0.431448 0.500000
O O17 0.908974 0.500000 0.341011
O O18 0.000000 0.431451 0.500000
#
# Coordination Sequence:
#
# PCOD8061710 Si02
#       6
#     4   4   4   4   2   4
#     4  12  24  39  60  85 112 142 180 226 267 308
#     4  10  19  34  53  76 103 133 171 217 264 307
#     4  12  24  39  57  78 106 141 178 217 265 322
#     4   8  14  23  40  64  94 125 157 202 252 300
#     4   8  12  20  34  60  92 122 154 194 248 300
#     4  10  21  39  61  85 116 151 182 215 260 314
#
# _framework density 19.303808
#
# number of rings (size 3 to 8) (size 9 to 14) (size 15 to 20)
#    0.000    1.818    0.000    5.455    0.000    0.727 
#    0.000    0.000    0.000    0.000    0.000    1.273 
#    0.000    0.000    0.000    0.000    0.000    0.000 
#
# Total GULP energy -272564.848425 kJ/mol
# GULP energy per Si atom -12389.311292 kJ/mol
# Density = 1.925987 g / cm^3
# Si number density = 19.303808 Si / 1000 Ang^3
#
#
#
# Elastic Constant Matrix: (Units=GPa)
#
#
# Indices 1 2 3 4 5 6 
#
# 1 185.2450 47.2384 62.4988 0.0000 0.7272 0.0000
# 2 47.2384 163.6459 77.0023 0.0000 -0.4037 0.0000
# 3 62.4988 77.0023 100.5041 0.0000 0.4203 0.0000
# 4 0.0000 0.0000 0.0000 -13.2811 0.0000 0.6942
# 5 0.7272 -0.4037 0.4203 0.0000 34.5257 0.0000
# 6 0.0000 0.0000 0.0000 0.6942 0.0000 38.0738
#
#
#
# Elastic Compliance Matrix: (Units=1/GPa)
#
#
# Indices 1 2 3 4 5 6 
#
# 1 0.006832 0.000042 -0.004280 0.000000 -0.000091 0.000000
# 2 0.000042 0.009557 -0.007349 0.000000 0.000200 0.000000
# 3 -0.004280 -0.007349 0.018243 0.000000 -0.000218 0.000000
# 4 0.000000 0.000000 0.000000 -0.075224 0.000000 0.001371
# 5 -0.000091 0.000200 -0.000218 0.000000 0.028971 0.000000
# 6 0.000000 0.000000 0.000000 0.001371 0.000000 0.026240
#
#
# Mechanical properties :
#
#
# Convention : Reuss Voigt Hill
#
# Bulk Modulus (GPa) = 87.28184 91.43043 89.35613
# Shear Modulus (GPa) = 120.15342 29.37404 74.76373
#
# Velocity S-wave (km/s) = 7.89801 3.90509 6.23010
# Velocity P-wave (km/s) = 11.33509 8.23406 9.90667
#
# Compressibility (1/GPa) = 0.01145714
#
# Stress axis : x y z
#
# Youngs Moduli (GPa) = 146.36977 104.63168 54.81599
#
# Poissons Ratio (x) = -0.00434 0.23461
# Poissons Ratio (y) = -0.00608 0.40285
# Poissons Ratio (z) = 0.62645 0.76895
#
# Static dielectric constant tensor:
#      x y z
#    x 3.849000 0.000000 0.009760 
#    y 0.000000 4.464130 0.000000 
#    z 0.009760 0.000000 3.128420 
# 
# 
# High freq. dielectric constant tensor:
#      x y z
#    x 1.785660 0.000000 0.001210 
#    y 0.000000 1.790510 0.000000 
#    z 0.001210 0.000000 1.696080 
# 
# From -- ./inp_files/15692.got.cif
#   From: 2010.06.25/outbox.cif.g09.slc.cpg/sg10_8_cif.got.tgz:15692.got - 2010.06.27 22:07:45.
