data_PCOD8061863
_publ_section_title
;
Structure prediction by ZEFSAII (Michael W. Deem and Ramdas Pophale) SiO2 
 PCOD8061863
Probable space group: P 2/M
;
_chemical_formula_sum "Si O2"
_cell_formula_units_Z 20
_cell_length_a 22.475694
_cell_length_b 8.547390
_cell_length_c 5.163034
_cell_angle_alpha 90.000000
_cell_angle_beta 96.687774
_cell_angle_gamma 90.000000
_cell_volume 985.113723
_symmetry_space_group_name_H-M "P 2/M"
_symmetry_group_IT_number 10
_symmetry_cell_setting 'monoclinic'
loop_
_space_group_symop_operation_xyz
x,y,z
-x,y,-z
-x,-y,-z
x,-y,z
loop_
_atom_site_type_symbol
_atom_site_label
_atom_site_fract_x
_atom_site_fract_y
_atom_site_fract_z
Si Si1 0.462571 0.183015 0.231201
Si Si2 0.871682 0.316172 0.461296
Si Si3 0.069069 0.182460 0.009167
Si Si4 0.264667 0.686320 0.632912
Si Si5 0.668277 0.315457 0.832755
O O1 0.500000 0.234437 0.500000
O O2 0.401067 0.275200 0.199084
O O3 0.448272 0.000000 0.225061
O O4 0.500000 0.233558 0.000000
O O5 0.876777 0.500000 0.410941
O O6 0.910882 0.225502 0.270073
O O7 0.803640 0.256200 0.402593
O O8 0.893797 0.279856 0.761576
O O9 0.079406 0.000000 0.065868
O O10 0.000000 0.228735 0.000000
O O11 0.267036 0.500000 0.629958
O O12 0.299443 0.756173 0.402899
O O13 0.298200 0.755576 0.900687
O O14 0.675594 0.500000 0.837240
#
# Coordination Sequence:
#
# PCOD8061863 Si02
#       5
#     4   4   4   4   4
#     4  10  21  36  52  73 105 140 173 216 268 316
#     4  11  22  39  64  89 115 152 199 242 284 345
#     4  11  24  41  59  84 122 159 190 237 299 347
#     4   9  19  35  55  81 111 140 173 226 284 322
#     4  10  19  34  56  79 105 138 177 219 269 328
#
# _framework density 20.302225
#
# number of rings (size 3 to 8) (size 9 to 14) (size 15 to 20)
#    0.000    1.800    0.000    4.200    0.000    8.000 
#    0.000    6.000    0.000    0.000    0.000    0.000 
#    0.000    0.000    0.000    0.000    0.000    0.000 
#
# Total GULP energy -248096.308740 kJ/mol
# GULP energy per Si atom -12404.815437 kJ/mol
# Density = 2.025602 g / cm^3
# Si number density = 20.302225 Si / 1000 Ang^3
#
#
#
# Elastic Constant Matrix: (Units=GPa)
#
#
# Indices 1 2 3 4 5 6 
#
# 1 130.4348 25.7420 54.7593 0.0000 -2.5611 0.0000
# 2 25.7420 22.7573 19.4419 0.0000 2.4262 0.0000
# 3 54.7593 19.4419 152.9420 0.0000 -2.0129 0.0000
# 4 0.0000 0.0000 0.0000 27.7442 0.0000 -6.3550
# 5 -2.5611 2.4262 -2.0129 0.0000 44.2573 0.0000
# 6 0.0000 0.0000 0.0000 -6.3550 0.0000 -31.0224
#
#
#
# Elastic Compliance Matrix: (Units=1/GPa)
#
#
# Indices 1 2 3 4 5 6 
#
# 1 0.010751 -0.010094 -0.002552 0.000000 0.001059 0.000000
# 2 -0.010094 0.059170 -0.003961 0.000000 -0.004008 0.000000
# 3 -0.002552 -0.003961 0.007961 0.000000 0.000432 0.000000
# 4 0.000000 0.000000 0.000000 0.034428 0.000000 -0.007053
# 5 0.001059 -0.004008 0.000432 0.000000 0.022896 0.000000
# 6 0.000000 0.000000 0.000000 -0.007053 0.000000 -0.030790
#
#
# Mechanical properties :
#
#
# Convention : Reuss Voigt Hill
#
# Bulk Modulus (GPa) = 22.38641 56.22450 39.30546
# Shear Modulus (GPa) = 32.78275 21.94187 27.36231
#
# Velocity S-wave (km/s) = 4.02274 3.29106 3.67515
# Velocity P-wave (km/s) = 5.71201 6.49579 6.11647
#
# Compressibility (1/GPa) = 0.04466995
#
# Stress axis : x y z
#
# Youngs Moduli (GPa) = 93.01476 16.90037 125.60645
#
# Poissons Ratio (x) = 0.17059 0.32058
# Poissons Ratio (y) = 0.93885 0.49747
# Poissons Ratio (z) = 0.23740 0.06693
#
# Static dielectric constant tensor:
#      x y z
#    x 3.762710 0.000000 -0.049800 
#    y 0.000000 3.337800 0.000000 
#    z -0.049800 0.000000 3.921950 
# 
# 
# High freq. dielectric constant tensor:
#      x y z
#    x 1.809840 0.000000 -0.001840 
#    y 0.000000 1.765950 0.000000 
#    z -0.001840 0.000000 1.814290 
# 
# From -- ./inp_files/11986.got.cif
#   From: 2010.06.25/outbox.cif.g09.slc.cpg/sg10_6_cif.got.tgz:11986.got - 2010.06.27 22:07:45.
