data_PCOD8061489
_publ_section_title
;
Structure prediction by ZEFSAII (Michael W. Deem and Ramdas Pophale) SiO2 
 PCOD8061489
Probable space group: P 2/M
;
_chemical_formula_sum "Si O2"
_cell_formula_units_Z 32
_cell_length_a 20.833472
_cell_length_b 8.742523
_cell_length_c 26.174790
_cell_angle_alpha 90.000000
_cell_angle_beta 158.808150
_cell_angle_gamma 90.000000
_cell_volume 1723.376917
_symmetry_space_group_name_H-M "P 2/M"
_symmetry_group_IT_number 10
_symmetry_cell_setting 'monoclinic'
loop_
_space_group_symop_operation_xyz
x,y,z
-x,y,-z
-x,-y,-z
x,-y,z
loop_
_atom_site_type_symbol
_atom_site_label
_atom_site_fract_x
_atom_site_fract_y
_atom_site_fract_z
Si Si1 0.959489 0.180582 0.413827
Si Si2 0.437348 0.821834 0.897125
Si Si3 0.849992 0.820788 0.031033
Si Si4 0.412140 0.321122 0.088178
Si Si5 0.233932 0.319059 0.312416
Si Si6 0.527107 0.180880 0.595481
Si Si7 0.547867 0.821808 0.728205
Si Si8 0.287986 0.677997 0.610086
O O1 0.763943 0.236783 0.254455
O O2 0.000000 0.246680 0.500000
O O3 0.096670 0.245192 0.474296
O O4 0.976342 0.000000 0.425232
O O5 0.561159 0.727606 0.950428
O O6 0.452076 0.000000 0.893747
O O7 0.500000 0.785557 0.000000
O O8 0.029301 0.725871 0.160132
O O9 0.893380 0.000000 0.064339
O O10 0.752033 0.773062 0.010511
O O11 0.727830 0.776156 0.891670
O O12 0.369104 0.500000 0.060346
O O13 0.589716 0.276846 0.250928
O O14 0.254622 0.500000 0.332118
O O15 0.333959 0.241424 0.434732
O O16 0.320260 0.261579 0.323941
O O17 0.565370 0.225477 0.682316
O O18 0.536101 0.000000 0.593334
O O19 0.378613 0.734569 0.625349
O O20 0.509818 0.000000 0.706606
O O21 0.257768 0.500000 0.583424
#
# Coordination Sequence:
#
# PCOD8061489 Si02
#       8
#     4   4   4   4   4   4   4   4
#     4  10  19  33  56  79 101 137 184 226 264 319
#     4  10  21  37  55  77 105 140 181 226 274 323
#     4  10  20  37  60  84 110 145 187 229 271 326
#     4  10  20  35  55  80 110 143 178 223 275 328
#     4  11  22  37  57  84 116 150 185 224 272 329
#     4  10  20  38  61  84 111 148 188 228 272 322
#     4   9  20  37  59  84 111 143 185 232 274 320
#     4  10  20  33  54  82 111 141 177 223 276 327
#
# _framework density 18.568196
#
# number of rings (size 3 to 8) (size 9 to 14) (size 15 to 20)
#    0.000    2.000    1.250    3.375    0.000    4.000 
#    2.250    2.500    0.000    0.000    0.000    0.000 
#    0.000    0.000    0.000    0.000    0.000    0.000 
#
# Total GULP energy -396918.485580 kJ/mol
# GULP energy per Si atom -12403.702674 kJ/mol
# Density = 1.852593 g / cm^3
# Si number density = 18.568196 Si / 1000 Ang^3
#
#
#
# Elastic Constant Matrix: (Units=GPa)
#
#
# Indices 1 2 3 4 5 6 
#
# 1 107.1203 35.1176 61.3195 0.0000 0.6779 0.0000
# 2 35.1176 57.4463 30.1419 0.0000 0.6254 0.0000
# 3 61.3195 30.1419 114.8411 0.0000 9.2553 0.0000
# 4 0.0000 0.0000 0.0000 22.5178 0.0000 1.5371
# 5 0.6779 0.6254 9.2553 0.0000 25.7912 0.0000
# 6 0.0000 0.0000 0.0000 1.5371 0.0000 10.4674
#
#
#
# Elastic Compliance Matrix: (Units=1/GPa)
#
#
# Indices 1 2 3 4 5 6 
#
# 1 0.015023 -0.005691 -0.006701 0.000000 0.002148 0.000000
# 2 -0.005691 0.022397 -0.002891 0.000000 0.000644 0.000000
# 3 -0.006701 -0.002891 0.013413 0.000000 -0.004567 0.000000
# 4 0.000000 0.000000 0.000000 0.044859 0.000000 -0.006587
# 5 0.002148 0.000644 -0.004567 0.000000 0.040340 0.000000
# 6 0.000000 0.000000 0.000000 -0.006587 0.000000 0.096502
#
#
# Mechanical properties :
#
#
# Convention : Reuss Voigt Hill
#
# Bulk Modulus (GPa) = 49.34548 59.17397 54.25973
# Shear Modulus (GPa) = 18.52833 21.94385 20.23609
#
# Velocity S-wave (km/s) = 3.16231 3.44146 3.30483
# Velocity P-wave (km/s) = 6.32191 6.90863 6.62177
#
# Compressibility (1/GPa) = 0.02026528
#
# Stress axis : x y z
#
# Youngs Moduli (GPa) = 66.56246 44.64911 74.55617
#
# Poissons Ratio (x) = 0.25411 0.49961
# Poissons Ratio (y) = 0.37883 0.21557
# Poissons Ratio (z) = 0.44604 0.12910
#
# Static dielectric constant tensor:
#      x y z
#    x 3.405940 0.000000 0.011680 
#    y 0.000000 3.371760 0.000000 
#    z 0.011680 0.000000 3.423000 
# 
# 
# High freq. dielectric constant tensor:
#      x y z
#    x 1.721510 0.000000 0.007960 
#    y 0.000000 1.725130 0.000000 
#    z 0.007960 0.000000 1.715420 
# 
# From -- ./inp_files/93756.got.cif
#   From: 2010.06.25/outbox.cif.g09.slc.cpg/sg10_47_cif.got.tgz:93756.got - 2010.06.27 22:07:45.
