data_PCOD8061732
_publ_section_title
;
Structure prediction by ZEFSAII (Michael W. Deem and Ramdas Pophale) SiO2 
 PCOD8061732
Probable space group: P 2/M
;
_chemical_formula_sum "Si O2"
_cell_formula_units_Z 32
_cell_length_a 12.114270
_cell_length_b 8.861250
_cell_length_c 21.321824
_cell_angle_alpha 90.000000
_cell_angle_beta 51.531497
_cell_angle_gamma 90.000000
_cell_volume 1792.052631
_symmetry_space_group_name_H-M "P 2/M"
_symmetry_group_IT_number 10
_symmetry_cell_setting 'monoclinic'
loop_
_space_group_symop_operation_xyz
x,y,z
-x,y,-z
-x,-y,-z
x,-y,z
loop_
_atom_site_type_symbol
_atom_site_label
_atom_site_fract_x
_atom_site_fract_y
_atom_site_fract_z
Si Si1 0.143613 0.677432 0.229553
Si Si2 0.266025 0.175312 0.957158
Si Si3 0.579136 0.823501 0.824522
Si Si4 0.477496 0.322577 0.287821
Si Si5 0.238215 0.176962 0.827438
Si Si6 0.773549 0.174094 0.568196
Si Si7 0.982163 0.825501 0.607692
Si Si8 0.054266 0.822400 0.135151
O O1 0.164219 0.500000 0.220639
O O2 0.297292 0.753804 0.177503
O O3 0.064282 0.732857 0.195897
O O4 0.046515 0.721465 0.322593
O O5 0.431101 0.206180 0.912393
O O6 0.223425 0.240369 0.903883
O O7 0.229622 0.000000 0.969065
O O8 0.171288 0.245763 0.045894
O O9 0.577806 0.749767 0.756879
O O10 0.607392 0.000000 0.805373
O O11 0.483689 0.500000 0.278033
O O12 0.631400 0.260605 0.252080
O O13 0.366862 0.276193 0.381193
O O14 0.098302 0.213407 0.839017
O O15 0.273459 0.000000 0.816931
O O16 0.862617 0.212012 0.474160
O O17 0.867356 0.211237 0.595610
O O18 0.728550 0.000000 0.584088
O O19 0.972376 0.000000 0.631355
O O20 0.075649 0.000000 0.139831
#
# Coordination Sequence:
#
# PCOD8061732 Si02
#       8
#     4   4   4   4   4   4   4   4
#     4  12  24  35  49  74 111 146 174 209 258 317
#     4   8  16  32  57  83 100 123 172 233 270 296
#     4  10  19  34  54  75 103 138 177 218 260 306
#     4  11  20  30  50  81 113 140 167 207 262 315
#     4   9  18  34  57  80 102 133 176 224 264 303
#     4   9  17  31  54  81 106 133 171 214 256 303
#     4   9  18  33  54  78 104 137 173 213 255 302
#     4  10  20  36  57  77  99 136 183 222 261 308
#
# _framework density 17.856618999999998
#
# number of rings (size 3 to 8) (size 9 to 14) (size 15 to 20)
#    0.000    2.250    1.250    4.500    0.000    3.000 
#    0.000    6.875    0.000    4.500    0.000    5.250 
#    0.000    0.000    0.000    0.000    0.000    0.000 
#
# Total GULP energy -396793.926329 kJ/mol
# GULP energy per Si atom -12399.810198 kJ/mol
# Density = 1.781598 g / cm^3
# Si number density = 17.856619 Si / 1000 Ang^3
#
#
#
# Elastic Constant Matrix: (Units=GPa)
#
#
# Indices 1 2 3 4 5 6 
#
# 1 86.4851 47.0706 61.5377 0.0000 -1.0465 0.0000
# 2 47.0706 90.3118 53.6242 0.0000 -5.3089 0.0000
# 3 61.5377 53.6242 121.7432 0.0000 -15.8872 0.0000
# 4 0.0000 0.0000 0.0000 4.3704 0.0000 -2.4205
# 5 -1.0465 -5.3089 -15.8872 0.0000 21.5657 0.0000
# 6 0.0000 0.0000 0.0000 -2.4205 0.0000 16.4127
#
#
#
# Elastic Compliance Matrix: (Units=1/GPa)
#
#
# Indices 1 2 3 4 5 6 
#
# 1 0.021166 -0.006158 -0.008907 0.000000 -0.007050 0.000000
# 2 -0.006158 0.016819 -0.004198 0.000000 0.000749 0.000000
# 3 -0.008907 -0.004198 0.015903 0.000000 0.010250 0.000000
# 4 0.000000 0.000000 0.000000 0.249166 0.000000 0.036747
# 5 -0.007050 0.000749 0.010250 0.000000 0.053763 0.000000
# 6 0.000000 0.000000 0.000000 0.036747 0.000000 0.066348
#
#
# Mechanical properties :
#
#
# Convention : Reuss Voigt Hill
#
# Bulk Modulus (GPa) = 65.09094 69.22277 67.15685
# Shear Modulus (GPa) = 10.71099 17.55692 14.13395
#
# Velocity S-wave (km/s) = 2.45181 3.13903 2.81646
# Velocity P-wave (km/s) = 6.67430 7.21027 6.94746
#
# Compressibility (1/GPa) = 0.01536312
#
# Stress axis : x y z
#
# Youngs Moduli (GPa) = 47.24483 59.45732 62.88268
#
# Poissons Ratio (x) = 0.36613 0.56007
# Poissons Ratio (y) = 0.29093 0.26397
# Poissons Ratio (z) = 0.42079 0.24959
#
# Static dielectric constant tensor:
#      x y z
#    x 3.114460 0.000000 -0.174940 
#    y 0.000000 3.104830 0.000000 
#    z -0.174940 0.000000 3.518320 
# 
# 
# High freq. dielectric constant tensor:
#      x y z
#    x 1.667180 0.000000 -0.017690 
#    y 0.000000 1.673930 0.000000 
#    z -0.017690 0.000000 1.699030 
# 
# From -- ./inp_files/88523.got.cif
#   From: 2010.06.25/outbox.cif.g09.slc.cpg/sg10_45_cif.got.tgz:88523.got - 2010.06.27 22:07:45.
