data_PCOD8061562
_publ_section_title
;
Structure prediction by ZEFSAII (Michael W. Deem and Ramdas Pophale) SiO2 
 PCOD8061562
Probable space group: P 2/M
;
_chemical_formula_sum "Si O2"
_cell_formula_units_Z 28
_cell_length_a 9.452195
_cell_length_b 8.645233
_cell_length_c 30.859352
_cell_angle_alpha 90.000000
_cell_angle_beta 33.877200
_cell_angle_gamma 90.000000
_cell_volume 1405.641765
_symmetry_space_group_name_H-M "P 2/M"
_symmetry_group_IT_number 10
_symmetry_cell_setting 'monoclinic'
loop_
_space_group_symop_operation_xyz
x,y,z
-x,y,-z
-x,-y,-z
x,-y,z
loop_
_atom_site_type_symbol
_atom_site_label
_atom_site_fract_x
_atom_site_fract_y
_atom_site_fract_z
Si Si1 0.937310 0.180809 0.064622
Si Si2 0.871292 0.183843 0.790060
Si Si3 0.557040 0.817965 0.351695
Si Si4 0.375394 0.680996 0.485933
Si Si5 0.458443 0.815220 0.962867
Si Si6 0.784036 0.680709 0.636968
Si Si7 0.604946 0.816331 0.772110
O O1 0.672351 0.255826 0.147026
O O2 0.916448 0.000000 0.079179
O O3 0.000000 0.218255 0.000000
O O4 0.178213 0.253269 0.027249
O O5 0.669417 0.251895 0.876074
O O6 0.798411 0.243890 0.760228
O O7 0.154392 0.237694 0.731310
O O8 0.858609 0.000000 0.793641
O O9 0.504937 0.776557 0.414735
O O10 0.361581 0.735071 0.369107
O O11 0.526961 0.000000 0.352550
O O12 0.500000 0.732768 0.500000
O O13 0.422847 0.500000 0.466031
O O14 0.079359 0.722683 0.559055
O O15 0.460299 0.000000 0.957978
O O16 0.500000 0.754635 0.000000
O O17 0.741832 0.500000 0.652917
O O18 0.679901 0.763647 0.705658
O O19 0.597611 0.000000 0.774977
#
# Coordination Sequence:
#
# PCOD8061562 Si02
#       7
#     4   4   4   4   4   4   4
#     4   9  15  26  46  76 109 143 180 225 277 324
#     4   9  18  32  49  80 118 146 178 226 279 328
#     4  11  23  37  58  87 118 147 180 227 280 326
#     4  10  22  42  65  85 109 146 188 224 268 332
#     4   9  16  25  42  71 111 149 179 217 270 329
#     4  11  24  40  58  82 112 147 185 225 273 332
#     4  10  19  33  56  84 113 143 185 235 279 324
#
# _framework density 19.919726000000001
#
# number of rings (size 3 to 8) (size 9 to 14) (size 15 to 20)
#    0.000    2.143    1.429    2.143    2.000    3.143 
#    0.000    0.714    0.000    0.429    0.000    1.000 
#    0.000    0.000    0.000    0.000    0.000    0.000 
#
# Total GULP energy -347038.071455 kJ/mol
# GULP energy per Si atom -12394.216838 kJ/mol
# Density = 1.987439 g / cm^3
# Si number density = 19.919726 Si / 1000 Ang^3
#
#
#
# Elastic Constant Matrix: (Units=GPa)
#
#
# Indices 1 2 3 4 5 6 
#
# 1 168.9805 12.0697 49.8697 0.0000 -9.5741 0.0000
# 2 12.0697 11.2361 10.1361 0.0000 -7.0069 0.0000
# 3 49.8697 10.1361 98.9876 0.0000 -8.5861 0.0000
# 4 0.0000 0.0000 0.0000 -5.5871 0.0000 -3.5197
# 5 -9.5741 -7.0069 -8.5861 0.0000 47.0121 0.0000
# 6 0.0000 0.0000 0.0000 -3.5197 0.0000 19.5247
#
#
#
# Elastic Compliance Matrix: (Units=1/GPa)
#
#
# Indices 1 2 3 4 5 6 
#
# 1 0.007190 -0.004801 -0.003115 0.000000 0.000180 0.000000
# 2 -0.004801 0.109740 -0.007605 0.000000 0.013989 0.000000
# 3 -0.003115 -0.007605 0.012495 0.000000 0.000514 0.000000
# 4 0.000000 0.000000 0.000000 -0.160729 0.000000 -0.028975
# 5 0.000180 0.013989 0.000514 0.000000 0.023487 0.000000
# 6 0.000000 0.000000 0.000000 -0.028975 0.000000 0.045994
#
#
# Mechanical properties :
#
#
# Convention : Reuss Voigt Hill
#
# Bulk Modulus (GPa) = 10.16438 47.03946 28.60192
# Shear Modulus (GPa) = 49.01276 25.99850 37.50563
#
# Velocity S-wave (km/s) = 4.96574 3.61662 4.34388
# Velocity P-wave (km/s) = 6.16375 6.41138 6.28878
#
# Compressibility (1/GPa) = 0.09838274
#
# Stress axis : x y z
#
# Youngs Moduli (GPa) = 139.07532 9.11243 80.03183
#
# Poissons Ratio (x) = 0.04375 0.24932
# Poissons Ratio (y) = 0.66776 0.60862
# Poissons Ratio (z) = 0.43325 0.06930
#
# Static dielectric constant tensor:
#      x y z
#    x 3.944670 0.000000 -0.205900 
#    y 0.000000 3.111450 0.000000 
#    z -0.205900 0.000000 3.846830 
# 
# 
# High freq. dielectric constant tensor:
#      x y z
#    x 1.799030 0.000000 -0.006080 
#    y 0.000000 1.722730 0.000000 
#    z -0.006080 0.000000 1.792840 
# 
# From -- ./inp_files/91938.got.cif
#   From: 2010.06.25/outbox.cif.g09.slc.cpg/sg10_46_cif.got.tgz:91938.got - 2010.06.27 22:07:45.
