data_PCOD8061029
_publ_section_title
;
Structure prediction by ZEFSAII (Michael W. Deem and Ramdas Pophale) SiO2 
 PCOD8061029
Probable space group: P 2/M
;
_chemical_formula_sum "Si O2"
_cell_formula_units_Z 32
_cell_length_a 13.796517
_cell_length_b 13.305036
_cell_length_c 19.197052
_cell_angle_alpha 90.000000
_cell_angle_beta 25.533900
_cell_angle_gamma 90.000000
_cell_volume 1518.947344
_symmetry_space_group_name_H-M "P 2/M"
_symmetry_group_IT_number 10
_symmetry_cell_setting 'monoclinic'
loop_
_space_group_symop_operation_xyz
x,y,z
-x,y,-z
-x,-y,-z
x,-y,z
loop_
_atom_site_type_symbol
_atom_site_label
_atom_site_fract_x
_atom_site_fract_y
_atom_site_fract_z
Si Si1 0.452409 0.884803 0.453931
Si Si2 0.239422 0.810266 0.869687
Si Si3 0.193755 0.114911 0.320700
Si Si4 0.054101 0.389636 0.109212
Si Si5 0.311925 0.615103 0.764257
Si Si6 0.172819 0.390196 0.598800
Si Si7 0.977771 0.181419 0.713740
Si Si8 0.340953 0.795345 0.953497
O O1 0.500000 0.837422 0.500000
O O2 0.585091 0.834271 0.304638
O O3 0.192089 0.872686 0.606716
O O4 0.525538 0.000000 0.407529
O O5 0.260709 0.687189 0.864021
O O6 0.290486 0.855587 0.913316
O O7 0.000000 0.850980 0.000000
O O8 0.000000 0.145174 0.500000
O O9 0.101939 0.123618 0.302514
O O10 0.274144 0.000000 0.281133
O O11 0.395787 0.193252 0.201631
O O12 0.148953 0.500000 0.028265
O O13 0.266248 0.319434 0.989728
O O14 0.878062 0.347463 0.166609
O O15 0.890279 0.397954 0.280724
O O16 0.273467 0.500000 0.811031
O O17 0.562474 0.634185 0.574157
O O18 0.124033 0.500000 0.593964
O O19 0.029553 0.298043 0.658709
O O20 0.790320 0.163818 0.894433
#
# Coordination Sequence:
#
# PCOD8061029 Si02
#       8
#     4   4   4   4   4   4   4   4
#     4  11  25  42  62  88 122 166 211 260 321 381
#     4  12  23  38  59  90 132 171 206 256 311 380
#     4  11  26  48  72  93 117 156 211 271 325 378
#     4   9  18  34  57  92 134 172 211 251 303 366
#     4  10  19  32  57  91 132 176 216 253 297 362
#     4   9  18  32  58  95 130 168 210 252 301 367
#     4  11  22  42  70  93 126 163 207 262 314 378
#     4  11  24  39  64  97 125 162 206 260 320 370
#
# _framework density 21.067221
#
# number of rings (size 3 to 8) (size 9 to 14) (size 15 to 20)
#    0.000    1.500    2.500    2.625    1.750    5.500 
#    0.000    0.625    0.000    3.750    0.000    0.000 
#    0.000    0.000    0.000    0.000    0.000    0.000 
#
# Total GULP energy -396559.219551 kJ/mol
# GULP energy per Si atom -12392.475611 kJ/mol
# Density = 2.101927 g / cm^3
# Si number density = 21.067221 Si / 1000 Ang^3
#
#
#
# Elastic Constant Matrix: (Units=GPa)
#
#
# Indices 1 2 3 4 5 6 
#
# 1 126.9751 12.4465 59.8293 0.0000 5.6137 0.0000
# 2 12.4465 57.9189 31.8610 0.0000 -1.2915 0.0000
# 3 59.8293 31.8610 149.3197 0.0000 -2.5194 0.0000
# 4 0.0000 0.0000 0.0000 13.9205 0.0000 -4.8299
# 5 5.6137 -1.2915 -2.5194 0.0000 38.2543 0.0000
# 6 0.0000 0.0000 0.0000 -4.8299 0.0000 25.4643
#
#
#
# Elastic Compliance Matrix: (Units=1/GPa)
#
#
# Indices 1 2 3 4 5 6 
#
# 1 0.009818 0.000036 -0.003970 0.000000 -0.001701 0.000000
# 2 0.000036 0.019567 -0.004183 0.000000 0.000380 0.000000
# 3 -0.003970 -0.004183 0.009198 0.000000 0.001047 0.000000
# 4 0.000000 0.000000 0.000000 0.076897 0.000000 0.014585
# 5 -0.001701 0.000380 0.001047 0.000000 0.026472 0.000000
# 6 0.000000 0.000000 0.000000 0.014585 0.000000 0.042037
#
#
# Mechanical properties :
#
#
# Convention : Reuss Voigt Hill
#
# Bulk Modulus (GPa) = 44.74501 60.27636 52.51069
# Shear Modulus (GPa) = 24.07615 30.86628 27.47121
#
# Velocity S-wave (km/s) = 3.38424 3.83186 3.61498
# Velocity P-wave (km/s) = 6.04616 6.94630 6.51180
#
# Compressibility (1/GPa) = 0.02234886
#
# Stress axis : x y z
#
# Youngs Moduli (GPa) = 101.85409 51.10538 108.71764
#
# Poissons Ratio (x) = -0.00185 0.43164
# Poissons Ratio (y) = -0.00370 0.45480
# Poissons Ratio (z) = 0.40439 0.21379
#
# Static dielectric constant tensor:
#      x y z
#    x 3.662660 0.000000 0.262610 
#    y 0.000000 4.097570 0.000000 
#    z 0.262610 0.000000 3.982780 
# 
# 
# High freq. dielectric constant tensor:
#      x y z
#    x 1.807610 0.000000 0.022280 
#    y 0.000000 1.825090 0.000000 
#    z 0.022280 0.000000 1.845350 
# 
# From -- ./inp_files/76997.got.cif
#   From: 2010.06.25/outbox.cif.g09.slc.cpg/sg10_39_cif.got.tgz:76997.got - 2010.06.27 22:07:45.
