data_PCOD8061419
_publ_section_title
;
Structure prediction by ZEFSAII (Michael W. Deem and Ramdas Pophale) SiO2 
 PCOD8061419
Probable space group: P 2/M
;
_chemical_formula_sum "Si O2"
_cell_formula_units_Z 24
_cell_length_a 22.879506
_cell_length_b 8.265508
_cell_length_c 9.587883
_cell_angle_alpha 90.000000
_cell_angle_beta 47.052154
_cell_angle_gamma 90.000000
_cell_volume 1327.194855
_symmetry_space_group_name_H-M "P 2/M"
_symmetry_group_IT_number 10
_symmetry_cell_setting 'monoclinic'
loop_
_space_group_symop_operation_xyz
x,y,z
-x,y,-z
-x,-y,-z
x,-y,z
loop_
_atom_site_type_symbol
_atom_site_label
_atom_site_fract_x
_atom_site_fract_y
_atom_site_fract_z
Si Si1 0.611543 0.000000 0.698480
Si Si2 0.195761 0.681330 0.402261
Si Si3 0.435323 0.000000 0.904620
Si Si4 0.657219 0.312401 0.027789
Si Si5 0.759986 0.825113 0.394028
Si Si6 0.089852 0.814045 0.350834
Si Si7 0.218102 0.317373 0.938377
O O1 0.594635 0.000000 0.889363
O O2 0.663555 0.839707 0.573555
O O3 0.530904 0.000000 0.740450
O O4 0.169556 0.500000 0.408858
O O5 0.282850 0.717494 0.197814
O O6 0.200153 0.701863 0.561850
O O7 0.129749 0.795766 0.438666
O O8 0.408150 0.831423 0.874574
O O9 0.623288 0.500000 0.076804
O O10 0.703501 0.283928 0.097123
O O11 0.798783 0.000000 0.363931
O O12 0.779772 0.787436 0.203301
O O13 0.138988 0.716449 0.155680
O O14 0.000000 0.745531 0.500000
O O15 0.090229 0.000000 0.305655
O O16 0.216047 0.500000 0.890818
#
# Coordination Sequence:
#
# PCOD8061419 Si02
#       7
#     2   4   2   4   4   4   4
#     4   9  22  33  55  87 106 144 184 226 286 331
#     4  10  19  33  55  80 109 146 185 225 272 326
#     4  11  18  37  59  81 114 145 186 234 288 334
#     4   9  19  33  54  83 106 145 193 231 274 330
#     4  10  19  35  54  80 107 143 183 226 270 329
#     4  10  21  36  57  85 111 140 181 228 272 322
#     4  10  21  35  55  81 111 145 184 227 276 328
#
# _framework density 18.083254
#
# number of rings (size 3 to 8) (size 9 to 14) (size 15 to 20)
#    0.500    1.667    1.667    3.000    5.833    1.333 
#    0.000    5.833    0.000    7.000    0.000    0.000 
#    0.000    0.000    0.000    0.000    0.000    0.000 
#
# Total GULP energy -297426.902786 kJ/mol
# GULP energy per Si atom -12392.787616 kJ/mol
# Density = 1.804210 g / cm^3
# Si number density = 18.083254 Si / 1000 Ang^3
#
#
#
# Elastic Constant Matrix: (Units=GPa)
#
#
# Indices 1 2 3 4 5 6 
#
# 1 90.5131 31.0176 49.5747 0.0000 -0.4950 0.0000
# 2 31.0176 70.6273 12.9770 0.0000 -7.7710 0.0000
# 3 49.5747 12.9770 67.9641 0.0000 6.6062 0.0000
# 4 0.0000 0.0000 0.0000 18.2361 0.0000 7.7341
# 5 -0.4950 -7.7710 6.6062 0.0000 31.0609 0.0000
# 6 0.0000 0.0000 0.0000 7.7341 0.0000 23.6750
#
#
#
# Elastic Compliance Matrix: (Units=1/GPa)
#
#
# Indices 1 2 3 4 5 6 
#
# 1 0.021128 -0.006446 -0.014353 0.000000 0.001777 0.000000
# 2 -0.006446 0.017241 0.001022 0.000000 0.003994 0.000000
# 3 -0.014353 0.001022 0.025513 0.000000 -0.005399 0.000000
# 4 0.000000 0.000000 0.000000 0.063656 0.000000 -0.020795
# 5 0.001777 0.003994 -0.005399 0.000000 0.034371 0.000000
# 6 0.000000 0.000000 0.000000 -0.020795 0.000000 0.049032
#
#
# Mechanical properties :
#
#
# Convention : Reuss Voigt Hill
#
# Bulk Modulus (GPa) = 41.10614 46.24923 43.67769
# Shear Modulus (GPa) = 19.33442 23.63007 21.48225
#
# Velocity S-wave (km/s) = 3.27339 3.61880 3.45042
# Velocity P-wave (km/s) = 6.08833 6.56447 6.33088
#
# Compressibility (1/GPa) = 0.02432727
#
# Stress axis : x y z
#
# Youngs Moduli (GPa) = 47.32980 57.99960 39.19555
#
# Poissons Ratio (x) = 0.37388 0.56259
# Poissons Ratio (y) = 0.30510 -0.04005
# Poissons Ratio (z) = 0.67934 -0.05926
#
# Static dielectric constant tensor:
#      x y z
#    x 3.245820 0.000000 -0.006640 
#    y 0.000000 3.373690 0.000000 
#    z -0.006640 0.000000 3.103730 
# 
# 
# High freq. dielectric constant tensor:
#      x y z
#    x 1.692670 0.000000 0.013770 
#    y 0.000000 1.707430 0.000000 
#    z 0.013770 0.000000 1.678240 
# 
# From -- ./inp_files/33801.got.cif
#   From: 2010.06.25/outbox.cif.g09.slc.cpg/sg10_17_cif.got.tgz:33801.got - 2010.06.27 22:07:45.
