data_PCOD8061254
_publ_section_title
;
Structure prediction by ZEFSAII (Michael W. Deem and Ramdas Pophale) SiO2 
 PCOD8061254
Probable space group: P 2/M
;
_chemical_formula_sum "Si O2"
_cell_formula_units_Z 28
_cell_length_a 28.988443
_cell_length_b 9.057139
_cell_length_c 8.978476
_cell_angle_alpha 90.000000
_cell_angle_beta 38.659119
_cell_angle_gamma 90.000000
_cell_volume 1472.584012
_symmetry_space_group_name_H-M "P 2/M"
_symmetry_group_IT_number 10
_symmetry_cell_setting 'monoclinic'
loop_
_space_group_symop_operation_xyz
x,y,z
-x,y,-z
-x,-y,-z
x,-y,z
loop_
_atom_site_type_symbol
_atom_site_label
_atom_site_fract_x
_atom_site_fract_y
_atom_site_fract_z
Si Si1 0.857748 0.333939 0.676948
Si Si2 0.573924 0.672078 0.902687
Si Si3 0.569307 0.170058 0.220727
Si Si4 0.145425 0.666798 0.960494
Si Si5 0.707188 0.826176 0.403697
Si Si6 0.001401 0.166704 0.318704
Si Si7 0.287506 0.171348 0.951768
O O1 0.861931 0.500000 0.604693
O O2 0.928335 0.244880 0.437802
O O3 0.858256 0.331445 0.853014
O O4 0.782537 0.259940 0.807811
O O5 0.593953 0.500000 0.845487
O O6 0.639628 0.765506 0.667726
O O7 0.500000 0.708520 0.000000
O O8 0.561478 0.721227 0.102652
O O9 0.500000 0.198794 0.500000
O O10 0.642664 0.213117 0.125178
O O11 0.571670 0.000000 0.161243
O O12 0.147914 0.500000 0.893019
O O13 0.217903 0.753156 0.723084
O O14 0.073137 0.747170 0.077221
O O15 0.694320 0.784104 0.263816
O O16 0.713309 0.000000 0.412422
O O17 0.000000 0.168642 0.500000
O O18 0.004018 0.000000 0.251726
O O19 0.267195 0.000000 0.011625
#
# Coordination Sequence:
#
# PCOD8061254 Si02
#       7
#     4   4   4   4   4   4   4
#     4   9  16  25  40  64  96 134 171 209 257 307
#     4  11  24  39  55  78 107 137 170 210 257 308
#     4  10  21  38  59  81 104 133 171 213 257 307
#     4   9  16  26  41  65  99 134 169 211 258 306
#     4  10  19  33  54  77 103 137 175 214 258 307
#     4   9  15  23  37  60  93 132 173 214 255 300
#     4   9  18  32  51  76 104 134 171 215 260 307
#
# _framework density 19.014195000000001
#
# number of rings (size 3 to 8) (size 9 to 14) (size 15 to 20)
#    0.000    2.429    0.000    3.000    0.000    8.857 
#    0.000    0.000    0.000    0.000    0.000    1.000 
#    0.000    8.000    0.000    0.000    0.000    0.000 
#
# Total GULP energy -347254.512165 kJ/mol
# GULP energy per Si atom -12401.946863 kJ/mol
# Density = 1.897092 g / cm^3
# Si number density = 19.014195 Si / 1000 Ang^3
#
#
#
# Elastic Constant Matrix: (Units=GPa)
#
#
# Indices 1 2 3 4 5 6 
#
# 1 83.5283 49.8269 54.4767 0.0000 -27.8811 0.0000
# 2 49.8269 127.4588 66.6400 0.0000 -26.9718 0.0000
# 3 54.4767 66.6400 104.0365 0.0000 -35.2706 0.0000
# 4 0.0000 0.0000 0.0000 32.1013 0.0000 -8.0186
# 5 -27.8811 -26.9718 -35.2706 0.0000 35.1069 0.0000
# 6 0.0000 0.0000 0.0000 -8.0186 0.0000 22.0531
#
#
#
# Elastic Compliance Matrix: (Units=1/GPa)
#
#
# Indices 1 2 3 4 5 6 
#
# 1 0.020360 -0.003190 -0.006016 0.000000 0.007675 0.000000
# 2 -0.003190 0.012412 -0.005924 0.000000 0.001051 0.000000
# 3 -0.006016 -0.005924 0.020313 0.000000 0.011078 0.000000
# 4 0.000000 0.000000 0.000000 0.034263 0.000000 0.012458
# 5 0.007675 0.001051 0.011078 0.000000 0.046517 0.000000
# 6 0.000000 0.000000 0.000000 0.012458 0.000000 0.049875
#
#
# Mechanical properties :
#
#
# Convention : Reuss Voigt Hill
#
# Bulk Modulus (GPa) = 43.81104 72.99011 58.40058
# Shear Modulus (GPa) = 22.56228 27.45759 25.00993
#
# Velocity S-wave (km/s) = 3.44845 3.80420 3.63068
# Velocity P-wave (km/s) = 6.24075 7.60042 6.95390
#
# Compressibility (1/GPa) = 0.02282530
#
# Stress axis : x y z
#
# Youngs Moduli (GPa) = 49.11522 80.56459 49.23069
#
# Poissons Ratio (x) = 0.25699 0.29618
# Poissons Ratio (y) = 0.15667 0.29164
# Poissons Ratio (z) = 0.29548 0.47727
#
# Static dielectric constant tensor:
#      x y z
#    x 3.287510 0.000000 -0.358010 
#    y 0.000000 3.618410 0.000000 
#    z -0.358010 0.000000 3.390080 
# 
# 
# High freq. dielectric constant tensor:
#      x y z
#    x 1.711960 0.000000 -0.036250 
#    y 0.000000 1.750180 0.000000 
#    z -0.036250 0.000000 1.731620 
# 
# From -- ./inp_files/37086.got.cif
#   From: 2010.06.25/outbox.cif.g09.slc.cpg/sg10_19_cif.got.tgz:37086.got - 2010.06.27 22:07:45.
