data_PCOD8061134
_publ_section_title
;
Structure prediction by ZEFSAII (Michael W. Deem and Ramdas Pophale) SiO2 
 PCOD8061134
Probable space group: P 2/M
;
_chemical_formula_sum "Si O2"
_cell_formula_units_Z 32
_cell_length_a 14.680461
_cell_length_b 18.908839
_cell_length_c 8.847847
_cell_angle_alpha 90.000000
_cell_angle_beta 139.692907
_cell_angle_gamma 90.000000
_cell_volume 1588.798052
_symmetry_space_group_name_H-M "P 2/M"
_symmetry_group_IT_number 10
_symmetry_cell_setting 'monoclinic'
loop_
_space_group_symop_operation_xyz
x,y,z
-x,y,-z
-x,-y,-z
x,-y,z
loop_
_atom_site_type_symbol
_atom_site_label
_atom_site_fract_x
_atom_site_fract_y
_atom_site_fract_z
Si Si1 0.325014 0.790797 0.927264
Si Si2 0.381684 0.373036 0.461882
Si Si3 0.853367 0.080779 0.391119
Si Si4 0.813202 0.417340 0.043276
Si Si5 0.565324 0.576907 0.937252
Si Si6 0.930001 0.275335 0.251738
Si Si7 0.643227 0.760664 0.372429
Si Si8 0.909479 0.163059 0.744788
O O1 0.270565 0.871219 0.836440
O O2 0.232073 0.750586 0.936222
O O3 0.315203 0.751905 0.751931
O O4 0.485034 0.790622 0.189732
O O5 0.500000 0.341332 0.500000
O O6 0.255802 0.409230 0.209661
O O7 0.452492 0.431642 0.659533
O O8 0.331251 0.312827 0.511638
O O9 0.884874 0.096334 0.605778
O O10 0.000000 0.099603 0.500000
O O11 0.806725 0.000000 0.309507
O O12 0.861638 0.500000 0.123501
O O13 0.707539 0.391735 0.044616
O O14 0.937508 0.359059 0.213803
O O15 0.605699 0.500000 0.050756
O O16 0.500000 0.620505 0.000000
O O17 0.000000 0.261238 0.500000
O O18 0.010378 0.229771 0.228781
O O19 0.752460 0.812961 0.593994
O O20 0.000000 0.135870 0.000000
#
# Coordination Sequence:
#
# PCOD8061134 Si02
#       8
#     4   4   4   4   4   4   4   4
#     4  10  19  37  59  94 119 144 203 258 290 344
#     4  10  19  33  52  78 110 154 190 238 305 368
#     4  10  19  38  66  92 121 166 205 237 291 356
#     4  10  22  36  52  77 111 155 201 248 308 368
#     4   9  18  30  48  75 105 138 184 241 297 355
#     4  12  21  39  62  81 114 157 202 251 305 363
#     4  10  21  33  58  88 118 148 196 251 297 340
#     4  11  22  39  59  92 125 159 197 243 296 362
#
# _framework density 20.141010000000001
#
# number of rings (size 3 to 8) (size 9 to 14) (size 15 to 20)
#    0.000    1.750    3.750    2.625    3.500    2.000 
#    0.000    5.000    0.000    4.125    0.000    1.750 
#    0.000    0.000    0.000    0.000    0.000    0.000 
#
# Total GULP energy -396485.614480 kJ/mol
# GULP energy per Si atom -12390.175452 kJ/mol
# Density = 2.009517 g / cm^3
# Si number density = 20.141010 Si / 1000 Ang^3
#
#
#
# Elastic Constant Matrix: (Units=GPa)
#
#
# Indices 1 2 3 4 5 6 
#
# 1 62.1252 23.5162 17.1664 0.0000 4.7835 0.0000
# 2 23.5162 87.2485 8.0221 0.0000 4.1538 0.0000
# 3 17.1664 8.0221 66.1942 0.0000 6.7614 0.0000
# 4 0.0000 0.0000 0.0000 34.2587 0.0000 6.8147
# 5 4.7835 4.1538 6.7614 0.0000 27.7911 0.0000
# 6 0.0000 0.0000 0.0000 6.8147 0.0000 22.5956
#
#
#
# Elastic Compliance Matrix: (Units=1/GPa)
#
#
# Indices 1 2 3 4 5 6 
#
# 1 0.019169 -0.004702 -0.004241 0.000000 -0.001565 0.000000
# 2 -0.004702 0.012799 -0.000225 0.000000 -0.001049 0.000000
# 3 -0.004241 -0.000225 0.016568 0.000000 -0.003267 0.000000
# 4 0.000000 0.000000 0.000000 0.031053 0.000000 -0.009365
# 5 -0.001565 -0.001049 -0.003267 0.000000 0.037204 0.000000
# 6 0.000000 0.000000 0.000000 -0.009365 0.000000 0.047081
#
#
# Mechanical properties :
#
#
# Convention : Reuss Voigt Hill
#
# Bulk Modulus (GPa) = 33.11262 34.77525 33.94394
# Shear Modulus (GPa) = 26.00419 28.05329 27.02874
#
# Velocity S-wave (km/s) = 3.59710 3.73613 3.66727
# Velocity P-wave (km/s) = 5.80760 5.99291 5.90098
#
# Compressibility (1/GPa) = 0.03019996
#
# Stress axis : x y z
#
# Youngs Moduli (GPa) = 52.16784 78.12820 60.35740
#
# Poissons Ratio (x) = 0.36737 0.25600
# Poissons Ratio (y) = 0.24530 0.01356
# Poissons Ratio (z) = 0.22127 0.01755
#
# Static dielectric constant tensor:
#      x y z
#    x 3.835590 0.000000 -0.010360 
#    y 0.000000 3.439720 0.000000 
#    z -0.010360 0.000000 3.674370 
# 
# 
# High freq. dielectric constant tensor:
#      x y z
#    x 1.782440 0.000000 -0.003240 
#    y 0.000000 1.769380 0.000000 
#    z -0.003240 0.000000 1.776490 
# 
# From -- ./inp_files/30306.got.cif
#   From: 2010.06.25/outbox.cif.g09.slc.cpg/sg10_16_cif.got.tgz:30306.got - 2010.06.27 22:07:45.
