data_PCOD8061339
_publ_section_title
;
Structure prediction by ZEFSAII (Michael W. Deem and Ramdas Pophale) SiO2 
 PCOD8061339
Probable space group: P 2/M
;
_chemical_formula_sum "Si O2"
_cell_formula_units_Z 32
_cell_length_a 11.698783
_cell_length_b 15.442481
_cell_length_c 18.099656
_cell_angle_alpha 90.000000
_cell_angle_beta 29.864331
_cell_angle_gamma 90.000000
_cell_volume 1628.216092
_symmetry_space_group_name_H-M "P 2/M"
_symmetry_group_IT_number 10
_symmetry_cell_setting 'monoclinic'
loop_
_space_group_symop_operation_xyz
x,y,z
-x,y,-z
-x,-y,-z
x,-y,z
loop_
_atom_site_type_symbol
_atom_site_label
_atom_site_fract_x
_atom_site_fract_y
_atom_site_fract_z
Si Si1 0.310537 0.404870 0.658451
Si Si2 0.000494 0.096374 0.323130
Si Si3 0.009687 0.671996 0.575354
Si Si4 0.337615 0.827888 0.237064
Si Si5 0.196991 0.772671 0.094394
Si Si6 0.147474 0.260558 0.844604
Si Si7 0.123735 0.405736 0.200682
Si Si8 0.617844 0.186986 0.620643
O O1 0.500000 0.358721 0.500000
O O2 0.397910 0.500000 0.634151
O O3 0.266562 0.351333 0.757285
O O4 0.085602 0.412244 0.736727
O O5 0.747416 0.119761 0.494775
O O6 0.185689 0.096137 0.286029
O O7 0.074866 0.168376 0.223160
O O8 0.992977 0.000000 0.292756
O O9 0.252863 0.720100 0.452811
O O10 0.000000 0.625464 0.500000
O O11 0.804270 0.740208 0.690007
O O12 0.965045 0.604067 0.665511
O O13 0.385837 0.851739 0.294688
O O14 0.572547 0.818200 0.060671
O O15 0.263945 0.678424 0.092615
O O16 0.018404 0.769312 0.127574
O O17 0.354376 0.193149 0.741502
O O18 0.000000 0.274849 0.000000
O O19 0.255197 0.500000 0.122647
#
# Coordination Sequence:
#
# PCOD8061339 Si02
#       8
#     4   4   4   4   4   4   4   4
#     4   9  19  33  55  86 118 157 209 260 295 343
#     4  11  24  41  67  95 116 151 199 251 305 356
#     4   9  18  33  55  82 114 160 202 251 295 340
#     4  10  20  37  63  86 124 154 193 247 299 349
#     4  11  22  39  60  92 125 158 199 252 297 358
#     4  11  22  37  61  87 118 167 203 239 310 364
#     4  10  19  33  54  83 122 165 205 243 294 351
#     4  10  20  39  61  89 119 154 199 244 297 364
#
# _framework density 19.653410999999998
#
# number of rings (size 3 to 8) (size 9 to 14) (size 15 to 20)
#    0.000    1.875    3.750    2.250    1.750    2.500 
#    0.000    2.500    0.000    2.250    0.000    0.000 
#    0.000    0.000    0.000    0.000    0.000    0.000 
#
# Total GULP energy -396586.730814 kJ/mol
# GULP energy per Si atom -12393.335338 kJ/mol
# Density = 1.960868 g / cm^3
# Si number density = 19.653411 Si / 1000 Ang^3
#
#
#
# Elastic Constant Matrix: (Units=GPa)
#
#
# Indices 1 2 3 4 5 6 
#
# 1 85.0124 22.3384 29.3582 0.0000 12.4069 0.0000
# 2 22.3384 91.0929 34.5686 0.0000 11.4021 0.0000
# 3 29.3582 34.5686 127.4185 0.0000 10.6822 0.0000
# 4 0.0000 0.0000 0.0000 5.0753 0.0000 -2.6077
# 5 12.4069 11.4021 10.6822 0.0000 31.3479 0.0000
# 6 0.0000 0.0000 0.0000 -2.6077 0.0000 15.5219
#
#
#
# Elastic Compliance Matrix: (Units=1/GPa)
#
#
# Indices 1 2 3 4 5 6 
#
# 1 0.013642 -0.001994 -0.002275 0.000000 -0.003899 0.000000
# 2 -0.001994 0.012895 -0.002792 0.000000 -0.002950 0.000000
# 3 -0.002275 -0.002792 0.009233 0.000000 -0.001230 0.000000
# 4 0.000000 0.000000 0.000000 0.215645 0.000000 0.036228
# 5 -0.003899 -0.002950 -0.001230 0.000000 0.034935 0.000000
# 6 0.000000 0.000000 0.000000 0.036228 0.000000 0.070511
#
#
# Mechanical properties :
#
#
# Convention : Reuss Voigt Hill
#
# Bulk Modulus (GPa) = 46.19364 52.89491 49.54428
# Shear Modulus (GPa) = 13.22053 24.87294 19.04674
#
# Velocity S-wave (km/s) = 2.59643 3.56136 3.11646
# Velocity P-wave (km/s) = 5.70471 6.62445 6.18171
#
# Compressibility (1/GPa) = 0.02164800
#
# Stress axis : x y z
#
# Youngs Moduli (GPa) = 73.30494 77.54675 108.30738
#
# Poissons Ratio (x) = 0.15462 0.24644
# Poissons Ratio (y) = 0.14616 0.30238
# Poissons Ratio (z) = 0.16680 0.21650
#
# Static dielectric constant tensor:
#      x y z
#    x 3.848730 0.000000 0.175300 
#    y 0.000000 3.673020 0.000000 
#    z 0.175300 0.000000 3.675820 
# 
# 
# High freq. dielectric constant tensor:
#      x y z
#    x 1.770690 0.000000 0.005900 
#    y 0.000000 1.734530 0.000000 
#    z 0.005900 0.000000 1.772170 
# 
# From -- ./inp_files/76992.got.cif
#   From: 2010.06.25/outbox.cif.g09.slc.cpg/sg10_39_cif.got.tgz:76992.got - 2010.06.27 22:07:45.
