data_PCOD8061581
_publ_section_title
;
Structure prediction by ZEFSAII (Michael W. Deem and Ramdas Pophale) SiO2 
 PCOD8061581
Probable space group: P 2/M
;
_chemical_formula_sum "Si O2"
_cell_formula_units_Z 24
_cell_length_a 7.262427
_cell_length_b 8.902074
_cell_length_c 20.712651
_cell_angle_alpha 90.000000
_cell_angle_beta 126.137466
_cell_angle_gamma 90.000000
_cell_volume 1081.452283
_symmetry_space_group_name_H-M "P 2/M"
_symmetry_group_IT_number 10
_symmetry_cell_setting 'monoclinic'
loop_
_space_group_symop_operation_xyz
x,y,z
-x,y,-z
-x,-y,-z
x,-y,z
loop_
_atom_site_type_symbol
_atom_site_label
_atom_site_fract_x
_atom_site_fract_y
_atom_site_fract_z
Si Si1 0.135150 0.326321 0.204100
Si Si2 0.335322 0.672349 0.834856
Si Si3 0.814968 0.329992 0.518342
Si Si4 0.478774 0.169866 0.363189
Si Si5 0.784071 0.177363 0.914582
Si Si6 0.848384 0.169350 0.327339
O O1 0.206954 0.500000 0.217144
O O2 0.250501 0.249761 0.290236
O O3 0.218262 0.247654 0.156595
O O4 0.862854 0.306223 0.153250
O O5 0.410430 0.500000 0.844962
O O6 0.553982 0.768898 0.902859
O O7 0.246575 0.724127 0.747389
O O8 0.770197 0.500000 0.531802
O O9 0.576015 0.258919 0.445264
O O10 0.000000 0.325806 0.500000
O O11 0.908910 0.233314 0.598065
O O12 0.668203 0.171577 0.347296
O O13 0.418987 0.000000 0.371047
O O14 0.784186 0.000000 0.907256
O O15 0.000000 0.234526 0.000000
O O16 0.883699 0.000000 0.308691
#
# Coordination Sequence:
#
# PCOD8061581 Si02
#       6
#     4   4   4   4   4   4
#     4  11  24  41  64  94 127 164 206 253 306 366
#     4  11  24  41  64  94 127 164 206 253 306 366
#     4   9  17  29  50  81 118 162 209 257 307 358
#     4  10  19  33  56  86 121 162 208 257 308 362
#     4  11  25  45  69  96 125 160 201 249 307 369
#     4  10  19  33  56  86 121 162 208 257 308 362
#
# _framework density 22.192381999999998
#
# number of rings (size 3 to 8) (size 9 to 14) (size 15 to 20)
#    0.000    1.667    1.667    3.000    0.000    8.000 
#    0.000    4.167    0.000    5.000    0.000    0.000 
#    0.000    0.000    0.000    0.000    0.000    0.000 
#
# Total GULP energy -297722.375554 kJ/mol
# GULP energy per Si atom -12405.098981 kJ/mol
# Density = 2.214187 g / cm^3
# Si number density = 22.192382 Si / 1000 Ang^3
#
#
#
# Elastic Constant Matrix: (Units=GPa)
#
#
# Indices 1 2 3 4 5 6 
#
# 1 46.7854 23.7234 19.2038 0.0000 27.8247 0.0000
# 2 23.7234 122.5199 36.1104 0.0000 16.9104 0.0000
# 3 19.2038 36.1104 106.8468 0.0000 34.6744 0.0000
# 4 0.0000 0.0000 0.0000 30.7043 0.0000 11.4961
# 5 27.8247 16.9104 34.6744 0.0000 31.9295 0.0000
# 6 0.0000 0.0000 0.0000 11.4961 0.0000 21.2672
#
#
#
# Elastic Compliance Matrix: (Units=1/GPa)
#
#
# Indices 1 2 3 4 5 6 
#
# 1 0.051268 -0.005555 0.009585 0.000000 -0.052144 0.000000
# 2 -0.005555 0.009775 -0.003391 0.000000 0.003347 0.000000
# 3 0.009585 -0.003391 0.016848 0.000000 -0.024853 0.000000
# 4 0.000000 0.000000 0.000000 0.040833 0.000000 -0.022073
# 5 -0.052144 0.003347 -0.024853 0.000000 0.101976 0.000000
# 6 0.000000 0.000000 0.000000 -0.022073 0.000000 0.058952
#
#
# Mechanical properties :
#
#
# Convention : Reuss Voigt Hill
#
# Bulk Modulus (GPa) = 12.63126 48.24748 30.43937
# Shear Modulus (GPa) = 16.40605 29.92117 23.16361
#
# Velocity S-wave (km/s) = 2.72189 3.67585 3.23424
# Velocity P-wave (km/s) = 3.94745 6.30901 5.26241
#
# Compressibility (1/GPa) = 0.07916869
#
# Stress axis : x y z
#
# Youngs Moduli (GPa) = 19.50523 102.30001 59.35415
#
# Poissons Ratio (x) = 0.56827 -0.56890
# Poissons Ratio (y) = 0.10835 0.20129
# Poissons Ratio (z) = -0.18696 0.34693
#
# Static dielectric constant tensor:
#      x y z
#    x 3.930330 0.000000 0.292130 
#    y 0.000000 4.154370 0.000000 
#    z 0.292130 0.000000 4.031500 
# 
# 
# High freq. dielectric constant tensor:
#      x y z
#    x 1.872850 0.000000 0.016600 
#    y 0.000000 1.885200 0.000000 
#    z 0.016600 0.000000 1.867160 
# 
# From -- ./inp_files/87731.got.cif
#   From: 2010.06.25/outbox.cif.g09.slc.cpg/sg10_44_cif.got.tgz:87731.got - 2010.06.27 22:07:45.
