data_PCOD8061569
_publ_section_title
;
Structure prediction by ZEFSAII (Michael W. Deem and Ramdas Pophale) SiO2 
 PCOD8061569
Probable space group: P 2/M
;
_chemical_formula_sum "Si O2"
_cell_formula_units_Z 20
_cell_length_a 15.227013
_cell_length_b 7.690504
_cell_length_c 8.876966
_cell_angle_alpha 90.000000
_cell_angle_beta 106.552940
_cell_angle_gamma 90.000000
_cell_volume 996.441888
_symmetry_space_group_name_H-M "P 2/M"
_symmetry_group_IT_number 10
_symmetry_cell_setting 'monoclinic'
loop_
_space_group_symop_operation_xyz
x,y,z
-x,y,-z
-x,-y,-z
x,-y,z
loop_
_atom_site_type_symbol
_atom_site_label
_atom_site_fract_x
_atom_site_fract_y
_atom_site_fract_z
Si Si1 0.744685 0.307710 0.473418
Si Si2 0.908633 0.206719 0.033489
Si Si3 0.278151 0.801853 0.209261
Si Si4 0.915073 0.199203 0.370159
Si Si5 0.393869 0.500000 0.127264
Si Si6 0.392276 0.500000 0.774336
O O1 0.780329 0.500000 0.538096
O O2 0.720237 0.198690 0.609046
O O3 0.822569 0.209638 0.419396
O O4 0.654503 0.328082 0.322944
O O5 0.819831 0.267710 0.897191
O O6 0.911797 0.000000 0.036302
O O7 0.902434 0.285703 0.199455
O O8 0.000000 0.282294 0.000000
O O9 0.355606 0.674913 0.183538
O O10 0.297584 0.000000 0.164844
O O11 0.000000 0.289171 0.500000
O O12 0.941120 0.000000 0.355192
O O13 0.501434 0.500000 0.211196
O O14 0.371086 0.500000 0.940431
#
# Coordination Sequence:
#
# PCOD8061569 Si02
#       6
#     4   4   4   4   2   2
#     4  10  21  38  57  85 118 155 198 240 297 352
#     4   9  18  33  54  84 119 158 201 242 292 349
#     4  11  22  38  64  91 121 160 200 246 300 357
#     4  10  19  33  56  84 119 160 201 247 293 347
#     4  11  21  45  66  87 122 151 201 249 307 357
#     4   9  23  41  66  85 120 161 185 259 305 351
#
# _framework density 20.071415999999999
#
# number of rings (size 3 to 8) (size 9 to 14) (size 15 to 20)
#    0.600    1.400    1.000    3.000    0.000    5.200 
#    0.000    6.500    0.000    0.000    0.000    0.000 
#    0.000    0.000    0.000    0.000    0.000    0.000 
#
# Total GULP energy -247947.742924 kJ/mol
# GULP energy per Si atom -12397.387146 kJ/mol
# Density = 2.002573 g / cm^3
# Si number density = 20.071416 Si / 1000 Ang^3
#
#
#
# Elastic Constant Matrix: (Units=GPa)
#
#
# Indices 1 2 3 4 5 6 
#
# 1 151.9231 25.9712 86.2903 0.0000 -2.5158 0.0000
# 2 25.9712 57.1081 19.7699 0.0000 -3.2440 0.0000
# 3 86.2903 19.7699 166.6975 0.0000 -0.6437 0.0000
# 4 0.0000 0.0000 0.0000 23.4185 0.0000 -4.3191
# 5 -2.5158 -3.2440 -0.6437 0.0000 40.6103 0.0000
# 6 0.0000 0.0000 0.0000 -4.3191 0.0000 25.6754
#
#
#
# Elastic Compliance Matrix: (Units=1/GPa)
#
#
# Indices 1 2 3 4 5 6 
#
# 1 0.009738 -0.002781 -0.004710 0.000000 0.000306 0.000000
# 2 -0.002781 0.019137 -0.000825 0.000000 0.001343 0.000000
# 3 -0.004710 -0.000825 0.008534 0.000000 -0.000222 0.000000
# 4 0.000000 0.000000 0.000000 0.044068 0.000000 0.007413
# 5 0.000306 0.001343 -0.000222 0.000000 0.024747 0.000000
# 6 0.000000 0.000000 0.000000 0.007413 0.000000 0.040195
#
#
# Mechanical properties :
#
#
# Convention : Reuss Voigt Hill
#
# Bulk Modulus (GPa) = 48.12805 71.08794 59.60800
# Shear Modulus (GPa) = 29.41591 34.18732 31.80162
#
# Velocity S-wave (km/s) = 3.83242 4.13156 3.98480
# Velocity P-wave (km/s) = 6.60407 7.63244 7.13680
#
# Compressibility (1/GPa) = 0.02077790
#
# Stress axis : x y z
#
# Youngs Moduli (GPa) = 102.69274 52.25447 117.18009
#
# Poissons Ratio (x) = 0.14530 0.55189
# Poissons Ratio (y) = 0.28555 0.09668
# Poissons Ratio (z) = 0.48366 0.04311
#
# Static dielectric constant tensor:
#      x y z
#    x 3.507200 0.000000 0.057700 
#    y 0.000000 3.297430 0.000000 
#    z 0.057700 0.000000 3.884060 
# 
# 
# High freq. dielectric constant tensor:
#      x y z
#    x 1.776500 0.000000 -0.002160 
#    y 0.000000 1.759920 0.000000 
#    z -0.002160 0.000000 1.800420 
# 
# From -- ./inp_files/26964.got.cif
#   From: 2010.06.25/outbox.cif.g09.slc.cpg/sg10_14_cif.got.tgz:26964.got - 2010.06.27 22:07:45.
