data_PCOD8061640
_publ_section_title
;
Structure prediction by ZEFSAII (Michael W. Deem and Ramdas Pophale) SiO2 
 PCOD8061640
Probable space group: P 2/M
;
_chemical_formula_sum "Si O2"
_cell_formula_units_Z 20
_cell_length_a 13.775296
_cell_length_b 8.403606
_cell_length_c 22.206159
_cell_angle_alpha 90.000000
_cell_angle_beta 21.369849
_cell_angle_gamma 90.000000
_cell_volume 936.704658
_symmetry_space_group_name_H-M "P 2/M"
_symmetry_group_IT_number 10
_symmetry_cell_setting 'monoclinic'
loop_
_space_group_symop_operation_xyz
x,y,z
-x,y,-z
-x,-y,-z
x,-y,z
loop_
_atom_site_type_symbol
_atom_site_label
_atom_site_fract_x
_atom_site_fract_y
_atom_site_fract_z
Si Si1 0.779661 0.309964 0.312768
Si Si2 0.205167 0.311500 0.831560
Si Si3 0.299644 0.813425 0.264398
Si Si4 0.247983 0.312610 0.427330
Si Si5 0.323878 0.686232 0.048413
O O1 0.500000 0.242092 0.500000
O O2 0.767059 0.500000 0.317890
O O3 0.842563 0.246386 0.208642
O O4 0.018274 0.251719 0.219438
O O5 0.174447 0.500000 0.850665
O O6 0.505221 0.260124 0.674381
O O7 0.000000 0.238685 0.000000
O O8 0.304479 0.742508 0.327607
O O9 0.018294 0.773548 0.394391
O O10 0.349318 0.000000 0.236525
O O11 0.538199 0.724497 0.093987
O O12 0.199504 0.500000 0.457302
O O13 0.314302 0.500000 0.065589
O O14 0.500000 0.768339 0.000000
#
# Coordination Sequence:
#
# PCOD8061640 Si02
#       5
#     4   4   4   4   4
#     4   9  18  32  53  84 118 145 178 235 293 335
#     4   9  17  29  51  82 114 144 178 229 291 340
#     4  11  22  36  54  79 116 152 185 227 288 343
#     4  10  19  33  58  85 110 142 189 239 280 329
#     4  10  21  36  59  86 111 144 193 239 277 328
#
# _framework density 21.351445999999999
#
# number of rings (size 3 to 8) (size 9 to 14) (size 15 to 20)
#    0.000    2.200    0.000    4.800    2.800    3.600 
#    0.000    0.000    0.000   11.400    0.000    0.000 
#    0.000    0.000    0.000    0.000    0.000    0.000 
#
# Total GULP energy -247894.390496 kJ/mol
# GULP energy per Si atom -12394.719525 kJ/mol
# Density = 2.130285 g / cm^3
# Si number density = 21.351446 Si / 1000 Ang^3
#
#
#
# Elastic Constant Matrix: (Units=GPa)
#
#
# Indices 1 2 3 4 5 6 
#
# 1 133.6270 16.7428 71.8195 0.0000 -26.6468 0.0000
# 2 16.7428 -17.7177 -3.6747 0.0000 -8.6381 0.0000
# 3 71.8195 -3.6747 151.5762 0.0000 -12.7622 0.0000
# 4 0.0000 0.0000 0.0000 -6.4980 0.0000 -6.8605
# 5 -26.6468 -8.6381 -12.7622 0.0000 37.5844 0.0000
# 6 0.0000 0.0000 0.0000 -6.8605 0.0000 -3.9213
#
#
#
# Elastic Compliance Matrix: (Units=1/GPa)
#
#
# Indices 1 2 3 4 5 6 
#
# 1 0.010309 0.006926 -0.004084 0.000000 0.007514 0.000000
# 2 0.006926 -0.045349 -0.004988 0.000000 -0.007206 0.000000
# 3 -0.004084 -0.004988 0.008309 0.000000 -0.001221 0.000000
# 4 0.000000 0.000000 0.000000 0.181665 0.000000 -0.317831
# 5 0.007514 -0.007206 -0.001221 0.000000 0.029863 0.000000
# 6 0.000000 0.000000 0.000000 -0.317831 0.000000 0.301040
#
#
# Mechanical properties :
#
#
# Convention : Reuss Voigt Hill
#
# Bulk Modulus (GPa) = -32.23434 48.58452 8.17509
# Shear Modulus (GPa) = 10.42124 17.60623 14.01373
#
# Velocity S-wave (km/s) = 2.21165 2.87469 2.56469
# Velocity P-wave (km/s) = 2.93393 5.81571 3.55067
#
# Compressibility (1/GPa) = -0.03102282
#
# Stress axis : x y z
#
# Youngs Moduli (GPa) = 97.00054 -22.05138 120.35442
#
# Poissons Ratio (x) = 0.15272 0.49154
# Poissons Ratio (y) = -0.67179 0.60028
# Poissons Ratio (z) = 0.39616 -0.10998
#
# Static dielectric constant tensor:
#      x y z
#    x 4.106850 0.000000 -0.289730 
#    y 0.000000 3.266000 0.000000 
#    z -0.289730 0.000000 4.284910 
# 
# 
# High freq. dielectric constant tensor:
#      x y z
#    x 1.843130 0.000000 -0.011640 
#    y 0.000000 1.779850 0.000000 
#    z -0.011640 0.000000 1.853390 
# 
# From -- ./inp_files/89257.got.cif
#   From: 2010.06.25/outbox.cif.g09.slc.cpg/sg10_45_cif.got.tgz:89257.got - 2010.06.27 22:07:45.
