data_PCOD8061314
_publ_section_title
;
Structure prediction by ZEFSAII (Michael W. Deem and Ramdas Pophale) SiO2 
 PCOD8061314
Probable space group: P 2/M
;
_chemical_formula_sum "Si O2"
_cell_formula_units_Z 32
_cell_length_a 22.192341
_cell_length_b 9.415696
_cell_length_c 14.525905
_cell_angle_alpha 90.000000
_cell_angle_beta 30.996504
_cell_angle_gamma 90.000000
_cell_volume 1563.125959
_symmetry_space_group_name_H-M "P 2/M"
_symmetry_group_IT_number 10
_symmetry_cell_setting 'monoclinic'
loop_
_space_group_symop_operation_xyz
x,y,z
-x,y,-z
-x,-y,-z
x,-y,z
loop_
_atom_site_type_symbol
_atom_site_label
_atom_site_fract_x
_atom_site_fract_y
_atom_site_fract_z
Si Si1 0.717887 0.336198 0.342418
Si Si2 0.880073 0.163582 0.009420
Si Si3 0.504485 0.162305 0.600695
Si Si4 0.329559 0.163822 0.986090
Si Si5 0.605224 0.667772 0.929169
Si Si6 0.077989 0.162694 0.259898
Si Si7 0.904147 0.660523 0.254377
Si Si8 0.142571 0.663798 0.474477
O O1 0.704892 0.500000 0.330985
O O2 0.766125 0.247583 0.192416
O O3 0.594199 0.269098 0.532410
O O4 0.796564 0.315422 0.328599
O O5 0.870191 0.000000 0.051733
O O6 0.890900 0.183413 0.887040
O O7 0.992849 0.233642 0.910491
O O8 0.500000 0.206877 0.500000
O O9 0.381358 0.182191 0.814977
O O10 0.548125 0.000000 0.552406
O O11 0.337211 0.000000 0.006121
O O12 0.405670 0.255811 0.957947
O O13 0.193408 0.214026 0.164231
O O14 0.597534 0.500000 0.954671
O O15 0.730183 0.715553 0.724449
O O16 0.500000 0.718114 0.000000
O O17 0.962717 0.251804 0.438550
O O18 0.049045 0.000000 0.320298
O O19 0.953489 0.500000 0.182724
O O20 0.859281 0.694487 0.414908
O O21 0.122599 0.500000 0.476994
#
# Coordination Sequence:
#
# PCOD8061314 Si02
#       8
#     4   4   4   4   4   4   4   4
#     4  11  22  33  52  80 112 150 193 242 292 346
#     4  10  19  33  54  80 113 153 194 236 287 348
#     4  10  22  41  61  82 113 153 194 240 293 349
#     4  10  22  40  62  88 117 152 195 244 297 347
#     4  10  23  41  63  87 118 158 197 239 290 349
#     4   9  19  37  60  85 114 151 191 237 294 350
#     4   9  19  34  52  77 112 149 189 239 290 342
#     4   9  19  37  59  84 113 151 193 236 288 343
#
# _framework density 20.471799000000001
#
# number of rings (size 3 to 8) (size 9 to 14) (size 15 to 20)
#    0.000    2.250    0.000    1.875    1.750    7.500 
#    0.000    3.750    0.000    0.000    0.000    0.000 
#    0.000    0.000    0.000    0.000    0.000    0.000 
#
# Total GULP energy -396822.543498 kJ/mol
# GULP energy per Si atom -12400.704484 kJ/mol
# Density = 2.042520 g / cm^3
# Si number density = 20.471799 Si / 1000 Ang^3
#
#
#
# Elastic Constant Matrix: (Units=GPa)
#
#
# Indices 1 2 3 4 5 6 
#
# 1 104.2269 46.7340 40.3712 0.0000 -18.1097 0.0000
# 2 46.7340 84.3633 41.0819 0.0000 -15.4743 0.0000
# 3 40.3712 41.0819 101.7807 0.0000 -18.3251 0.0000
# 4 0.0000 0.0000 0.0000 31.5181 0.0000 -6.2219
# 5 -18.1097 -15.4743 -18.3251 0.0000 31.4055 0.0000
# 6 0.0000 0.0000 0.0000 -6.2219 0.0000 32.5424
#
#
#
# Elastic Compliance Matrix: (Units=1/GPa)
#
#
# Indices 1 2 3 4 5 6 
#
# 1 0.013769 -0.005747 -0.002483 0.000000 0.003659 0.000000
# 2 -0.005747 0.017675 -0.004339 0.000000 0.002863 0.000000
# 3 -0.002483 -0.004339 0.013318 0.000000 0.004201 0.000000
# 4 0.000000 0.000000 0.000000 0.032972 0.000000 0.006304
# 5 0.003659 0.002863 0.004201 0.000000 0.037814 0.000000
# 6 0.000000 0.000000 0.000000 0.006304 0.000000 0.031934
#
#
# Mechanical properties :
#
#
# Convention : Reuss Voigt Hill
#
# Bulk Modulus (GPa) = 50.95945 60.74948 55.85446
# Shear Modulus (GPa) = 27.90766 29.90545 28.90655
#
# Velocity S-wave (km/s) = 3.69619 3.82620 3.76176
# Velocity P-wave (km/s) = 6.56980 7.01847 6.79784
#
# Compressibility (1/GPa) = 0.01962345
#
# Stress axis : x y z
#
# Youngs Moduli (GPa) = 72.62729 56.57556 75.08794
#
# Poissons Ratio (x) = 0.32515 0.18643
# Poissons Ratio (y) = 0.41740 0.32583
# Poissons Ratio (z) = 0.18032 0.24550
#
# Static dielectric constant tensor:
#      x y z
#    x 3.650190 0.000000 -0.121660 
#    y 0.000000 3.713240 0.000000 
#    z -0.121660 0.000000 3.785270 
# 
# 
# High freq. dielectric constant tensor:
#      x y z
#    x 1.798690 0.000000 -0.003350 
#    y 0.000000 1.793340 0.000000 
#    z -0.003350 0.000000 1.805200 
# 
# From -- ./inp_files/71442.got.cif
#   From: 2010.06.25/outbox.cif.g09.slc.cpg/sg10_36_cif.got.tgz:71442.got - 2010.06.27 22:07:45.
