data_PCOD8061354
_publ_section_title
;
Structure prediction by ZEFSAII (Michael W. Deem and Ramdas Pophale) SiO2 
 PCOD8061354
Probable space group: P 2/M
;
_chemical_formula_sum "Si O2"
_cell_formula_units_Z 32
_cell_length_a 23.544487
_cell_length_b 9.083276
_cell_length_c 11.591444
_cell_angle_alpha 90.000000
_cell_angle_beta 44.738175
_cell_angle_gamma 90.000000
_cell_volume 1744.860015
_symmetry_space_group_name_H-M "P 2/M"
_symmetry_group_IT_number 10
_symmetry_cell_setting 'monoclinic'
loop_
_space_group_symop_operation_xyz
x,y,z
-x,y,-z
-x,-y,-z
x,-y,z
loop_
_atom_site_type_symbol
_atom_site_label
_atom_site_fract_x
_atom_site_fract_y
_atom_site_fract_z
Si Si1 0.327268 0.828023 0.336101
Si Si2 0.359133 0.173462 0.027406
Si Si3 0.823479 0.828543 0.296192
Si Si4 0.917526 0.832263 0.559373
Si Si5 0.517079 0.334380 0.840656
Si Si6 0.024709 0.833016 0.777225
Si Si7 0.217456 0.673520 0.112482
Si Si8 0.142573 0.672970 0.977681
O O1 0.325856 0.786631 0.202895
O O2 0.242155 0.780281 0.513954
O O3 0.396636 0.741227 0.305262
O O4 0.345244 0.000000 0.325090
O O5 0.301408 0.245512 0.015589
O O6 0.363017 0.000000 0.002260
O O7 0.447741 0.240337 0.878076
O O8 0.913602 0.790899 0.209960
O O9 0.814677 0.000000 0.282916
O O10 0.808572 0.742085 0.199267
O O11 0.924720 0.817961 0.412559
O O12 0.847536 0.723978 0.699737
O O13 0.000000 0.781178 0.500000
O O14 0.896048 0.000000 0.626497
O O15 0.518198 0.500000 0.788931
O O16 0.500000 0.335437 0.000000
O O17 0.949502 0.725461 0.886638
O O18 0.992755 0.000000 0.838275
O O19 0.229969 0.500000 0.105125
O O20 0.187508 0.721470 0.029340
O O21 0.141994 0.500000 0.963952
#
# Coordination Sequence:
#
# PCOD8061354 Si02
#       8
#     4   4   4   4   4   4   4   4
#     4   9  18  34  55  81 110 137 171 214 260 308
#     4  10  19  33  56  83 110 139 174 212 255 310
#     4  10  21  36  55  76 101 135 177 223 262 304
#     4  10  19  33  55  78 101 133 172 213 259 314
#     4   9  17  30  51  81 115 144 169 201 253 314
#     4  10  20  36  56  78 102 132 175 222 266 310
#     4  11  23  36  51  74 108 142 175 217 265 314
#     4  11  24  38  51  71 102 140 180 221 265 311
#
# _framework density 18.339580000000002
#
# number of rings (size 3 to 8) (size 9 to 14) (size 15 to 20)
#    0.000    2.000    1.250    2.625    0.000    8.750 
#    0.000    1.250    0.000    0.750    0.000    5.250 
#    0.000    0.000    0.000    0.000    0.000    0.000 
#
# Total GULP energy -396903.465128 kJ/mol
# GULP energy per Si atom -12403.233285 kJ/mol
# Density = 1.829784 g / cm^3
# Si number density = 18.339580 Si / 1000 Ang^3
#
#
#
# Elastic Constant Matrix: (Units=GPa)
#
#
# Indices 1 2 3 4 5 6 
#
# 1 105.3334 51.1711 43.0457 0.0000 -12.3460 0.0000
# 2 51.1711 74.3020 34.3859 0.0000 -9.3509 0.0000
# 3 43.0457 34.3859 57.0330 0.0000 -5.7014 0.0000
# 4 0.0000 0.0000 0.0000 22.1394 0.0000 -3.5020
# 5 -12.3460 -9.3509 -5.7014 0.0000 26.1312 0.0000
# 6 0.0000 0.0000 0.0000 -3.5020 0.0000 32.8040
#
#
#
# Elastic Compliance Matrix: (Units=1/GPa)
#
#
# Indices 1 2 3 4 5 6 
#
# 1 0.016705 -0.007475 -0.007749 0.000000 0.003527 0.000000
# 2 -0.007475 0.022501 -0.007639 0.000000 0.002854 0.000000
# 3 -0.007749 -0.007639 0.027959 0.000000 -0.000295 0.000000
# 4 0.000000 0.000000 0.000000 0.045944 0.000000 0.004905
# 5 0.003527 0.002854 -0.000295 0.000000 0.040892 0.000000
# 6 0.000000 0.000000 0.000000 0.004905 0.000000 0.031008
#
#
# Mechanical properties :
#
#
# Convention : Reuss Voigt Hill
#
# Bulk Modulus (GPa) = 46.64474 54.87486 50.75980
# Shear Modulus (GPa) = 21.01906 23.41931 22.21919
#
# Velocity S-wave (km/s) = 3.38909 3.57737 3.48450
# Velocity P-wave (km/s) = 6.38778 6.85929 6.62773
#
# Compressibility (1/GPa) = 0.02143864
#
# Stress axis : x y z
#
# Youngs Moduli (GPa) = 59.86275 44.44309 35.76719
#
# Poissons Ratio (x) = 0.33219 0.27716
# Poissons Ratio (y) = 0.44744 0.27324
# Poissons Ratio (z) = 0.46387 0.33951
#
# Static dielectric constant tensor:
#      x y z
#    x 3.468100 0.000000 -0.058390 
#    y 0.000000 3.390440 0.000000 
#    z -0.058390 0.000000 3.252650 
# 
# 
# High freq. dielectric constant tensor:
#      x y z
#    x 1.711500 0.000000 -0.009610 
#    y 0.000000 1.712070 0.000000 
#    z -0.009610 0.000000 1.692300 
# 
# From -- ./inp_files/55212.got.cif
#   From: 2010.06.25/outbox.cif.g09.slc.cpg/sg10_28_cif.got.tgz:55212.got - 2010.06.27 22:07:45.
