data_PCOD8061148
_publ_section_title
;
Structure prediction by ZEFSAII (Michael W. Deem and Ramdas Pophale) SiO2 
 PCOD8061148
Probable space group: P 2/M
;
_chemical_formula_sum "Si O2"
_cell_formula_units_Z 28
_cell_length_a 9.562802
_cell_length_b 9.138720
_cell_length_c 18.193667
_cell_angle_alpha 90.000000
_cell_angle_beta 94.672238
_cell_angle_gamma 90.000000
_cell_volume 1584.693223
_symmetry_space_group_name_H-M "P 2/M"
_symmetry_group_IT_number 10
_symmetry_cell_setting 'monoclinic'
loop_
_space_group_symop_operation_xyz
x,y,z
-x,y,-z
-x,-y,-z
x,-y,z
loop_
_atom_site_type_symbol
_atom_site_label
_atom_site_fract_x
_atom_site_fract_y
_atom_site_fract_z
Si Si1 0.336566 0.672235 0.997813
Si Si2 0.410156 0.668646 0.596050
Si Si3 0.127965 0.329562 0.859100
Si Si4 0.025824 0.827411 0.418306
Si Si5 0.105073 0.833228 0.072287
Si Si6 0.702543 0.327190 0.560792
Si Si7 0.816993 0.331176 0.304221
O O1 0.330508 0.500000 0.013822
O O2 0.255661 0.713539 0.918980
O O3 0.500000 0.723949 0.000000
O O4 0.253289 0.753760 0.060375
O O5 0.426068 0.500000 0.576727
O O6 0.315778 0.729225 0.524537
O O7 0.567958 0.729522 0.601550
O O8 0.340921 0.695368 0.672514
O O9 0.093901 0.500000 0.865611
O O10 0.180573 0.286227 0.780511
O O11 0.980687 0.246137 0.866224
O O12 0.170778 0.759090 0.396778
O O13 0.000000 0.769762 0.500000
O O14 0.911602 0.773571 0.356310
O O15 0.031587 0.000000 0.415717
O O16 0.138297 0.000000 0.095969
O O17 0.000000 0.824051 0.000000
O O18 0.731665 0.500000 0.568364
O O19 0.862238 0.500000 0.317468
#
# Coordination Sequence:
#
# PCOD8061148 Si02
#       7
#     4   4   4   4   4   4   4
#     4   9  17  31  52  78 107 135 164 206 251 291
#     4   8  15  28  49  73  93 119 160 209 253 294
#     4   9  18  32  51  75 100 130 168 206 249 298
#     4  11  22  33  46  70 100 129 164 207 252 300
#     4   9  17  30  50  74 101 135 170 201 237 289
#     4   9  16  30  51  71  92 122 163 209 253 296
#     4  10  19  33  53  73  95 128 169 211 253 299
#
# _framework density 17.669035000000001
#
# number of rings (size 3 to 8) (size 9 to 14) (size 15 to 20)
#    0.000    2.714    1.429    1.714    0.000    3.143 
#    0.000    3.571    0.000    5.143    0.000    0.000 
#    0.000    0.000    0.000    0.000    0.000    0.000 
#
# Total GULP energy -347013.930994 kJ/mol
# GULP energy per Si atom -12393.354678 kJ/mol
# Density = 1.762882 g / cm^3
# Si number density = 17.669035 Si / 1000 Ang^3
#
#
#
# Elastic Constant Matrix: (Units=GPa)
#
#
# Indices 1 2 3 4 5 6 
#
# 1 130.0158 45.9185 49.6449 0.0000 -19.9706 0.0000
# 2 45.9185 57.4860 33.6255 0.0000 -7.7201 0.0000
# 3 49.6449 33.6255 91.3976 0.0000 -22.7213 0.0000
# 4 0.0000 0.0000 0.0000 14.8624 0.0000 13.6098
# 5 -19.9706 -7.7201 -22.7213 0.0000 28.7012 0.0000
# 6 0.0000 0.0000 0.0000 13.6098 0.0000 -71.3334
#
#
#
# Elastic Compliance Matrix: (Units=1/GPa)
#
#
# Indices 1 2 3 4 5 6 
#
# 1 0.012004 -0.007417 -0.002753 0.000000 0.004178 0.000000
# 2 -0.007417 0.026757 -0.006610 0.000000 -0.003196 0.000000
# 3 -0.002753 -0.006610 0.017368 0.000000 0.010056 0.000000
# 4 0.000000 0.000000 0.000000 0.057277 0.000000 0.010928
# 5 0.004178 -0.003196 0.010056 0.000000 0.044850 0.000000
# 6 0.000000 0.000000 0.000000 0.010928 0.000000 -0.011934
#
#
# Mechanical properties :
#
#
# Convention : Reuss Voigt Hill
#
# Bulk Modulus (GPa) = 44.30711 59.69748 52.00230
# Shear Modulus (GPa) = 26.68017 4.42673 15.55345
#
# Velocity S-wave (km/s) = 3.89008 1.58455 2.97015
# Velocity P-wave (km/s) = 6.73109 6.09980 6.42321
#
# Compressibility (1/GPa) = 0.02256974
#
# Stress axis : x y z
#
# Youngs Moduli (GPa) = 83.30732 37.37308 57.57657
#
# Poissons Ratio (x) = 0.27720 0.15849
# Poissons Ratio (y) = 0.61790 0.38058
# Poissons Ratio (z) = 0.22932 0.24703
#
# Static dielectric constant tensor:
#      x y z
#    x 3.551480 0.000000 -0.267350 
#    y 0.000000 3.089480 0.000000 
#    z -0.267350 0.000000 3.142220 
# 
# 
# High freq. dielectric constant tensor:
#      x y z
#    x 1.690030 0.000000 -0.019020 
#    y 0.000000 1.664520 0.000000 
#    z -0.019020 0.000000 1.656820 
# 
# From -- ./inp_files/33476.got.cif
#   From: 2010.06.25/outbox.cif.g09.slc.cpg/sg10_17_cif.got.tgz:33476.got - 2010.06.27 22:07:45.
