data_PCOD8061822
_publ_section_title
;
Structure prediction by ZEFSAII (Michael W. Deem and Ramdas Pophale) SiO2 
 PCOD8061822
Probable space group: P 2/M
;
_chemical_formula_sum "Si O2"
_cell_formula_units_Z 28
_cell_length_a 9.508158
_cell_length_b 8.628116
_cell_length_c 26.801675
_cell_angle_alpha 90.000000
_cell_angle_beta 138.514823
_cell_angle_gamma 90.000000
_cell_volume 1456.504547
_symmetry_space_group_name_H-M "P 2/M"
_symmetry_group_IT_number 10
_symmetry_cell_setting 'monoclinic'
loop_
_space_group_symop_operation_xyz
x,y,z
-x,y,-z
-x,-y,-z
x,-y,z
loop_
_atom_site_type_symbol
_atom_site_label
_atom_site_fract_x
_atom_site_fract_y
_atom_site_fract_z
Si Si1 0.635232 0.183100 0.713796
Si Si2 0.771456 0.672207 0.948862
Si Si3 0.849747 0.816503 0.417397
Si Si4 0.021894 0.318549 0.761838
Si Si5 0.569885 0.818708 0.073551
Si Si6 0.129522 0.822103 0.687206
Si Si7 0.554855 0.329747 0.787816
O O1 0.392963 0.240883 0.638621
O O2 0.799560 0.237954 0.715741
O O3 0.706937 0.265854 0.784268
O O4 0.648348 0.000000 0.722355
O O5 0.787288 0.500000 0.978155
O O6 0.628437 0.785029 0.943606
O O7 0.684592 0.649337 0.871367
O O8 0.000000 0.749416 0.000000
O O9 0.949042 0.771288 0.389323
O O10 0.000000 0.742453 0.500000
O O11 0.848548 0.000000 0.421462
O O12 0.005497 0.500000 0.765888
O O13 0.218089 0.260850 0.848130
O O14 0.046343 0.285939 0.709413
O O15 0.618303 0.000000 0.085143
O O16 0.500000 0.758579 0.000000
O O17 0.381557 0.802920 0.751073
O O18 0.072072 0.000000 0.684115
O O19 0.458879 0.500000 0.748050
#
# Coordination Sequence:
#
# PCOD8061822 Si02
#       7
#     4   4   4   4   4   4   4
#     4  10  21  36  58  86 116 150 191 239 285 335
#     4  10  22  38  56  81 111 147 190 232 281 342
#     4   8  16  34  61  91 118 146 186 234 284 339
#     4  12  24  39  59  82 115 157 196 239 288 347
#     4  11  25  42  59  84 114 148 193 245 298 344
#     4  10  19  34  59  86 113 148 189 236 282 333
#     4  10  19  34  55  81 111 147 188 233 282 338
#
# _framework density 19.224105999999999
#
# number of rings (size 3 to 8) (size 9 to 14) (size 15 to 20)
#    0.000    1.857    1.429    3.857    2.000    2.000 
#    0.000    0.714    0.000   19.714    0.000    0.000 
#    0.000    0.000    0.000    0.000    0.000    0.000 
#
# Total GULP energy -346965.805303 kJ/mol
# GULP energy per Si atom -12391.635904 kJ/mol
# Density = 1.918035 g / cm^3
# Si number density = 19.224106 Si / 1000 Ang^3
#
#
#
# Elastic Constant Matrix: (Units=GPa)
#
#
# Indices 1 2 3 4 5 6 
#
# 1 114.5549 24.4887 57.8085 0.0000 -5.4726 0.0000
# 2 24.4887 73.2062 34.2004 0.0000 -4.9033 0.0000
# 3 57.8085 34.2004 96.7255 0.0000 -15.8424 0.0000
# 4 0.0000 0.0000 0.0000 14.7997 0.0000 1.5189
# 5 -5.4726 -4.9033 -15.8424 0.0000 27.4796 0.0000
# 6 0.0000 0.0000 0.0000 1.5189 0.0000 50.2283
#
#
#
# Elastic Compliance Matrix: (Units=1/GPa)
#
#
# Indices 1 2 3 4 5 6 
#
# 1 0.012641 -0.000814 -0.007595 0.000000 -0.002007 0.000000
# 2 -0.000814 0.016421 -0.005373 0.000000 -0.000330 0.000000
# 3 -0.007595 -0.005373 0.018080 0.000000 0.007952 0.000000
# 4 0.000000 0.000000 0.000000 0.067779 0.000000 -0.002050
# 5 -0.002007 -0.000330 0.007952 0.000000 0.040517 0.000000
# 6 0.000000 0.000000 0.000000 -0.002050 0.000000 0.019971
#
#
# Mechanical properties :
#
#
# Convention : Reuss Voigt Hill
#
# Bulk Modulus (GPa) = 51.08511 57.49800 54.29155
# Shear Modulus (GPa) = 23.86632 29.70078 26.78355
#
# Velocity S-wave (km/s) = 3.52728 3.93488 3.73665
# Velocity P-wave (km/s) = 6.57420 7.11468 6.84977
#
# Compressibility (1/GPa) = 0.01957518
#
# Stress axis : x y z
#
# Youngs Moduli (GPa) = 79.11013 60.89868 55.30867
#
# Poissons Ratio (x) = 0.04960 0.42009
# Poissons Ratio (y) = 0.06443 0.29719
# Poissons Ratio (z) = 0.60088 0.32723
#
# Static dielectric constant tensor:
#      x y z
#    x 3.666790 0.000000 -0.218650 
#    y 0.000000 3.526650 0.000000 
#    z -0.218650 0.000000 3.692630 
# 
# 
# High freq. dielectric constant tensor:
#      x y z
#    x 1.753690 0.000000 -0.011650 
#    y 0.000000 1.745080 0.000000 
#    z -0.011650 0.000000 1.733180 
# 
# From -- ./inp_files/86661.got.cif
#   From: 2010.06.25/outbox.cif.g09.slc.cpg/sg10_44_cif.got.tgz:86661.got - 2010.06.27 22:07:45.
