data_PCOD8061979
_publ_section_title
;
Structure prediction by ZEFSAII (Michael W. Deem and Ramdas Pophale) SiO2 
 PCOD8061979
Probable space group: P 2/M
;
_chemical_formula_sum "Si O2"
_cell_formula_units_Z 30
_cell_length_a 9.467182
_cell_length_b 14.378851
_cell_length_c 11.895455
_cell_angle_alpha 90.000000
_cell_angle_beta 72.544544
_cell_angle_gamma 90.000000
_cell_volume 1544.727158
_symmetry_space_group_name_H-M "P 2/M"
_symmetry_group_IT_number 10
_symmetry_cell_setting 'monoclinic'
loop_
_space_group_symop_operation_xyz
x,y,z
-x,y,-z
-x,-y,-z
x,-y,z
loop_
_atom_site_type_symbol
_atom_site_label
_atom_site_fract_x
_atom_site_fract_y
_atom_site_fract_z
Si Si1 0.361204 0.605377 0.233637
Si Si2 0.016542 0.104883 0.622479
Si Si3 0.661690 0.306255 0.122483
Si Si4 0.205826 0.100086 0.141961
Si Si5 0.340561 0.391891 0.498099
Si Si6 0.156028 0.275786 0.708398
Si Si7 0.500000 0.835139 0.000000
Si Si8 0.854648 0.299979 0.883647
O O1 0.317388 0.500000 0.211899
O O2 0.537946 0.615106 0.172813
O O3 0.319787 0.627198 0.371527
O O4 0.270827 0.677741 0.179223
O O5 0.121493 0.173316 0.669185
O O6 0.000000 0.142212 0.500000
O O7 0.852364 0.105483 0.715642
O O8 0.084246 0.000000 0.607995
O O9 0.717531 0.267097 0.227824
O O10 0.588954 0.224082 0.069541
O O11 0.801023 0.346646 0.014460
O O12 0.137759 0.188569 0.093054
O O13 0.154089 0.000000 0.102050
O O14 0.384257 0.102257 0.097126
O O15 0.500000 0.353942 0.500000
O O16 0.326756 0.500000 0.531552
O O17 0.209714 0.339281 0.593287
O O18 0.014837 0.329140 0.798737
#
# Coordination Sequence:
#
# PCOD8061979 Si02
#       8
#     4   4   4   4   4   4   2   4
#     4  11  22  39  62  83 113 158 200 239 292 360
#     4   9  20  38  59  86 119 158 200 235 286 354
#     4  11  20  38  57  87 119 155 193 242 286 359
#     4   9  17  32  55  82 113 149 189 233 281 334
#     4  10  22  39  59  85 116 152 194 240 296 359
#     4  11  23  36  64  86 120 155 190 248 304 335
#     4  10  19  34  57  82 116 152 205 234 279 346
#     4  10  22  38  56  87 118 149 202 240 287 346
#
# _framework density 19.420905999999999
#
# number of rings (size 3 to 8) (size 9 to 14) (size 15 to 20)
#    0.000    1.867    4.000    0.600    3.733    1.600 
#    0.000    4.667    0.000   13.200    0.000    0.000 
#    0.000    0.000    0.000    0.000    0.000    0.000 
#
# Total GULP energy -371759.261670 kJ/mol
# GULP energy per Si atom -12391.975389 kJ/mol
# Density = 1.937670 g / cm^3
# Si number density = 19.420906 Si / 1000 Ang^3
#
#
#
# Elastic Constant Matrix: (Units=GPa)
#
#
# Indices 1 2 3 4 5 6 
#
# 1 65.9691 30.0091 35.7300 0.0000 -2.8196 0.0000
# 2 30.0091 76.2315 42.7040 0.0000 -0.9332 0.0000
# 3 35.7300 42.7040 122.3054 0.0000 -12.8122 0.0000
# 4 0.0000 0.0000 0.0000 17.0791 0.0000 -7.2667
# 5 -2.8196 -0.9332 -12.8122 0.0000 45.2908 0.0000
# 6 0.0000 0.0000 0.0000 -7.2667 0.0000 19.3833
#
#
#
# Elastic Compliance Matrix: (Units=1/GPa)
#
#
# Indices 1 2 3 4 5 6 
#
# 1 0.019795 -0.005662 -0.003802 0.000000 0.000040 0.000000
# 2 -0.005662 0.018004 -0.004771 0.000000 -0.001331 0.000000
# 3 -0.003802 -0.004771 0.011251 0.000000 0.002848 0.000000
# 4 0.000000 0.000000 0.000000 0.069663 0.000000 0.026116
# 5 0.000040 -0.001331 0.002848 0.000000 0.022860 0.000000
# 6 0.000000 0.000000 0.000000 0.026116 0.000000 0.061382
#
#
# Mechanical properties :
#
#
# Convention : Reuss Voigt Hill
#
# Bulk Modulus (GPa) = 48.59303 53.48804 51.04054
# Shear Modulus (GPa) = 20.98326 26.75483 23.86905
#
# Velocity S-wave (km/s) = 3.29058 3.71567 3.50957
# Velocity P-wave (km/s) = 6.28590 6.78303 6.53919
#
# Compressibility (1/GPa) = 0.02057908
#
# Stress axis : x y z
#
# Youngs Moduli (GPa) = 50.51743 55.54456 88.87991
#
# Poissons Ratio (x) = 0.31452 0.33789
# Poissons Ratio (y) = 0.28605 0.42408
# Poissons Ratio (z) = 0.19205 0.26502
#
# Static dielectric constant tensor:
#      x y z
#    x 3.445150 0.000000 -0.364520 
#    y 0.000000 3.500140 0.000000 
#    z -0.364520 0.000000 3.947490 
# 
# 
# High freq. dielectric constant tensor:
#      x y z
#    x 1.735620 0.000000 -0.020360 
#    y 0.000000 1.742620 0.000000 
#    z -0.020360 0.000000 1.775720 
# 
# From -- ./inp_files/42923.got.cif
#   From: 2010.06.25/outbox.cif.g09.slc.cpg/sg10_22_cif.got.tgz:42923.got - 2010.06.27 22:07:45.
