data_PCOD8061758
_publ_section_title
;
Structure prediction by ZEFSAII (Michael W. Deem and Ramdas Pophale) SiO2 
 PCOD8061758
Probable space group: P 2/M
;
_chemical_formula_sum "Si O2"
_cell_formula_units_Z 30
_cell_length_a 9.381509
_cell_length_b 12.628006
_cell_length_c 13.106212
_cell_angle_alpha 90.000000
_cell_angle_beta 84.879153
_cell_angle_gamma 90.000000
_cell_volume 1546.492365
_symmetry_space_group_name_H-M "P 2/M"
_symmetry_group_IT_number 10
_symmetry_cell_setting 'monoclinic'
loop_
_space_group_symop_operation_xyz
x,y,z
-x,y,-z
-x,-y,-z
x,-y,z
loop_
_atom_site_type_symbol
_atom_site_label
_atom_site_fract_x
_atom_site_fract_y
_atom_site_fract_z
Si Si1 0.759590 0.871963 0.578944
Si Si2 0.671848 0.881881 0.886051
Si Si3 0.963032 0.622215 0.116487
Si Si4 0.194369 0.883740 0.650684
Si Si5 0.500000 0.284151 0.000000
Si Si6 0.486591 0.818967 0.705638
Si Si7 0.368328 0.379205 0.814608
Si Si8 0.073087 0.795375 0.243240
O O1 0.803729 0.834466 0.463153
O O2 0.598047 0.830950 0.605995
O O3 0.860291 0.804092 0.648129
O O4 0.771110 0.000000 0.595094
O O5 0.559498 0.864311 0.802149
O O6 0.834573 0.870744 0.836638
O O7 0.653758 0.000000 0.932273
O O8 0.636592 0.793325 0.972682
O O9 0.002962 0.500000 0.123608
O O10 0.797266 0.644190 0.151618
O O11 0.067435 0.679283 0.192189
O O12 0.000000 0.663040 0.000000
O O13 0.351451 0.890780 0.687866
O O14 0.092880 0.825661 0.737622
O O15 0.130248 0.000000 0.641762
O O16 0.462401 0.360521 0.909504
O O17 0.430514 0.698020 0.722831
O O18 0.389820 0.500000 0.776754
#
# Coordination Sequence:
#
# PCOD8061758 Si02
#       8
#     4   4   4   4   2   4   4   4
#     4  10  21  36  56  83 118 152 184 225 273 329
#     4  10  20  34  52  77 117 153 180 225 279 329
#     4  10  21  38  60  81 108 145 187 234 284 331
#     4  11  20  33  57  85 113 149 190 226 270 334
#     4  10  20  34  58  80 106 148 190 224 270 344
#     4  10  19  34  54  80 109 148 185 227 273 329
#     4  10  20  36  56  81 107 139 184 237 284 321
#     4  11  20  35  56  82 114 147 187 228 280 323
#
# _framework density 19.398738000000002
#
# number of rings (size 3 to 8) (size 9 to 14) (size 15 to 20)
#    0.000    1.733    1.333    5.200    0.000    2.133 
#    0.000    7.333    0.000    8.400    0.000    0.000 
#    0.000    0.000    0.000    0.000    0.000    0.000 
#
# Total GULP energy -371834.130356 kJ/mol
# GULP energy per Si atom -12394.471012 kJ/mol
# Density = 1.935459 g / cm^3
# Si number density = 19.398738 Si / 1000 Ang^3
#
#
#
# Elastic Constant Matrix: (Units=GPa)
#
#
# Indices 1 2 3 4 5 6 
#
# 1 99.7415 35.6013 27.7005 0.0000 -9.9421 0.0000
# 2 35.6013 98.2741 39.6451 0.0000 -0.8417 0.0000
# 3 27.7005 39.6451 69.7730 0.0000 -8.4498 0.0000
# 4 0.0000 0.0000 0.0000 29.4752 0.0000 2.3437
# 5 -9.9421 -0.8417 -8.4498 0.0000 29.5583 0.0000
# 6 0.0000 0.0000 0.0000 2.3437 0.0000 23.8546
#
#
#
# Elastic Compliance Matrix: (Units=1/GPa)
#
#
# Indices 1 2 3 4 5 6 
#
# 1 0.012272 -0.003391 -0.002546 0.000000 0.003304 0.000000
# 2 -0.003391 0.014235 -0.007076 0.000000 -0.002758 0.000000
# 3 -0.002546 -0.007076 0.019925 0.000000 0.004638 0.000000
# 4 0.000000 0.000000 0.000000 0.034194 0.000000 -0.003360
# 5 0.003304 -0.002758 0.004638 0.000000 0.036190 0.000000
# 6 0.000000 0.000000 0.000000 -0.003360 0.000000 0.042251
#
#
# Mechanical properties :
#
#
# Convention : Reuss Voigt Hill
#
# Bulk Modulus (GPa) = 49.00106 52.63137 50.81621
# Shear Modulus (GPa) = 26.05593 27.56707 26.81150
#
# Velocity S-wave (km/s) = 3.66891 3.77381 3.72173
# Velocity P-wave (km/s) = 6.57744 6.79552 6.68737
#
# Compressibility (1/GPa) = 0.02040772
#
# Stress axis : x y z
#
# Youngs Moduli (GPa) = 81.48345 70.24956 50.18751
#
# Poissons Ratio (x) = 0.23819 0.12776
# Poissons Ratio (y) = 0.27628 0.35514
# Poissons Ratio (z) = 0.20742 0.49710
#
# Static dielectric constant tensor:
#      x y z
#    x 3.672970 0.000000 -0.229880 
#    y 0.000000 3.451760 0.000000 
#    z -0.229880 0.000000 3.531690 
# 
# 
# High freq. dielectric constant tensor:
#      x y z
#    x 1.768040 0.000000 -0.011680 
#    y 0.000000 1.738350 0.000000 
#    z -0.011680 0.000000 1.744560 
# 
# From -- ./inp_files/28292.got.cif
#   From: 2010.06.25/outbox.cif.g09.slc.cpg/sg10_15_cif.got.tgz:28292.got - 2010.06.27 22:07:45.
