data_PCOD8061265
_publ_section_title
;
Structure prediction by ZEFSAII (Michael W. Deem and Ramdas Pophale) SiO2 
 PCOD8061265
Probable space group: P 2/M
;
_chemical_formula_sum "Si O2"
_cell_formula_units_Z 28
_cell_length_a 30.282507
_cell_length_b 9.010833
_cell_length_c 10.263797
_cell_angle_alpha 90.000000
_cell_angle_beta 33.498850
_cell_angle_gamma 90.000000
_cell_volume 1545.756738
_symmetry_space_group_name_H-M "P 2/M"
_symmetry_group_IT_number 10
_symmetry_cell_setting 'monoclinic'
loop_
_space_group_symop_operation_xyz
x,y,z
-x,y,-z
-x,-y,-z
x,-y,z
loop_
_atom_site_type_symbol
_atom_site_label
_atom_site_fract_x
_atom_site_fract_y
_atom_site_fract_z
Si Si1 0.918424 0.324978 0.850533
Si Si2 0.094641 0.675555 0.409679
Si Si3 0.507281 0.174128 0.126668
Si Si4 0.240739 0.323765 0.626632
Si Si5 0.675351 0.824469 0.813662
Si Si6 0.249788 0.174301 0.100409
Si Si7 0.333938 0.825622 0.629664
O O1 0.920283 0.500000 0.831990
O O2 0.897235 0.264572 0.758578
O O3 0.006983 0.273543 0.678475
O O4 0.850626 0.273134 0.118421
O O5 0.105859 0.500000 0.391973
O O6 0.162904 0.751485 0.328073
O O7 0.428536 0.210684 0.404698
O O8 0.519130 0.000000 0.082067
O O9 0.500000 0.245054 0.000000
O O10 0.585893 0.236871 0.005830
O O11 0.248874 0.500000 0.601353
O O12 0.262280 0.254266 0.435480
O O13 0.298482 0.263308 0.596245
O O14 0.696970 0.778670 0.907322
O O15 0.682059 0.000000 0.775711
O O16 0.237316 0.000000 0.125796
O O17 0.294952 0.230831 0.859698
O O18 0.319440 0.000000 0.641609
#
# Coordination Sequence:
#
# PCOD8061265 Si02
#       7
#     4   4   4   4   4   4   4
#     4   8  16  30  52  79 101 130 174 215 251 298
#     4   9  16  32  55  75 102 137 170 211 256 302
#     4   9  16  30  54  77  98 134 179 212 248 303
#     4  11  20  33  54  81 104 131 174 217 258 305
#     4  10  21  37  53  73 107 143 172 211 258 307
#     4  10  21  34  51  79 110 137 169 211 263 310
#     4  10  19  33  54  78 104 135 173 213 255 306
#
# _framework density 18.114106
#
# number of rings (size 3 to 8) (size 9 to 14) (size 15 to 20)
#    0.000    2.429    2.857    1.286    0.000    1.143 
#    0.000    7.857    0.000    4.286    0.000    3.000 
#    0.000    0.000    0.000    0.000    0.000    0.000 
#
# Total GULP energy -347117.172530 kJ/mol
# GULP energy per Si atom -12397.041876 kJ/mol
# Density = 1.807288 g / cm^3
# Si number density = 18.114106 Si / 1000 Ang^3
#
#
#
# Elastic Constant Matrix: (Units=GPa)
#
#
# Indices 1 2 3 4 5 6 
#
# 1 107.8268 23.1119 45.1015 0.0000 -14.1677 0.0000
# 2 23.1119 24.6222 21.4321 0.0000 0.1654 0.0000
# 3 45.1015 21.4321 109.4200 0.0000 -14.4158 0.0000
# 4 0.0000 0.0000 0.0000 24.0512 0.0000 0.4064
# 5 -14.1677 0.1654 -14.4158 0.0000 33.3071 0.0000
# 6 0.0000 0.0000 0.0000 0.4064 0.0000 8.6872
#
#
#
# Elastic Compliance Matrix: (Units=1/GPa)
#
#
# Indices 1 2 3 4 5 6 
#
# 1 0.013189 -0.009863 -0.002926 0.000000 0.004393 0.000000
# 2 -0.009863 0.057029 -0.008160 0.000000 -0.008010 0.000000
# 3 -0.002926 -0.008160 0.012497 0.000000 0.004205 0.000000
# 4 0.000000 0.000000 0.000000 0.041611 0.000000 -0.001947
# 5 0.004393 -0.008010 0.004205 0.000000 0.033752 0.000000
# 6 0.000000 0.000000 0.000000 -0.001947 0.000000 0.115203
#
#
# Mechanical properties :
#
#
# Convention : Reuss Voigt Hill
#
# Bulk Modulus (GPa) = 24.49942 46.79555 35.64748
# Shear Modulus (GPa) = 15.20754 23.35734 19.28244
#
# Velocity S-wave (km/s) = 2.90063 3.59480 3.26621
# Velocity P-wave (km/s) = 4.97721 6.56658 5.82634
#
# Compressibility (1/GPa) = 0.04081729
#
# Stress axis : x y z
#
# Youngs Moduli (GPa) = 75.81974 17.53508 80.01650
#
# Poissons Ratio (x) = 0.17295 0.23411
# Poissons Ratio (y) = 0.74781 0.65295
# Poissons Ratio (z) = 0.22183 0.14309
#
# Static dielectric constant tensor:
#      x y z
#    x 3.364690 0.000000 -0.186860 
#    y 0.000000 3.024360 0.000000 
#    z -0.186860 0.000000 3.687950 
# 
# 
# High freq. dielectric constant tensor:
#      x y z
#    x 1.692580 0.000000 -0.015070 
#    y 0.000000 1.667430 0.000000 
#    z -0.015070 0.000000 1.712410 
# 
# From -- ./inp_files/36915.got.cif
#   From: 2010.06.25/outbox.cif.g09.slc.cpg/sg10_19_cif.got.tgz:36915.got - 2010.06.27 22:07:45.
