data_PCOD8061502
_publ_section_title
;
Structure prediction by ZEFSAII (Michael W. Deem and Ramdas Pophale) SiO2 
 PCOD8061502
Probable space group: P 2/M
;
_chemical_formula_sum "Si O2"
_cell_formula_units_Z 28
_cell_length_a 14.750875
_cell_length_b 9.123236
_cell_length_c 21.477557
_cell_angle_alpha 90.000000
_cell_angle_beta 31.263998
_cell_angle_gamma 90.000000
_cell_volume 1500.043859
_symmetry_space_group_name_H-M "P 2/M"
_symmetry_group_IT_number 10
_symmetry_cell_setting 'monoclinic'
loop_
_space_group_symop_operation_xyz
x,y,z
-x,y,-z
-x,-y,-z
x,-y,z
loop_
_atom_site_type_symbol
_atom_site_label
_atom_site_fract_x
_atom_site_fract_y
_atom_site_fract_z
Si Si1 0.429790 0.327198 0.323071
Si Si2 0.266487 0.166252 0.201548
Si Si3 0.165479 0.828342 0.123188
Si Si4 0.225950 0.172972 0.650869
Si Si5 0.547009 0.327256 0.117393
Si Si6 0.924596 0.167782 0.478538
Si Si7 0.527659 0.173103 0.384092
O O1 0.431161 0.500000 0.329721
O O2 0.502260 0.277898 0.213593
O O3 0.234275 0.269872 0.447308
O O4 0.551103 0.256098 0.304976
O O5 0.266345 0.201777 0.128497
O O6 0.393664 0.276466 0.161627
O O7 0.069379 0.185521 0.340669
O O8 0.331501 0.000000 0.175740
O O9 0.969172 0.762337 0.240653
O O10 0.159931 0.000000 0.111090
O O11 0.269623 0.746419 0.007752
O O12 0.350766 0.230185 0.522074
O O13 0.306713 0.215499 0.670411
O O14 0.219944 0.000000 0.647565
O O15 0.565185 0.500000 0.100647
O O16 0.000000 0.221980 0.500000
O O17 0.859269 0.000000 0.521928
O O18 0.519348 0.000000 0.376882
#
# Coordination Sequence:
#
# PCOD8061502 Si02
#       7
#     4   4   4   4   4   4   4
#     4  11  23  36  51  76 112 148 179 216 264 312
#     4  10  20  35  56  82 106 134 175 223 269 313
#     4  10  20  35  56  79 105 136 176 223 267 312
#     4   8  16  34  60  88 110 130 166 221 275 316
#     4  11  24  38  50  70 107 150 186 218 256 308
#     4  10  19  33  56  81 105 135 174 217 264 319
#     4   9  17  34  62  87 108 135 169 214 269 326
#
# _framework density 18.666122000000001
#
# number of rings (size 3 to 8) (size 9 to 14) (size 15 to 20)
#    0.000    2.143    1.429    3.000    0.000    7.143 
#    0.000    5.000    0.000    4.286    0.000    0.000 
#    0.000    0.000    0.000    0.000    0.000    0.000 
#
# Total GULP energy -347252.547211 kJ/mol
# GULP energy per Si atom -12401.876686 kJ/mol
# Density = 1.862364 g / cm^3
# Si number density = 18.666122 Si / 1000 Ang^3
#
#
#
# Elastic Constant Matrix: (Units=GPa)
#
#
# Indices 1 2 3 4 5 6 
#
# 1 103.1527 37.1540 44.2049 0.0000 1.4274 0.0000
# 2 37.1540 48.9699 32.7296 0.0000 2.4517 0.0000
# 3 44.2049 32.7296 88.2703 0.0000 2.2227 0.0000
# 4 0.0000 0.0000 0.0000 18.9437 0.0000 8.5945
# 5 1.4274 2.4517 2.2227 0.0000 23.0181 0.0000
# 6 0.0000 0.0000 0.0000 8.5945 0.0000 17.8571
#
#
#
# Elastic Compliance Matrix: (Units=1/GPa)
#
#
# Indices 1 2 3 4 5 6 
#
# 1 0.014431 -0.008152 -0.004214 0.000000 0.000380 0.000000
# 2 -0.008152 0.031839 -0.007669 0.000000 -0.002145 0.000000
# 3 -0.004214 -0.007669 0.016295 0.000000 -0.000495 0.000000
# 4 0.000000 0.000000 0.000000 0.067535 0.000000 -0.032504
# 5 0.000380 -0.002145 -0.000495 0.000000 0.043697 0.000000
# 6 0.000000 0.000000 0.000000 -0.032504 0.000000 0.071644
#
#
# Mechanical properties :
#
#
# Convention : Reuss Voigt Hill
#
# Bulk Modulus (GPa) = 44.45337 52.06332 48.25835
# Shear Modulus (GPa) = 17.06435 20.38408 18.72421
#
# Velocity S-wave (km/s) = 3.02684 3.30818 3.17063
# Velocity P-wave (km/s) = 6.00686 6.52262 6.27004
#
# Compressibility (1/GPa) = 0.02249548
#
# Stress axis : x y z
#
# Youngs Moduli (GPa) = 69.29517 31.40850 61.36757
#
# Poissons Ratio (x) = 0.25603 0.25860
# Poissons Ratio (y) = 0.56486 0.47063
# Poissons Ratio (z) = 0.29201 0.24088
#
# Static dielectric constant tensor:
#      x y z
#    x 3.521130 0.000000 0.014460 
#    y 0.000000 3.163870 0.000000 
#    z 0.014460 0.000000 3.578410 
# 
# 
# High freq. dielectric constant tensor:
#      x y z
#    x 1.728520 0.000000 0.005920 
#    y 0.000000 1.699320 0.000000 
#    z 0.005920 0.000000 1.724710 
# 
# From -- ./inp_files/49086.got.cif
#   From: 2010.06.25/outbox.cif.g09.slc.cpg/sg10_25_cif.got.tgz:49086.got - 2010.06.27 22:07:45.
