data_PCOD8061823
_publ_section_title
;
Structure prediction by ZEFSAII (Michael W. Deem and Ramdas Pophale) SiO2 
 PCOD8061823
Probable space group: P 2/M
;
_chemical_formula_sum "Si O2"
_cell_formula_units_Z 32
_cell_length_a 10.793950
_cell_length_b 8.734959
_cell_length_c 16.710822
_cell_angle_alpha 90.000000
_cell_angle_beta 90.092291
_cell_angle_gamma 90.000000
_cell_volume 1575.572974
_symmetry_space_group_name_H-M "P 2/M"
_symmetry_group_IT_number 10
_symmetry_cell_setting 'monoclinic'
loop_
_space_group_symop_operation_xyz
x,y,z
-x,y,-z
-x,-y,-z
x,-y,z
loop_
_atom_site_type_symbol
_atom_site_label
_atom_site_fract_x
_atom_site_fract_y
_atom_site_fract_z
Si Si1 0.483031 0.668508 0.410709
Si Si2 0.249489 0.682558 0.827658
Si Si3 0.732219 0.822134 0.660830
Si Si4 0.135818 0.180277 0.497434
Si Si5 0.502638 0.181105 0.093176
Si Si6 0.001807 0.681710 0.089635
Si Si7 0.745355 0.319112 0.829210
Si Si8 0.751119 0.332442 0.351845
O O1 0.500000 0.734949 0.500000
O O2 0.417158 0.500000 0.415983
O O3 0.411132 0.793699 0.358457
O O4 0.607039 0.645899 0.362855
O O5 0.263650 0.500000 0.832834
O O6 0.372615 0.753327 0.866911
O O7 0.124340 0.743436 0.869962
O O8 0.230324 0.737746 0.736232
O O9 0.801171 0.753857 0.582541
O O10 0.769218 0.723699 0.737332
O O11 0.758959 0.000000 0.677307
O O12 0.201731 0.219783 0.580025
O O13 0.000000 0.251880 0.500000
O O14 0.133980 0.000000 0.489061
O O15 0.378437 0.242520 0.135724
O O16 0.504108 0.000000 0.103407
O O17 0.500000 0.229902 0.000000
O O18 0.001101 0.500000 0.094099
O O19 0.130085 0.742569 0.127749
O O20 0.000000 0.744045 0.000000
O O21 0.729539 0.500000 0.838725
O O22 0.816036 0.500000 0.358705
#
# Coordination Sequence:
#
# PCOD8061823 Si02
#       8
#     4   4   4   4   4   4   4   4
#     4  10  19  34  55  81 112 147 192 243 295 348
#     4  10  21  38  62  92 123 158 203 252 305 363
#     4  11  23  38  58  85 119 157 201 249 296 353
#     4  10  23  40  56  78 114 162 204 239 289 354
#     4  11  24  42  64  93 127 162 203 250 303 366
#     4   9  19  37  61  90 121 153 196 248 301 363
#     4  11  23  39  64  94 124 162 204 250 307 365
#     4  10  21  36  57  85 114 147 192 249 298 345
#
# _framework density 20.310071000000001
#
# number of rings (size 3 to 8) (size 9 to 14) (size 15 to 20)
#    0.000    1.750    1.250    2.625    1.750    5.000 
#    0.000    1.250    0.000    3.375    0.000    0.000 
#    0.000    0.000    0.000    0.000    0.000    0.000 
#
# Total GULP energy -396668.454011 kJ/mol
# GULP energy per Si atom -12395.889188 kJ/mol
# Density = 2.026384 g / cm^3
# Si number density = 20.310071 Si / 1000 Ang^3
#
#
#
# Elastic Constant Matrix: (Units=GPa)
#
#
# Indices 1 2 3 4 5 6 
#
# 1 155.7663 29.8911 77.6688 0.0000 -0.6943 0.0000
# 2 29.8911 40.8213 26.9267 0.0000 -0.3178 0.0000
# 3 77.6688 26.9267 182.8911 0.0000 -4.6388 0.0000
# 4 0.0000 0.0000 0.0000 27.4291 0.0000 2.7195
# 5 -0.6943 -0.3178 -4.6388 0.0000 31.4125 0.0000
# 6 0.0000 0.0000 0.0000 2.7195 0.0000 25.7619
#
#
#
# Elastic Compliance Matrix: (Units=1/GPa)
#
#
# Indices 1 2 3 4 5 6 
#
# 1 0.008810 -0.004409 -0.003100 0.000000 -0.000308 0.000000
# 2 -0.004409 0.029341 -0.002452 0.000000 -0.000163 0.000000
# 3 -0.003100 -0.002452 0.007170 0.000000 0.000965 0.000000
# 4 0.000000 0.000000 0.000000 0.036843 0.000000 -0.003889
# 5 -0.000308 -0.000163 0.000965 0.000000 0.031969 0.000000
# 6 0.000000 0.000000 0.000000 -0.003889 0.000000 0.039228
#
#
# Mechanical properties :
#
#
# Convention : Reuss Voigt Hill
#
# Bulk Modulus (GPa) = 39.37012 72.05023 55.71017
# Shear Modulus (GPa) = 27.51052 33.25352 30.38202
#
# Velocity S-wave (km/s) = 3.68438 4.05074 3.87189
# Velocity P-wave (km/s) = 6.12586 7.57826 6.89044
#
# Compressibility (1/GPa) = 0.02539998
#
# Stress axis : x y z
#
# Youngs Moduli (GPa) = 113.50249 34.08178 139.47448
#
# Poissons Ratio (x) = 0.15026 0.43240
# Poissons Ratio (y) = 0.50040 0.34195
# Poissons Ratio (z) = 0.35189 0.08356
#
# Static dielectric constant tensor:
#      x y z
#    x 3.893700 0.000000 -0.083110 
#    y 0.000000 3.477460 0.000000 
#    z -0.083110 0.000000 3.915120 
# 
# 
# High freq. dielectric constant tensor:
#      x y z
#    x 1.800660 0.000000 -0.004320 
#    y 0.000000 1.771650 0.000000 
#    z -0.004320 0.000000 1.811580 
# 
# From -- ./inp_files/63784.got.cif
#   From: 2010.06.25/outbox.cif.g09.slc.cpg/sg10_32_cif.got.tgz:63784.got - 2010.06.27 22:07:45.
