data_PCOD8061471
_publ_section_title
;
Structure prediction by ZEFSAII (Michael W. Deem and Ramdas Pophale) SiO2 
 PCOD8061471
Probable space group: P 2/M
;
_chemical_formula_sum "Si O2"
_cell_formula_units_Z 28
_cell_length_a 22.392064
_cell_length_b 10.267620
_cell_length_c 12.049155
_cell_angle_alpha 90.000000
_cell_angle_beta 149.930731
_cell_angle_gamma 90.000000
_cell_volume 1388.029367
_symmetry_space_group_name_H-M "P 2/M"
_symmetry_group_IT_number 10
_symmetry_cell_setting 'monoclinic'
loop_
_space_group_symop_operation_xyz
x,y,z
-x,y,-z
-x,-y,-z
x,-y,z
loop_
_atom_site_type_symbol
_atom_site_label
_atom_site_fract_x
_atom_site_fract_y
_atom_site_fract_z
Si Si1 0.794916 0.649890 0.567273
Si Si2 0.716492 0.712547 0.667234
Si Si3 0.062161 0.853401 0.712674
Si Si4 0.326578 0.854918 0.188563
Si Si5 0.452681 0.354128 0.246601
Si Si6 0.602358 0.347557 0.085397
Si Si7 0.965998 0.358077 0.155815
O O1 0.763520 0.500000 0.549280
O O2 0.744909 0.745454 0.583800
O O3 0.730084 0.684841 0.346215
O O4 0.936889 0.668533 0.784441
O O5 0.698974 0.836659 0.720358
O O6 0.595342 0.629887 0.476370
O O7 0.832107 0.633467 0.894352
O O8 0.012450 0.754988 0.722581
O O9 0.000000 0.812766 0.500000
O O10 0.027878 0.000000 0.693947
O O11 0.203653 0.840310 0.924049
O O12 0.415369 0.745437 0.284114
O O13 0.380529 0.000000 0.258801
O O14 0.400368 0.500000 0.185440
O O15 0.406381 0.293426 0.054803
O O16 0.578449 0.500000 0.034868
O O17 0.500000 0.286454 0.000000
O O18 0.993449 0.500000 0.253642
#
# Coordination Sequence:
#
# PCOD8061471 Si02
#       7
#     4   4   4   4   4   4   4
#     4  10  19  33  55  83 119 152 182 229 287 337
#     4  11  21  36  57  81 118 157 189 225 278 344
#     4   9  20  40  60  77 107 152 193 229 278 340
#     4  10  24  42  59  82 114 152 191 237 288 335
#     4  11  22  35  59  88 115 150 192 235 277 336
#     4   9  17  32  53  81 116 149 185 230 284 334
#     4  10  21  34  55  88 117 143 184 234 284 331
#
# _framework density 20.172484000000001
#
# number of rings (size 3 to 8) (size 9 to 14) (size 15 to 20)
#    0.000    2.000    1.429    2.143    2.000    6.571 
#    0.000    0.714    0.000    4.714    0.000    0.000 
#    0.000    0.000    0.000    0.000    0.000    0.000 
#
# Total GULP energy -346982.230258 kJ/mol
# GULP energy per Si atom -12392.222509 kJ/mol
# Density = 2.012657 g / cm^3
# Si number density = 20.172484 Si / 1000 Ang^3
#
#
#
# Elastic Constant Matrix: (Units=GPa)
#
#
# Indices 1 2 3 4 5 6 
#
# 1 124.3345 61.0234 57.1061 0.0000 -1.5320 0.0000
# 2 61.0234 87.9120 30.1291 0.0000 -0.3963 0.0000
# 3 57.1061 30.1291 114.9670 0.0000 -8.3175 0.0000
# 4 0.0000 0.0000 0.0000 34.8420 0.0000 3.2597
# 5 -1.5320 -0.3963 -8.3175 0.0000 34.8290 0.0000
# 6 0.0000 0.0000 0.0000 3.2597 0.0000 18.9779
#
#
#
# Elastic Compliance Matrix: (Units=1/GPa)
#
#
# Indices 1 2 3 4 5 6 
#
# 1 0.014412 -0.008281 -0.005037 0.000000 -0.000663 0.000000
# 2 -0.008281 0.017270 -0.000432 0.000000 -0.000271 0.000000
# 3 -0.005037 -0.000432 0.011495 0.000000 0.002519 0.000000
# 4 0.000000 0.000000 0.000000 0.029170 0.000000 -0.005010
# 5 -0.000663 -0.000271 0.002519 0.000000 0.029281 0.000000
# 6 0.000000 0.000000 0.000000 -0.005010 0.000000 0.053553
#
#
# Mechanical properties :
#
#
# Convention : Reuss Voigt Hill
#
# Bulk Modulus (GPa) = 63.78314 69.30340 66.54327
# Shear Modulus (GPa) = 26.60884 29.66012 28.13448
#
# Velocity S-wave (km/s) = 3.63584 3.83864 3.73861
# Velocity P-wave (km/s) = 7.02234 7.35370 7.18993
#
# Compressibility (1/GPa) = 0.01567812
#
# Stress axis : x y z
#
# Youngs Moduli (GPa) = 69.38552 57.90356 86.99127
#
# Poissons Ratio (x) = 0.47950 0.43814
# Poissons Ratio (y) = 0.57458 0.03760
# Poissons Ratio (z) = 0.34947 0.02503
#
# Static dielectric constant tensor:
#      x y z
#    x 3.695910 0.000000 -0.070600 
#    y 0.000000 3.294230 0.000000 
#    z -0.070600 0.000000 3.878620 
# 
# 
# High freq. dielectric constant tensor:
#      x y z
#    x 1.781890 0.000000 -0.000570 
#    y 0.000000 1.741700 0.000000 
#    z -0.000570 0.000000 1.808230 
# 
# From -- ./inp_files/55869.got.cif
#   From: 2010.06.25/outbox.cif.g09.slc.cpg/sg10_28_cif.got.tgz:55869.got - 2010.06.27 22:07:45.
