data_PCOD8061320
_publ_section_title
;
Structure prediction by ZEFSAII (Michael W. Deem and Ramdas Pophale) SiO2 
 PCOD8061320
Probable space group: P 2/M
;
_chemical_formula_sum "Si O2"
_cell_formula_units_Z 32
_cell_length_a 10.396207
_cell_length_b 19.995749
_cell_length_c 9.345706
_cell_angle_alpha 90.000000
_cell_angle_beta 114.038128
_cell_angle_gamma 90.000000
_cell_volume 1774.296040
_symmetry_space_group_name_H-M "P 2/M"
_symmetry_group_IT_number 10
_symmetry_cell_setting 'monoclinic'
loop_
_space_group_symop_operation_xyz
x,y,z
-x,y,-z
-x,-y,-z
x,-y,z
loop_
_atom_site_type_symbol
_atom_site_label
_atom_site_fract_x
_atom_site_fract_y
_atom_site_fract_z
Si Si1 0.146133 0.574806 0.987422
Si Si2 0.325670 0.671685 0.262498
Si Si3 0.157990 0.075699 0.039035
Si Si4 0.322007 0.180124 0.289391
Si Si5 0.867348 0.578492 0.346271
Si Si6 0.650686 0.181234 0.385235
Si Si7 0.650113 0.923857 0.139398
Si Si8 0.655267 0.330395 0.399802
O O1 0.211546 0.500000 0.018821
O O2 0.114522 0.597977 0.811294
O O3 0.250159 0.623705 0.116752
O O4 0.000000 0.575564 0.000000
O O5 0.270090 0.747336 0.210305
O O6 0.295696 0.655543 0.415091
O O7 0.489464 0.662209 0.306751
O O8 0.213125 0.080668 0.901272
O O9 0.170131 0.000000 0.100491
O O10 0.264862 0.120090 0.173014
O O11 0.000000 0.101872 0.000000
O O12 0.487712 0.180577 0.347102
O O13 0.272693 0.165463 0.429678
O O14 0.846650 0.500000 0.359766
O O15 0.726661 0.614615 0.333747
O O16 0.000000 0.604129 0.500000
O O17 0.689333 0.126417 0.284653
O O18 0.698207 0.256218 0.362609
O O19 0.634650 0.000000 0.189973
O O20 0.500000 0.902735 0.000000
#
# Coordination Sequence:
#
# PCOD8061320 Si02
#       8
#     4   4   4   4   4   4   4   4
#     4  10  21  36  54  77 103 135 179 224 265 318
#     4   9  19  35  55  78 108 140 175 222 267 321
#     4  10  21  36  52  75 110 145 177 220 274 327
#     4   9  18  34  55  78 105 138 177 218 267 319
#     4  10  21  37  56  78 107 142 180 224 271 322
#     4   9  18  34  55  80 107 134 176 229 263 311
#     4  10  19  33  54  81 108 138 182 226 263 314
#     4   9  19  36  54  78 110 142 174 217 276 322
#
# _framework density 18.035322000000001
#
# number of rings (size 3 to 8) (size 9 to 14) (size 15 to 20)
#    0.000    2.500    1.250    2.250    0.000    4.500 
#    0.000    6.875    0.000    2.250    0.000    0.000 
#    0.000    0.000    0.000    0.000    0.000    0.000 
#
# Total GULP energy -396595.042082 kJ/mol
# GULP energy per Si atom -12393.595065 kJ/mol
# Density = 1.799427 g / cm^3
# Si number density = 18.035322 Si / 1000 Ang^3
#
#
#
# Elastic Constant Matrix: (Units=GPa)
#
#
# Indices 1 2 3 4 5 6 
#
# 1 69.4738 30.1810 27.0155 0.0000 -18.4551 0.0000
# 2 30.1810 88.0362 69.5441 0.0000 -8.6694 0.0000
# 3 27.0155 69.5441 114.5963 0.0000 -10.8112 0.0000
# 4 0.0000 0.0000 0.0000 61.9158 0.0000 8.4278
# 5 -18.4551 -8.6694 -10.8112 0.0000 22.1333 0.0000
# 6 0.0000 0.0000 0.0000 8.4278 0.0000 33.6755
#
#
#
# Elastic Compliance Matrix: (Units=1/GPa)
#
#
# Indices 1 2 3 4 5 6 
#
# 1 0.020894 -0.005586 -0.000103 0.000000 0.015183 0.000000
# 2 -0.005586 0.023413 -0.013068 0.000000 -0.001871 0.000000
# 3 -0.000103 -0.013068 0.016972 0.000000 0.003086 0.000000
# 4 0.000000 0.000000 0.000000 0.016721 0.000000 -0.004185
# 5 0.015183 -0.001871 0.003086 0.000000 0.058615 0.000000
# 6 0.000000 0.000000 0.000000 -0.004185 0.000000 0.030742
#
#
# Mechanical properties :
#
#
# Convention : Reuss Voigt Hill
#
# Bulk Modulus (GPa) = 42.07975 58.39860 50.23917
# Shear Modulus (GPa) = 23.49689 33.23597 28.36643
#
# Velocity S-wave (km/s) = 3.61338 4.29747 3.97019
# Velocity P-wave (km/s) = 6.38680 7.55479 6.99521
#
# Compressibility (1/GPa) = 0.02376440
#
# Stress axis : x y z
#
# Youngs Moduli (GPa) = 47.86010 42.71143 58.92017
#
# Poissons Ratio (x) = 0.23860 0.00607
# Poissons Ratio (y) = 0.26737 0.76996
# Poissons Ratio (z) = 0.00493 0.55815
#
# Static dielectric constant tensor:
#      x y z
#    x 3.216770 0.000000 -0.239770 
#    y 0.000000 3.520450 0.000000 
#    z -0.239770 0.000000 2.981700 
# 
# 
# High freq. dielectric constant tensor:
#      x y z
#    x 1.688770 0.000000 -0.011070 
#    y 0.000000 1.705130 0.000000 
#    z -0.011070 0.000000 1.691530 
# 
# From -- ./inp_files/25983.got.cif
#   From: 2010.06.25/outbox.cif.g09.slc.cpg/sg10_13_cif.got.tgz:25983.got - 2010.06.27 22:07:45.
