data_PCOD8061986
_publ_section_title
;
Structure prediction by ZEFSAII (Michael W. Deem and Ramdas Pophale) SiO2 
 PCOD8061986
Probable space group: P 2/M
;
_chemical_formula_sum "Si O2"
_cell_formula_units_Z 32
_cell_length_a 18.322185
_cell_length_b 9.326120
_cell_length_c 23.775201
_cell_angle_alpha 90.000000
_cell_angle_beta 155.841908
_cell_angle_gamma 90.000000
_cell_volume 1662.636351
_symmetry_space_group_name_H-M "P 2/M"
_symmetry_group_IT_number 10
_symmetry_cell_setting 'monoclinic'
loop_
_space_group_symop_operation_xyz
x,y,z
-x,y,-z
-x,-y,-z
x,-y,z
loop_
_atom_site_type_symbol
_atom_site_label
_atom_site_fract_x
_atom_site_fract_y
_atom_site_fract_z
Si Si1 0.485914 0.661874 0.621975
Si Si2 0.143008 0.832074 0.942400
Si Si3 0.533604 0.669193 0.873083
Si Si4 0.711896 0.659690 0.399821
Si Si5 0.987131 0.833313 0.342735
Si Si6 0.337072 0.657416 0.844885
Si Si7 0.812076 0.834578 0.897308
Si Si8 0.824494 0.834468 0.641395
O O1 0.525512 0.500000 0.628801
O O2 0.381730 0.659827 0.606484
O O3 0.670960 0.744265 0.761874
O O4 0.357710 0.741278 0.486472
O O5 0.941180 0.799189 0.779120
O O6 0.182284 0.000000 0.964051
O O7 0.277264 0.749203 0.995387
O O8 0.167901 0.779961 0.024247
O O9 0.571439 0.500000 0.903246
O O10 0.430033 0.716795 0.744477
O O11 0.411512 0.721518 0.838845
O O12 0.777427 0.500000 0.429761
O O13 0.879223 0.765593 0.517537
O O14 0.795317 0.765950 0.218114
O O15 0.051817 0.798541 0.325309
O O16 0.975298 0.000000 0.346401
O O17 0.247581 0.500000 0.772109
O O18 0.500000 0.635711 0.000000
O O19 0.751093 0.000000 0.853553
O O20 0.000000 0.813211 0.000000
O O21 0.765474 0.000000 0.598495
#
# Coordination Sequence:
#
# PCOD8061986 Si02
#       8
#     4   4   4   4   4   4   4   4
#     4  10  19  34  57  83 109 142 182 221 265 316
#     4  10  20  35  57  83 109 139 180 225 267 318
#     4  10  20  34  53  76 104 138 177 223 269 315
#     4   9  18  33  52  74 101 135 174 216 264 317
#     4  10  20  33  51  74 103 136 175 223 268 310
#     4  10  21  35  50  70 100 139 177 215 267 324
#     4  10  21  37  58  84 113 144 175 213 267 326
#     4   9  19  35  55  80 109 144 183 223 268 317
#
# _framework density 19.246544
#
# number of rings (size 3 to 8) (size 9 to 14) (size 15 to 20)
#    0.000    2.250    1.250    1.500    0.000    3.500 
#    0.000    3.125    0.000    3.750    0.000    0.000 
#    0.000    0.000    0.000    0.000    0.000    0.000 
#
# Total GULP energy -396775.190856 kJ/mol
# GULP energy per Si atom -12399.224714 kJ/mol
# Density = 1.920274 g / cm^3
# Si number density = 19.246544 Si / 1000 Ang^3
#
#
#
# Elastic Constant Matrix: (Units=GPa)
#
#
# Indices 1 2 3 4 5 6 
#
# 1 35.7896 25.3698 19.6108 0.0000 4.0246 0.0000
# 2 25.3698 85.2867 55.6081 0.0000 12.1558 0.0000
# 3 19.6108 55.6081 117.5960 0.0000 2.5327 0.0000
# 4 0.0000 0.0000 0.0000 35.9639 0.0000 4.9239
# 5 4.0246 12.1558 2.5327 0.0000 21.8524 0.0000
# 6 0.0000 0.0000 0.0000 4.9239 0.0000 18.4674
#
#
#
# Elastic Compliance Matrix: (Units=1/GPa)
#
#
# Indices 1 2 3 4 5 6 
#
# 1 0.035577 -0.009503 -0.001416 0.000000 -0.001102 0.000000
# 2 -0.009503 0.021236 -0.008261 0.000000 -0.009105 0.000000
# 3 -0.001416 -0.008261 0.012573 0.000000 0.003399 0.000000
# 4 0.000000 0.000000 0.000000 0.028859 0.000000 -0.007695
# 5 -0.001102 -0.009105 0.003399 0.000000 0.050636 0.000000
# 6 0.000000 0.000000 0.000000 -0.007695 0.000000 0.056201
#
#
# Mechanical properties :
#
#
# Convention : Reuss Voigt Hill
#
# Bulk Modulus (GPa) = 32.23010 48.87219 40.55114
# Shear Modulus (GPa) = 19.70186 24.46232 22.08209
#
# Velocity S-wave (km/s) = 3.20294 3.56897 3.39090
# Velocity P-wave (km/s) = 5.51912 6.51393 6.03705
#
# Compressibility (1/GPa) = 0.03102690
#
# Stress axis : x y z
#
# Youngs Moduli (GPa) = 28.10815 47.08965 79.53530
#
# Poissons Ratio (x) = 0.44748 0.11259
# Poissons Ratio (y) = 0.26711 0.65705
# Poissons Ratio (z) = 0.03979 0.38902
#
# Static dielectric constant tensor:
#      x y z
#    x 3.679880 0.000000 -0.241390 
#    y 0.000000 3.598050 0.000000 
#    z -0.241390 0.000000 3.635260 
# 
# 
# High freq. dielectric constant tensor:
#      x y z
#    x 1.727810 0.000000 -0.006870 
#    y 0.000000 1.744300 0.000000 
#    z -0.006870 0.000000 1.757700 
# 
# From -- ./inp_files/87014.got.cif
#   From: 2010.06.25/outbox.cif.g09.slc.cpg/sg10_44_cif.got.tgz:87014.got - 2010.06.27 22:07:45.
