data_PCOD8061243
_publ_section_title
;
Structure prediction by ZEFSAII (Michael W. Deem and Ramdas Pophale) SiO2 
 PCOD8061243
Probable space group: P 2/M
;
_chemical_formula_sum "Si O2"
_cell_formula_units_Z 28
_cell_length_a 14.232804
_cell_length_b 9.166267
_cell_length_c 17.546906
_cell_angle_alpha 90.000000
_cell_angle_beta 43.238230
_cell_angle_gamma 90.000000
_cell_volume 1568.177567
_symmetry_space_group_name_H-M "P 2/M"
_symmetry_group_IT_number 10
_symmetry_cell_setting 'monoclinic'
loop_
_space_group_symop_operation_xyz
x,y,z
-x,y,-z
-x,-y,-z
x,-y,z
loop_
_atom_site_type_symbol
_atom_site_label
_atom_site_fract_x
_atom_site_fract_y
_atom_site_fract_z
Si Si1 0.139511 0.671237 0.379797
Si Si2 0.234426 0.169079 0.569058
Si Si3 0.380175 0.672083 0.352140
Si Si4 0.339175 0.826073 0.825699
Si Si5 0.917182 0.168979 0.734343
Si Si6 0.186387 0.172556 0.766690
Si Si7 0.885305 0.173246 0.921988
O O1 0.129276 0.500000 0.373486
O O2 0.265543 0.715613 0.358559
O O3 0.161403 0.742955 0.284505
O O4 0.000000 0.731944 0.500000
O O5 0.337712 0.267502 0.459743
O O6 0.253315 0.215598 0.646145
O O7 0.079404 0.199266 0.634472
O O8 0.273332 0.000000 0.534236
O O9 0.401033 0.500000 0.345808
O O10 0.518203 0.748007 0.242299
O O11 0.280095 0.768750 0.779872
O O12 0.358540 0.000000 0.815381
O O13 0.236186 0.771075 0.952393
O O14 0.858938 0.223018 0.850401
O O15 0.885375 0.000000 0.740609
O O16 0.031698 0.236709 0.864535
O O17 0.175327 0.000000 0.779132
O O18 0.894933 0.000000 0.918528
#
# Coordination Sequence:
#
# PCOD8061243 Si02
#       7
#     4   4   4   4   4   4   4
#     4  10  20  35  53  72  96 131 172 207 248 303
#     4   9  17  31  51  77 104 128 162 206 251 297
#     4  11  23  36  49  69 103 137 168 208 252 299
#     4  10  19  33  54  76 102 137 171 202 241 293
#     4   9  17  30  53  82 104 122 157 212 258 291
#     4   8  15  29  53  81 103 128 166 208 245 289
#     4   8  15  30  53  81 106 128 162 207 249 290
#
# _framework density 17.855121
#
# number of rings (size 3 to 8) (size 9 to 14) (size 15 to 20)
#    0.000    2.714    1.429    2.571    0.000    3.714 
#    0.000    5.000    0.000    7.714    0.000    0.000 
#    0.000    0.000    0.000    0.000    0.000    0.000 
#
# Total GULP energy -347157.668399 kJ/mol
# GULP energy per Si atom -12398.488157 kJ/mol
# Density = 1.781448 g / cm^3
# Si number density = 17.855121 Si / 1000 Ang^3
#
#
#
# Elastic Constant Matrix: (Units=GPa)
#
#
# Indices 1 2 3 4 5 6 
#
# 1 120.7999 36.3129 69.3856 0.0000 5.2265 0.0000
# 2 36.3129 33.2823 32.7892 0.0000 -1.7634 0.0000
# 3 69.3856 32.7892 105.1767 0.0000 0.3386 0.0000
# 4 0.0000 0.0000 0.0000 8.2808 0.0000 -8.4125
# 5 5.2265 -1.7634 0.3386 0.0000 27.0087 0.0000
# 6 0.0000 0.0000 0.0000 -8.4125 0.0000 14.7571
#
#
#
# Elastic Compliance Matrix: (Units=1/GPa)
#
#
# Indices 1 2 3 4 5 6 
#
# 1 0.015564 -0.010200 -0.007076 0.000000 -0.003589 0.000000
# 2 -0.010200 0.050294 -0.008968 0.000000 0.005370 0.000000
# 3 -0.007076 -0.008968 0.016970 0.000000 0.000571 0.000000
# 4 0.000000 0.000000 0.000000 0.286929 0.000000 0.163568
# 5 -0.003589 0.005370 0.000571 0.000000 0.038063 0.000000
# 6 0.000000 0.000000 0.000000 0.163568 0.000000 0.161008
#
#
# Mechanical properties :
#
#
# Convention : Reuss Voigt Hill
#
# Bulk Modulus (GPa) = 32.95953 59.58160 46.27057
# Shear Modulus (GPa) = 7.91853 18.06072 12.98963
#
# Velocity S-wave (km/s) = 2.10820 3.18388 2.70015
# Velocity P-wave (km/s) = 4.94222 6.85260 5.97426
#
# Compressibility (1/GPa) = 0.03034024
#
# Stress axis : x y z
#
# Youngs Moduli (GPa) = 64.25040 19.88304 58.92787
#
# Poissons Ratio (x) = 0.20281 0.41699
# Poissons Ratio (y) = 0.65536 0.52844
# Poissons Ratio (z) = 0.45465 0.17830
#
# Static dielectric constant tensor:
#      x y z
#    x 3.405820 0.000000 0.135570 
#    y 0.000000 2.912870 0.000000 
#    z 0.135570 0.000000 3.410650 
# 
# 
# High freq. dielectric constant tensor:
#      x y z
#    x 1.691960 0.000000 0.011670 
#    y 0.000000 1.653350 0.000000 
#    z 0.011670 0.000000 1.691080 
# 
# From -- ./inp_files/68573.got.cif
#   From: 2010.06.25/outbox.cif.g09.slc.cpg/sg10_35_cif.got.tgz:68573.got - 2010.06.27 22:07:45.
