data_PCOD8061690
_publ_section_title
;
Structure prediction by ZEFSAII (Michael W. Deem and Ramdas Pophale) SiO2 
 PCOD8061690
Probable space group: P 2/M
;
_chemical_formula_sum "Si O2"
_cell_formula_units_Z 24
_cell_length_a 21.652523
_cell_length_b 9.202246
_cell_length_c 9.480818
_cell_angle_alpha 90.000000
_cell_angle_beta 45.357288
_cell_angle_gamma 90.000000
_cell_volume 1344.078200
_symmetry_space_group_name_H-M "P 2/M"
_symmetry_group_IT_number 10
_symmetry_cell_setting 'monoclinic'
loop_
_space_group_symop_operation_xyz
x,y,z
-x,y,-z
-x,-y,-z
x,-y,z
loop_
_atom_site_type_symbol
_atom_site_label
_atom_site_fract_x
_atom_site_fract_y
_atom_site_fract_z
Si Si1 0.635467 0.169777 0.047636
Si Si2 0.223024 0.669541 0.358267
Si Si3 0.763450 0.166072 0.086150
Si Si4 0.099041 0.170325 0.365360
Si Si5 0.717017 0.667141 0.432515
Si Si6 0.477177 0.329303 0.196979
O O1 0.693477 0.250966 0.839119
O O2 0.632038 0.000000 0.014364
O O3 0.675595 0.193306 0.138438
O O4 0.540025 0.239565 0.199939
O O5 0.228407 0.500000 0.309600
O O6 0.134377 0.739494 0.442063
O O7 0.224014 0.692244 0.524501
O O8 0.763619 0.254952 0.228970
O O9 0.772691 0.000000 0.115187
O O10 0.846194 0.214606 0.860497
O O11 0.000000 0.214104 0.500000
O O12 0.110669 0.000000 0.379865
O O13 0.711195 0.500000 0.401722
O O14 0.619809 0.725581 0.615240
O O15 0.489225 0.500000 0.205906
O O16 0.500000 0.290317 0.000000
#
# Coordination Sequence:
#
# PCOD8061690 Si02
#       6
#     4   4   4   4   4   4
#     4  10  20  34  52  77 105 140 184 223 263 307
#     4  10  19  34  55  79 107 139 177 217 260 312
#     4   9  20  36  53  76 107 138 171 216 265 315
#     4   9  19  38  61  83 106 134 172 215 260 317
#     4  10  21  35  52  76 107 143 177 217 265 310
#     4  10  19  34  52  73 105 142 184 225 259 302
#
# _framework density 17.856104999999999
#
# number of rings (size 3 to 8) (size 9 to 14) (size 15 to 20)
#    0.000    2.333    1.667    2.000    0.000    6.667 
#    0.000    4.167    0.000    5.000    0.000    0.000 
#    0.000    0.000    0.000    0.000    0.000    0.000 
#
# Total GULP energy -297642.956885 kJ/mol
# GULP energy per Si atom -12401.789870 kJ/mol
# Density = 1.781546 g / cm^3
# Si number density = 17.856105 Si / 1000 Ang^3
#
#
#
# Elastic Constant Matrix: (Units=GPa)
#
#
# Indices 1 2 3 4 5 6 
#
# 1 125.3606 62.1400 67.0745 0.0000 -11.6052 0.0000
# 2 62.1400 78.1560 44.7400 0.0000 3.3718 0.0000
# 3 67.0745 44.7400 93.9591 0.0000 2.0784 0.0000
# 4 0.0000 0.0000 0.0000 28.2738 0.0000 8.2625
# 5 -11.6052 3.3718 2.0784 0.0000 29.3496 0.0000
# 6 0.0000 0.0000 0.0000 8.2625 0.0000 12.0888
#
#
#
# Elastic Compliance Matrix: (Units=1/GPa)
#
#
# Indices 1 2 3 4 5 6 
#
# 1 0.018389 -0.010148 -0.008496 0.000000 0.009039 0.000000
# 2 -0.010148 0.023249 -0.003684 0.000000 -0.006423 0.000000
# 3 -0.008496 -0.003684 0.018556 0.000000 -0.004250 0.000000
# 4 0.000000 0.000000 0.000000 0.044196 0.000000 -0.030207
# 5 0.009039 -0.006423 -0.004250 0.000000 0.038685 0.000000
# 6 0.000000 0.000000 0.000000 -0.030207 0.000000 0.103368
#
#
# Mechanical properties :
#
#
# Convention : Reuss Voigt Hill
#
# Bulk Modulus (GPa) = 64.35200 71.70939 68.03070
# Shear Modulus (GPa) = 16.87601 22.17718 19.52659
#
# Velocity S-wave (km/s) = 3.07760 3.52802 3.31048
# Velocity P-wave (km/s) = 6.98185 7.53941 7.26598
#
# Compressibility (1/GPa) = 0.01553953
#
# Stress axis : x y z
#
# Youngs Moduli (GPa) = 54.37887 43.01211 53.89075
#
# Poissons Ratio (x) = 0.43647 0.45784
# Poissons Ratio (y) = 0.55182 0.19855
# Poissons Ratio (z) = 0.46198 0.15847
#
# Static dielectric constant tensor:
#      x y z
#    x 3.381250 0.000000 -0.057600 
#    y 0.000000 3.296690 0.000000 
#    z -0.057600 0.000000 3.107980 
# 
# 
# High freq. dielectric constant tensor:
#      x y z
#    x 1.693210 0.000000 0.001670 
#    y 0.000000 1.693200 0.000000 
#    z 0.001670 0.000000 1.672410 
# 
# From -- ./inp_files/31231.got.cif
#   From: 2010.06.25/outbox.cif.g09.slc.cpg/sg10_16_cif.got.tgz:31231.got - 2010.06.27 22:07:45.
