data_PCOD8061975
_publ_section_title
;
Structure prediction by ZEFSAII (Michael W. Deem and Ramdas Pophale) SiO2 
 PCOD8061975
Probable space group: P 2/M
;
_chemical_formula_sum "Si O2"
_cell_formula_units_Z 32
_cell_length_a 8.941377
_cell_length_b 23.903678
_cell_length_c 15.487088
_cell_angle_alpha 90.000000
_cell_angle_beta 149.998943
_cell_angle_gamma 90.000000
_cell_volume 1655.094455
_symmetry_space_group_name_H-M "P 2/M"
_symmetry_group_IT_number 10
_symmetry_cell_setting 'monoclinic'
loop_
_space_group_symop_operation_xyz
x,y,z
-x,y,-z
-x,-y,-z
x,-y,z
loop_
_atom_site_type_symbol
_atom_site_label
_atom_site_fract_x
_atom_site_fract_y
_atom_site_fract_z
Si Si1 0.689220 0.366558 0.674820
Si Si2 0.822149 0.562901 1.000000
Si Si3 0.335241 0.366558 0.674820
Si Si4 0.976620 0.742983 0.202033
Si Si5 0.629478 0.742983 0.202032
Si Si6 0.806790 0.865623 0.322144
Si Si7 0.159642 0.134377 0.322144
Si Si8 0.678177 0.063217 0.000000
O O1 0.500000 0.390194 0.500000
O O2 0.487651 0.369284 0.658434
O O3 0.983670 0.404989 0.830975
O O4 0.782107 0.302869 0.704167
O O5 0.757684 0.500000 1.000000
O O6 0.509254 0.595011 0.830975
O O7 0.000000 0.562354 0.000000
O O8 0.330397 0.302868 0.704168
O O9 0.000000 0.390193 0.500000
O O10 0.857127 0.730069 0.238085
O O11 0.142123 0.802212 0.279825
O O12 0.708475 0.743134 0.000001
O O13 0.697350 0.802212 0.279824
O O14 0.000000 0.885387 0.500000
O O15 0.007901 0.871582 0.338600
O O16 0.516814 0.905404 0.170250
O O17 0.500000 0.114613 0.500000
O O18 0.993937 0.094597 0.170250
O O19 0.739278 0.000000 0.000001
O O20 0.500000 0.065056 0.000000
#
# Coordination Sequence:
#
# PCOD8061975 Si02
#       8
#     4   4   4   4   4   4   4   4
#     4  11  22  37  58  85 113 145 183 223 271 326
#     4   9  20  39  59  79 109 147 184 225 272 320
#     4  11  22  37  58  85 113 145 183 223 271 326
#     4  10  19  34  57  82 112 145 179 223 273 327
#     4  10  19  34  57  82 112 145 179 223 273 327
#     4  10  20  35  55  81 109 142 180 220 269 323
#     4  10  20  35  55  81 109 142 180 220 269 323
#     4   9  18  35  57  77 103 143 186 223 266 322
#
# _framework density 19.334243000000001
#
# number of rings (size 3 to 8) (size 9 to 14) (size 15 to 20)
#    0.000    2.000    2.500    1.500    0.000    4.000 
#    0.000    0.625    0.000    6.000    0.000    0.000 
#    0.000    0.000    0.000    0.000    0.000    0.000 
#
# Total GULP energy -396908.210435 kJ/mol
# GULP energy per Si atom -12403.381576 kJ/mol
# Density = 1.929024 g / cm^3
# Si number density = 19.334243 Si / 1000 Ang^3
#
#
#
# Elastic Constant Matrix: (Units=GPa)
#
#
# Indices 1 2 3 4 5 6 
#
# 1 40.4982 31.1025 39.8490 0.0000 2.1006 0.0000
# 2 31.1025 146.1000 84.3778 0.0000 1.7769 0.0000
# 3 39.8490 84.3778 187.0526 0.0000 2.7878 0.0000
# 4 0.0000 0.0000 0.0000 14.8926 0.0000 -0.1496
# 5 2.1006 1.7769 2.7878 0.0000 31.8354 0.0000
# 6 0.0000 0.0000 0.0000 -0.1496 0.0000 19.3794
#
#
#
# Elastic Compliance Matrix: (Units=1/GPa)
#
#
# Indices 1 2 3 4 5 6 
#
# 1 0.032951 -0.003996 -0.005195 0.000000 -0.001496 0.000000
# 2 -0.003996 0.009741 -0.003543 0.000000 0.000030 0.000000
# 3 -0.005195 -0.003543 0.008054 0.000000 -0.000165 0.000000
# 4 0.000000 0.000000 0.000000 0.067153 0.000000 0.000518
# 5 -0.001496 0.000030 -0.000165 0.000000 0.031523 0.000000
# 6 0.000000 0.000000 0.000000 0.000518 0.000000 0.051605
#
#
# Mechanical properties :
#
#
# Convention : Reuss Voigt Hill
#
# Bulk Modulus (GPa) = 39.56189 76.03439 57.79814
# Shear Modulus (GPa) = 21.28375 27.77624 24.52999
#
# Velocity S-wave (km/s) = 3.32148 3.79441 3.56579
# Velocity P-wave (km/s) = 5.93432 7.65561 6.84925
#
# Compressibility (1/GPa) = 0.02527685
#
# Stress axis : x y z
#
# Youngs Moduli (GPa) = 30.34841 102.65414 124.16856
#
# Poissons Ratio (x) = 0.41025 0.64501
# Poissons Ratio (y) = 0.12128 0.43997
# Poissons Ratio (z) = 0.15765 0.36374
#
# Static dielectric constant tensor:
#      x y z
#    x 3.156000 0.000000 0.020960 
#    y 0.000000 3.628610 0.000000 
#    z 0.020960 0.000000 3.784500 
# 
# 
# High freq. dielectric constant tensor:
#      x y z
#    x 1.720060 0.000000 0.001760 
#    y 0.000000 1.750660 0.000000 
#    z 0.001760 0.000000 1.772710 
# 
# From -- ./inp_files/30625.got.cif
#   From: 2010.06.25/outbox.cif.g09.slc.cpg/sg10_16_cif.got.tgz:30625.got - 2010.06.27 22:07:45.
