data_PCOD8061398
_publ_section_title
;
Structure prediction by ZEFSAII (Michael W. Deem and Ramdas Pophale) SiO2 
 PCOD8061398
Probable space group: P 2/M
;
_chemical_formula_sum "Si O2"
_cell_formula_units_Z 28
_cell_length_a 27.720160
_cell_length_b 9.186036
_cell_length_c 9.621499
_cell_angle_alpha 90.000000
_cell_angle_beta 38.622702
_cell_angle_gamma 90.000000
_cell_volume 1529.265421
_symmetry_space_group_name_H-M "P 2/M"
_symmetry_group_IT_number 10
_symmetry_cell_setting 'monoclinic'
loop_
_space_group_symop_operation_xyz
x,y,z
-x,y,-z
-x,-y,-z
x,-y,z
loop_
_atom_site_type_symbol
_atom_site_label
_atom_site_fract_x
_atom_site_fract_y
_atom_site_fract_z
Si Si1 0.798256 0.330286 0.996731
Si Si2 0.501494 0.173047 0.154493
Si Si3 0.642867 0.171169 0.019415
Si Si4 0.962344 0.337280 0.233283
Si Si5 0.356660 0.828401 0.662200
Si Si6 0.947026 0.829750 0.748549
Si Si7 0.794672 0.666069 0.683061
O O1 0.794631 0.500000 0.041199
O O2 0.867250 0.257947 0.927129
O O3 0.813348 0.299614 0.801144
O O4 0.718464 0.255983 0.222831
O O5 0.426153 0.225261 0.407863
O O6 0.504326 0.000000 0.146147
O O7 0.500000 0.234465 0.000000
O O8 0.576150 0.233708 0.068920
O O9 0.724290 0.236793 0.786300
O O10 0.649370 0.000000 0.988615
O O11 0.623997 0.213857 0.221562
O O12 0.968405 0.500000 0.287340
O O13 0.871821 0.295229 0.423466
O O14 0.006188 0.215722 0.221285
O O15 0.000000 0.338307 0.000000
O O16 0.341769 0.000000 0.682404
O O17 0.000000 0.786215 0.500000
O O18 0.928246 0.000000 0.794434
O O19 0.769063 0.500000 0.720857
#
# Coordination Sequence:
#
# PCOD8061398 Si02
#       7
#     4   4   4   4   4   4   4
#     4  10  19  33  55  80 106 138 178 220 267 317
#     4   9  17  31  51  75 104 135 167 207 260 316
#     4   9  17  30  52  77  98 131 172 211 255 307
#     4  10  21  38  57  77 107 148 186 220 267 322
#     4   9  17  31  52  76 103 131 171 218 257 306
#     4  11  22  35  56  83 110 140 180 227 272 314
#     4   9  18  33  53  77 104 136 174 218 262 310
#
# _framework density 18.309443999999999
#
# number of rings (size 3 to 8) (size 9 to 14) (size 15 to 20)
#    0.000    2.429    1.429    1.286    0.000    3.714 
#    2.571    0.714    0.000    4.286    0.000    0.000 
#    0.000    0.000    0.000    0.000    0.000    0.000 
#
# Total GULP energy -347225.072881 kJ/mol
# GULP energy per Si atom -12400.895460 kJ/mol
# Density = 1.826777 g / cm^3
# Si number density = 18.309444 Si / 1000 Ang^3
#
#
#
# Elastic Constant Matrix: (Units=GPa)
#
#
# Indices 1 2 3 4 5 6 
#
# 1 109.8524 43.5806 70.0596 0.0000 -20.9189 0.0000
# 2 43.5806 50.9701 37.6007 0.0000 -12.2703 0.0000
# 3 70.0596 37.6007 139.5309 0.0000 -22.7632 0.0000
# 4 0.0000 0.0000 0.0000 54.5083 0.0000 -10.0818
# 5 -20.9189 -12.2703 -22.7632 0.0000 28.4736 0.0000
# 6 0.0000 0.0000 0.0000 -10.0818 0.0000 17.9901
#
#
#
# Elastic Compliance Matrix: (Units=1/GPa)
#
#
# Indices 1 2 3 4 5 6 
#
# 1 0.017143 -0.009745 -0.005304 0.000000 0.004155 0.000000
# 2 -0.009745 0.030974 -0.002811 0.000000 0.003941 0.000000
# 3 -0.005304 -0.002811 0.011217 0.000000 0.003860 0.000000
# 4 0.000000 0.000000 0.000000 0.020467 0.000000 0.011470
# 5 0.004155 0.003941 0.003860 0.000000 0.042957 0.000000
# 6 0.000000 0.000000 0.000000 0.011470 0.000000 0.062014
#
#
# Mechanical properties :
#
#
# Convention : Reuss Voigt Hill
#
# Bulk Modulus (GPa) = 42.34594 66.98167 54.66381
# Shear Modulus (GPa) = 21.89508 30.13524 26.01516
#
# Velocity S-wave (km/s) = 3.46184 4.06135 3.77352
# Velocity P-wave (km/s) = 6.25757 7.65868 6.99330
#
# Compressibility (1/GPa) = 0.02361501
#
# Stress axis : x y z
#
# Youngs Moduli (GPa) = 58.33375 32.28545 89.15021
#
# Poissons Ratio (x) = 0.31461 0.47282
# Poissons Ratio (y) = 0.56844 0.25059
# Poissons Ratio (z) = 0.30938 0.09075
#
# Static dielectric constant tensor:
#      x y z
#    x 3.327290 0.000000 -0.145840 
#    y 0.000000 3.229420 0.000000 
#    z -0.145840 0.000000 3.416720 
# 
# 
# High freq. dielectric constant tensor:
#      x y z
#    x 1.702460 0.000000 -0.017380 
#    y 0.000000 1.692680 0.000000 
#    z -0.017380 0.000000 1.710420 
# 
# From -- ./inp_files/31553.got.cif
#   From: 2010.06.25/outbox.cif.g09.slc.cpg/sg10_16_cif.got.tgz:31553.got - 2010.06.27 22:07:45.
