data_PCOD8061852
_publ_section_title
;
Structure prediction by ZEFSAII (Michael W. Deem and Ramdas Pophale) SiO2 
 PCOD8061852
Probable space group: P 2/M
;
_chemical_formula_sum "Si O2"
_cell_formula_units_Z 32
_cell_length_a 22.244016
_cell_length_b 8.651124
_cell_length_c 13.919297
_cell_angle_alpha 90.000000
_cell_angle_beta 141.410892
_cell_angle_gamma 90.000000
_cell_volume 1670.707333
_symmetry_space_group_name_H-M "P 2/M"
_symmetry_group_IT_number 10
_symmetry_cell_setting 'monoclinic'
loop_
_space_group_symop_operation_xyz
x,y,z
-x,y,-z
-x,-y,-z
x,-y,z
loop_
_atom_site_type_symbol
_atom_site_label
_atom_site_fract_x
_atom_site_fract_y
_atom_site_fract_z
Si Si1 0.608818 0.177325 0.321061
Si Si2 0.202766 0.178270 0.338653
Si Si3 0.777348 0.319072 0.035262
Si Si4 0.385919 0.672007 0.864834
Si Si5 0.607736 0.819524 0.932216
Si Si6 0.957853 0.318803 0.741360
Si Si7 0.966415 0.182469 0.352687
Si Si8 0.146130 0.182336 0.056415
O O1 0.682825 0.200243 0.501214
O O2 0.654120 0.264492 0.285801
O O3 0.502914 0.237939 0.219363
O O4 0.597558 0.000000 0.276050
O O5 0.146562 0.279529 0.346945
O O6 0.172234 0.000000 0.313187
O O7 0.179655 0.237240 0.203190
O O8 0.795268 0.500000 0.068337
O O9 0.787308 0.270013 0.937005
O O10 0.855640 0.230666 0.198472
O O11 0.670259 0.274657 0.933884
O O12 0.344994 0.500000 0.831443
O O13 0.500000 0.671578 0.000000
O O14 0.353925 0.780717 0.912877
O O15 0.619816 0.000000 0.927175
O O16 0.978571 0.500000 0.772732
O O17 0.964994 0.264762 0.639747
O O18 0.035244 0.228838 0.903423
O O19 0.000000 0.235894 0.500000
O O20 0.976394 0.000000 0.351938
O O21 0.158560 0.000000 0.058086
#
# Coordination Sequence:
#
# PCOD8061852 Si02
#       8
#     4   4   4   4   4   4   4   4
#     4   9  19  35  54  78 107 139 179 224 265 309
#     4  10  21  37  57  80 106 138 177 222 269 314
#     4  11  22  36  56  80 108 141 177 219 265 317
#     4   9  17  30  49  74 104 136 170 211 260 310
#     4  10  19  34  56  78 104 142 184 221 259 311
#     4  11  22  35  55  82 111 142 175 214 262 319
#     4  10  21  38  59  82 110 143 178 218 261 309
#     4  10  20  37  59  79 103 137 177 221 266 315
#
# _framework density 19.153565
#
# number of rings (size 3 to 8) (size 9 to 14) (size 15 to 20)
#    0.000    2.000    0.000    5.625    0.000    7.000 
#    0.000    1.875    0.000    3.750    0.000    0.000 
#    0.000    0.000    0.000    0.000    0.000    0.000 
#
# Total GULP energy -396870.039051 kJ/mol
# GULP energy per Si atom -12402.188720 kJ/mol
# Density = 1.910997 g / cm^3
# Si number density = 19.153565 Si / 1000 Ang^3
#
#
#
# Elastic Constant Matrix: (Units=GPa)
#
#
# Indices 1 2 3 4 5 6 
#
# 1 115.0275 28.7202 59.5220 0.0000 -0.2092 0.0000
# 2 28.7202 61.3117 18.7487 0.0000 -3.9034 0.0000
# 3 59.5220 18.7487 96.3005 0.0000 -16.1015 0.0000
# 4 0.0000 0.0000 0.0000 12.6607 0.0000 5.6758
# 5 -0.2092 -3.9034 -16.1015 0.0000 29.8131 0.0000
# 6 0.0000 0.0000 0.0000 5.6758 0.0000 22.6942
#
#
#
# Elastic Compliance Matrix: (Units=1/GPa)
#
#
# Indices 1 2 3 4 5 6 
#
# 1 0.014393 -0.004347 -0.008935 0.000000 -0.005294 0.000000
# 2 -0.004347 0.018662 -0.000597 0.000000 0.002090 0.000000
# 3 -0.008935 -0.000597 0.017587 0.000000 0.009358 0.000000
# 4 0.000000 0.000000 0.000000 0.088959 0.000000 -0.022248
# 5 -0.005294 0.002090 0.009358 0.000000 0.038833 0.000000
# 6 0.000000 0.000000 0.000000 -0.022248 0.000000 0.049628
#
#
# Mechanical properties :
#
#
# Convention : Reuss Voigt Hill
#
# Bulk Modulus (GPa) = 43.69694 54.06906 48.88300
# Shear Modulus (GPa) = 18.97913 24.07684 21.52799
#
# Velocity S-wave (km/s) = 3.15126 3.54933 3.35620
# Velocity P-wave (km/s) = 6.00867 6.71472 6.37148
#
# Compressibility (1/GPa) = 0.02288490
#
# Stress axis : x y z
#
# Youngs Moduli (GPa) = 69.48024 53.58502 56.85878
#
# Poissons Ratio (x) = 0.23292 0.50802
# Poissons Ratio (y) = 0.30201 0.03395
# Poissons Ratio (z) = 0.62078 0.03199
#
# Static dielectric constant tensor:
#      x y z
#    x 3.507930 0.000000 -0.082240 
#    y 0.000000 3.539360 0.000000 
#    z -0.082240 0.000000 3.416070 
# 
# 
# High freq. dielectric constant tensor:
#      x y z
#    x 1.741830 0.000000 -0.003210 
#    y 0.000000 1.751370 0.000000 
#    z -0.003210 0.000000 1.731480 
# 
# From -- ./inp_files/70018.got.cif
#   From: 2010.06.25/outbox.cif.g09.slc.cpg/sg10_36_cif.got.tgz:70018.got - 2010.06.27 22:07:45.
