data_PCOD8061221
_publ_section_title
;
Structure prediction by ZEFSAII (Michael W. Deem and Ramdas Pophale) SiO2 
 PCOD8061221
Probable space group: P 2/M
;
_chemical_formula_sum "Si O2"
_cell_formula_units_Z 28
_cell_length_a 12.109983
_cell_length_b 8.873185
_cell_length_c 29.716887
_cell_angle_alpha 90.000000
_cell_angle_beta 28.287292
_cell_angle_gamma 90.000000
_cell_volume 1513.235755
_symmetry_space_group_name_H-M "P 2/M"
_symmetry_group_IT_number 10
_symmetry_cell_setting 'monoclinic'
loop_
_space_group_symop_operation_xyz
x,y,z
-x,y,-z
-x,-y,-z
x,-y,z
loop_
_atom_site_type_symbol
_atom_site_label
_atom_site_fract_x
_atom_site_fract_y
_atom_site_fract_z
Si Si1 0.682275 0.675099 0.053345
Si Si2 0.444195 0.175247 0.810457
Si Si3 0.830260 0.821480 0.263539
Si Si4 0.941268 0.826890 0.666445
Si Si5 0.818755 0.325208 0.800403
Si Si6 0.449575 0.175712 0.468926
Si Si7 0.839642 0.323162 0.164529
O O1 0.689535 0.500000 0.064979
O O2 0.682637 0.773253 0.098406
O O3 0.456317 0.710510 0.104073
O O4 0.905228 0.722943 0.944578
O O5 0.720735 0.208621 0.714124
O O6 0.354060 0.271513 0.801258
O O7 0.390945 0.000000 0.821730
O O8 0.619893 0.755271 0.370011
O O9 0.789171 0.759425 0.228893
O O10 0.076609 0.765267 0.195013
O O11 0.830803 0.000000 0.261059
O O12 0.943951 0.723785 0.709552
O O13 0.178370 0.794593 0.553496
O O14 0.933503 0.000000 0.685937
O O15 0.865599 0.500000 0.791910
O O16 0.500000 0.247326 0.500000
O O17 0.507413 0.000000 0.450476
O O18 0.819897 0.500000 0.179144
#
# Coordination Sequence:
#
# PCOD8061221 Si02
#       7
#     4   4   4   4   4   4   4
#     4   9  20  37  57  78 104 144 183 215 259 319
#     4  10  20  34  57  85 109 134 176 227 267 305
#     4  11  22  36  55  79 109 141 178 220 265 315
#     4   9  17  33  56  82 108 137 174 218 263 310
#     4  10  19  33  53  80 110 138 174 217 265 316
#     4   9  16  31  57  82 105 137 175 212 259 319
#     4  11  23  39  55  73 106 148 184 217 262 318
#
# _framework density 18.503397
#
# number of rings (size 3 to 8) (size 9 to 14) (size 15 to 20)
#    0.000    2.143    1.429    2.143    0.000    4.571 
#    0.000    5.714    0.000    4.286    0.000    0.000 
#    0.000    0.000    0.000    0.000    0.000    0.000 
#
# Total GULP energy -347236.808698 kJ/mol
# GULP energy per Si atom -12401.314596 kJ/mol
# Density = 1.846128 g / cm^3
# Si number density = 18.503397 Si / 1000 Ang^3
#
#
#
# Elastic Constant Matrix: (Units=GPa)
#
#
# Indices 1 2 3 4 5 6 
#
# 1 104.1917 43.6049 79.4459 0.0000 2.6088 0.0000
# 2 43.6049 62.9406 37.5468 0.0000 1.7017 0.0000
# 3 79.4459 37.5468 113.0199 0.0000 -1.2712 0.0000
# 4 0.0000 0.0000 0.0000 16.4213 0.0000 1.4810
# 5 2.6088 1.7017 -1.2712 0.0000 23.0355 0.0000
# 6 0.0000 0.0000 0.0000 1.4810 0.0000 35.6819
#
#
#
# Elastic Compliance Matrix: (Units=1/GPa)
#
#
# Indices 1 2 3 4 5 6 
#
# 1 0.023731 -0.007972 -0.014065 0.000000 -0.002875 0.000000
# 2 -0.007972 0.022570 -0.001904 0.000000 -0.000870 0.000000
# 3 -0.014065 -0.001904 0.019399 0.000000 0.002804 0.000000
# 4 0.000000 0.000000 0.000000 0.061125 0.000000 -0.002537
# 5 -0.002875 -0.000870 0.002804 0.000000 0.043956 0.000000
# 6 0.000000 0.000000 0.000000 -0.002537 0.000000 0.028131
#
#
# Mechanical properties :
#
#
# Convention : Reuss Voigt Hill
#
# Bulk Modulus (GPa) = 56.12477 66.81636 61.47057
# Shear Modulus (GPa) = 19.78370 22.99805 21.39088
#
# Velocity S-wave (km/s) = 3.27340 3.52932 3.40376
# Velocity P-wave (km/s) = 6.68467 7.26614 6.98146
#
# Compressibility (1/GPa) = 0.01781745
#
# Stress axis : x y z
#
# Youngs Moduli (GPa) = 42.13961 44.30563 51.54950
#
# Poissons Ratio (x) = 0.35322 0.72504
# Poissons Ratio (y) = 0.33595 0.09815
# Poissons Ratio (z) = 0.59269 0.08436
#
# Static dielectric constant tensor:
#      x y z
#    x 3.392060 0.000000 -0.183810 
#    y 0.000000 3.335400 0.000000 
#    z -0.183810 0.000000 3.509320 
# 
# 
# High freq. dielectric constant tensor:
#      x y z
#    x 1.715150 0.000000 -0.016720 
#    y 0.000000 1.710860 0.000000 
#    z -0.016720 0.000000 1.714350 
# 
# From -- ./inp_files/68670.got.cif
#   From: 2010.06.25/outbox.cif.g09.slc.cpg/sg10_35_cif.got.tgz:68670.got - 2010.06.27 22:07:45.
