data_PCOD8061012
_publ_section_title
;
Structure prediction by ZEFSAII (Michael W. Deem and Ramdas Pophale) SiO2 
 PCOD8061012
Probable space group: P 2/M
;
_chemical_formula_sum "Si O2"
_cell_formula_units_Z 30
_cell_length_a 6.752583
_cell_length_b 33.263643
_cell_length_c 5.380739
_cell_angle_alpha 90.000000
_cell_angle_beta 102.863265
_cell_angle_gamma 90.000000
_cell_volume 1178.266632
_symmetry_space_group_name_H-M "P 2/M"
_symmetry_group_IT_number 10
_symmetry_cell_setting 'monoclinic'
loop_
_space_group_symop_operation_xyz
x,y,z
-x,y,-z
-x,-y,-z
x,-y,z
loop_
_atom_site_type_symbol
_atom_site_label
_atom_site_fract_x
_atom_site_fract_y
_atom_site_fract_z
Si Si1 0.758763 0.242818 0.933784
Si Si2 0.242798 0.334865 0.075352
Si Si3 0.674613 0.882401 0.243056
Si Si4 0.000000 0.910424 0.000000
Si Si5 0.628087 0.543851 0.285207
Si Si6 0.241498 0.201380 0.561632
Si Si7 0.771933 0.372191 0.425309
Si Si8 0.219542 0.955707 0.437815
O O1 0.692495 0.288781 0.881114
O O2 0.668419 0.219284 0.669563
O O3 0.670979 0.224672 0.168942
O O4 0.000000 0.238597 0.000000
O O5 0.331243 0.360825 0.336335
O O6 0.338412 0.350361 0.839495
O O7 0.000000 0.340689 0.000000
O O8 0.685490 0.844921 0.431126
O O9 0.634907 0.924706 0.374522
O O10 0.898400 0.882361 0.178724
O O11 0.500000 0.874860 0.000000
O O12 0.182985 0.938614 0.151511
O O13 0.500000 0.542715 0.500000
O O14 0.736996 0.500000 0.285131
O O15 0.784407 0.580186 0.370432
O O16 0.500000 0.552431 0.000000
O O17 0.000000 0.205690 0.500000
O O18 0.000000 0.355215 0.500000
O O19 0.000000 0.957877 0.500000
O O20 0.320622 0.000000 0.458954
#
# Coordination Sequence:
#
# PCOD8061012 Si02
#       8
#     4   4   4   2   4   4   4   4
#     4   9  18  32  57  86 116 153 198 244 294 358
#     4   9  17  31  52  85 118 145 188 243 295 354
#     4  11  25  40  60  90 124 161 203 254 310 372
#     4  10  21  40  66  86 122 158 204 250 308 372
#     4  10  21  37  55  77 110 153 199 241 291 357
#     4  10  20  35  59  86 118 156 203 250 295 356
#     4  10  19  32  56  84 116 146 190 245 295 350
#     4   9  19  38  63  91 121 157 202 252 306 367
#
# _framework density 25.461133
#
# number of rings (size 3 to 8) (size 9 to 14) (size 15 to 20)
#    0.000    2.267    0.000    3.000    4.667    4.800 
#    0.000    0.667    0.000   12.800    0.000    0.000 
#    0.000    0.000    0.000    0.000    0.000    0.000 
#
# Total GULP energy -371946.313703 kJ/mol
# GULP energy per Si atom -12398.210457 kJ/mol
# Density = 2.540318 g / cm^3
# Si number density = 25.461133 Si / 1000 Ang^3
#
#
#
# Elastic Constant Matrix: (Units=GPa)
#
#
# Indices 1 2 3 4 5 6 
#
# 1 30.7321 6.1294 39.6585 0.0000 -17.5479 0.0000
# 2 6.1294 218.3986 97.5281 0.0000 -2.6917 0.0000
# 3 39.6585 97.5281 215.4008 0.0000 -17.0512 0.0000
# 4 0.0000 0.0000 0.0000 0.5505 0.0000 61.7510
# 5 -17.5479 -2.6917 -17.0512 0.0000 40.2872 0.0000
# 6 0.0000 0.0000 0.0000 61.7510 0.0000 -95.2936
#
#
#
# Elastic Compliance Matrix: (Units=1/GPa)
#
#
# Indices 1 2 3 4 5 6 
#
# 1 0.057057 0.003276 -0.010350 0.000000 0.020690 0.000000
# 2 0.003276 0.005949 -0.003261 0.000000 0.000444 0.000000
# 3 -0.010350 -0.003261 0.007916 0.000000 -0.001376 0.000000
# 4 0.000000 0.000000 0.000000 0.024651 0.000000 0.015974
# 5 0.020690 0.000444 -0.001376 0.000000 0.033281 0.000000
# 6 0.000000 0.000000 0.000000 0.015974 0.000000 -0.000142
#
#
# Mechanical properties :
#
#
# Convention : Reuss Voigt Hill
#
# Bulk Modulus (GPa) = 19.90075 83.46263 51.68169
# Shear Modulus (GPa) = 30.09631 10.52319 20.30975
#
# Velocity S-wave (km/s) = 3.44182 2.03519 2.82738
# Velocity P-wave (km/s) = 4.86086 6.19470 5.56786
#
# Compressibility (1/GPa) = 0.05024937
#
# Stress axis : x y z
#
# Youngs Moduli (GPa) = 17.52643 168.10297 126.32764
#
# Poissons Ratio (x) = -0.55066 1.30753
# Poissons Ratio (y) = -0.05741 0.41201
# Poissons Ratio (z) = 0.18140 0.54825
#
# Static dielectric constant tensor:
#      x y z
#    x 4.184840 0.000000 -0.129050 
#    y 0.000000 4.816170 0.000000 
#    z -0.129050 0.000000 5.022570 
# 
# 
# High freq. dielectric constant tensor:
#      x y z
#    x 2.013560 0.000000 -0.001170 
#    y 0.000000 2.015290 0.000000 
#    z -0.001170 0.000000 2.037590 
# 
# From -- ./inp_files/5542.got.cif
#   From: 2010.06.25/outbox.cif.g09.slc.cpg/sg10_3_cif.got.tgz:5542.got - 2010.06.27 22:07:45.
