data_PCOD8061297
_publ_section_title
;
Structure prediction by ZEFSAII (Michael W. Deem and Ramdas Pophale) SiO2 
 PCOD8061297
Probable space group: P 2/M
;
_chemical_formula_sum "Si O2"
_cell_formula_units_Z 30
_cell_length_a 7.961487
_cell_length_b 13.049854
_cell_length_c 22.979725
_cell_angle_alpha 90.000000
_cell_angle_beta 140.180926
_cell_angle_gamma 90.000000
_cell_volume 1528.877003
_symmetry_space_group_name_H-M "P 2/M"
_symmetry_group_IT_number 10
_symmetry_cell_setting 'monoclinic'
loop_
_space_group_symop_operation_xyz
x,y,z
-x,y,-z
-x,-y,-z
x,-y,z
loop_
_atom_site_type_symbol
_atom_site_label
_atom_site_fract_x
_atom_site_fract_y
_atom_site_fract_z
Si Si1 0.276695 0.112030 0.896377
Si Si2 0.000000 0.225001 0.000000
Si Si3 0.119646 0.382870 0.588917
Si Si4 0.654833 0.678090 0.769967
Si Si5 0.605957 0.386206 0.889998
Si Si6 0.221144 0.378809 0.397526
Si Si7 0.070144 0.305347 0.786118
Si Si8 0.239480 0.110737 0.168768
O O1 0.210065 0.193462 0.827581
O O2 0.016253 0.093449 0.862312
O O3 0.362803 0.000000 0.893145
O O4 0.500000 0.153909 0.000000
O O5 0.782159 0.301653 0.971080
O O6 0.849666 0.150403 0.917403
O O7 0.028193 0.500000 0.562538
O O8 0.432911 0.373729 0.671559
O O9 0.000000 0.327256 0.500000
O O10 0.999057 0.338322 0.616025
O O11 0.654888 0.629018 0.833845
O O12 0.584136 0.800075 0.755285
O O13 0.937469 0.663838 0.812993
O O14 0.702782 0.500000 0.931991
O O15 0.301233 0.381352 0.827504
O O16 0.500000 0.350691 0.500000
O O17 0.204055 0.500000 0.378548
O O18 0.162793 0.312671 0.323802
O O19 0.387112 0.000000 0.203025
#
# Coordination Sequence:
#
# PCOD8061297 Si02
#       8
#     4   2   4   4   4   4   4   4
#     4   9  18  34  56  82 111 143 188 242 290 337
#     4  10  20  34  54  78 110 146 184 234 278 330
#     4  10  19  33  54  79 111 147 184 226 273 329
#     4  10  21  35  53  79 110 145 183 230 275 327
#     4  11  22  36  52  76 112 150 188 227 273 332
#     4  10  20  34  54  83 114 147 190 235 277 330
#     4  11  21  35  58  82 112 152 191 235 286 335
#     4   9  18  33  54  78 105 138 180 231 283 329
#
# _framework density 19.622246000000001
#
# number of rings (size 3 to 8) (size 9 to 14) (size 15 to 20)
#    0.000    2.000    1.333    2.800    0.000    3.200 
#    0.000    2.667    0.000   10.400    0.000    0.000 
#    0.000    0.000    0.000    0.000    0.000    0.000 
#
# Total GULP energy -371652.583716 kJ/mol
# GULP energy per Si atom -12388.419457 kJ/mol
# Density = 1.957759 g / cm^3
# Si number density = 19.622246 Si / 1000 Ang^3
#
#
#
# Elastic Constant Matrix: (Units=GPa)
#
#
# Indices 1 2 3 4 5 6 
#
# 1 86.8128 20.0802 14.3720 0.0000 -1.9903 0.0000
# 2 20.0802 94.0075 24.5804 0.0000 -9.7125 0.0000
# 3 14.3720 24.5804 75.6489 0.0000 1.2392 0.0000
# 4 0.0000 0.0000 0.0000 24.4292 0.0000 -1.9427
# 5 -1.9903 -9.7125 1.2392 0.0000 25.0909 0.0000
# 6 0.0000 0.0000 0.0000 -1.9427 0.0000 16.5021
#
#
#
# Elastic Compliance Matrix: (Units=1/GPa)
#
#
# Indices 1 2 3 4 5 6 
#
# 1 0.012298 -0.002178 -0.001632 0.000000 0.000213 0.000000
# 2 -0.002178 0.012590 -0.003757 0.000000 0.004886 0.000000
# 3 -0.001632 -0.003757 0.014788 0.000000 -0.002314 0.000000
# 4 0.000000 0.000000 0.000000 0.041321 0.000000 0.004864
# 5 0.000213 0.004886 -0.002314 0.000000 0.041878 0.000000
# 6 0.000000 0.000000 0.000000 0.004864 0.000000 0.061171
#
#
# Mechanical properties :
#
#
# Convention : Reuss Voigt Hill
#
# Bulk Modulus (GPa) = 40.74823 41.61495 41.18159
# Shear Modulus (GPa) = 24.11258 26.36687 25.23973
#
# Velocity S-wave (km/s) = 3.50928 3.66966 3.59037
# Velocity P-wave (km/s) = 6.10176 6.26173 6.18227
#
# Compressibility (1/GPa) = 0.02454094
#
# Stress axis : x y z
#
# Youngs Moduli (GPa) = 81.31442 79.42889 67.62365
#
# Poissons Ratio (x) = 0.17300 0.11037
# Poissons Ratio (y) = 0.17711 0.25406
# Poissons Ratio (z) = 0.13272 0.29842
#
# Static dielectric constant tensor:
#      x y z
#    x 3.621010 0.000000 0.012820 
#    y 0.000000 5.582580 0.000000 
#    z 0.012820 0.000000 3.501730 
# 
# 
# High freq. dielectric constant tensor:
#      x y z
#    x 1.767680 0.000000 0.003420 
#    y 0.000000 1.747830 0.000000 
#    z 0.003420 0.000000 1.747330 
# 
# From -- ./inp_files/88100.got.cif
#   From: 2010.06.25/outbox.cif.g09.slc.cpg/sg10_45_cif.got.tgz:88100.got - 2010.06.27 22:07:45.
