data_PCOD8061556
_publ_section_title
;
Structure prediction by ZEFSAII (Michael W. Deem and Ramdas Pophale) SiO2 
 PCOD8061556
Probable space group: P 2/M
;
_chemical_formula_sum "Si O2"
_cell_formula_units_Z 24
_cell_length_a 14.606681
_cell_length_b 8.878273
_cell_length_c 15.004719
_cell_angle_alpha 90.000000
_cell_angle_beta 40.102031
_cell_angle_gamma 90.000000
_cell_volume 1253.416534
_symmetry_space_group_name_H-M "P 2/M"
_symmetry_group_IT_number 10
_symmetry_cell_setting 'monoclinic'
loop_
_space_group_symop_operation_xyz
x,y,z
-x,y,-z
-x,-y,-z
x,-y,z
loop_
_atom_site_type_symbol
_atom_site_label
_atom_site_fract_x
_atom_site_fract_y
_atom_site_fract_z
Si Si1 0.104987 0.675215 0.311864
Si Si2 0.186651 0.822839 0.420545
Si Si3 0.708094 0.822956 0.181443
Si Si4 0.616840 0.823715 0.564981
Si Si5 0.183814 0.322957 0.726186
Si Si6 0.131349 0.673628 0.092070
O O1 0.072801 0.500000 0.352793
O O2 0.212885 0.738857 0.306529
O O3 0.172755 0.700204 0.164312
O O4 0.958352 0.765889 0.427204
O O5 0.315052 0.780760 0.390685
O O6 0.176367 0.000000 0.411091
O O7 0.545581 0.770622 0.312147
O O8 0.804082 0.743349 0.184031
O O9 0.722813 0.000000 0.181866
O O10 0.763464 0.775825 0.043321
O O11 0.692473 0.739619 0.428165
O O12 0.631752 0.000000 0.534832
O O13 0.200917 0.500000 0.718526
O O14 0.031318 0.275426 0.801022
O O15 0.150713 0.500000 0.049744
#
# Coordination Sequence:
#
# PCOD8061556 Si02
#       6
#     4   4   4   4   4   4
#     4  10  19  34  56  83 113 142 179 229 277 324
#     4  10  19  33  56  84 111 142 182 227 274 326
#     4  11  24  39  56  81 114 151 187 229 279 330
#     4  10  22  39  57  82 116 148 185 230 276 329
#     4  11  22  38  60  84 110 146 190 233 277 328
#     4  10  22  39  57  82 114 147 185 229 277 331
#
# _framework density 19.147666000000001
#
# number of rings (size 3 to 8) (size 9 to 14) (size 15 to 20)
#    0.000    1.667    1.667    4.000    0.000    8.667 
#    0.000    0.833    0.000    5.000    0.000    0.000 
#    0.000    0.000    0.000    0.000    0.000    0.000 
#
# Total GULP energy -297693.256263 kJ/mol
# GULP energy per Si atom -12403.885678 kJ/mol
# Density = 1.910408 g / cm^3
# Si number density = 19.147666 Si / 1000 Ang^3
#
#
#
# Elastic Constant Matrix: (Units=GPa)
#
#
# Indices 1 2 3 4 5 6 
#
# 1 73.6794 31.1185 25.1142 0.0000 24.2638 0.0000
# 2 31.1185 38.2319 30.1966 0.0000 7.8782 0.0000
# 3 25.1142 30.1966 104.9913 0.0000 16.4272 0.0000
# 4 0.0000 0.0000 0.0000 27.2862 0.0000 -22.9917
# 5 24.2638 7.8782 16.4272 0.0000 29.8099 0.0000
# 6 0.0000 0.0000 0.0000 -22.9917 0.0000 -126.5397
#
#
#
# Elastic Compliance Matrix: (Units=1/GPa)
#
#
# Indices 1 2 3 4 5 6 
#
# 1 0.027329 -0.020173 0.002091 0.000000 -0.018065 0.000000
# 2 -0.020173 0.049159 -0.010779 0.000000 0.009368 0.000000
# 3 0.002091 -0.010779 0.013072 0.000000 -0.006057 0.000000
# 4 0.000000 0.000000 0.000000 0.031783 0.000000 -0.005775
# 5 -0.018065 0.009368 -0.006057 0.000000 0.049112 0.000000
# 6 0.000000 0.000000 0.000000 -0.005775 0.000000 -0.006853
#
#
# Mechanical properties :
#
#
# Convention : Reuss Voigt Hill
#
# Bulk Modulus (GPa) = 31.40840 43.30680 37.35760
# Shear Modulus (GPa) = 21.55767 -5.19049 8.18359
#
# Velocity S-wave (km/s) = 3.35903 -1.64823 2.06959
# Velocity P-wave (km/s) = 5.61097 4.36396 5.02629
#
# Compressibility (1/GPa) = 0.03183862
#
# Stress axis : x y z
#
# Youngs Moduli (GPa) = 36.59140 20.34213 76.49829
#
# Poissons Ratio (x) = 0.41037 -0.16000
# Poissons Ratio (y) = 0.73817 0.82457
# Poissons Ratio (z) = -0.07653 0.21927
#
# Static dielectric constant tensor:
#      x y z
#    x 3.751710 0.000000 0.144210 
#    y 0.000000 3.517770 0.000000 
#    z 0.144210 0.000000 3.384640 
# 
# 
# High freq. dielectric constant tensor:
#      x y z
#    x 1.753680 0.000000 0.017530 
#    y 0.000000 1.752130 0.000000 
#    z 0.017530 0.000000 1.732380 
# 
# From -- ./inp_files/66316.got.cif
#   From: 2010.06.25/outbox.cif.g09.slc.cpg/sg10_34_cif.got.tgz:66316.got - 2010.06.27 22:07:45.
