data_PCOD8061111
_publ_section_title
;
Structure prediction by ZEFSAII (Michael W. Deem and Ramdas Pophale) SiO2 
 PCOD8061111
Probable space group: P 2/M
;
_chemical_formula_sum "Si O2"
_cell_formula_units_Z 28
_cell_length_a 31.562666
_cell_length_b 8.570146
_cell_length_c 31.562563
_cell_angle_alpha 90.000000
_cell_angle_beta 170.540575
_cell_angle_gamma 90.000000
_cell_volume 1403.141653
_symmetry_space_group_name_H-M "P 2/M"
_symmetry_group_IT_number 10
_symmetry_cell_setting 'monoclinic'
loop_
_space_group_symop_operation_xyz
x,y,z
-x,y,-z
-x,-y,-z
x,-y,z
loop_
_atom_site_type_symbol
_atom_site_label
_atom_site_fract_x
_atom_site_fract_y
_atom_site_fract_z
Si Si1 0.237803 0.313737 0.262219
Si Si2 0.904242 0.316597 0.595811
Si Si3 0.190125 0.315166 0.310034
Si Si4 0.049001 0.814668 0.450802
Si Si5 0.664865 0.685389 0.835354
Si Si6 0.381987 0.816507 0.118080
Si Si7 0.476321 0.815077 0.023841
O O1 0.500000 0.250400 0.500000
O O2 0.237454 0.500000 0.262653
O O3 0.213884 0.246102 0.286151
O O4 0.000000 0.250426 0.000000
O O5 0.901397 0.500000 0.598698
O O6 0.928682 0.272355 0.571236
O O7 0.643176 0.249789 0.356969
O O8 0.143130 0.249766 0.856908
O O9 0.191389 0.500000 0.308535
O O10 0.926163 0.257155 0.070761
O O11 0.429556 0.257214 0.574123
O O12 0.787671 0.757540 0.215396
O O13 0.052781 0.000000 0.447023
O O14 0.284275 0.757575 0.712036
O O15 0.661224 0.500000 0.839066
O O16 0.642521 0.771751 0.857458
O O17 0.384774 0.000000 0.115352
O O18 0.477739 0.000000 0.022256
O O19 0.500000 0.743625 0.000000
#
# Coordination Sequence:
#
# PCOD8061111 Si02
#       7
#     4   4   4   4   4   4   4
#     4   9  15  23  37  61  97 137 174 215 267 323
#     4  12  25  42  63  88 120 157 196 238 294 357
#     4   9  17  28  45  70 102 141 180 221 273 334
#     4  10  19  33  55  82 113 149 192 239 283 331
#     4  10  19  33  52  75 106 142 181 225 281 342
#     4  12  25  42  63  88 117 150 195 246 295 346
#     4   9  17  30  52  82 113 147 190 237 281 329
#
# _framework density 19.955221000000002
#
# number of rings (size 3 to 8) (size 9 to 14) (size 15 to 20)
#    0.000    1.857    0.000    5.571    0.000    7.429 
#    0.000    0.000    0.000    2.571    0.000    0.000 
#    0.000   11.429    0.000    0.000    0.000    0.000 
#
# Total GULP energy -347273.933717 kJ/mol
# GULP energy per Si atom -12402.640490 kJ/mol
# Density = 1.990980 g / cm^3
# Si number density = 19.955221 Si / 1000 Ang^3
#
#
#
# Elastic Constant Matrix: (Units=GPa)
#
#
# Indices 1 2 3 4 5 6 
#
# 1 210.1881 48.7803 120.7770 0.0000 -0.0710 0.0000
# 2 48.7803 78.9928 46.7054 0.0000 -0.1869 0.0000
# 3 120.7770 46.7054 232.4963 0.0000 2.4174 0.0000
# 4 0.0000 0.0000 0.0000 15.1784 0.0000 -1.3549
# 5 -0.0710 -0.1869 2.4174 0.0000 43.4963 0.0000
# 6 0.0000 0.0000 0.0000 -1.3549 0.0000 30.7951
#
#
#
# Elastic Compliance Matrix: (Units=1/GPa)
#
#
# Indices 1 2 3 4 5 6 
#
# 1 0.007205 -0.002536 -0.003235 0.000000 0.000181 0.000000
# 2 -0.002536 0.015260 -0.001750 0.000000 0.000159 0.000000
# 3 -0.003235 -0.001750 0.006337 0.000000 -0.000365 0.000000
# 4 0.000000 0.000000 0.000000 0.066143 0.000000 0.002910
# 5 0.000181 0.000159 -0.000365 0.000000 0.023012 0.000000
# 6 0.000000 0.000000 0.000000 0.002910 0.000000 0.032601
#
#
# Mechanical properties :
#
#
# Convention : Reuss Voigt Hill
#
# Bulk Modulus (GPa) = 72.67277 106.02250 89.34764
# Shear Modulus (GPa) = 29.37927 38.25492 33.81709
#
# Velocity S-wave (km/s) = 3.84117 4.38315 4.12108
# Velocity P-wave (km/s) = 7.49465 8.88040 8.21679
#
# Compressibility (1/GPa) = 0.01376031
#
# Stress axis : x y z
#
# Youngs Moduli (GPa) = 138.78403 65.52869 157.79784
#
# Poissons Ratio (x) = 0.16619 0.51055
# Poissons Ratio (y) = 0.35197 0.27612
# Poissons Ratio (z) = 0.44903 0.11466
#
# Static dielectric constant tensor:
#      x y z
#    x 3.933340 0.000000 0.012300 
#    y 0.000000 3.176330 0.000000 
#    z 0.012300 0.000000 4.075500 
# 
# 
# High freq. dielectric constant tensor:
#      x y z
#    x 1.801530 0.000000 0.000120 
#    y 0.000000 1.729340 0.000000 
#    z 0.000120 0.000000 1.802770 
# 
# From -- ./inp_files/95999.got.cif
#   From: 2010.06.25/outbox.cif.g09.slc.cpg/sg10_48_cif.got.tgz:95999.got - 2010.06.27 22:07:45.
