data_PCOD8061989
_publ_section_title
;
Structure prediction by ZEFSAII (Michael W. Deem and Ramdas Pophale) SiO2 
 PCOD8061989
Probable space group: P 2/M
;
_chemical_formula_sum "Si O2"
_cell_formula_units_Z 32
_cell_length_a 12.512542
_cell_length_b 13.123127
_cell_length_c 14.573295
_cell_angle_alpha 90.000000
_cell_angle_beta 135.661561
_cell_angle_gamma 90.000000
_cell_volume 1672.448456
_symmetry_space_group_name_H-M "P 2/M"
_symmetry_group_IT_number 10
_symmetry_cell_setting 'monoclinic'
loop_
_space_group_symop_operation_xyz
x,y,z
-x,y,-z
-x,-y,-z
x,-y,z
loop_
_atom_site_type_symbol
_atom_site_label
_atom_site_fract_x
_atom_site_fract_y
_atom_site_fract_z
Si Si1 0.466182 0.884560 0.580858
Si Si2 0.229275 0.384256 0.772133
Si Si3 0.323413 0.614500 0.636131
Si Si4 0.122115 0.115204 0.325218
Si Si5 0.043970 0.247380 0.432722
Si Si6 0.210275 0.620734 0.961954
Si Si7 0.922484 0.725644 0.856023
Si Si8 0.623555 0.701745 0.767259
O O1 0.500000 0.843049 0.500000
O O2 0.283728 0.881582 0.477766
O O3 0.555098 0.815208 0.709394
O O4 0.528424 0.000000 0.631426
O O5 0.193887 0.500000 0.770150
O O6 0.352048 0.368794 0.764654
O O7 0.273028 0.343069 0.900384
O O8 0.071366 0.340631 0.639856
O O9 0.259346 0.500000 0.580920
O O10 0.211623 0.701882 0.529780
O O11 0.481653 0.623572 0.676939
O O12 0.010539 0.170534 0.328836
O O13 0.114424 0.172180 0.223400
O O14 0.068959 0.000000 0.274444
O O15 0.000000 0.188053 0.500000
O O16 0.234174 0.500000 0.996926
O O17 0.028944 0.647491 0.863970
O O18 0.304447 0.693071 0.087619
O O19 0.756654 0.673639 0.775430
O O20 0.000000 0.757666 0.000000
#
# Coordination Sequence:
#
# PCOD8061989 Si02
#       8
#     4   4   4   4   4   4   4   4
#     4  10  20  36  58  79 103 138 180 229 280 327
#     4   9  18  34  57  80 108 147 187 225 274 333
#     4  10  20  33  53  84 113 142 185 235 278 323
#     4  11  21  36  59  84 110 142 187 236 282 330
#     4  10  19  34  57  83 113 144 179 229 287 338
#     4  10  21  37  57  79 109 152 190 224 276 334
#     4  10  22  37  56  81 114 150 187 227 275 330
#     4  11  21  34  55  80 111 143 184 231 273 327
#
# _framework density 19.133624999999999
#
# number of rings (size 3 to 8) (size 9 to 14) (size 15 to 20)
#    0.000    1.875    3.750    0.750    0.000    5.250 
#    0.000    3.750    0.000    2.250    0.000    0.875 
#    0.000    0.000    0.000    0.000    0.000    0.000 
#
# Total GULP energy -396434.750797 kJ/mol
# GULP energy per Si atom -12388.585962 kJ/mol
# Density = 1.909008 g / cm^3
# Si number density = 19.133625 Si / 1000 Ang^3
#
#
#
# Elastic Constant Matrix: (Units=GPa)
#
#
# Indices 1 2 3 4 5 6 
#
# 1 85.1320 37.3819 25.0020 0.0000 -7.1580 0.0000
# 2 37.3819 81.3573 40.5389 0.0000 -13.4134 0.0000
# 3 25.0020 40.5389 65.1391 0.0000 -11.3663 0.0000
# 4 0.0000 0.0000 0.0000 30.3018 0.0000 -4.5397
# 5 -7.1580 -13.4134 -11.3663 0.0000 33.2364 0.0000
# 6 0.0000 0.0000 0.0000 -4.5397 0.0000 18.5360
#
#
#
# Elastic Compliance Matrix: (Units=1/GPa)
#
#
# Indices 1 2 3 4 5 6 
#
# 1 0.014915 -0.005780 -0.002099 0.000000 0.000161 0.000000
# 2 -0.005780 0.020474 -0.009889 0.000000 0.003636 0.000000
# 3 -0.002099 -0.009889 0.022903 0.000000 0.003390 0.000000
# 4 0.000000 0.000000 0.000000 0.034258 0.000000 0.008390
# 5 0.000161 0.003636 0.003390 0.000000 0.032749 0.000000
# 6 0.000000 0.000000 0.000000 0.008390 0.000000 0.056004
#
#
# Mechanical properties :
#
#
# Convention : Reuss Voigt Hill
#
# Bulk Modulus (GPa) = 43.94553 48.60823 46.27688
# Shear Modulus (GPa) = 22.27910 24.99522 23.63716
#
# Velocity S-wave (km/s) = 3.41603 3.61827 3.51860
# Velocity P-wave (km/s) = 6.21100 6.55100 6.38326
#
# Compressibility (1/GPa) = 0.02275544
#
# Stress axis : x y z
#
# Youngs Moduli (GPa) = 67.04775 48.84133 43.66201
#
# Poissons Ratio (x) = 0.28233 0.09165
# Poissons Ratio (y) = 0.38757 0.43177
# Poissons Ratio (z) = 0.14074 0.48299
#
# Static dielectric constant tensor:
#      x y z
#    x 4.001690 0.000000 -0.160100 
#    y 0.000000 3.308060 0.000000 
#    z -0.160100 0.000000 3.468030 
# 
# 
# High freq. dielectric constant tensor:
#      x y z
#    x 1.755610 0.000000 -0.006660 
#    y 0.000000 1.720600 0.000000 
#    z -0.006660 0.000000 1.731390 
# 
# From -- ./inp_files/67356.got.cif
#   From: 2010.06.25/outbox.cif.g09.slc.cpg/sg10_34_cif.got.tgz:67356.got - 2010.06.27 22:07:45.
