data_PCOD8061459
_publ_section_title
;
Structure prediction by ZEFSAII (Michael W. Deem and Ramdas Pophale) SiO2 
 PCOD8061459
Probable space group: P 2/M
;
_chemical_formula_sum "Si O2"
_cell_formula_units_Z 28
_cell_length_a 16.083607
_cell_length_b 8.960364
_cell_length_c 20.330285
_cell_angle_alpha 90.000000
_cell_angle_beta 149.994203
_cell_angle_gamma 90.000000
_cell_volume 1465.205953
_symmetry_space_group_name_H-M "P 2/M"
_symmetry_group_IT_number 10
_symmetry_cell_setting 'monoclinic'
loop_
_space_group_symop_operation_xyz
x,y,z
-x,y,-z
-x,-y,-z
x,-y,z
loop_
_atom_site_type_symbol
_atom_site_label
_atom_site_fract_x
_atom_site_fract_y
_atom_site_fract_z
Si Si1 0.451019 0.322209 0.895213
Si Si2 0.305568 0.323218 0.052902
Si Si3 0.916289 0.322922 0.377429
Si Si4 0.928744 0.323995 0.768634
Si Si5 0.823422 0.323606 0.552344
Si Si6 0.479348 0.823832 0.293496
Si Si7 0.643460 0.175386 0.646975
O O1 0.450368 0.500000 0.896722
O O2 0.580278 0.266053 0.928917
O O3 0.269232 0.257605 0.754110
O O4 0.500000 0.258050 0.000000
O O5 0.321491 0.500000 0.073333
O O6 0.360121 0.243465 0.156822
O O7 0.118300 0.273708 0.908355
O O8 0.907695 0.500000 0.376685
O O9 0.000000 0.255023 0.500000
O O10 0.020253 0.275202 0.384781
O O11 0.912748 0.500000 0.762707
O O12 0.862738 0.267708 0.652765
O O13 0.818268 0.251301 0.749835
O O14 0.793351 0.500000 0.528706
O O15 0.662480 0.243881 0.412696
O O16 0.402409 0.778330 0.310771
O O17 0.491023 0.000000 0.293044
O O18 0.500000 0.235935 0.500000
O O19 0.664984 0.000000 0.653177
#
# Coordination Sequence:
#
# PCOD8061459 Si02
#       7
#     4   4   4   4   4   4   4
#     4   9  16  29  52  79 109 144 180 219 263 316
#     4  10  21  37  56  84 118 147 179 224 276 326
#     4   9  16  26  45  75 106 137 174 214 259 312
#     4  10  21  35  56  85 113 140 176 225 279 330
#     4  10  19  33  55  83 111 140 180 229 276 322
#     4  11  23  38  57  80 108 146 188 228 273 328
#     4  10  21  39  59  79 106 142 187 230 269 324
#
# _framework density 19.109942
#
# number of rings (size 3 to 8) (size 9 to 14) (size 15 to 20)
#    0.000    2.143    1.429    2.143    0.000    8.286 
#    0.000    2.857    0.000    4.286    0.000    0.000 
#    0.000    0.000    0.000    0.000    0.000    0.000 
#
# Total GULP energy -347278.772262 kJ/mol
# GULP energy per Si atom -12402.813295 kJ/mol
# Density = 1.906645 g / cm^3
# Si number density = 19.109942 Si / 1000 Ang^3
#
#
#
# Elastic Constant Matrix: (Units=GPa)
#
#
# Indices 1 2 3 4 5 6 
#
# 1 132.6308 26.4603 64.6389 0.0000 6.2810 0.0000
# 2 26.4603 23.9359 25.6714 0.0000 1.5335 0.0000
# 3 64.6389 25.6714 139.4600 0.0000 5.8674 0.0000
# 4 0.0000 0.0000 0.0000 13.2790 0.0000 -10.2432
# 5 6.2810 1.5335 5.8674 0.0000 44.1384 0.0000
# 6 0.0000 0.0000 0.0000 -10.2432 0.0000 8.3977
#
#
#
# Elastic Compliance Matrix: (Units=1/GPa)
#
#
# Indices 1 2 3 4 5 6 
#
# 1 0.010941 -0.008275 -0.003514 0.000000 -0.000802 0.000000
# 2 -0.008275 0.058326 -0.006904 0.000000 0.000069 0.000000
# 3 -0.003514 -0.006904 0.010096 0.000000 -0.000602 0.000000
# 4 0.000000 0.000000 0.000000 1.274284 0.000000 1.554326
# 5 -0.000802 0.000069 -0.000602 0.000000 0.022848 0.000000
# 6 0.000000 0.000000 0.000000 1.554326 0.000000 2.014993
#
#
# Mechanical properties :
#
#
# Convention : Reuss Voigt Hill
#
# Bulk Modulus (GPa) = 23.82278 58.84086 41.33182
# Shear Modulus (GPa) = 1.45228 25.11342 13.28285
#
# Velocity S-wave (km/s) = 0.87270 3.62906 2.63929
# Velocity P-wave (km/s) = 3.67542 6.95828 5.56446
#
# Compressibility (1/GPa) = 0.04197663
#
# Stress axis : x y z
#
# Youngs Moduli (GPa) = 91.39706 17.14504 99.05334
#
# Poissons Ratio (x) = 0.14187 0.34810
# Poissons Ratio (y) = 0.75628 0.68387
# Poissons Ratio (z) = 0.32119 0.11837
#
# Static dielectric constant tensor:
#      x y z
#    x 3.651460 0.000000 -0.010770 
#    y 0.000000 3.059360 0.000000 
#    z -0.010770 0.000000 3.662660 
# 
# 
# High freq. dielectric constant tensor:
#      x y z
#    x 1.759190 0.000000 0.001720 
#    y 0.000000 1.699240 0.000000 
#    z 0.001720 0.000000 1.756200 
# 
# From -- ./inp_files/84985.got.cif
#   From: 2010.06.25/outbox.cif.g09.slc.cpg/sg10_43_cif.got.tgz:84985.got - 2010.06.27 22:07:45.
