data_PCOD8061183
_publ_section_title
;
Structure prediction by ZEFSAII (Michael W. Deem and Ramdas Pophale) SiO2 
 PCOD8061183
Probable space group: P 2/M
;
_chemical_formula_sum "Si O2"
_cell_formula_units_Z 32
_cell_length_a 24.059907
_cell_length_b 8.873524
_cell_length_c 18.597774
_cell_angle_alpha 90.000000
_cell_angle_beta 24.566300
_cell_angle_gamma 90.000000
_cell_volume 1650.741403
_symmetry_space_group_name_H-M "P 2/M"
_symmetry_group_IT_number 10
_symmetry_cell_setting 'monoclinic'
loop_
_space_group_symop_operation_xyz
x,y,z
-x,y,-z
-x,-y,-z
x,-y,z
loop_
_atom_site_type_symbol
_atom_site_label
_atom_site_fract_x
_atom_site_fract_y
_atom_site_fract_z
Si Si1 0.646598 0.173515 0.518187
Si Si2 0.875646 0.336462 0.484230
Si Si3 0.362874 0.179041 0.631930
Si Si4 0.164133 0.319325 0.136285
Si Si5 0.150433 0.822523 0.998226
Si Si6 0.578983 0.174130 0.107609
Si Si7 0.582455 0.321757 0.831971
Si Si8 0.112479 0.664443 0.698075
O O1 0.655497 0.239578 0.427301
O O2 0.498254 0.192275 0.725622
O O3 0.744936 0.269721 0.450600
O O4 0.691265 0.000000 0.468119
O O5 0.866811 0.500000 0.532685
O O6 0.733641 0.253029 0.666665
O O7 0.891389 0.357014 0.381552
O O8 0.018423 0.260103 0.338966
O O9 0.500000 0.247995 0.500000
O O10 0.246818 0.234038 0.821350
O O11 0.370331 0.000000 0.620679
O O12 0.165183 0.500000 0.133187
O O13 0.190325 0.258514 0.025271
O O14 0.279498 0.259872 0.053557
O O15 0.160693 0.000000 0.999344
O O16 0.004127 0.778583 0.141324
O O17 0.489201 0.242123 0.149998
O O18 0.606884 0.000000 0.057435
O O19 0.591877 0.500000 0.804396
O O20 0.500000 0.285754 0.000000
O O21 0.091794 0.500000 0.758727
#
# Coordination Sequence:
#
# PCOD8061183 Si02
#       8
#     4   4   4   4   4   4   4   4
#     4  10  20  34  54  78 103 139 187 230 275 326
#     4   8  16  33  55  80 108 141 182 221 266 324
#     4   9  18  33  51  71 101 140 181 228 279 330
#     4  10  20  35  57  82 112 150 187 228 275 330
#     4  10  19  33  54  78 107 141 184 233 277 325
#     4  11  22  36  57  86 115 143 185 235 278 329
#     4  10  20  37  62  87 112 145 183 225 277 336
#     4  10  19  33  53  76 107 142 178 225 275 330
#
# _framework density 19.385228000000001
#
# number of rings (size 3 to 8) (size 9 to 14) (size 15 to 20)
#    0.000    2.250    1.250    3.000    0.000    3.250 
#    0.000    5.000    0.000    6.375    0.000    0.000 
#    0.000    0.000    0.000    0.000    0.000    0.000 
#
# Total GULP energy -396558.814941 kJ/mol
# GULP energy per Si atom -12392.462967 kJ/mol
# Density = 1.934111 g / cm^3
# Si number density = 19.385228 Si / 1000 Ang^3
#
#
#
# Elastic Constant Matrix: (Units=GPa)
#
#
# Indices 1 2 3 4 5 6 
#
# 1 52.4696 23.9316 46.4270 0.0000 -10.0507 0.0000
# 2 23.9316 63.8825 36.8301 0.0000 -3.4224 0.0000
# 3 46.4270 36.8301 155.5211 0.0000 -15.4745 0.0000
# 4 0.0000 0.0000 0.0000 19.3122 0.0000 0.1673
# 5 -10.0507 -3.4224 -15.4745 0.0000 33.7081 0.0000
# 6 0.0000 0.0000 0.0000 0.1673 0.0000 11.7316
#
#
#
# Elastic Compliance Matrix: (Units=1/GPa)
#
#
# Indices 1 2 3 4 5 6 
#
# 1 0.028869 -0.006792 -0.006519 0.000000 0.004925 0.000000
# 2 -0.006792 0.019728 -0.002773 0.000000 -0.001295 0.000000
# 3 -0.006519 -0.002773 0.009233 0.000000 0.002013 0.000000
# 4 0.000000 0.000000 0.000000 0.051787 0.000000 -0.000739
# 5 0.004925 -0.001295 0.002013 0.000000 0.031928 0.000000
# 6 0.000000 0.000000 0.000000 -0.000739 0.000000 0.085251
#
#
# Mechanical properties :
#
#
# Convention : Reuss Voigt Hill
#
# Bulk Modulus (GPa) = 38.97115 54.02787 46.49951
# Shear Modulus (GPa) = 18.69033 23.92934 21.30984
#
# Velocity S-wave (km/s) = 3.10845 3.51723 3.31914
# Velocity P-wave (km/s) = 5.74721 6.66526 6.22319
#
# Compressibility (1/GPa) = 0.02566001
#
# Stress axis : x y z
#
# Youngs Moduli (GPa) = 34.63958 50.69035 108.30423
#
# Poissons Ratio (x) = 0.34430 0.70608
# Poissons Ratio (y) = 0.23528 0.30033
# Poissons Ratio (z) = 0.22583 0.14057
#
# Static dielectric constant tensor:
#      x y z
#    x 3.480530 0.000000 -0.273190 
#    y 0.000000 3.402320 0.000000 
#    z -0.273190 0.000000 3.997810 
# 
# 
# High freq. dielectric constant tensor:
#      x y z
#    x 1.738360 0.000000 -0.016340 
#    y 0.000000 1.731430 0.000000 
#    z -0.016340 0.000000 1.769420 
# 
# From -- ./inp_files/86770.got.cif
#   From: 2010.06.25/outbox.cif.g09.slc.cpg/sg10_44_cif.got.tgz:86770.got - 2010.06.27 22:07:45.
