data_PCOD8061413
_publ_section_title
;
Structure prediction by ZEFSAII (Michael W. Deem and Ramdas Pophale) SiO2 
 PCOD8061413
Probable space group: P 2/M
;
_chemical_formula_sum "Si O2"
_cell_formula_units_Z 28
_cell_length_a 23.507304
_cell_length_b 8.786770
_cell_length_c 20.494563
_cell_angle_alpha 90.000000
_cell_angle_beta 160.647668
_cell_angle_gamma 90.000000
_cell_volume 1402.788433
_symmetry_space_group_name_H-M "P 2/M"
_symmetry_group_IT_number 10
_symmetry_cell_setting 'monoclinic'
loop_
_space_group_symop_operation_xyz
x,y,z
-x,y,-z
-x,-y,-z
x,-y,z
loop_
_atom_site_type_symbol
_atom_site_label
_atom_site_fract_x
_atom_site_fract_y
_atom_site_fract_z
Si Si1 0.170149 0.679556 0.875684
Si Si2 0.089086 0.829957 0.659901
Si Si3 0.752513 0.178887 0.599161
Si Si4 0.475845 0.818487 0.401003
Si Si5 0.465201 0.181736 0.755854
Si Si6 0.116721 0.819999 0.952073
Si Si7 0.517389 0.831169 0.949452
O O1 0.180324 0.500000 0.885627
O O2 0.057246 0.733656 0.691124
O O3 0.080705 0.737575 0.844729
O O4 0.359988 0.747788 0.081455
O O5 0.000000 0.753256 0.500000
O O6 0.013257 0.000000 0.588233
O O7 0.288547 0.837751 0.862498
O O8 0.633239 0.248430 0.527645
O O9 0.684856 0.234037 0.455180
O O10 0.954047 0.222440 0.822997
O O11 0.728683 0.000000 0.578060
O O12 0.500000 0.754055 0.500000
O O13 0.477198 0.000000 0.402907
O O14 0.292261 0.760699 0.175082
O O15 0.420189 0.241624 0.781169
O O16 0.490679 0.000000 0.785296
O O17 0.123694 0.000000 0.947097
O O18 0.440672 0.000000 0.878227
O O19 0.500000 0.740371 0.000000
#
# Coordination Sequence:
#
# PCOD8061413 Si02
#       7
#     4   4   4   4   4   4   4
#     4  11  21  33  51  74 104 143 183 223 273 323
#     4   9  18  32  51  73  99 135 179 224 270 321
#     4   9  17  29  51  81 106 138 179 220 271 322
#     4   9  17  30  51  82 117 143 169 219 277 323
#     4   9  16  31  52  72 100 135 177 224 268 321
#     4  10  19  33  55  80 108 141 181 224 265 321
#     4   8  14  24  42  68  94 122 159 210 260 302
#
# _framework density 19.960246000000001
#
# number of rings (size 3 to 8) (size 9 to 14) (size 15 to 20)
#    0.000    2.714    1.429    2.143    0.000    2.000 
#    0.000    7.857    0.000    7.286    0.000    1.000 
#    0.000    0.000    0.000    0.000    0.000    0.000 
#
# Total GULP energy -346902.647302 kJ/mol
# GULP energy per Si atom -12389.380261 kJ/mol
# Density = 1.991482 g / cm^3
# Si number density = 19.960246 Si / 1000 Ang^3
#
#
#
# Elastic Constant Matrix: (Units=GPa)
#
#
# Indices 1 2 3 4 5 6 
#
# 1 168.1484 15.4418 69.2831 0.0000 -14.8998 0.0000
# 2 15.4418 36.5146 13.9915 0.0000 -3.8606 0.0000
# 3 69.2831 13.9915 99.8175 0.0000 -8.4356 0.0000
# 4 0.0000 0.0000 0.0000 4.0458 0.0000 -1.0324
# 5 -14.8998 -3.8606 -8.4356 0.0000 33.6332 0.0000
# 6 0.0000 0.0000 0.0000 -1.0324 0.0000 3.9141
#
#
#
# Elastic Compliance Matrix: (Units=1/GPa)
#
#
# Indices 1 2 3 4 5 6 
#
# 1 0.008558 -0.001245 -0.005576 0.000000 0.002250 0.000000
# 2 -0.001245 0.029305 -0.003071 0.000000 0.002042 0.000000
# 3 -0.005576 -0.003071 0.014385 0.000000 0.000785 0.000000
# 4 0.000000 0.000000 0.000000 0.265009 0.000000 0.069901
# 5 0.002250 0.002042 0.000785 0.000000 0.031161 0.000000
# 6 0.000000 0.000000 0.000000 0.069901 0.000000 0.273922
#
#
# Mechanical properties :
#
#
# Convention : Reuss Voigt Hill
#
# Bulk Modulus (GPa) = 30.80186 55.76816 43.28501
# Shear Modulus (GPa) = 7.65761 22.03624 14.84693
#
# Velocity S-wave (km/s) = 1.96081 3.32626 2.73027
# Velocity P-wave (km/s) = 4.53778 6.53853 5.62778
#
# Compressibility (1/GPa) = 0.03246557
#
# Stress axis : x y z
#
# Youngs Moduli (GPa) = 116.84774 34.12338 69.51635
#
# Poissons Ratio (x) = 0.04248 0.38759
# Poissons Ratio (y) = 0.14546 0.21349
# Poissons Ratio (z) = 0.65149 0.10480
#
# Static dielectric constant tensor:
#      x y z
#    x 4.029430 0.000000 -0.249460 
#    y 0.000000 3.006260 0.000000 
#    z -0.249460 0.000000 3.743750 
# 
# 
# High freq. dielectric constant tensor:
#      x y z
#    x 1.791530 0.000000 -0.009740 
#    y 0.000000 1.704110 0.000000 
#    z -0.009740 0.000000 1.775680 
# 
# From -- ./inp_files/86437.got.cif
#   From: 2010.06.25/outbox.cif.g09.slc.cpg/sg10_44_cif.got.tgz:86437.got - 2010.06.27 22:07:45.
