data_PCOD8061634
_publ_section_title
;
Structure prediction by ZEFSAII (Michael W. Deem and Ramdas Pophale) SiO2 
 PCOD8061634
Probable space group: P 2/M
;
_chemical_formula_sum "Si O2"
_cell_formula_units_Z 28
_cell_length_a 17.596908
_cell_length_b 10.371715
_cell_length_c 21.008915
_cell_angle_alpha 90.000000
_cell_angle_beta 20.856929
_cell_angle_gamma 90.000000
_cell_volume 1365.161468
_symmetry_space_group_name_H-M "P 2/M"
_symmetry_group_IT_number 10
_symmetry_cell_setting 'monoclinic'
loop_
_space_group_symop_operation_xyz
x,y,z
-x,y,-z
-x,-y,-z
x,-y,z
loop_
_atom_site_type_symbol
_atom_site_label
_atom_site_fract_x
_atom_site_fract_y
_atom_site_fract_z
Si Si1 0.968704 0.352643 0.708221
Si Si2 0.895728 0.145670 0.207598
Si Si3 0.611811 0.141450 0.157781
Si Si4 0.334053 0.639860 0.685749
Si Si5 0.828576 0.348209 0.683307
Si Si6 0.453176 0.647063 0.888950
Si Si7 0.359745 0.223214 0.468681
O O1 0.031271 0.500000 0.647451
O O2 0.874907 0.288739 0.716747
O O3 0.177558 0.280865 0.567155
O O4 0.793376 0.340495 0.900415
O O5 0.830558 0.245990 0.203029
O O6 0.745051 0.154573 0.387999
O O7 0.871570 0.000000 0.199874
O O8 0.139455 0.177916 0.032351
O O9 0.495720 0.252540 0.207350
O O10 0.497114 0.128898 0.316178
O O11 0.591435 0.000000 0.141123
O O12 0.500000 0.626134 0.500000
O O13 0.217673 0.500000 0.785723
O O14 0.468808 0.669738 0.643657
O O15 0.855597 0.500000 0.668535
O O16 0.592641 0.315622 0.842007
O O17 0.000000 0.290276 0.500000
O O18 0.508279 0.500000 0.823867
#
# Coordination Sequence:
#
# PCOD8061634 Si02
#       7
#     4   4   4   4   4   4   4
#     4  10  19  33  57  88 121 155 194 243 295 351
#     4  10  22  41  61  83 115 155 197 244 294 351
#     4  11  24  40  60  88 119 156 202 248 292 351
#     4   9  20  37  60  88 119 152 192 243 297 351
#     4   9  17  30  52  85 121 153 192 240 290 347
#     4  10  20  36  59  87 118 157 198 242 295 349
#     4  11  21  37  61  86 116 157 197 242 295 352
#
# _framework density 20.510394999999999
#
# number of rings (size 3 to 8) (size 9 to 14) (size 15 to 20)
#    0.000    2.000    1.429    2.143    0.000    8.857 
#    0.000    2.143    0.000    6.429    0.000    0.000 
#    0.000    0.000    0.000    0.000    0.000    0.000 
#
# Total GULP energy -347020.733229 kJ/mol
# GULP energy per Si atom -12393.597615 kJ/mol
# Density = 2.046371 g / cm^3
# Si number density = 20.510395 Si / 1000 Ang^3
#
#
#
# Elastic Constant Matrix: (Units=GPa)
#
#
# Indices 1 2 3 4 5 6 
#
# 1 116.3019 63.1490 29.3814 0.0000 -19.4938 0.0000
# 2 63.1490 118.8866 27.4354 0.0000 -20.8531 0.0000
# 3 29.3814 27.4354 65.3722 0.0000 -1.3800 0.0000
# 4 0.0000 0.0000 0.0000 64.0956 0.0000 12.1187
# 5 -19.4938 -20.8531 -1.3800 0.0000 25.4152 0.0000
# 6 0.0000 0.0000 0.0000 12.1187 0.0000 21.0216
#
#
#
# Elastic Compliance Matrix: (Units=1/GPa)
#
#
# Indices 1 2 3 4 5 6 
#
# 1 0.013324 -0.005223 -0.003675 0.000000 0.005734 0.000000
# 2 -0.005223 0.013015 -0.002977 0.000000 0.006511 0.000000
# 3 -0.003675 -0.002977 0.018108 0.000000 -0.004278 0.000000
# 4 0.000000 0.000000 0.000000 0.017510 0.000000 -0.010095
# 5 0.005734 0.006511 -0.004278 0.000000 0.048855 0.000000
# 6 0.000000 0.000000 0.000000 -0.010095 0.000000 0.053390
#
#
# Mechanical properties :
#
#
# Convention : Reuss Voigt Hill
#
# Bulk Modulus (GPa) = 48.31950 60.05469 54.18710
# Shear Modulus (GPa) = 25.66059 34.14614 29.90336
#
# Velocity S-wave (km/s) = 3.54093 4.08465 3.82247
# Velocity P-wave (km/s) = 6.35037 7.18258 6.77926
#
# Compressibility (1/GPa) = 0.02069558
#
# Stress axis : x y z
#
# Youngs Moduli (GPa) = 75.05166 76.83522 55.22434
#
# Poissons Ratio (x) = 0.40134 0.20297
# Poissons Ratio (y) = 0.39202 0.16440
# Poissons Ratio (z) = 0.27584 0.22874
#
# Static dielectric constant tensor:
#      x y z
#    x 3.857610 0.000000 0.011670 
#    y 0.000000 3.605250 0.000000 
#    z 0.011670 0.000000 3.708180 
# 
# 
# High freq. dielectric constant tensor:
#      x y z
#    x 1.802480 0.000000 -0.005810 
#    y 0.000000 1.773360 0.000000 
#    z -0.005810 0.000000 1.806390 
# 
# From -- ./inp_files/85808.got.cif
#   From: 2010.06.25/outbox.cif.g09.slc.cpg/sg10_43_cif.got.tgz:85808.got - 2010.06.27 22:07:45.
