data_PCOD8061614
_publ_section_title
;
Structure prediction by ZEFSAII (Michael W. Deem and Ramdas Pophale) SiO2 
 PCOD8061614
Probable space group: P 2/M
;
_chemical_formula_sum "Si O2"
_cell_formula_units_Z 28
_cell_length_a 14.594441
_cell_length_b 8.989392
_cell_length_c 12.688573
_cell_angle_alpha 90.000000
_cell_angle_beta 60.344592
_cell_angle_gamma 90.000000
_cell_volume 1446.634330
_symmetry_space_group_name_H-M "P 2/M"
_symmetry_group_IT_number 10
_symmetry_cell_setting 'monoclinic'
loop_
_space_group_symop_operation_xyz
x,y,z
-x,y,-z
-x,-y,-z
x,-y,z
loop_
_atom_site_type_symbol
_atom_site_label
_atom_site_fract_x
_atom_site_fract_y
_atom_site_fract_z
Si Si1 0.118404 0.174201 0.908261
Si Si2 0.885926 0.323746 0.526188
Si Si3 0.719779 0.322953 0.025394
Si Si4 0.486955 0.676495 0.204802
Si Si5 0.194745 0.174388 0.634397
Si Si6 0.405314 0.668085 0.473744
Si Si7 0.281819 0.676436 0.209007
O O1 0.197481 0.258205 0.940232
O O2 0.141605 0.218573 0.774943
O O3 0.133334 0.000000 0.919504
O O4 0.000000 0.226376 0.000000
O O5 0.877690 0.500000 0.520855
O O6 0.868491 0.255182 0.421759
O O7 0.800059 0.260098 0.658098
O O8 0.000000 0.272301 0.500000
O O9 0.721578 0.500000 0.034149
O O10 0.602772 0.258387 0.115628
O O11 0.749939 0.270014 0.889917
O O12 0.495688 0.500000 0.200528
O O13 0.446354 0.734342 0.340486
O O14 0.401161 0.730098 0.167129
O O15 0.314973 0.227244 0.570274
O O16 0.190641 0.000000 0.616520
O O17 0.500000 0.668620 0.500000
O O18 0.361206 0.500000 0.483471
O O19 0.278035 0.500000 0.216192
#
# Coordination Sequence:
#
# PCOD8061614 Si02
#       7
#     4   4   4   4   4   4   4
#     4  10  24  44  59  75 109 154 189 227 287 340
#     4  10  21  37  60  87 116 148 185 235 291 338
#     4  10  20  34  59  90 112 141 192 237 272 326
#     4   9  16  30  53  84 119 148 175 221 283 335
#     4  11  23  39  59  83 112 149 192 235 279 335
#     4  10  19  33  57  85 115 151 188 229 282 338
#     4   9  17  32  55  86 118 146 178 225 283 334
#
# _framework density 19.355270000000001
#
# number of rings (size 3 to 8) (size 9 to 14) (size 15 to 20)
#    0.000    2.143    1.429    1.714    2.000    4.857 
#    0.000    1.429    0.000    0.857    0.000    0.000 
#    0.000    0.000    0.000    0.000    0.000    0.000 
#
# Total GULP energy -347199.998989 kJ/mol
# GULP energy per Si atom -12399.999964 kJ/mol
# Density = 1.931122 g / cm^3
# Si number density = 19.355270 Si / 1000 Ang^3
#
#
#
# Elastic Constant Matrix: (Units=GPa)
#
#
# Indices 1 2 3 4 5 6 
#
# 1 154.5359 35.9172 85.6721 0.0000 -7.1735 0.0000
# 2 35.9172 24.9058 36.5109 0.0000 4.7214 0.0000
# 3 85.6721 36.5109 164.3355 0.0000 1.7443 0.0000
# 4 0.0000 0.0000 0.0000 24.0349 0.0000 5.7468
# 5 -7.1735 4.7214 1.7443 0.0000 30.9259 0.0000
# 6 0.0000 0.0000 0.0000 5.7468 0.0000 55.9957
#
#
#
# Elastic Compliance Matrix: (Units=1/GPa)
#
#
# Indices 1 2 3 4 5 6 
#
# 1 0.011402 -0.012691 -0.003175 0.000000 0.004761 0.000000
# 2 -0.012691 0.075906 -0.010100 0.000000 -0.013963 0.000000
# 3 -0.003175 -0.010100 0.009982 0.000000 0.000242 0.000000
# 4 0.000000 0.000000 0.000000 0.042653 0.000000 -0.004377
# 5 0.004761 -0.013963 0.000242 0.000000 0.035558 0.000000
# 6 0.000000 0.000000 0.000000 -0.004377 0.000000 0.018308
#
#
# Mechanical properties :
#
#
# Convention : Reuss Voigt Hill
#
# Bulk Modulus (GPa) = 22.04694 73.33086 47.68890
# Shear Modulus (GPa) = 19.16743 34.56975 26.86859
#
# Velocity S-wave (km/s) = 3.15031 4.23077 3.72987
# Velocity P-wave (km/s) = 4.96467 7.86352 6.57582
#
# Compressibility (1/GPa) = 0.04535777
#
# Stress axis : x y z
#
# Youngs Moduli (GPa) = 87.70538 13.17416 100.18362
#
# Poissons Ratio (x) = 0.16719 0.31808
# Poissons Ratio (y) = 1.11307 1.01185
# Poissons Ratio (z) = 0.27846 0.13306
#
# Static dielectric constant tensor:
#      x y z
#    x 3.604370 0.000000 -0.087990 
#    y 0.000000 3.151440 0.000000 
#    z -0.087990 0.000000 3.804070 
# 
# 
# High freq. dielectric constant tensor:
#      x y z
#    x 1.768150 0.000000 0.003000 
#    y 0.000000 1.707530 0.000000 
#    z 0.003000 0.000000 1.770660 
# 
# From -- ./inp_files/49613.got.cif
#   From: 2010.06.25/outbox.cif.g09.slc.cpg/sg10_25_cif.got.tgz:49613.got - 2010.06.27 22:07:45.
