data_PCOD8061733
_publ_section_title
;
Structure prediction by ZEFSAII (Michael W. Deem and Ramdas Pophale) SiO2 
 PCOD8061733
Probable space group: P 2/M
;
_chemical_formula_sum "Si O2"
_cell_formula_units_Z 24
_cell_length_a 25.430891
_cell_length_b 7.903216
_cell_length_c 19.459401
_cell_angle_alpha 90.000000
_cell_angle_beta 19.208489
_cell_angle_gamma 90.000000
_cell_volume 1286.765644
_symmetry_space_group_name_H-M "P 2/M"
_symmetry_group_IT_number 10
_symmetry_cell_setting 'monoclinic'
loop_
_space_group_symop_operation_xyz
x,y,z
-x,y,-z
-x,-y,-z
x,-y,z
loop_
_atom_site_type_symbol
_atom_site_label
_atom_site_fract_x
_atom_site_fract_y
_atom_site_fract_z
Si Si1 0.472552 0.812855 0.703124
Si Si2 0.589011 0.000000 0.995431
Si Si3 0.655218 0.313949 0.355268
Si Si4 0.511061 0.312620 0.801303
Si Si5 0.820297 0.301676 0.022045
Si Si6 0.846129 0.305895 0.456115
Si Si7 0.749481 0.000000 0.660424
O O1 0.616774 0.795565 0.470016
O O2 0.495847 0.686810 0.737850
O O3 0.481762 0.000000 0.722645
O O4 0.299779 0.787560 0.882337
O O5 0.734863 0.000000 0.761136
O O6 0.602338 0.829565 0.024633
O O7 0.424006 0.000000 0.158700
O O8 0.500000 0.325978 0.500000
O O9 0.705445 0.500000 0.319446
O O10 0.792500 0.236650 0.135312
O O11 0.458822 0.500000 0.891780
O O12 0.694767 0.278271 0.593929
O O13 0.780213 0.500000 0.069200
O O14 0.000550 0.260876 0.778886
O O15 0.854205 0.500000 0.474307
O O16 0.841053 0.172239 0.525199
#
# Coordination Sequence:
#
# PCOD8061733 Si02
#       7
#     4   2   4   4   4   4   2
#     4  11  20  30  48  75 103 134 174 211 248 296
#     4   9  18  34  51  80 103 130 166 201 249 305
#     4   8  15  29  47  67  96 133 171 212 248 283
#     4  10  19  34  54  75 104 135 165 207 252 297
#     4   9  18  33  51  73 100 132 174 212 246 297
#     4   9  19  34  54  78 102 133 167 203 254 302
#     4   9  18  32  55  76 107 130 158 209 249 297
#
# _framework density 18.651416000000001
#
# number of rings (size 3 to 8) (size 9 to 14) (size 15 to 20)
#    0.000    2.667    0.833    2.500    1.167    3.667 
#    0.000    4.167    0.000    7.000    0.000    3.500 
#    0.000    0.000    0.000    0.000    0.000    0.000 
#
# Total GULP energy -297441.199971 kJ/mol
# GULP energy per Si atom -12393.383332 kJ/mol
# Density = 1.860896 g / cm^3
# Si number density = 18.651416 Si / 1000 Ang^3
#
#
#
# Elastic Constant Matrix: (Units=GPa)
#
#
# Indices 1 2 3 4 5 6 
#
# 1 68.2610 30.8797 23.6243 0.0000 21.7831 0.0000
# 2 30.8797 103.7865 28.5282 0.0000 13.4050 0.0000
# 3 23.6243 28.5282 54.1724 0.0000 19.3464 0.0000
# 4 0.0000 0.0000 0.0000 24.2695 0.0000 6.0234
# 5 21.7831 13.4050 19.3464 0.0000 24.5980 0.0000
# 6 0.0000 0.0000 0.0000 6.0234 0.0000 21.4266
#
#
#
# Elastic Compliance Matrix: (Units=1/GPa)
#
#
# Indices 1 2 3 4 5 6 
#
# 1 0.022231 -0.004037 -0.001841 0.000000 -0.016039 0.000000
# 2 -0.004037 0.012074 -0.004901 0.000000 0.000850 0.000000
# 3 -0.001841 -0.004901 0.028239 0.000000 -0.017909 0.000000
# 4 0.000000 0.000000 0.000000 0.044294 0.000000 -0.012452
# 5 -0.016039 0.000850 -0.017909 0.000000 0.068480 0.000000
# 6 0.000000 0.000000 0.000000 -0.012452 0.000000 0.050172
#
#
# Mechanical properties :
#
#
# Convention : Reuss Voigt Hill
#
# Bulk Modulus (GPa) = 24.39859 43.58714 33.99287
# Shear Modulus (GPa) = 19.17834 23.60466 21.39150
#
# Velocity S-wave (km/s) = 3.21011 3.56134 3.39028
# Velocity P-wave (km/s) = 5.18165 6.35067 5.79571
#
# Compressibility (1/GPa) = 0.04098597
#
# Stress axis : x y z
#
# Youngs Moduli (GPa) = 44.98147 82.82451 35.41153
#
# Poissons Ratio (x) = 0.33435 0.06519
# Poissons Ratio (y) = 0.18158 0.17357
# Poissons Ratio (z) = 0.08281 0.40596
#
# Static dielectric constant tensor:
#      x y z
#    x 3.167260 0.000000 0.361150 
#    y 0.000000 3.524110 0.000000 
#    z 0.361150 0.000000 3.523080 
# 
# 
# High freq. dielectric constant tensor:
#      x y z
#    x 1.693080 0.000000 0.024710 
#    y 0.000000 1.732660 0.000000 
#    z 0.024710 0.000000 1.706120 
# 
# From -- ./inp_files/80061.got.cif
#   From: 2010.06.25/outbox.cif.g09.slc.cpg/sg10_41_cif.got.tgz:80061.got - 2010.06.27 22:07:45.
