data_PCOD8061147
_publ_section_title
;
Structure prediction by ZEFSAII (Michael W. Deem and Ramdas Pophale) SiO2 
 PCOD8061147
Probable space group: P 2/M
;
_chemical_formula_sum "Si O2"
_cell_formula_units_Z 28
_cell_length_a 9.564837
_cell_length_b 9.159882
_cell_length_c 31.520789
_cell_angle_alpha 90.000000
_cell_angle_beta 35.173061
_cell_angle_gamma 90.000000
_cell_volume 1590.828066
_symmetry_space_group_name_H-M "P 2/M"
_symmetry_group_IT_number 10
_symmetry_cell_setting 'monoclinic'
loop_
_space_group_symop_operation_xyz
x,y,z
-x,y,-z
-x,-y,-z
x,-y,z
loop_
_atom_site_type_symbol
_atom_site_label
_atom_site_fract_x
_atom_site_fract_y
_atom_site_fract_z
Si Si1 0.670049 0.171765 0.997436
Si Si2 0.741055 0.672144 0.581527
Si Si3 0.472446 0.827722 0.438623
Si Si4 0.769823 0.169658 0.140595
Si Si5 0.627255 0.832433 0.694407
Si Si6 0.861125 0.167627 0.404900
Si Si7 0.711755 0.666113 0.072005
O O1 0.951254 0.212058 0.918300
O O2 0.635437 0.000000 0.013637
O O3 0.500000 0.223123 0.000000
O O4 0.595715 0.253781 0.059568
O O5 0.729369 0.500000 0.583123
O O6 0.534545 0.741151 0.603402
O O7 0.674644 0.723385 0.644707
O O8 0.000000 0.730266 0.500000
O O9 0.247462 0.771500 0.523844
O O10 0.722107 0.770748 0.398370
O O11 0.465217 0.000000 0.430681
O O12 0.619780 0.207909 0.220150
O O13 0.642921 0.254829 0.133087
O O14 0.750242 0.000000 0.133715
O O15 0.852185 0.807900 0.670917
O O16 0.623418 0.000000 0.679206
O O17 0.784813 0.000000 0.425251
O O18 0.616573 0.500000 0.095893
O O19 0.000000 0.673677 0.000000
#
# Coordination Sequence:
#
# PCOD8061147 Si02
#       7
#     4   4   4   4   4   4   4
#     4   9  17  31  52  77 104 132 163 202 242 280
#     4  11  22  33  46  70 100 130 165 203 245 295
#     4   9  16  30  51  70  89 116 156 202 244 287
#     4   9  18  32  51  75  99 127 165 205 245 289
#     4  10  19  33  53  73  95 126 165 207 250 293
#     4   8  15  28  49  73  90 112 153 203 245 284
#     4   9  17  30  50  74  99 129 163 196 234 286
#
# _framework density 17.600897
#
# number of rings (size 3 to 8) (size 9 to 14) (size 15 to 20)
#    0.000    2.714    1.429    1.714    0.000    3.143 
#    0.000    3.571    0.000    8.571    0.000    0.000 
#    0.000    0.000    0.000    0.000    0.000    0.000 
#
# Total GULP energy -347005.440898 kJ/mol
# GULP energy per Si atom -12393.051461 kJ/mol
# Density = 1.756084 g / cm^3
# Si number density = 17.600897 Si / 1000 Ang^3
#
#
#
# Elastic Constant Matrix: (Units=GPa)
#
#
# Indices 1 2 3 4 5 6 
#
# 1 126.3059 48.4839 42.2829 0.0000 11.5514 0.0000
# 2 48.4839 65.0401 32.1954 0.0000 11.8793 0.0000
# 3 42.2829 32.1954 76.1171 0.0000 4.8542 0.0000
# 4 0.0000 0.0000 0.0000 17.6079 0.0000 7.5836
# 5 11.5514 11.8793 4.8542 0.0000 21.9995 0.0000
# 6 0.0000 0.0000 0.0000 7.5836 0.0000 -25.8395
#
#
#
# Elastic Compliance Matrix: (Units=1/GPa)
#
#
# Indices 1 2 3 4 5 6 
#
# 1 0.011883 -0.006726 -0.003641 0.000000 -0.001804 0.000000
# 2 -0.006726 0.025097 -0.006329 0.000000 -0.008624 0.000000
# 3 -0.003641 -0.006329 0.017747 0.000000 0.001413 0.000000
# 4 0.000000 0.000000 0.000000 0.050420 0.000000 0.014798
# 5 -0.001804 -0.008624 0.001413 0.000000 0.050748 0.000000
# 6 0.000000 0.000000 0.000000 0.014798 0.000000 -0.034357
#
#
# Mechanical properties :
#
#
# Convention : Reuss Voigt Hill
#
# Bulk Modulus (GPa) = 46.87178 57.04304 51.95741
# Shear Modulus (GPa) = 30.85631 12.38697 21.62164
#
# Velocity S-wave (km/s) = 4.19156 2.65574 3.50871
# Velocity P-wave (km/s) = 7.07910 6.47174 6.78223
#
# Compressibility (1/GPa) = 0.02133480
#
# Stress axis : x y z
#
# Youngs Moduli (GPa) = 84.15272 39.84491 56.34757
#
# Poissons Ratio (x) = 0.26802 0.20516
# Poissons Ratio (y) = 0.56605 0.35662
# Poissons Ratio (z) = 0.30639 0.25218
#
# Static dielectric constant tensor:
#      x y z
#    x 3.453280 0.000000 -0.025170 
#    y 0.000000 3.091250 0.000000 
#    z -0.025170 0.000000 3.080220 
# 
# 
# High freq. dielectric constant tensor:
#      x y z
#    x 1.685200 0.000000 0.005960 
#    y 0.000000 1.662040 0.000000 
#    z 0.005960 0.000000 1.654060 
# 
# From -- ./inp_files/94494.got.cif
#   From: 2010.06.25/outbox.cif.g09.slc.cpg/sg10_48_cif.got.tgz:94494.got - 2010.06.27 22:07:45.
