data_PCOD8061812
_publ_section_title
;
Structure prediction by ZEFSAII (Michael W. Deem and Ramdas Pophale) SiO2 
 PCOD8061812
Probable space group: P 2/M
;
_chemical_formula_sum "Si O2"
_cell_formula_units_Z 32
_cell_length_a 14.808221
_cell_length_b 8.723537
_cell_length_c 14.678377
_cell_angle_alpha 90.000000
_cell_angle_beta 61.338555
_cell_angle_gamma 90.000000
_cell_volume 1663.816286
_symmetry_space_group_name_H-M "P 2/M"
_symmetry_group_IT_number 10
_symmetry_cell_setting 'monoclinic'
loop_
_space_group_symop_operation_xyz
x,y,z
-x,y,-z
-x,-y,-z
x,-y,z
loop_
_atom_site_type_symbol
_atom_site_label
_atom_site_fract_x
_atom_site_fract_y
_atom_site_fract_z
Si Si1 0.448371 0.682555 0.761002
Si Si2 0.244572 0.679788 0.205518
Si Si3 0.947266 0.682927 0.114664
Si Si4 0.800406 0.318751 0.442808
Si Si5 0.334309 0.820338 0.339394
Si Si6 0.979307 0.681265 0.730132
Si Si7 0.590582 0.320767 0.018536
Si Si8 0.729718 0.318192 0.281144
O O1 0.447278 0.500000 0.760848
O O2 0.560917 0.739935 0.679637
O O3 0.370982 0.747495 0.720835
O O4 0.413490 0.747837 0.877091
O O5 0.248648 0.500000 0.227941
O O6 0.307315 0.770987 0.250567
O O7 0.127616 0.744161 0.259587
O O8 0.298872 0.711037 0.081611
O O9 0.952249 0.500000 0.109933
O O10 0.829148 0.738192 0.176424
O O11 0.007354 0.745726 0.174117
O O12 0.000000 0.754998 0.000000
O O13 0.788282 0.500000 0.463363
O O14 0.756994 0.229719 0.549901
O O15 0.739293 0.263765 0.381556
O O16 0.921312 0.273013 0.377935
O O17 0.350002 0.000000 0.335944
O O18 0.971121 0.500000 0.739849
O O19 0.568950 0.500000 0.037917
O O20 0.500000 0.247718 0.000000
O O21 0.727804 0.500000 0.282400
#
# Coordination Sequence:
#
# PCOD8061812 Si02
#       8
#     4   4   4   4   4   4   4   4
#     4  10  19  34  55  80 108 140 175 210 252 310
#     4  10  19  34  55  80 108 140 175 210 252 310
#     4   8  13  22  40  76 118 141 158 200 256 303
#     4   9  18  37  57  76 105 138 173 214 259 310
#     4  12  25  38  52  74 100 135 181 228 274 309
#     4   8  16  29  50  78 107 139 172 205 251 309
#     4   9  16  28  50  79 107 135 168 209 251 296
#     4   8  16  29  50  78 107 139 172 205 251 309
#
# _framework density 19.232892
#
# number of rings (size 3 to 8) (size 9 to 14) (size 15 to 20)
#    0.000    2.750    1.250    2.625    1.750    1.000 
#    0.000    7.500    0.000    0.000    0.000    0.000 
#    0.000    3.500    0.000    0.000    0.000    0.000 
#
# Total GULP energy -396642.571680 kJ/mol
# GULP energy per Si atom -12395.080365 kJ/mol
# Density = 1.918912 g / cm^3
# Si number density = 19.232892 Si / 1000 Ang^3
#
#
#
# Elastic Constant Matrix: (Units=GPa)
#
#
# Indices 1 2 3 4 5 6 
#
# 1 113.9117 11.8999 12.6427 0.0000 -17.7278 0.0000
# 2 11.8999 18.9164 10.8689 0.0000 0.7161 0.0000
# 3 12.6427 10.8689 82.2392 0.0000 -12.0434 0.0000
# 4 0.0000 0.0000 0.0000 -0.8648 0.0000 0.4649
# 5 -17.7278 0.7161 -12.0434 0.0000 23.3980 0.0000
# 6 0.0000 0.0000 0.0000 0.4649 0.0000 0.5597
#
#
#
# Elastic Compliance Matrix: (Units=1/GPa)
#
#
# Indices 1 2 3 4 5 6 
#
# 1 0.010861 -0.007514 0.000608 0.000000 0.008772 0.000000
# 2 -0.007514 0.063224 -0.008996 0.000000 -0.012258 0.000000
# 3 0.000608 -0.008996 0.014452 0.000000 0.008175 0.000000
# 4 0.000000 0.000000 0.000000 -0.799336 0.000000 0.664022
# 5 0.008772 -0.012258 0.008175 0.000000 0.053968 0.000000
# 6 0.000000 0.000000 0.000000 0.664022 0.000000 1.235204
#
#
# Mechanical properties :
#
#
# Convention : Reuss Voigt Hill
#
# Bulk Modulus (GPa) = 17.62622 31.76561 24.69592
# Shear Modulus (GPa) = 7.94801 16.59562 12.27181
#
# Velocity S-wave (km/s) = 2.03506 2.94066 2.52873
# Velocity P-wave (km/s) = 3.83490 5.29926 4.62540
#
# Compressibility (1/GPa) = 0.05673366
#
# Stress axis : x y z
#
# Youngs Moduli (GPa) = 92.06910 15.81684 69.19344
#
# Poissons Ratio (x) = 0.11885 -0.04207
# Poissons Ratio (y) = 0.69181 0.62245
# Poissons Ratio (z) = -0.05597 0.14228
#
# Static dielectric constant tensor:
#      x y z
#    x 3.888280 0.000000 0.003010 
#    y 0.000000 2.857000 0.000000 
#    z 0.003010 0.000000 3.639600 
# 
# 
# High freq. dielectric constant tensor:
#      x y z
#    x 1.756760 0.000000 -0.003970 
#    y 0.000000 1.677590 0.000000 
#    z -0.003970 0.000000 1.756160 
# 
# From -- ./inp_files/66522.got.cif
#   From: 2010.06.25/outbox.cif.g09.slc.cpg/sg10_34_cif.got.tgz:66522.got - 2010.06.27 22:07:45.
