data_PCOD8061114
_publ_section_title
;
Structure prediction by ZEFSAII (Michael W. Deem and Ramdas Pophale) SiO2 
 PCOD8061114
Probable space group: P 2/M
;
_chemical_formula_sum "Si O2"
_cell_formula_units_Z 32
_cell_length_a 8.735313
_cell_length_b 14.190713
_cell_length_c 14.650781
_cell_angle_alpha 90.000000
_cell_angle_beta 99.396809
_cell_angle_gamma 90.000000
_cell_volume 1791.745509
_symmetry_space_group_name_H-M "P 2/M"
_symmetry_group_IT_number 10
_symmetry_cell_setting 'monoclinic'
loop_
_space_group_symop_operation_xyz
x,y,z
-x,y,-z
-x,-y,-z
x,-y,z
loop_
_atom_site_type_symbol
_atom_site_label
_atom_site_fract_x
_atom_site_fract_y
_atom_site_fract_z
Si Si1 0.552613 0.107273 0.268506
Si Si2 0.550765 0.260523 0.607861
Si Si3 0.868948 0.254641 0.721855
Si Si4 0.147003 0.763568 0.951169
Si Si5 0.448127 0.607646 0.754102
Si Si6 0.642579 0.241985 0.864202
Si Si7 0.884877 0.107338 0.221640
Si Si8 0.114668 0.607592 0.803373
O O1 0.510516 0.162040 0.357256
O O2 0.464018 0.153078 0.173573
O O3 0.736297 0.113758 0.272426
O O4 0.496602 0.000000 0.273031
O O5 0.500000 0.272509 0.500000
O O6 0.738499 0.262043 0.631138
O O7 0.481219 0.346982 0.658778
O O8 0.793446 0.244783 0.814462
O O9 0.975748 0.163007 0.715282
O O10 0.973820 0.348613 0.731055
O O11 0.157229 0.847466 0.879626
O O12 0.136495 0.662916 0.900274
O O13 0.304352 0.766211 0.026162
O O14 0.000000 0.780495 0.000000
O O15 0.504165 0.500000 0.758974
O O16 0.544348 0.662144 0.841558
O O17 0.266576 0.616568 0.756079
O O18 0.936959 0.000000 0.211180
O O19 0.076059 0.500000 0.823864
#
# Coordination Sequence:
#
# PCOD8061114 Si02
#       8
#     4   4   4   4   4   4   4   4
#     4   9  20  37  55  76 105 141 173 208 261 315
#     4  10  21  37  59  83 103 128 166 217 264 311
#     4   9  18  35  53  77 103 136 172 210 262 312
#     4  11  20  34  46  80 110 137 182 223 257 285
#     4   9  20  37  55  76 105 141 173 208 261 315
#     4  10  19  33  52  75 107 142 178 221 255 294
#     4  10  20  35  54  75 106 144 176 211 256 306
#     4  10  20  35  54  75 106 144 176 211 256 306
#
# _framework density 17.859679
#
# number of rings (size 3 to 8) (size 9 to 14) (size 15 to 20)
#    0.000    2.500    2.500    3.000    0.000    8.000 
#    0.000    5.000    0.000    3.000    0.000    0.000 
#    0.000    0.000    0.000    0.000    0.000    0.000 
#
# Total GULP energy -396779.157609 kJ/mol
# GULP energy per Si atom -12399.348675 kJ/mol
# Density = 1.781903 g / cm^3
# Si number density = 17.859679 Si / 1000 Ang^3
#
#
#
# Elastic Constant Matrix: (Units=GPa)
#
#
# Indices 1 2 3 4 5 6 
#
# 1 84.9823 18.5858 9.8150 0.0000 10.0585 0.0000
# 2 18.5858 82.9885 -22.0333 0.0000 -1.1483 0.0000
# 3 9.8150 -22.0333 64.6484 0.0000 19.7966 0.0000
# 4 0.0000 0.0000 0.0000 9.5996 0.0000 -7.3401
# 5 10.0585 -1.1483 19.7966 0.0000 22.6033 0.0000
# 6 0.0000 0.0000 0.0000 -7.3401 0.0000 19.4799
#
#
#
# Elastic Compliance Matrix: (Units=1/GPa)
#
#
# Indices 1 2 3 4 5 6 
#
# 1 0.013281 -0.003527 -0.001850 0.000000 -0.004469 0.000000
# 2 -0.003527 0.014527 0.006532 0.000000 -0.003413 0.000000
# 3 -0.001850 0.006532 0.024080 0.000000 -0.019934 0.000000
# 4 0.000000 0.000000 0.000000 0.146331 0.000000 0.055138
# 5 -0.004469 -0.003413 -0.019934 0.000000 0.063516 0.000000
# 6 0.000000 0.000000 0.000000 0.055138 0.000000 0.072112
#
#
# Mechanical properties :
#
#
# Convention : Reuss Voigt Hill
#
# Bulk Modulus (GPa) = 18.45164 27.26158 22.85661
# Shear Modulus (GPa) = 14.30194 25.42000 19.86097
#
# Velocity S-wave (km/s) = 2.83290 3.77678 3.33837
# Velocity P-wave (km/s) = 4.58850 5.85801 5.26168
#
# Compressibility (1/GPa) = 0.05419572
#
# Stress axis : x y z
#
# Youngs Moduli (GPa) = 75.29419 68.83844 41.52892
#
# Poissons Ratio (x) = 0.24282 0.07683
# Poissons Ratio (y) = 0.26560 -0.27125
# Poissons Ratio (z) = 0.13930 -0.44963
#
# Static dielectric constant tensor:
#      x y z
#    x 3.512830 0.000000 0.084730 
#    y 0.000000 3.446720 0.000000 
#    z 0.084730 0.000000 2.987640 
# 
# 
# High freq. dielectric constant tensor:
#      x y z
#    x 1.709660 0.000000 0.003690 
#    y 0.000000 1.696700 0.000000 
#    z 0.003690 0.000000 1.657260 
# 
# From -- ./inp_files/61560.got.cif
#   From: 2010.06.25/outbox.cif.g09.slc.cpg/sg10_31_cif.got.tgz:61560.got - 2010.06.27 22:07:45.
