data_PCOD8061461
_publ_section_title
;
Structure prediction by ZEFSAII (Michael W. Deem and Ramdas Pophale) SiO2 
 PCOD8061461
Probable space group: P 2/M
;
_chemical_formula_sum "Si O2"
_cell_formula_units_Z 32
_cell_length_a 19.019204
_cell_length_b 10.671943
_cell_length_c 17.447563
_cell_angle_alpha 90.000000
_cell_angle_beta 152.684003
_cell_angle_gamma 90.000000
_cell_volume 1625.123730
_symmetry_space_group_name_H-M "P 2/M"
_symmetry_group_IT_number 10
_symmetry_cell_setting 'monoclinic'
loop_
_space_group_symop_operation_xyz
x,y,z
-x,y,-z
-x,-y,-z
x,-y,z
loop_
_atom_site_type_symbol
_atom_site_label
_atom_site_fract_x
_atom_site_fract_y
_atom_site_fract_z
Si Si1 0.260351 0.290943 0.939372
Si Si2 0.941384 0.147638 0.857223
Si Si3 0.411315 0.851293 0.485715
Si Si4 0.045800 0.858122 0.627081
Si Si5 0.986534 0.357964 0.776900
Si Si6 0.479995 0.140452 0.252453
Si Si7 0.455657 0.638082 0.876948
Si Si8 0.231134 0.230971 0.549710
O O1 0.186383 0.220963 0.795511
O O2 0.133673 0.368420 0.863254
O O3 0.333117 0.194428 0.069001
O O4 0.399787 0.372357 0.040894
O O5 0.764917 0.185163 0.687543
O O6 0.015789 0.249008 0.869936
O O7 0.968752 0.000000 0.858961
O O8 0.000000 0.169067 0.000000
O O9 0.500000 0.791344 0.500000
O O10 0.490011 0.791433 0.637176
O O11 0.428196 0.000000 0.502340
O O12 0.904217 0.855076 0.548966
O O13 0.000000 0.802013 0.500000
O O14 0.102485 0.000000 0.672466
O O15 0.963720 0.500000 0.788886
O O16 0.837235 0.323657 0.581402
O O17 0.637667 0.143180 0.357753
O O18 0.433667 0.000000 0.224373
O O19 0.401638 0.500000 0.846927
O O20 0.307059 0.696872 0.693980
O O21 0.500000 0.708640 0.000000
#
# Coordination Sequence:
#
# PCOD8061461 Si02
#       8
#     4   4   4   4   4   4   4   4
#     4  10  22  35  53  82 112 148 193 237 283 346
#     4  10  22  39  62  90 117 149 192 239 285 340
#     4   9  18  33  55  83 114 142 177 227 281 330
#     4  10  20  34  52  77 112 150 187 234 290 343
#     4  11  23  39  59  84 120 160 194 235 289 347
#     4  10  19  33  55  83 111 146 187 235 287 337
#     4  10  20  36  57  78 103 139 187 242 291 336
#     4  10  20  35  55  79 109 147 190 234 281 347
#
# _framework density 19.690808000000001
#
# number of rings (size 3 to 8) (size 9 to 14) (size 15 to 20)
#    0.000    2.000    1.250    2.250    1.750    2.750 
#    0.000    0.000    0.000   12.375    0.000    0.000 
#    0.000    0.000    0.000    0.000    0.000    0.000 
#
# Total GULP energy -396558.520888 kJ/mol
# GULP energy per Si atom -12392.453778 kJ/mol
# Density = 1.964599 g / cm^3
# Si number density = 19.690808 Si / 1000 Ang^3
#
#
#
# Elastic Constant Matrix: (Units=GPa)
#
#
# Indices 1 2 3 4 5 6 
#
# 1 65.1870 14.5315 17.3936 0.0000 -14.6343 0.0000
# 2 14.5315 76.6597 26.2418 0.0000 -13.3548 0.0000
# 3 17.3936 26.2418 117.6174 0.0000 -24.9939 0.0000
# 4 0.0000 0.0000 0.0000 9.6830 0.0000 -12.5628
# 5 -14.6343 -13.3548 -24.9939 0.0000 40.9311 0.0000
# 6 0.0000 0.0000 0.0000 -12.5628 0.0000 37.3255
#
#
#
# Elastic Compliance Matrix: (Units=1/GPa)
#
#
# Indices 1 2 3 4 5 6 
#
# 1 0.017162 -0.002052 -0.001055 0.000000 0.004822 0.000000
# 2 -0.002052 0.014716 -0.002431 0.000000 0.002583 0.000000
# 3 -0.001055 -0.002431 0.010287 0.000000 0.005111 0.000000
# 4 0.000000 0.000000 0.000000 0.183329 0.000000 0.061704
# 5 0.004822 0.002583 0.005111 0.000000 0.030119 0.000000
# 6 0.000000 0.000000 0.000000 0.061704 0.000000 0.047559
#
#
# Mechanical properties :
#
#
# Convention : Reuss Voigt Hill
#
# Bulk Modulus (GPa) = 32.16663 41.75530 36.96096
# Shear Modulus (GPa) = 15.40304 31.00774 23.20539
#
# Velocity S-wave (km/s) = 2.79990 3.97259 3.43664
# Velocity P-wave (km/s) = 5.17918 6.50335 5.87867
#
# Compressibility (1/GPa) = 0.03108812
#
# Stress axis : x y z
#
# Youngs Moduli (GPa) = 58.26810 67.95424 97.21338
#
# Poissons Ratio (x) = 0.13943 0.10261
# Poissons Ratio (y) = 0.11956 0.23631
# Poissons Ratio (z) = 0.06150 0.16519
#
# Static dielectric constant tensor:
#      x y z
#    x 3.652500 0.000000 -0.204850 
#    y 0.000000 3.235720 0.000000 
#    z -0.204850 0.000000 3.839340 
# 
# 
# High freq. dielectric constant tensor:
#      x y z
#    x 1.769580 0.000000 -0.006350 
#    y 0.000000 1.733760 0.000000 
#    z -0.006350 0.000000 1.784170 
# 
# From -- ./inp_files/69155.got.cif
#   From: 2010.06.25/outbox.cif.g09.slc.cpg/sg10_35_cif.got.tgz:69155.got - 2010.06.27 22:07:45.
