data_PCOD8061447
_publ_section_title
;
Structure prediction by ZEFSAII (Michael W. Deem and Ramdas Pophale) SiO2 
 PCOD8061447
Probable space group: P 2/M
;
_chemical_formula_sum "Si O2"
_cell_formula_units_Z 32
_cell_length_a 27.442921
_cell_length_b 8.511452
_cell_length_c 19.495786
_cell_angle_alpha 90.000000
_cell_angle_beta 159.174429
_cell_angle_gamma 90.000000
_cell_volume 1618.988750
_symmetry_space_group_name_H-M "P 2/M"
_symmetry_group_IT_number 10
_symmetry_cell_setting 'monoclinic'
loop_
_space_group_symop_operation_xyz
x,y,z
-x,y,-z
-x,-y,-z
x,-y,z
loop_
_atom_site_type_symbol
_atom_site_label
_atom_site_fract_x
_atom_site_fract_y
_atom_site_fract_z
Si Si1 0.596488 0.685024 0.189488
Si Si2 0.980457 0.319000 0.398216
Si Si3 0.845857 0.685296 0.022171
Si Si4 0.104967 0.818673 0.433368
Si Si5 0.447953 0.685744 0.716254
Si Si6 0.829858 0.315660 0.717399
Si Si7 0.304068 0.319297 0.043392
Si Si8 0.120521 0.817530 0.075758
O O1 0.624193 0.500000 0.220010
O O2 0.739742 0.773578 0.376962
O O3 0.526254 0.729367 0.170042
O O4 0.500000 0.742750 0.000000
O O5 0.027525 0.500000 0.452726
O O6 0.074857 0.214943 0.473338
O O7 0.000000 0.254660 0.500000
O O8 0.821173 0.298985 0.173008
O O9 0.831007 0.500000 0.993191
O O10 0.001997 0.718662 0.250525
O O11 0.739357 0.752082 0.939571
O O12 0.808260 0.770623 0.901902
O O13 0.081113 0.000000 0.384875
O O14 0.454473 0.500000 0.716191
O O15 0.300428 0.746335 0.496595
O O16 0.564968 0.762593 0.820973
O O17 0.855778 0.500000 0.740849
O O18 0.808164 0.280171 0.769434
O O19 0.959533 0.221332 0.859405
O O20 0.338126 0.500000 0.101139
O O21 0.141418 0.000000 0.118107
#
# Coordination Sequence:
#
# PCOD8061447 Si02
#       8
#     4   4   4   4   4   4   4   4
#     4  10  21  35  56  82 108 143 187 232 275 328
#     4   9  18  32  56  81 102 135 183 234 275 319
#     4  10  19  35  58  81 106 139 184 229 271 322
#     4  11  22  35  52  76 112 145 178 223 277 335
#     4   9  18  33  54  80 109 139 177 227 276 322
#     4  10  19  33  55  82 111 146 183 221 269 326
#     4   8  16  31  52  79 106 134 176 229 275 317
#     4  11  21  34  55  82 113 141 177 227 278 327
#
# _framework density 19.765423999999999
#
# number of rings (size 3 to 8) (size 9 to 14) (size 15 to 20)
#    0.000    2.250    0.000    5.250    1.750    1.500 
#    0.000    1.250    0.000   12.750    0.000    0.000 
#    0.000    0.000    0.000    0.000    0.000    0.000 
#
# Total GULP energy -396747.985855 kJ/mol
# GULP energy per Si atom -12398.374558 kJ/mol
# Density = 1.972044 g / cm^3
# Si number density = 19.765424 Si / 1000 Ang^3
#
#
#
# Elastic Constant Matrix: (Units=GPa)
#
#
# Indices 1 2 3 4 5 6 
#
# 1 134.3341 7.7570 42.2328 0.0000 -7.5113 0.0000
# 2 7.7570 46.3036 6.3919 0.0000 5.0681 0.0000
# 3 42.2328 6.3919 67.0633 0.0000 4.5851 0.0000
# 4 0.0000 0.0000 0.0000 5.1426 0.0000 0.2693
# 5 -7.5113 5.0681 4.5851 0.0000 29.5272 0.0000
# 6 0.0000 0.0000 0.0000 0.2693 0.0000 16.8660
#
#
#
# Elastic Compliance Matrix: (Units=1/GPa)
#
#
# Indices 1 2 3 4 5 6 
#
# 1 0.009672 -0.001157 -0.006228 0.000000 0.003626 0.000000
# 2 -0.001157 0.022380 -0.001134 0.000000 -0.003960 0.000000
# 3 -0.006228 -0.001134 0.019241 0.000000 -0.004378 0.000000
# 4 0.000000 0.000000 0.000000 0.194618 0.000000 -0.003108
# 5 0.003626 -0.003960 -0.004378 0.000000 0.036149 0.000000
# 6 0.000000 0.000000 0.000000 -0.003108 0.000000 0.059340
#
#
# Mechanical properties :
#
#
# Convention : Reuss Voigt Hill
#
# Bulk Modulus (GPa) = 29.19323 40.05158 34.62240
# Shear Modulus (GPa) = 13.51874 23.06178 18.29026
#
# Velocity S-wave (km/s) = 2.61810 3.41951 3.04528
# Velocity P-wave (km/s) = 4.89297 5.99151 5.46989
#
# Compressibility (1/GPa) = 0.03425452
#
# Stress axis : x y z
#
# Youngs Moduli (GPa) = 103.39293 44.68206 51.97256
#
# Poissons Ratio (x) = 0.05171 0.32371
# Poissons Ratio (y) = 0.11966 0.05891
# Poissons Ratio (z) = 0.64397 0.05065
#
# Static dielectric constant tensor:
#      x y z
#    x 4.131740 0.000000 0.038650 
#    y 0.000000 3.289050 0.000000 
#    z 0.038650 0.000000 3.534050 
# 
# 
# High freq. dielectric constant tensor:
#      x y z
#    x 1.789920 0.000000 -0.001390 
#    y 0.000000 1.740220 0.000000 
#    z -0.001390 0.000000 1.751350 
# 
# From -- ./inp_files/86956.got.cif
#   From: 2010.06.25/outbox.cif.g09.slc.cpg/sg10_44_cif.got.tgz:86956.got - 2010.06.27 22:07:45.
