data_PCOD8061622
_publ_section_title
;
Structure prediction by ZEFSAII (Michael W. Deem and Ramdas Pophale) SiO2 
 PCOD8061622
Probable space group: P 2/M
;
_chemical_formula_sum "Si O2"
_cell_formula_units_Z 24
_cell_length_a 11.907393
_cell_length_b 9.230268
_cell_length_c 11.367133
_cell_angle_alpha 90.000000
_cell_angle_beta 110.457550
_cell_angle_gamma 90.000000
_cell_volume 1170.549363
_symmetry_space_group_name_H-M "P 2/M"
_symmetry_group_IT_number 10
_symmetry_cell_setting 'monoclinic'
loop_
_space_group_symop_operation_xyz
x,y,z
-x,y,-z
-x,-y,-z
x,-y,z
loop_
_atom_site_type_symbol
_atom_site_label
_atom_site_fract_x
_atom_site_fract_y
_atom_site_fract_z
Si Si1 0.191561 0.666079 0.315856
Si Si2 0.048561 0.667027 0.644144
Si Si3 0.474701 0.837406 0.811394
Si Si4 0.761832 0.832423 0.145220
Si Si5 0.383657 0.834664 0.522142
Si Si6 0.716628 0.671254 0.902763
O O1 0.229737 0.500000 0.341470
O O2 0.265852 0.750615 0.440820
O O3 0.220378 0.721419 0.195067
O O4 0.051958 0.688632 0.292315
O O5 0.089204 0.500000 0.650363
O O6 0.162158 0.763120 0.721270
O O7 0.000000 0.720189 0.500000
O O8 0.380798 0.814635 0.883126
O O9 0.396686 0.818637 0.665689
O O10 0.578393 0.719206 0.852315
O O11 0.530634 0.000000 0.837583
O O12 0.797528 0.000000 0.146662
O O13 0.789219 0.749236 0.033847
O O14 0.500000 0.767797 0.500000
O O15 0.367558 0.000000 0.475881
O O16 0.723751 0.500000 0.924558
#
# Coordination Sequence:
#
# PCOD8061622 Si02
#       6
#     4   4   4   4   4   4
#     4  10  22  38  58  87 119 152 191 239 288 336
#     4  10  22  42  65  87 115 150 190 237 288 343
#     4  10  21  38  58  85 120 153 190 239 290 339
#     4  11  24  40  60  85 116 154 195 239 286 339
#     4  10  19  33  57  86 116 150 187 231 285 343
#     4  11  23  38  58  85 118 154 194 238 286 342
#
# _framework density 20.503193
#
# number of rings (size 3 to 8) (size 9 to 14) (size 15 to 20)
#    0.000    1.667    1.667    2.500    0.000    6.667 
#    0.000    3.333    0.000    0.000    0.000    0.000 
#    0.000    0.000    0.000    0.000    0.000    0.000 
#
# Total GULP energy -297719.366222 kJ/mol
# GULP energy per Si atom -12404.973593 kJ/mol
# Density = 2.045653 g / cm^3
# Si number density = 20.503193 Si / 1000 Ang^3
#
#
#
# Elastic Constant Matrix: (Units=GPa)
#
#
# Indices 1 2 3 4 5 6 
#
# 1 61.9072 28.3643 23.6639 0.0000 -3.5819 0.0000
# 2 28.3643 83.4396 45.2628 0.0000 5.2234 0.0000
# 3 23.6639 45.2628 96.9074 0.0000 -6.0033 0.0000
# 4 0.0000 0.0000 0.0000 30.3210 0.0000 -3.0433
# 5 -3.5819 5.2234 -6.0033 0.0000 34.7678 0.0000
# 6 0.0000 0.0000 0.0000 -3.0433 0.0000 18.7719
#
#
#
# Elastic Compliance Matrix: (Units=1/GPa)
#
#
# Indices 1 2 3 4 5 6 
#
# 1 0.019704 -0.005806 -0.001941 0.000000 0.002567 0.000000
# 2 -0.005806 0.018260 -0.007397 0.000000 -0.004619 0.000000
# 3 -0.001941 -0.007397 0.014459 0.000000 0.003408 0.000000
# 4 0.000000 0.000000 0.000000 0.033526 0.000000 0.005435
# 5 0.002567 -0.004619 0.003408 0.000000 0.030309 0.000000
# 6 0.000000 0.000000 0.000000 0.005435 0.000000 0.054152
#
#
# Mechanical properties :
#
#
# Convention : Reuss Voigt Hill
#
# Bulk Modulus (GPa) = 45.17645 48.53737 46.85691
# Shear Modulus (GPa) = 24.02962 26.43636 25.23299
#
# Velocity S-wave (km/s) = 3.42715 3.59469 3.51192
# Velocity P-wave (km/s) = 6.14347 6.39949 6.27279
#
# Compressibility (1/GPa) = 0.02213543
#
# Stress axis : x y z
#
# Youngs Moduli (GPa) = 50.75190 54.76381 69.16034
#
# Poissons Ratio (x) = 0.31796 0.13421
# Poissons Ratio (y) = 0.29467 0.51159
# Poissons Ratio (z) = 0.09849 0.40510
#
# Static dielectric constant tensor:
#      x y z
#    x 3.604090 0.000000 -0.209950 
#    y 0.000000 3.615360 0.000000 
#    z -0.209950 0.000000 3.751490 
# 
# 
# High freq. dielectric constant tensor:
#      x y z
#    x 1.795970 0.000000 -0.010990 
#    y 0.000000 1.794980 0.000000 
#    z -0.010990 0.000000 1.815040 
# 
# From -- ./inp_files/45322.got.cif
#   From: 2010.06.25/outbox.cif.g09.slc.cpg/sg10_23_cif.got.tgz:45322.got - 2010.06.27 22:07:45.
