data_PCOD8061184
_publ_section_title
;
Structure prediction by ZEFSAII (Michael W. Deem and Ramdas Pophale) SiO2 
 PCOD8061184
Probable space group: P 2/M
;
_chemical_formula_sum "Si O2"
_cell_formula_units_Z 32
_cell_length_a 14.192966
_cell_length_b 9.108153
_cell_length_c 20.604891
_cell_angle_alpha 90.000000
_cell_angle_beta 137.399239
_cell_angle_gamma 90.000000
_cell_volume 1802.972780
_symmetry_space_group_name_H-M "P 2/M"
_symmetry_group_IT_number 10
_symmetry_cell_setting 'monoclinic'
loop_
_space_group_symop_operation_xyz
x,y,z
-x,y,-z
-x,-y,-z
x,-y,z
loop_
_atom_site_type_symbol
_atom_site_label
_atom_site_fract_x
_atom_site_fract_y
_atom_site_fract_z
Si Si1 0.659161 0.832029 0.847131
Si Si2 0.368007 0.168875 0.315486
Si Si3 0.655162 0.170775 0.315874
Si Si4 0.927752 0.171204 0.781775
Si Si5 0.907634 0.327703 0.392040
Si Si6 0.637935 0.669864 0.442159
Si Si7 0.081177 0.673143 0.976461
Si Si8 0.925929 0.331262 0.651521
O O1 0.673168 0.790149 0.778736
O O2 0.500951 0.805307 0.790282
O O3 0.704808 0.000000 0.881662
O O4 0.759547 0.726811 0.938867
O O5 0.236768 0.202056 0.294309
O O6 0.497616 0.267979 0.404229
O O7 0.415800 0.000000 0.343374
O O8 0.761134 0.242700 0.318581
O O9 0.674524 0.245182 0.395259
O O10 0.688297 0.000000 0.341124
O O11 0.974791 0.230908 0.735853
O O12 0.011530 0.254245 0.879323
O O13 0.962048 0.000000 0.804574
O O14 0.877704 0.500000 0.380364
O O15 0.000000 0.277303 0.500000
O O16 0.986491 0.282559 0.366668
O O17 0.618119 0.500000 0.414278
O O18 0.762662 0.692918 0.555757
O O19 0.077814 0.500000 0.965737
O O20 0.000000 0.723347 0.000000
O O21 0.956188 0.500000 0.684370
#
# Coordination Sequence:
#
# PCOD8061184 Si02
#       8
#     4   4   4   4   4   4   4   4
#     4   9  18  34  54  78 111 143 175 220 274 322
#     4   9  19  34  51  76 109 145 184 224 264 318
#     4  10  20  33  53  84 114 140 179 228 271 321
#     4  11  23  38  56  77 109 150 185 223 276 329
#     4  10  19  36  58  80 109 146 185 225 276 326
#     4  10  19  33  53  76 108 149 185 222 270 321
#     4  11  22  35  56  85 110 138 182 229 269 319
#     4  10  22  38  54  77 111 146 185 230 271 323
#
# _framework density 17.748464999999999
#
# number of rings (size 3 to 8) (size 9 to 14) (size 15 to 20)
#    0.000    2.000    2.500    2.250    0.000    6.250 
#    0.000    2.500    0.000    0.750    0.000    5.250 
#    0.000    0.000    0.000    0.000    0.000    0.000 
#
# Total GULP energy -396898.813574 kJ/mol
# GULP energy per Si atom -12403.087924 kJ/mol
# Density = 1.770807 g / cm^3
# Si number density = 17.748465 Si / 1000 Ang^3
#
#
#
# Elastic Constant Matrix: (Units=GPa)
#
#
# Indices 1 2 3 4 5 6 
#
# 1 100.2000 51.5083 53.5058 0.0000 -4.1730 0.0000
# 2 51.5083 89.7911 57.3030 0.0000 0.0313 0.0000
# 3 53.5058 57.3030 88.3467 0.0000 -4.2180 0.0000
# 4 0.0000 0.0000 0.0000 27.4182 0.0000 14.2281
# 5 -4.1730 0.0313 -4.2180 0.0000 22.1526 0.0000
# 6 0.0000 0.0000 0.0000 14.2281 0.0000 11.9452
#
#
#
# Elastic Compliance Matrix: (Units=1/GPa)
#
#
# Indices 1 2 3 4 5 6 
#
# 1 0.016092 -0.005236 -0.006262 0.000000 0.001846 0.000000
# 2 -0.005236 0.020833 -0.010486 0.000000 -0.003012 0.000000
# 3 -0.006262 -0.010486 0.022058 0.000000 0.003035 0.000000
# 4 0.000000 0.000000 0.000000 0.095502 0.000000 -0.113753
# 5 0.001846 -0.003012 0.003035 0.000000 0.046072 0.000000
# 6 0.000000 0.000000 0.000000 -0.113753 0.000000 0.219207
#
#
# Mechanical properties :
#
#
# Convention : Reuss Voigt Hill
#
# Bulk Modulus (GPa) = 66.59343 66.99688 66.79515
# Shear Modulus (GPa) = 10.66702 20.03791 15.35246
#
# Velocity S-wave (km/s) = 2.45421 3.36370 2.94428
# Velocity P-wave (km/s) = 6.75522 7.27433 7.01957
#
# Compressibility (1/GPa) = 0.01501650
#
# Stress axis : x y z
#
# Youngs Moduli (GPa) = 62.14225 48.00043 45.33600
#
# Poissons Ratio (x) = 0.25131 0.28389
# Poissons Ratio (y) = 0.32535 0.47538
# Poissons Ratio (z) = 0.38913 0.50332
#
# Static dielectric constant tensor:
#      x y z
#    x 3.276580 0.000000 0.179970 
#    y 0.000000 3.319150 0.000000 
#    z 0.179970 0.000000 3.131850 
# 
# 
# High freq. dielectric constant tensor:
#      x y z
#    x 1.676140 0.000000 0.013460 
#    y 0.000000 1.693920 0.000000 
#    z 0.013460 0.000000 1.672120 
# 
# From -- ./inp_files/84742.got.cif
#   From: 2010.06.25/outbox.cif.g09.slc.cpg/sg10_43_cif.got.tgz:84742.got - 2010.06.27 22:07:45.
