data_PCOD8061401
_publ_section_title
;
Structure prediction by ZEFSAII (Michael W. Deem and Ramdas Pophale) SiO2 
 PCOD8061401
Probable space group: P 2/M
;
_chemical_formula_sum "Si O2"
_cell_formula_units_Z 24
_cell_length_a 12.717072
_cell_length_b 12.379748
_cell_length_c 18.073557
_cell_angle_alpha 90.000000
_cell_angle_beta 27.989207
_cell_angle_gamma 90.000000
_cell_volume 1335.358768
_symmetry_space_group_name_H-M "P 2/M"
_symmetry_group_IT_number 10
_symmetry_cell_setting 'monoclinic'
loop_
_space_group_symop_operation_xyz
x,y,z
-x,y,-z
-x,-y,-z
x,-y,z
loop_
_atom_site_type_symbol
_atom_site_label
_atom_site_fract_x
_atom_site_fract_y
_atom_site_fract_z
Si Si1 0.750184 0.125836 0.863994
Si Si2 0.182888 0.707183 0.054837
Si Si3 0.399891 0.500000 0.981540
Si Si4 0.825436 0.620922 0.174566
Si Si5 0.469758 0.292811 0.292513
Si Si6 0.744398 0.500000 0.637048
Si Si7 0.092369 0.874160 0.521815
O O1 0.839019 0.187902 0.880556
O O2 0.903534 0.153889 0.698818
O O3 0.755516 0.000000 0.880596
O O4 0.500000 0.164546 0.000000
O O5 0.938818 0.685939 0.171283
O O6 0.247266 0.604838 0.064773
O O7 0.366743 0.728884 0.877769
O O8 0.604361 0.500000 0.798558
O O9 0.500000 0.500000 0.000000
O O10 0.757391 0.500000 0.242587
O O11 0.608523 0.685934 0.281362
O O12 0.000000 0.609169 0.000000
O O13 0.311236 0.395175 0.376747
O O14 0.319729 0.187908 0.399836
O O15 0.000000 0.500000 0.500000
O O16 0.000000 0.835462 0.500000
O O17 0.152789 0.000000 0.483288
#
# Coordination Sequence:
#
# PCOD8061401 Si02
#       7
#     4   4   2   4   4   2   4
#     4  10  21  37  56  78 106 140 177 220 269 318
#     4  10  19  33  55  80 106 139 178 218 262 313
#     4  10  20  31  47  75 107 136 167 210 263 314
#     4   9  16  32  56  79 106 142 181 218 259 308
#     4  10  19  33  55  80 106 139 178 218 262 313
#     4  10  20  31  47  75 107 136 167 210 263 314
#     4  10  21  37  56  78 106 140 177 220 269 318
#
# _framework density 17.972698999999999
#
# number of rings (size 3 to 8) (size 9 to 14) (size 15 to 20)
#    0.000    2.167    1.667    2.000    0.000    6.000 
#    0.000    1.667    0.000    6.000    0.000    0.000 
#    0.000    0.000    0.000    0.000    0.000    0.000 
#
# Total GULP energy -297674.669565 kJ/mol
# GULP energy per Si atom -12403.111232 kJ/mol
# Density = 1.793179 g / cm^3
# Si number density = 17.972699 Si / 1000 Ang^3
#
#
#
# Elastic Constant Matrix: (Units=GPa)
#
#
# Indices 1 2 3 4 5 6 
#
# 1 159.7705 69.1907 58.6275 0.0000 -23.5174 0.0000
# 2 69.1907 89.2465 51.5651 0.0000 -8.9298 0.0000
# 3 58.6275 51.5651 77.1451 0.0000 -18.3473 0.0000
# 4 0.0000 0.0000 0.0000 28.3401 0.0000 1.3916
# 5 -23.5174 -8.9298 -18.3473 0.0000 29.9771 0.0000
# 6 0.0000 0.0000 0.0000 1.3916 0.0000 25.5930
#
#
#
# Elastic Compliance Matrix: (Units=1/GPa)
#
#
# Indices 1 2 3 4 5 6 
#
# 1 0.010676 -0.006139 -0.002871 0.000000 0.004790 0.000000
# 2 -0.006139 0.021931 -0.011218 0.000000 -0.005149 0.000000
# 3 -0.002871 -0.011218 0.024943 0.000000 0.009672 0.000000
# 4 0.000000 0.000000 0.000000 0.035380 0.000000 -0.001924
# 5 0.004790 -0.005149 0.009672 0.000000 0.041502 0.000000
# 6 0.000000 0.000000 0.000000 -0.001924 0.000000 0.039178
#
#
# Mechanical properties :
#
#
# Convention : Reuss Voigt Hill
#
# Bulk Modulus (GPa) = 58.50034 76.10322 67.30178
# Shear Modulus (GPa) = 22.75171 26.56730 24.65951
#
# Velocity S-wave (km/s) = 3.56181 3.84891 3.70814
# Velocity P-wave (km/s) = 7.03815 7.88593 7.47407
#
# Compressibility (1/GPa) = 0.01709392
#
# Stress axis : x y z
#
# Youngs Moduli (GPa) = 93.66831 45.59835 40.09116
#
# Poissons Ratio (x) = 0.27992 0.11510
# Poissons Ratio (y) = 0.57501 0.44975
# Poissons Ratio (z) = 0.26892 0.51153
#
# Static dielectric constant tensor:
#      x y z
#    x 3.398480 0.000000 -0.117250 
#    y 0.000000 3.304200 0.000000 
#    z -0.117250 0.000000 3.166310 
# 
# 
# High freq. dielectric constant tensor:
#      x y z
#    x 1.697610 0.000000 -0.008480 
#    y 0.000000 1.696950 0.000000 
#    z -0.008480 0.000000 1.680820 
# 
# From -- ./inp_files/53741.got.cif
#   From: 2010.06.25/outbox.cif.g09.slc.cpg/sg10_27_cif.got.tgz:53741.got - 2010.06.27 22:07:45.
