data_PCOD8061136
_publ_section_title
;
Structure prediction by ZEFSAII (Michael W. Deem and Ramdas Pophale) SiO2 
 PCOD8061136
Probable space group: P 2/M
;
_chemical_formula_sum "Si O2"
_cell_formula_units_Z 24
_cell_length_a 11.856421
_cell_length_b 13.781278
_cell_length_c 13.447490
_cell_angle_alpha 90.000000
_cell_angle_beta 32.662424
_cell_angle_gamma 90.000000
_cell_volume 1185.843439
_symmetry_space_group_name_H-M "P 2/M"
_symmetry_group_IT_number 10
_symmetry_cell_setting 'monoclinic'
loop_
_space_group_symop_operation_xyz
x,y,z
-x,y,-z
-x,-y,-z
x,-y,z
loop_
_atom_site_type_symbol
_atom_site_label
_atom_site_fract_x
_atom_site_fract_y
_atom_site_fract_z
Si Si1 0.317207 0.891241 0.714750
Si Si2 0.818194 0.114494 0.558451
Si Si3 0.388082 0.799027 0.869779
Si Si4 0.980788 0.112849 0.228845
Si Si5 0.279486 0.608651 0.694697
Si Si6 0.821743 0.609330 0.999980
O O1 0.500000 0.897037 0.500000
O O2 0.371055 0.818542 0.763810
O O3 0.119268 0.847171 0.800516
O O4 0.273886 0.000000 0.790004
O O5 0.614479 0.174028 0.743766
O O6 0.000000 0.139936 0.500000
O O7 0.878075 0.155170 0.405218
O O8 0.768362 0.000000 0.594805
O O9 0.332095 0.687105 0.937843
O O10 0.226009 0.867013 0.048230
O O11 0.932922 0.000000 0.266692
O O12 0.500000 0.663451 0.500000
O O13 0.299380 0.500000 0.637922
O O14 0.247562 0.606970 0.835070
O O15 0.061899 0.648767 0.807829
O O16 0.795495 0.500000 0.975090
#
# Coordination Sequence:
#
# PCOD8061136 Si02
#       6
#     4   4   4   4   4   4
#     4  10  19  33  52  78 117 154 181 214 265 336
#     4  10  22  41  61  82 109 140 182 236 283 328
#     4  12  22  33  56  81 112 151 186 221 277 334
#     4  10  21  35  54  83 112 142 181 220 268 335
#     4   8  15  30  48  65  96 143 184 219 263 310
#     4   9  20  33  47  75 111 146 188 231 265 316
#
# _framework density 20.238759000000002
#
# number of rings (size 3 to 8) (size 9 to 14) (size 15 to 20)
#    0.000    2.167    1.667    3.000    4.667    4.000 
#    0.000    2.500    0.000    0.500    0.000    1.167 
#    0.000    0.000    0.000    0.000    0.000    0.000 
#
# Total GULP energy -297377.651744 kJ/mol
# GULP energy per Si atom -12390.735489 kJ/mol
# Density = 2.019269 g / cm^3
# Si number density = 20.238759 Si / 1000 Ang^3
#
#
#
# Elastic Constant Matrix: (Units=GPa)
#
#
# Indices 1 2 3 4 5 6 
#
# 1 62.3313 34.6737 28.9782 0.0000 -27.9675 0.0000
# 2 34.6737 70.7839 28.2893 0.0000 -20.1097 0.0000
# 3 28.9782 28.2893 139.7965 0.0000 -35.8000 0.0000
# 4 0.0000 0.0000 0.0000 14.6276 0.0000 -11.0827
# 5 -27.9675 -20.1097 -35.8000 0.0000 32.7834 0.0000
# 6 0.0000 0.0000 0.0000 -11.0827 0.0000 13.7714
#
#
#
# Elastic Compliance Matrix: (Units=1/GPa)
#
#
# Indices 1 2 3 4 5 6 
#
# 1 0.030210 -0.009168 0.001045 0.000000 0.021290 0.000000
# 2 -0.009168 0.020008 -0.001400 0.000000 0.002924 0.000000
# 3 0.001045 -0.001400 0.010034 0.000000 0.010991 0.000000
# 4 0.000000 0.000000 0.000000 0.175172 0.000000 0.140972
# 5 0.021290 0.002924 0.010991 0.000000 0.062461 0.000000
# 6 0.000000 0.000000 0.000000 0.140972 0.000000 0.186063
#
#
# Mechanical properties :
#
#
# Convention : Reuss Voigt Hill
#
# Bulk Modulus (GPa) = 24.26723 50.75490 37.51106
# Shear Modulus (GPa) = 9.67625 24.30117 16.98871
#
# Velocity S-wave (km/s) = 2.18893 3.46891 2.90041
# Velocity P-wave (km/s) = 4.29011 6.41692 5.45811
#
# Compressibility (1/GPa) = 0.04120784
#
# Stress axis : x y z
#
# Youngs Moduli (GPa) = 33.10195 49.97903 99.65662
#
# Poissons Ratio (x) = 0.45819 -0.10414
# Poissons Ratio (y) = 0.30346 0.13950
# Poissons Ratio (z) = -0.03459 0.06996
#
# Static dielectric constant tensor:
#      x y z
#    x 3.392630 0.000000 -0.171110 
#    y 0.000000 3.776140 0.000000 
#    z -0.171110 0.000000 3.975720 
# 
# 
# High freq. dielectric constant tensor:
#      x y z
#    x 1.728000 0.000000 -0.010320 
#    y 0.000000 1.777740 0.000000 
#    z -0.010320 0.000000 1.814240 
# 
# From -- ./inp_files/51337.got.cif
#   From: 2010.06.25/outbox.cif.g09.slc.cpg/sg10_26_cif.got.tgz:51337.got - 2010.06.27 22:07:45.
