data_PCOD8061278
_publ_section_title
;
Structure prediction by ZEFSAII (Michael W. Deem and Ramdas Pophale) SiO2 
 PCOD8061278
Probable space group: P 2/M
;
_chemical_formula_sum "Si O2"
_cell_formula_units_Z 32
_cell_length_a 23.888280
_cell_length_b 8.878441
_cell_length_c 25.043353
_cell_angle_alpha 90.000000
_cell_angle_beta 162.073402
_cell_angle_gamma 90.000000
_cell_volume 1634.859131
_symmetry_space_group_name_H-M "P 2/M"
_symmetry_group_IT_number 10
_symmetry_cell_setting 'monoclinic'
loop_
_space_group_symop_operation_xyz
x,y,z
-x,y,-z
-x,-y,-z
x,-y,z
loop_
_atom_site_type_symbol
_atom_site_label
_atom_site_fract_x
_atom_site_fract_y
_atom_site_fract_z
Si Si1 0.586594 0.172830 0.332884
Si Si2 0.425232 0.679263 0.487627
Si Si3 0.649796 0.323127 0.793698
Si Si4 0.955958 0.323172 0.818687
Si Si5 0.043930 0.321561 0.300991
Si Si6 0.054250 0.675408 0.489594
Si Si7 0.817962 0.175104 0.184700
Si Si8 0.578259 0.170126 0.203020
O O1 0.428307 0.234681 0.226864
O O2 0.521477 0.190272 0.213101
O O3 0.765837 0.271607 0.501806
O O4 0.628455 0.000000 0.385566
O O5 0.500000 0.747617 0.500000
O O6 0.423842 0.500000 0.482994
O O7 0.555820 0.732901 0.654087
O O8 0.222155 0.744067 0.313568
O O9 0.616079 0.500000 0.772583
O O10 0.864316 0.285366 0.984025
O O11 0.926354 0.500000 0.786437
O O12 0.973524 0.256957 0.774929
O O13 0.031504 0.500000 0.291023
O O14 0.881389 0.256572 0.188516
O O15 0.028470 0.500000 0.454669
O O16 0.264194 0.716390 0.670989
O O17 0.000000 0.719836 0.500000
O O18 0.921071 0.764511 0.329858
O O19 0.863313 0.000000 0.219750
O O20 0.602106 0.203873 0.995525
O O21 0.647635 0.000000 0.255788
#
# Coordination Sequence:
#
# PCOD8061278 Si02
#       8
#     4   4   4   4   4   4   4   4
#     4  11  21  35  57  85 115 148 186 228 280 342
#     4   9  17  30  49  76 109 142 182 232 280 328
#     4  10  19  33  54  78 109 145 180 228 283 335
#     4   9  18  31  50  80 111 141 182 226 278 338
#     4  11  20  34  57  85 117 150 184 229 285 342
#     4  11  25  43  63  88 118 155 199 244 287 335
#     4  11  23  40  62  90 121 153 193 237 288 347
#     4  10  23  41  62  88 119 155 193 237 288 347
#
# _framework density 19.573551999999999
#
# number of rings (size 3 to 8) (size 9 to 14) (size 15 to 20)
#    0.000    1.750    2.500    2.250    0.000    3.500 
#    0.000    5.625    0.000    0.375    0.000    0.875 
#    0.000    0.000    0.000    0.000    0.000    0.000 
#
# Total GULP energy -396858.657370 kJ/mol
# GULP energy per Si atom -12401.833043 kJ/mol
# Density = 1.952900 g / cm^3
# Si number density = 19.573552 Si / 1000 Ang^3
#
#
#
# Elastic Constant Matrix: (Units=GPa)
#
#
# Indices 1 2 3 4 5 6 
#
# 1 121.4612 39.1770 54.9228 0.0000 7.0856 0.0000
# 2 39.1770 62.0100 34.2614 0.0000 1.8267 0.0000
# 3 54.9228 34.2614 137.2639 0.0000 9.7099 0.0000
# 4 0.0000 0.0000 0.0000 18.5281 0.0000 2.3883
# 5 7.0856 1.8267 9.7099 0.0000 13.0946 0.0000
# 6 0.0000 0.0000 0.0000 2.3883 0.0000 7.3293
#
#
#
# Elastic Compliance Matrix: (Units=1/GPa)
#
#
# Indices 1 2 3 4 5 6 
#
# 1 0.011578 -0.005552 -0.003017 0.000000 -0.003253 0.000000
# 2 -0.005552 0.021379 -0.003289 0.000000 0.002461 0.000000
# 3 -0.003017 -0.003289 0.009673 0.000000 -0.005081 0.000000
# 4 0.000000 0.000000 0.000000 0.056339 0.000000 -0.018358
# 5 -0.003253 0.002461 -0.005081 0.000000 0.081553 0.000000
# 6 0.000000 0.000000 0.000000 -0.018358 0.000000 0.142421
#
#
# Mechanical properties :
#
#
# Convention : Reuss Voigt Hill
#
# Bulk Modulus (GPa) = 52.87015 64.16195 58.51605
# Shear Modulus (GPa) = 14.16589 20.61531 17.39060
#
# Velocity S-wave (km/s) = 2.69313 3.24886 2.98396
# Velocity P-wave (km/s) = 6.06138 6.85015 6.46780
#
# Compressibility (1/GPa) = 0.01891427
#
# Stress axis : x y z
#
# Youngs Moduli (GPa) = 86.37260 46.77541 103.38512
#
# Poissons Ratio (x) = 0.25970 0.31187
# Poissons Ratio (y) = 0.47955 0.34000
# Poissons Ratio (z) = 0.26055 0.15383
#
# Static dielectric constant tensor:
#      x y z
#    x 3.774110 0.000000 0.012140 
#    y 0.000000 3.367940 0.000000 
#    z 0.012140 0.000000 3.667930 
# 
# 
# High freq. dielectric constant tensor:
#      x y z
#    x 1.761490 0.000000 0.001670 
#    y 0.000000 1.737840 0.000000 
#    z 0.001670 0.000000 1.776220 
# 
# From -- ./inp_files/90640.got.cif
#   From: 2010.06.25/outbox.cif.g09.slc.cpg/sg10_46_cif.got.tgz:90640.got - 2010.06.27 22:07:45.
