data_PCOD8061215
_publ_section_title
;
Structure prediction by ZEFSAII (Michael W. Deem and Ramdas Pophale) SiO2 
 PCOD8061215
Probable space group: P 2/M
;
_chemical_formula_sum "Si O2"
_cell_formula_units_Z 32
_cell_length_a 23.147476
_cell_length_b 8.663178
_cell_length_c 15.431183
_cell_angle_alpha 90.000000
_cell_angle_beta 148.666253
_cell_angle_gamma 90.000000
_cell_volume 1609.170511
_symmetry_space_group_name_H-M "P 2/M"
_symmetry_group_IT_number 10
_symmetry_cell_setting 'monoclinic'
loop_
_space_group_symop_operation_xyz
x,y,z
-x,y,-z
-x,-y,-z
x,-y,z
loop_
_atom_site_type_symbol
_atom_site_label
_atom_site_fract_x
_atom_site_fract_y
_atom_site_fract_z
Si Si1 0.076430 0.329322 0.523835
Si Si2 0.984865 0.670666 0.741150
Si Si3 0.618804 0.680855 0.616035
Si Si4 0.734153 0.318541 0.428184
Si Si5 0.702463 0.823086 0.210997
Si Si6 0.214546 0.818785 0.035393
Si Si7 0.648554 0.818440 0.953522
Si Si8 0.597436 0.180691 0.407618
O O1 0.126884 0.500000 0.611664
O O2 0.166051 0.196727 0.625178
O O3 0.000000 0.262377 0.500000
O O4 0.001536 0.347345 0.343715
O O5 0.998548 0.500000 0.802230
O O6 0.861960 0.742379 0.603795
O O7 0.086710 0.782387 0.897026
O O8 0.500000 0.734255 0.500000
O O9 0.620939 0.500000 0.598277
O O10 0.712224 0.722632 0.804252
O O11 0.644398 0.773770 0.561125
O O12 0.743331 0.500000 0.428065
O O13 0.668047 0.258363 0.257545
O O14 0.665639 0.273224 0.423811
O O15 0.666433 0.000000 0.173326
O O16 0.656621 0.747806 0.061908
O O17 0.253343 0.766838 0.987510
O O18 0.236502 0.000000 0.075832
O O19 0.531123 0.768371 0.762429
O O20 0.656569 0.000000 0.976386
O O21 0.613312 0.000000 0.411136
#
# Coordination Sequence:
#
# PCOD8061215 Si02
#       8
#     4   4   4   4   4   4   4   4
#     4   9  17  30  48  73 109 151 192 237 291 340
#     4   9  19  35  54  78 113 153 189 235 289 339
#     4  11  23  40  62  90 120 150 186 229 286 351
#     4  10  22  41  59  81 117 157 199 242 288 338
#     4  10  19  33  53  79 112 153 198 238 283 339
#     4  11  21  36  60  89 120 151 189 238 289 345
#     4   9  20  35  54  85 121 152 186 238 296 339
#     4  11  22  40  64  86 114 152 194 239 290 345
#
# _framework density 19.886021
#
# number of rings (size 3 to 8) (size 9 to 14) (size 15 to 20)
#    0.000    2.000    1.250    3.375    0.000    3.750 
#    0.000    7.500    0.000    3.750    0.000    0.000 
#    0.000    0.000    0.000    0.000    0.000    0.000 
#
# Total GULP energy -396531.015898 kJ/mol
# GULP energy per Si atom -12391.594247 kJ/mol
# Density = 1.984076 g / cm^3
# Si number density = 19.886021 Si / 1000 Ang^3
#
#
#
# Elastic Constant Matrix: (Units=GPa)
#
#
# Indices 1 2 3 4 5 6 
#
# 1 88.6504 10.3288 21.3563 0.0000 -16.0880 0.0000
# 2 10.3288 36.6087 15.1137 0.0000 -0.3134 0.0000
# 3 21.3563 15.1137 83.9273 0.0000 -10.2600 0.0000
# 4 0.0000 0.0000 0.0000 24.0238 0.0000 -1.5401
# 5 -16.0880 -0.3134 -10.2600 0.0000 28.7208 0.0000
# 6 0.0000 0.0000 0.0000 -1.5401 0.0000 29.1465
#
#
#
# Elastic Compliance Matrix: (Units=1/GPa)
#
#
# Indices 1 2 3 4 5 6 
#
# 1 0.013324 -0.002852 -0.002058 0.000000 0.006697 0.000000
# 2 -0.002852 0.030195 -0.005089 0.000000 -0.003086 0.000000
# 3 -0.002058 -0.005089 0.013811 0.000000 0.003725 0.000000
# 4 0.000000 0.000000 0.000000 0.041767 0.000000 0.002207
# 5 0.006697 -0.003086 0.003725 0.000000 0.039866 0.000000
# 6 0.000000 0.000000 0.000000 0.002207 0.000000 0.034426
#
#
# Mechanical properties :
#
#
# Convention : Reuss Voigt Hill
#
# Bulk Modulus (GPa) = 26.78747 33.64268 30.21508
# Shear Modulus (GPa) = 24.29174 27.20405 25.74790
#
# Velocity S-wave (km/s) = 3.49886 3.70266 3.60220
# Velocity P-wave (km/s) = 5.46099 5.93583 5.70335
#
# Compressibility (1/GPa) = 0.03733089
#
# Stress axis : x y z
#
# Youngs Moduli (GPa) = 75.05413 33.11782 72.40798
#
# Poissons Ratio (x) = 0.09446 0.14902
# Poissons Ratio (y) = 0.21407 0.36849
# Poissons Ratio (z) = 0.15447 0.16854
#
# Static dielectric constant tensor:
#      x y z
#    x 3.777680 0.000000 -0.109120 
#    y 0.000000 3.472540 0.000000 
#    z -0.109120 0.000000 3.592210 
# 
# 
# High freq. dielectric constant tensor:
#      x y z
#    x 1.774700 0.000000 -0.004210 
#    y 0.000000 1.763010 0.000000 
#    z -0.004210 0.000000 1.767020 
# 
# From -- ./inp_files/71658.got.cif
#   From: 2010.06.25/outbox.cif.g09.slc.cpg/sg10_36_cif.got.tgz:71658.got - 2010.06.27 22:07:45.
