data_PCOD8061913
_publ_section_title
;
Structure prediction by ZEFSAII (Michael W. Deem and Ramdas Pophale) SiO2 
 PCOD8061913
Probable space group: P 2/M
;
_chemical_formula_sum "Si O2"
_cell_formula_units_Z 28
_cell_length_a 14.436959
_cell_length_b 9.446615
_cell_length_c 12.626404
_cell_angle_alpha 90.000000
_cell_angle_beta 119.789521
_cell_angle_gamma 90.000000
_cell_volume 1494.443349
_symmetry_space_group_name_H-M "P 2/M"
_symmetry_group_IT_number 10
_symmetry_cell_setting 'monoclinic'
loop_
_space_group_symop_operation_xyz
x,y,z
-x,y,-z
-x,-y,-z
x,-y,z
loop_
_atom_site_type_symbol
_atom_site_label
_atom_site_fract_x
_atom_site_fract_y
_atom_site_fract_z
Si Si1 0.122594 0.664827 0.092904
Si Si2 0.117497 0.162765 0.522458
Si Si3 0.485733 0.835309 0.785834
Si Si4 0.275627 0.168622 0.022993
Si Si5 0.820505 0.661873 0.639640
Si Si6 0.423504 0.661935 0.548354
Si Si7 0.279175 0.165568 0.788752
O O1 0.151371 0.500000 0.093690
O O2 0.194617 0.755909 0.055321
O O3 0.144639 0.714804 0.224895
O O4 0.000000 0.696551 0.000000
O O5 0.120404 0.245070 0.413975
O O6 0.200918 0.231086 0.654566
O O7 0.000000 0.179280 0.500000
O O8 0.146891 0.000000 0.516138
O O9 0.603680 0.783681 0.882351
O O10 0.441120 0.755262 0.660078
O O11 0.403507 0.802432 0.834780
O O12 0.485574 0.000000 0.758061
O O13 0.262794 0.000000 0.025849
O O14 0.251465 0.223577 0.889980
O O15 0.855348 0.500000 0.641634
O O16 0.694841 0.681555 0.560974
O O17 0.500000 0.718584 0.500000
O O18 0.449870 0.500000 0.592235
O O19 0.256932 0.000000 0.777380
#
# Coordination Sequence:
#
# PCOD8061913 Si02
#       7
#     4   4   4   4   4   4   4
#     4  10  23  42  60  80 110 149 189 230 280 330
#     4  10  21  36  58  86 112 143 184 231 282 331
#     4  10  19  34  56  83 113 146 183 224 274 330
#     4  10  21  36  58  86 113 147 189 228 274 330
#     4  10  21  38  58  81 111 146 185 229 277 329
#     4  10  20  34  54  79 110 148 184 223 274 327
#     4   9  18  35  56  82 116 147 178 224 279 331
#
# _framework density 18.736073000000001
#
# number of rings (size 3 to 8) (size 9 to 14) (size 15 to 20)
#    0.000    2.143    1.429    1.286    2.000    4.857 
#    0.000    1.429    0.000    1.714    0.000    0.000 
#    0.000    0.000    0.000    0.000    0.000    0.000 
#
# Total GULP energy -347228.022854 kJ/mol
# GULP energy per Si atom -12401.000816 kJ/mol
# Density = 1.869343 g / cm^3
# Si number density = 18.736073 Si / 1000 Ang^3
#
#
#
# Elastic Constant Matrix: (Units=GPa)
#
#
# Indices 1 2 3 4 5 6 
#
# 1 109.1863 46.0998 69.4467 0.0000 -10.1050 0.0000
# 2 46.0998 45.8709 46.3500 0.0000 -10.5762 0.0000
# 3 69.4467 46.3500 155.2311 0.0000 -18.2507 0.0000
# 4 0.0000 0.0000 0.0000 19.5387 0.0000 12.6511
# 5 -10.1050 -10.5762 -18.2507 0.0000 32.5255 0.0000
# 6 0.0000 0.0000 0.0000 12.6511 0.0000 19.9920
#
#
#
# Elastic Compliance Matrix: (Units=1/GPa)
#
#
# Indices 1 2 3 4 5 6 
#
# 1 0.017277 -0.013879 -0.003731 0.000000 -0.001239 0.000000
# 2 -0.013879 0.043235 -0.005947 0.000000 0.006410 0.000000
# 3 -0.003731 -0.005947 0.010196 0.000000 0.002628 0.000000
# 4 0.000000 0.000000 0.000000 0.086707 0.000000 -0.054869
# 5 -0.001239 0.006410 0.002628 0.000000 0.033919 0.000000
# 6 0.000000 0.000000 0.000000 -0.054869 0.000000 0.084741
#
#
# Mechanical properties :
#
#
# Convention : Reuss Voigt Hill
#
# Bulk Modulus (GPa) = 42.38224 70.45351 56.41787
# Shear Modulus (GPa) = 15.10331 24.30403 19.70367
#
# Velocity S-wave (km/s) = 2.84229 3.60554 3.24642
# Velocity P-wave (km/s) = 5.78284 7.41741 6.65054
#
# Compressibility (1/GPa) = 0.02359479
#
# Stress axis : x y z
#
# Youngs Moduli (GPa) = 57.88119 23.12930 98.08012
#
# Poissons Ratio (x) = 0.32101 0.36592
# Poissons Ratio (y) = 0.80332 0.58326
# Poissons Ratio (z) = 0.21595 0.13755
#
# Static dielectric constant tensor:
#      x y z
#    x 3.219100 0.000000 -0.055950 
#    y 0.000000 3.260850 0.000000 
#    z -0.055950 0.000000 3.707300 
# 
# 
# High freq. dielectric constant tensor:
#      x y z
#    x 1.738930 0.000000 0.001090 
#    y 0.000000 1.701870 0.000000 
#    z 0.001090 0.000000 1.742270 
# 
# From -- ./inp_files/49546.got.cif
#   From: 2010.06.25/outbox.cif.g09.slc.cpg/sg10_25_cif.got.tgz:49546.got - 2010.06.27 22:07:45.
