data_PCOD8061233
_publ_section_title
;
Structure prediction by ZEFSAII (Michael W. Deem and Ramdas Pophale) SiO2 
 PCOD8061233
Probable space group: P 2/M
;
_chemical_formula_sum "Si O2"
_cell_formula_units_Z 32
_cell_length_a 11.320981
_cell_length_b 9.184373
_cell_length_c 21.071535
_cell_angle_alpha 90.000000
_cell_angle_beta 52.159416
_cell_angle_gamma 90.000000
_cell_volume 1730.227689
_symmetry_space_group_name_H-M "P 2/M"
_symmetry_group_IT_number 10
_symmetry_cell_setting 'monoclinic'
loop_
_space_group_symop_operation_xyz
x,y,z
-x,y,-z
-x,-y,-z
x,-y,z
loop_
_atom_site_type_symbol
_atom_site_label
_atom_site_fract_x
_atom_site_fract_y
_atom_site_fract_z
Si Si1 0.150344 0.670011 0.272787
Si Si2 0.047651 0.828261 0.887684
Si Si3 0.545733 0.833573 0.676616
Si Si4 0.114523 0.164896 0.409531
Si Si5 0.082999 0.172106 0.733966
Si Si6 0.589665 0.172437 0.409758
Si Si7 0.510896 0.329273 0.816212
Si Si8 0.765026 0.172129 0.055195
O O1 0.118543 0.500000 0.278675
O O2 0.090654 0.726915 0.359411
O O3 0.326088 0.706889 0.208890
O O4 0.061492 0.750362 0.246836
O O5 0.095174 0.772439 0.802642
O O6 0.164747 0.771484 0.901348
O O7 0.053237 0.000000 0.889273
O O8 0.878111 0.780808 0.961542
O O9 0.723393 0.824762 0.612677
O O10 0.480616 0.768115 0.632642
O O11 0.487898 0.739034 0.754251
O O12 0.490867 0.000000 0.705278
O O13 0.000000 0.217657 0.500000
O O14 0.080565 0.000000 0.397784
O O15 0.234704 0.215963 0.646357
O O16 0.056724 0.000000 0.739903
O O17 0.500000 0.238747 0.500000
O O18 0.571108 0.000000 0.416504
O O19 0.484616 0.500000 0.819512
O O20 0.390836 0.257142 0.903342
O O21 0.734275 0.000000 0.065056
#
# Coordination Sequence:
#
# PCOD8061233 Si02
#       8
#     4   4   4   4   4   4   4   4
#     4  10  22  37  50  69 101 142 178 210 256 307
#     4   8  16  31  53  84 109 133 165 207 259 309
#     4   9  17  31  51  75 102 130 164 205 256 309
#     4   9  18  31  53  80  99 122 167 220 259 299
#     4  10  19  33  54  75 103 137 173 211 252 304
#     4   9  18  30  50  79 105 130 162 207 258 303
#     4  10  20  34  51  73 102 134 172 215 256 299
#     4   9  16  31  57  82 107 131 165 210 257 311
#
# _framework density 18.494675999999998
#
# number of rings (size 3 to 8) (size 9 to 14) (size 15 to 20)
#    0.000    2.750    0.000    2.250    1.750    3.750 
#    0.000    5.000    0.000    4.500    0.000    0.000 
#    0.000    0.000    0.000    0.000    0.000    0.000 
#
# Total GULP energy -396729.716104 kJ/mol
# GULP energy per Si atom -12397.803628 kJ/mol
# Density = 1.845258 g / cm^3
# Si number density = 18.494676 Si / 1000 Ang^3
#
#
#
# Elastic Constant Matrix: (Units=GPa)
#
#
# Indices 1 2 3 4 5 6 
#
# 1 75.9294 30.1460 37.4947 0.0000 1.3763 0.0000
# 2 30.1460 49.2705 33.5691 0.0000 -5.4989 0.0000
# 3 37.4947 33.5691 116.3602 0.0000 -17.6714 0.0000
# 4 0.0000 0.0000 0.0000 13.8348 0.0000 -5.7991
# 5 1.3763 -5.4989 -17.6714 0.0000 25.7853 0.0000
# 6 0.0000 0.0000 0.0000 -5.7991 0.0000 15.7232
#
#
#
# Elastic Compliance Matrix: (Units=1/GPa)
#
#
# Indices 1 2 3 4 5 6 
#
# 1 0.019185 -0.009429 -0.004378 0.000000 -0.006035 0.000000
# 2 -0.009429 0.029900 -0.005071 0.000000 0.003405 0.000000
# 3 -0.004378 -0.005071 0.012656 0.000000 0.007826 0.000000
# 4 0.000000 0.000000 0.000000 0.085500 0.000000 0.031534
# 5 -0.006035 0.003405 0.007826 0.000000 0.045193 0.000000
# 6 0.000000 0.000000 0.000000 0.031534 0.000000 0.075231
#
#
# Mechanical properties :
#
#
# Convention : Reuss Voigt Hill
#
# Bulk Modulus (GPa) = 41.69201 49.33107 45.51154
# Shear Modulus (GPa) = 15.95325 20.42534 18.18929
#
# Velocity S-wave (km/s) = 2.94017 3.32684 3.13946
# Velocity P-wave (km/s) = 5.84104 6.44113 6.14841
#
# Compressibility (1/GPa) = 0.02398541
#
# Stress axis : x y z
#
# Youngs Moduli (GPa) = 52.12366 33.44510 79.01244
#
# Poissons Ratio (x) = 0.31535 0.34595
# Poissons Ratio (y) = 0.49146 0.40064
# Poissons Ratio (z) = 0.22822 0.16959
#
# Static dielectric constant tensor:
#      x y z
#    x 3.458070 0.000000 -0.030830 
#    y 0.000000 3.075100 0.000000 
#    z -0.030830 0.000000 3.630130 
# 
# 
# High freq. dielectric constant tensor:
#      x y z
#    x 1.714470 0.000000 -0.013950 
#    y 0.000000 1.680640 0.000000 
#    z -0.013950 0.000000 1.722740 
# 
# From -- ./inp_files/83535.got.cif
#   From: 2010.06.25/outbox.cif.g09.slc.cpg/sg10_42_cif.got.tgz:83535.got - 2010.06.27 22:07:45.
