data_PCOD8061831
_publ_section_title
;
Structure prediction by ZEFSAII (Michael W. Deem and Ramdas Pophale) SiO2 
 PCOD8061831
Probable space group: P 2/M
;
_chemical_formula_sum "Si O2"
_cell_formula_units_Z 28
_cell_length_a 10.224086
_cell_length_b 11.133990
_cell_length_c 16.143248
_cell_angle_alpha 90.000000
_cell_angle_beta 130.187052
_cell_angle_gamma 90.000000
_cell_volume 1403.868905
_symmetry_space_group_name_H-M "P 2/M"
_symmetry_group_IT_number 10
_symmetry_cell_setting 'monoclinic'
loop_
_space_group_symop_operation_xyz
x,y,z
-x,y,-z
-x,-y,-z
x,-y,z
loop_
_atom_site_type_symbol
_atom_site_label
_atom_site_fract_x
_atom_site_fract_y
_atom_site_fract_z
Si Si1 0.722797 0.370001 0.955746
Si Si2 0.309138 0.135368 0.783612
Si Si3 0.531016 0.287225 0.283902
Si Si4 0.151444 0.365025 0.496578
Si Si5 0.088732 0.861047 0.355208
Si Si6 0.500000 0.279432 0.000000
Si Si7 0.755392 0.868121 0.758300
Si Si8 0.000000 0.799782 0.000000
O O1 0.808115 0.500000 0.982562
O O2 0.571533 0.361290 0.826717
O O3 0.873218 0.276330 0.005063
O O4 0.646059 0.359592 0.016907
O O5 0.349772 0.186854 0.709811
O O6 0.113215 0.151354 0.725899
O O7 0.369755 0.000000 0.806758
O O8 0.423261 0.197090 0.898417
O O9 0.661508 0.373929 0.385008
O O10 0.395474 0.227299 0.291139
O O11 0.122506 0.500000 0.444355
O O12 0.162356 0.249039 0.440200
O O13 0.000000 0.340974 0.500000
O O14 0.147544 0.834656 0.286109
O O15 0.140112 0.000000 0.403934
O O16 0.672696 0.000000 0.716746
O O17 0.887717 0.875565 0.889562
#
# Coordination Sequence:
#
# PCOD8061831 Si02
#       8
#     4   4   4   4   4   2   4   2
#     4  10  20  35  53  78 111 150 192 242 291 348
#     4  10  19  34  55  82 114 148 191 240 292 354
#     4  10  21  37  58  85 112 149 199 242 296 353
#     4  11  23  42  65  89 117 156 203 251 305 359
#     4  10  22  39  60  89 122 154 197 248 299 354
#     4  10  20  32  52  80 112 146 188 238 296 350
#     4  10  21  38  60  89 123 156 192 242 296 353
#     4  10  20  36  60  82 116 156 200 228 282 358
#
# _framework density 19.944883000000001
#
# number of rings (size 3 to 8) (size 9 to 14) (size 15 to 20)
#    0.000    1.857    1.429    2.571    0.000    2.000 
#    0.000   12.857    0.000    0.000    0.000    0.000 
#    0.000    0.000    0.000    0.000    0.000    0.000 
#
# Total GULP energy -347007.137892 kJ/mol
# GULP energy per Si atom -12393.112068 kJ/mol
# Density = 1.989949 g / cm^3
# Si number density = 19.944883 Si / 1000 Ang^3
#
#
#
# Elastic Constant Matrix: (Units=GPa)
#
#
# Indices 1 2 3 4 5 6 
#
# 1 119.6180 31.8085 21.7476 0.0000 -8.8846 0.0000
# 2 31.8085 112.1197 27.9753 0.0000 -10.0517 0.0000
# 3 21.7476 27.9753 39.4850 0.0000 -7.2970 0.0000
# 4 0.0000 0.0000 0.0000 75.4594 0.0000 27.9954
# 5 -8.8846 -10.0517 -7.2970 0.0000 29.1794 0.0000
# 6 0.0000 0.0000 0.0000 27.9954 0.0000 57.0322
#
#
#
# Elastic Compliance Matrix: (Units=1/GPa)
#
#
# Indices 1 2 3 4 5 6 
#
# 1 0.009602 -0.001632 -0.003875 0.000000 0.001392 0.000000
# 2 -0.001632 0.011213 -0.006735 0.000000 0.001682 0.000000
# 3 -0.003875 -0.006735 0.033115 0.000000 0.004782 0.000000
# 4 0.000000 0.000000 0.000000 0.016203 0.000000 -0.007954
# 5 0.001392 0.001682 0.004782 0.000000 0.036470 0.000000
# 6 0.000000 0.000000 0.000000 -0.007954 0.000000 0.021438
#
#
# Mechanical properties :
#
#
# Convention : Reuss Voigt Hill
#
# Bulk Modulus (GPa) = 33.95953 48.25394 41.10673
# Shear Modulus (GPa) = 30.79940 44.98028 37.88984
#
# Velocity S-wave (km/s) = 3.93393 4.75408 4.36331
# Velocity P-wave (km/s) = 6.13987 7.37436 6.78525
#
# Compressibility (1/GPa) = 0.02944682
#
# Stress axis : x y z
#
# Youngs Moduli (GPa) = 104.14600 89.17950 30.19743
#
# Poissons Ratio (x) = 0.14558 0.11700
# Poissons Ratio (y) = 0.17002 0.20337
# Poissons Ratio (z) = 0.40353 0.60061
#
# Static dielectric constant tensor:
#      x y z
#    x 3.634400 0.000000 -0.011100 
#    y 0.000000 3.719700 0.000000 
#    z -0.011100 0.000000 3.452890 
# 
# 
# High freq. dielectric constant tensor:
#      x y z
#    x 1.789590 0.000000 0.002320 
#    y 0.000000 1.784660 0.000000 
#    z 0.002320 0.000000 1.760990 
# 
# From -- ./inp_files/61315.got.cif
#   From: 2010.06.25/outbox.cif.g09.slc.cpg/sg10_31_cif.got.tgz:61315.got - 2010.06.27 22:07:45.
