data_PCOD8061884
_publ_section_title
;
Structure prediction by ZEFSAII (Michael W. Deem and Ramdas Pophale) SiO2 
 PCOD8061884
Probable space group: P 2/M
;
_chemical_formula_sum "Si O2"
_cell_formula_units_Z 32
_cell_length_a 26.534407
_cell_length_b 9.012864
_cell_length_c 21.074222
_cell_angle_alpha 90.000000
_cell_angle_beta 18.598630
_cell_angle_gamma 90.000000
_cell_volume 1607.415601
_symmetry_space_group_name_H-M "P 2/M"
_symmetry_group_IT_number 10
_symmetry_cell_setting 'monoclinic'
loop_
_space_group_symop_operation_xyz
x,y,z
-x,y,-z
-x,-y,-z
x,-y,z
loop_
_atom_site_type_symbol
_atom_site_label
_atom_site_fract_x
_atom_site_fract_y
_atom_site_fract_z
Si Si1 0.675500 0.668777 0.667172
Si Si2 0.133378 0.668345 0.439842
Si Si3 0.374669 0.832649 0.062984
Si Si4 0.653602 0.176957 0.279457
Si Si5 0.717173 0.176379 0.484723
Si Si6 0.399971 0.823831 0.797559
Si Si7 0.819223 0.167353 0.829602
Si Si8 0.023264 0.823383 0.043507
O O1 0.637847 0.500000 0.692653
O O2 0.824780 0.678935 0.535783
O O3 0.713630 0.762776 0.559849
O O4 0.530314 0.733007 0.881284
O O5 0.146199 0.500000 0.399718
O O6 0.242808 0.771208 0.266912
O O7 0.955118 0.723091 0.644714
O O8 0.318523 0.830493 0.057604
O O9 0.415414 0.000000 0.035375
O O10 0.500000 0.235245 0.500000
O O11 0.639871 0.239865 0.224371
O O12 0.812853 0.238574 0.122614
O O13 0.657522 0.000000 0.274454
O O14 0.568512 0.237165 0.621495
O O15 0.713002 0.000000 0.494343
O O16 0.877147 0.232960 0.260339
O O17 0.410716 0.000000 0.782847
O O18 0.258472 0.773596 0.012639
O O19 0.886448 0.000000 0.757484
O O20 0.027708 0.000000 0.036853
O O21 0.000000 0.761612 0.000000
#
# Coordination Sequence:
#
# PCOD8061884 Si02
#       8
#     4   4   4   4   4   4   4   4
#     4  11  24  40  57  81 116 152 190 234 285 342
#     4  11  25  40  56  82 115 150 189 234 287 342
#     4  11  22  40  63  87 110 143 190 237 289 343
#     4   9  16  26  44  74 113 152 183 220 277 333
#     4  10  19  34  56  80 111 148 190 236 282 333
#     4   9  17  31  49  74 109 145 182 231 280 329
#     4  10  21  37  57  83 114 146 188 237 287 339
#     4   9  17  28  47  80 116 149 184 227 278 331
#
# _framework density 19.907731999999999
#
# number of rings (size 3 to 8) (size 9 to 14) (size 15 to 20)
#    0.000    2.000    1.250    2.625    1.750    9.000 
#    0.000    0.000    0.000    0.375    0.000    0.000 
#    0.000    2.500    0.000    0.000    0.000    0.000 
#
# Total GULP energy -396860.340012 kJ/mol
# GULP energy per Si atom -12401.885625 kJ/mol
# Density = 1.986242 g / cm^3
# Si number density = 19.907732 Si / 1000 Ang^3
#
#
#
# Elastic Constant Matrix: (Units=GPa)
#
#
# Indices 1 2 3 4 5 6 
#
# 1 94.6003 13.5131 27.9426 0.0000 9.5819 0.0000
# 2 13.5131 43.3777 16.5640 0.0000 -0.4083 0.0000
# 3 27.9426 16.5640 111.9023 0.0000 6.2684 0.0000
# 4 0.0000 0.0000 0.0000 10.8182 0.0000 -6.5624
# 5 9.5819 -0.4083 6.2684 0.0000 36.8834 0.0000
# 6 0.0000 0.0000 0.0000 -6.5624 0.0000 14.4361
#
#
#
# Elastic Compliance Matrix: (Units=1/GPa)
#
#
# Indices 1 2 3 4 5 6 
#
# 1 0.011965 -0.002831 -0.002416 0.000000 -0.002729 0.000000
# 2 -0.002831 0.025133 -0.003100 0.000000 0.001540 0.000000
# 3 -0.002416 -0.003100 0.010061 0.000000 -0.001117 0.000000
# 4 0.000000 0.000000 0.000000 0.127632 0.000000 0.058019
# 5 -0.002729 0.001540 -0.001117 0.000000 0.028028 0.000000
# 6 0.000000 0.000000 0.000000 0.058019 0.000000 0.095645
#
#
# Mechanical properties :
#
#
# Convention : Reuss Voigt Hill
#
# Bulk Modulus (GPa) = 32.82242 40.65775 36.74009
# Shear Modulus (GPa) = 15.36981 25.21824 20.29403
#
# Velocity S-wave (km/s) = 2.78160 3.56301 3.19627
# Velocity P-wave (km/s) = 5.18068 6.11508 5.66717
#
# Compressibility (1/GPa) = 0.03046698
#
# Stress axis : x y z
#
# Youngs Moduli (GPa) = 83.57597 39.78788 99.39363
#
# Poissons Ratio (x) = 0.11262 0.24013
# Poissons Ratio (y) = 0.23657 0.30810
# Poissons Ratio (z) = 0.20191 0.12333
#
# Static dielectric constant tensor:
#      x y z
#    x 3.835260 0.000000 -0.032580 
#    y 0.000000 3.215700 0.000000 
#    z -0.032580 0.000000 3.700040 
# 
# 
# High freq. dielectric constant tensor:
#      x y z
#    x 1.791200 0.000000 0.001480 
#    y 0.000000 1.727740 0.000000 
#    z 0.001480 0.000000 1.786030 
# 
# From -- ./inp_files/86848.got.cif
#   From: 2010.06.25/outbox.cif.g09.slc.cpg/sg10_44_cif.got.tgz:86848.got - 2010.06.27 22:07:45.
