data_PCOD8061579
_publ_section_title
;
Structure prediction by ZEFSAII (Michael W. Deem and Ramdas Pophale) SiO2 
 PCOD8061579
Probable space group: P 2/M
;
_chemical_formula_sum "Si O2"
_cell_formula_units_Z 28
_cell_length_a 11.072093
_cell_length_b 14.191054
_cell_length_c 9.898783
_cell_angle_alpha 90.000000
_cell_angle_beta 120.284845
_cell_angle_gamma 90.000000
_cell_volume 1343.083747
_symmetry_space_group_name_H-M "P 2/M"
_symmetry_group_IT_number 10
_symmetry_cell_setting 'monoclinic'
loop_
_space_group_symop_operation_xyz
x,y,z
-x,y,-z
-x,-y,-z
x,-y,z
loop_
_atom_site_type_symbol
_atom_site_label
_atom_site_fract_x
_atom_site_fract_y
_atom_site_fract_z
Si Si1 0.668464 0.611562 0.326104
Si Si2 0.134881 0.895239 0.892830
Si Si3 0.100340 0.730551 0.682095
Si Si4 0.188044 0.894935 0.220298
Si Si5 0.660767 0.723990 0.590124
Si Si6 0.061580 0.393881 0.892226
Si Si7 0.645759 0.394515 0.836748
O O1 0.699878 0.500000 0.346131
O O2 0.772372 0.661741 0.281652
O O3 0.700468 0.657050 0.488876
O O4 0.507249 0.633651 0.191309
O O5 0.165830 0.824715 0.785918
O O6 0.972679 0.896758 0.833280
O O7 0.184898 0.000000 0.877533
O O8 0.212059 0.864468 0.076118
O O9 0.007374 0.675488 0.743424
O O10 0.000000 0.755606 0.500000
O O11 0.259367 0.823431 0.365351
O O12 0.250576 0.000000 0.276477
O O13 0.500000 0.750686 0.500000
O O14 0.700971 0.668578 0.746748
O O15 0.008352 0.500000 0.834827
O O16 0.231763 0.389269 0.982930
O O17 0.000000 0.357731 0.000000
O O18 0.631517 0.500000 0.770522
#
# Coordination Sequence:
#
# PCOD8061579 Si02
#       7
#     4   4   4   4   4   4   4
#     4  10  22  38  55  82 121 162 200 238 289 346
#     4   9  20  38  60  84 111 147 195 246 295 351
#     4  12  25  37  57  87 122 156 190 245 305 351
#     4   9  18  35  60  86 111 145 194 248 293 342
#     4  10  19  33  56  86 117 154 195 240 289 347
#     4  10  23  39  58  86 116 155 201 243 287 342
#     4   9  19  37  60  82 110 155 206 246 280 340
#
# _framework density 20.847546000000001
#
# number of rings (size 3 to 8) (size 9 to 14) (size 15 to 20)
#    0.000    2.143    0.000    3.429    6.000    4.000 
#    0.000    2.857    0.000    0.857    0.000    9.000 
#    0.000    0.000    0.000    0.000    0.000    0.000 
#
# Total GULP energy -347071.405308 kJ/mol
# GULP energy per Si atom -12395.407332 kJ/mol
# Density = 2.080010 g / cm^3
# Si number density = 20.847546 Si / 1000 Ang^3
#
#
#
# Elastic Constant Matrix: (Units=GPa)
#
#
# Indices 1 2 3 4 5 6 
#
# 1 56.4723 34.8866 20.7374 0.0000 -12.3698 0.0000
# 2 34.8866 126.6558 49.7185 0.0000 -14.1294 0.0000
# 3 20.7374 49.7185 71.7061 0.0000 -9.2220 0.0000
# 4 0.0000 0.0000 0.0000 32.6556 0.0000 -7.4473
# 5 -12.3698 -14.1294 -9.2220 0.0000 25.1682 0.0000
# 6 0.0000 0.0000 0.0000 -7.4473 0.0000 25.9337
#
#
#
# Elastic Compliance Matrix: (Units=1/GPa)
#
#
# Indices 1 2 3 4 5 6 
#
# 1 0.023158 -0.004487 -0.002567 0.000000 0.007922 0.000000
# 2 -0.004487 0.012019 -0.006771 0.000000 0.002061 0.000000
# 3 -0.002567 -0.006771 0.019658 0.000000 0.002140 0.000000
# 4 0.000000 0.000000 0.000000 0.032769 0.000000 0.009410
# 5 0.007922 0.002061 0.002140 0.000000 0.045568 0.000000
# 6 0.000000 0.000000 0.000000 0.009410 0.000000 0.041262
#
#
# Mechanical properties :
#
#
# Convention : Reuss Voigt Hill
#
# Bulk Modulus (GPa) = 36.78538 51.72433 44.25486
# Shear Modulus (GPa) = 23.68032 26.71760 25.19896
#
# Velocity S-wave (km/s) = 3.37394 3.58379 3.48044
# Velocity P-wave (km/s) = 5.73247 6.47992 6.11762
#
# Compressibility (1/GPa) = 0.02718471
#
# Stress axis : x y z
#
# Youngs Moduli (GPa) = 43.18203 83.19993 50.86932
#
# Poissons Ratio (x) = 0.37333 0.13059
# Poissons Ratio (y) = 0.19377 0.34443
# Poissons Ratio (z) = 0.11085 0.56334
#
# Static dielectric constant tensor:
#      x y z
#    x 3.633030 0.000000 0.005120 
#    y 0.000000 4.004130 0.000000 
#    z 0.005120 0.000000 3.780650 
# 
# 
# High freq. dielectric constant tensor:
#      x y z
#    x 1.798050 0.000000 0.001510 
#    y 0.000000 1.820500 0.000000 
#    z 0.001510 0.000000 1.807990 
# 
# From -- ./inp_files/24917.got.cif
#   From: 2010.06.25/outbox.cif.g09.slc.cpg/sg10_13_cif.got.tgz:24917.got - 2010.06.27 22:07:45.
