data_PCOD8061753
_publ_section_title
;
Structure prediction by ZEFSAII (Michael W. Deem and Ramdas Pophale) SiO2 
 PCOD8061753
Probable space group: P 2/M
;
_chemical_formula_sum "Si O2"
_cell_formula_units_Z 32
_cell_length_a 14.929749
_cell_length_b 14.925005
_cell_length_c 11.706688
_cell_angle_alpha 90.000000
_cell_angle_beta 141.088565
_cell_angle_gamma 90.000000
_cell_volume 1638.485218
_symmetry_space_group_name_H-M "P 2/M"
_symmetry_group_IT_number 10
_symmetry_cell_setting 'monoclinic'
loop_
_space_group_symop_operation_xyz
x,y,z
-x,y,-z
-x,-y,-z
x,-y,z
loop_
_atom_site_type_symbol
_atom_site_label
_atom_site_fract_x
_atom_site_fract_y
_atom_site_fract_z
Si Si1 0.658503 0.896255 0.940796
Si Si2 0.343561 0.349302 0.823933
Si Si3 0.359168 0.164971 0.704450
Si Si4 0.336566 0.724149 0.471054
Si Si5 0.825446 0.392129 0.120793
Si Si6 0.337821 0.270933 0.210719
Si Si7 0.150010 0.598801 0.430497
Si Si8 0.150119 0.101330 0.667787
O O1 0.505227 0.889721 0.849315
O O2 0.674647 0.829661 0.850733
O O3 0.684611 0.000000 0.929972
O O4 0.767985 0.857420 0.143236
O O5 0.369839 0.252029 0.795707
O O6 0.261046 0.347042 0.861624
O O7 0.245754 0.404808 0.639668
O O8 0.500000 0.393487 0.000000
O O9 0.315699 0.189061 0.531190
O O10 0.237710 0.102888 0.636906
O O11 0.501116 0.692146 0.645564
O O12 0.296692 0.744214 0.301480
O O13 0.227744 0.649701 0.405941
O O14 0.803052 0.500000 0.094682
O O15 0.991303 0.364262 0.299513
O O16 0.765985 0.345058 0.947080
O O17 0.131033 0.500000 0.363243
O O18 0.000000 0.152986 0.500000
O O19 0.118516 0.000000 0.670775
#
# Coordination Sequence:
#
# PCOD8061753 Si02
#       8
#     4   4   4   4   4   4   4   4
#     4  10  20  36  59  83 111 146 181 224 279 332
#     4  11  21  34  55  83 114 147 182 226 276 329
#     4  10  19  34  54  79 108 142 180 222 272 329
#     4   9  21  38  57  78 107 143 184 232 278 325
#     4  11  23  37  56  83 114 150 188 229 279 332
#     4  10  21  40  58  81 111 143 189 237 277 330
#     4  10  22  38  55  80 113 147 187 231 278 334
#     4  10  20  32  49  77 109 138 173 218 267 325
#
# _framework density 19.530235000000001
#
# number of rings (size 3 to 8) (size 9 to 14) (size 15 to 20)
#    0.000    1.875    0.000    5.250    0.000    9.500 
#    0.000    8.125    0.000    0.000    0.000    4.375 
#    0.000    0.000    0.000    0.000    0.000    0.000 
#
# Total GULP energy -396643.996176 kJ/mol
# GULP energy per Si atom -12395.124880 kJ/mol
# Density = 1.948578 g / cm^3
# Si number density = 19.530235 Si / 1000 Ang^3
#
#
#
# Elastic Constant Matrix: (Units=GPa)
#
#
# Indices 1 2 3 4 5 6 
#
# 1 125.0279 31.4573 90.3529 0.0000 -4.4107 0.0000
# 2 31.4573 70.1322 35.7733 0.0000 -1.9441 0.0000
# 3 90.3529 35.7733 141.0378 0.0000 2.8556 0.0000
# 4 0.0000 0.0000 0.0000 12.9228 0.0000 5.9919
# 5 -4.4107 -1.9441 2.8556 0.0000 37.0276 0.0000
# 6 0.0000 0.0000 0.0000 5.9919 0.0000 21.4147
#
#
#
# Elastic Compliance Matrix: (Units=1/GPa)
#
#
# Indices 1 2 3 4 5 6 
#
# 1 0.015381 -0.002044 -0.009384 0.000000 0.002449 0.000000
# 2 -0.002044 0.016701 -0.002944 0.000000 0.000860 0.000000
# 3 -0.009384 -0.002944 0.013896 0.000000 -0.002344 0.000000
# 4 0.000000 0.000000 0.000000 0.088919 0.000000 -0.024880
# 5 0.002449 0.000860 -0.002344 0.000000 0.027525 0.000000
# 6 0.000000 0.000000 0.000000 -0.024880 0.000000 0.053658
#
#
# Mechanical properties :
#
#
# Convention : Reuss Voigt Hill
#
# Bulk Modulus (GPa) = 58.02780 72.37389 65.20085
# Shear Modulus (GPa) = 19.95456 26.18064 23.06760
#
# Velocity S-wave (km/s) = 3.19991 3.66528 3.44047
# Velocity P-wave (km/s) = 6.59006 7.41958 7.01709
#
# Compressibility (1/GPa) = 0.01723312
#
# Stress axis : x y z
#
# Youngs Moduli (GPa) = 65.01690 59.87580 71.96126
#
# Poissons Ratio (x) = 0.12240 0.67531
# Poissons Ratio (y) = 0.13291 0.21185
# Poissons Ratio (z) = 0.61014 0.17628
#
# Static dielectric constant tensor:
#      x y z
#    x 3.618290 0.000000 0.136610 
#    y 0.000000 3.386000 0.000000 
#    z 0.136610 0.000000 3.841560 
# 
# 
# High freq. dielectric constant tensor:
#      x y z
#    x 1.759400 0.000000 0.007760 
#    y 0.000000 1.750270 0.000000 
#    z 0.007760 0.000000 1.766230 
# 
# From -- ./inp_files/51662.got.cif
#   From: 2010.06.25/outbox.cif.g09.slc.cpg/sg10_26_cif.got.tgz:51662.got - 2010.06.27 22:07:45.
