data_PCOD8061588
_publ_section_title
;
Structure prediction by ZEFSAII (Michael W. Deem and Ramdas Pophale) SiO2 
 PCOD8061588
Probable space group: P 2/M
;
_chemical_formula_sum "Si O2"
_cell_formula_units_Z 28
_cell_length_a 14.981448
_cell_length_b 8.758290
_cell_length_c 12.605308
_cell_angle_alpha 90.000000
_cell_angle_beta 105.950428
_cell_angle_gamma 90.000000
_cell_volume 1590.287992
_symmetry_space_group_name_H-M "P 2/M"
_symmetry_group_IT_number 10
_symmetry_cell_setting 'monoclinic'
loop_
_space_group_symop_operation_xyz
x,y,z
-x,y,-z
-x,-y,-z
x,-y,z
loop_
_atom_site_type_symbol
_atom_site_label
_atom_site_fract_x
_atom_site_fract_y
_atom_site_fract_z
Si Si1 0.907192 0.179238 0.244465
Si Si2 0.903400 0.679961 0.016217
Si Si3 0.217993 0.822152 0.196557
Si Si4 0.109985 0.180981 0.366838
Si Si5 0.589658 0.178385 0.644702
Si Si6 0.601050 0.680371 0.421473
Si Si7 0.777882 0.819972 0.394714
O O1 0.885731 0.261442 0.128065
O O2 0.825511 0.220434 0.299008
O O3 0.004124 0.238717 0.325581
O O4 0.913347 0.000000 0.224738
O O5 0.907007 0.500000 0.019330
O O6 0.816823 0.733196 0.917530
O O7 0.000000 0.746344 0.000000
O O8 0.165238 0.757147 0.282740
O O9 0.327795 0.792550 0.244993
O O10 0.195832 0.000000 0.174543
O O11 0.156994 0.243993 0.489297
O O12 0.114049 0.000000 0.371923
O O13 0.498612 0.266201 0.656446
O O14 0.620952 0.239934 0.540386
O O15 0.567614 0.000000 0.626049
O O16 0.600951 0.500000 0.436250
O O17 0.679824 0.732817 0.364915
O O18 0.760855 0.000000 0.401234
#
# Coordination Sequence:
#
# PCOD8061588 Si02
#       7
#     4   4   4   4   4   4   4
#     4  10  20  34  56  78 103 141 184 224 258 306
#     4  11  23  36  51  74 108 145 179 218 262 311
#     4  10  19  33  57  80 103 136 177 222 265 306
#     4   9  16  30  52  80 107 135 173 219 262 306
#     4  10  19  34  55  79 105 136 175 223 267 308
#     4  11  21  32  50  78 111 144 173 209 261 323
#     4  10  19  34  54  79 108 141 179 218 264 311
#
# _framework density 17.606874000000001
#
# number of rings (size 3 to 8) (size 9 to 14) (size 15 to 20)
#    0.000    1.857    2.857    3.429    0.000    4.000 
#    0.000    0.714    0.000    2.571    0.000    6.000 
#    0.000    0.000    0.000    0.000    0.000    0.000 
#
# Total GULP energy -347257.451527 kJ/mol
# GULP energy per Si atom -12402.051840 kJ/mol
# Density = 1.756680 g / cm^3
# Si number density = 17.606874 Si / 1000 Ang^3
#
#
#
# Elastic Constant Matrix: (Units=GPa)
#
#
# Indices 1 2 3 4 5 6 
#
# 1 124.1799 35.3407 59.3729 0.0000 3.4820 0.0000
# 2 35.3407 49.2324 38.1018 0.0000 -2.0235 0.0000
# 3 59.3729 38.1018 108.8370 0.0000 2.4709 0.0000
# 4 0.0000 0.0000 0.0000 7.3108 0.0000 -2.6384
# 5 3.4820 -2.0235 2.4709 0.0000 21.9051 0.0000
# 6 0.0000 0.0000 0.0000 -2.6384 0.0000 18.3505
#
#
#
# Elastic Compliance Matrix: (Units=1/GPa)
#
#
# Indices 1 2 3 4 5 6 
#
# 1 0.011712 -0.004893 -0.004635 0.000000 -0.001791 0.000000
# 2 -0.004893 0.030204 -0.008006 0.000000 0.004471 0.000000
# 3 -0.004635 -0.008006 0.014557 0.000000 -0.001645 0.000000
# 4 0.000000 0.000000 0.000000 0.144269 0.000000 0.020743
# 5 -0.001791 0.004471 -0.001645 0.000000 0.046535 0.000000
# 6 0.000000 0.000000 0.000000 0.020743 0.000000 0.057477
#
#
# Mechanical properties :
#
#
# Convention : Reuss Voigt Hill
#
# Bulk Modulus (GPa) = 46.72146 60.87558 53.79852
# Shear Modulus (GPa) = 14.41100 19.47555 16.94328
#
# Velocity S-wave (km/s) = 2.86403 3.32947 3.10548
# Velocity P-wave (km/s) = 6.12620 7.03068 6.59397
#
# Compressibility (1/GPa) = 0.02140344
#
# Stress axis : x y z
#
# Youngs Moduli (GPa) = 85.38289 33.10797 68.69633
#
# Poissons Ratio (x) = 0.16201 0.31843
# Poissons Ratio (y) = 0.41782 0.54998
# Poissons Ratio (z) = 0.39578 0.26506
#
# Static dielectric constant tensor:
#      x y z
#    x 3.368270 0.000000 0.105500 
#    y 0.000000 3.074710 0.000000 
#    z 0.105500 0.000000 3.131260 
# 
# 
# High freq. dielectric constant tensor:
#      x y z
#    x 1.683470 0.000000 0.010100 
#    y 0.000000 1.667000 0.000000 
#    z 0.010100 0.000000 1.663440 
# 
# From -- ./inp_files/49362.got.cif
#   From: 2010.06.25/outbox.cif.g09.slc.cpg/sg10_25_cif.got.tgz:49362.got - 2010.06.27 22:07:45.
