data_PCOD8061660
_publ_section_title
;
Structure prediction by ZEFSAII (Michael W. Deem and Ramdas Pophale) SiO2 
 PCOD8061660
Probable space group: P 2/M
;
_chemical_formula_sum "Si O2"
_cell_formula_units_Z 20
_cell_length_a 17.805850
_cell_length_b 7.559121
_cell_length_c 9.278716
_cell_angle_alpha 90.000000
_cell_angle_beta 49.241686
_cell_angle_gamma 90.000000
_cell_volume 945.992023
_symmetry_space_group_name_H-M "P 2/M"
_symmetry_group_IT_number 10
_symmetry_cell_setting 'monoclinic'
loop_
_space_group_symop_operation_xyz
x,y,z
-x,y,-z
-x,-y,-z
x,-y,z
loop_
_atom_site_type_symbol
_atom_site_label
_atom_site_fract_x
_atom_site_fract_y
_atom_site_fract_z
Si Si1 0.055133 0.199983 0.564417
Si Si2 0.918075 0.799845 0.000240
Si Si3 0.272622 0.298780 0.370156
Si Si4 0.392378 0.000000 0.061691
Si Si5 0.291185 0.695879 0.676248
Si Si6 0.602723 0.000000 0.291062
O O1 0.154129 0.297938 0.492815
O O2 0.000000 0.294290 0.500000
O O3 0.964199 0.200877 0.786621
O O4 0.088358 0.000000 0.485272
O O5 0.890347 0.000000 0.085627
O O6 0.821823 0.679413 0.130926
O O7 0.000000 0.714199 0.000000
O O8 0.309173 0.500000 0.300893
O O9 0.331847 0.174143 0.185530
O O10 0.296361 0.236015 0.504077
O O11 0.500000 0.000000 0.000000
O O12 0.404821 0.000000 0.872881
O O13 0.338795 0.500000 0.628023
O O14 0.343178 0.824061 0.723929
O O15 0.500000 0.000000 0.500000
#
# Coordination Sequence:
#
# PCOD8061660 Si02
#       6
#     4   4   4   2   4   2
#     4  10  21  35  59  94 139 186 229 269 321 388
#     4  10  19  33  60  95 134 187 227 267 317 384
#     4  11  24  43  70 103 138 180 225 274 335 400
#     4  12  28  50  76  98 130 173 216 282 347 407
#     4  11  24  42  70 104 139 177 226 278 330 398
#     4  12  28  50  76 100 128 170 220 282 349 400
#
# _framework density 21.141826999999999
#
# number of rings (size 3 to 8) (size 9 to 14) (size 15 to 20)
#    0.000    1.200    4.000    1.800    2.800    3.200 
#    0.000    0.000    0.000    0.000    0.000    0.000 
#    0.000    0.000    0.000    0.000    0.000    0.000 
#
# Total GULP energy -247913.001738 kJ/mol
# GULP energy per Si atom -12395.650087 kJ/mol
# Density = 2.109371 g / cm^3
# Si number density = 21.141827 Si / 1000 Ang^3
#
#
#
# Elastic Constant Matrix: (Units=GPa)
#
#
# Indices 1 2 3 4 5 6 
#
# 1 129.4595 44.2324 58.5917 0.0000 22.7486 0.0000
# 2 44.2324 104.8002 45.3890 0.0000 6.4931 0.0000
# 3 58.5917 45.3890 130.4339 0.0000 9.8114 0.0000
# 4 0.0000 0.0000 0.0000 18.6258 0.0000 7.9616
# 5 22.7486 6.4931 9.8114 0.0000 41.8092 0.0000
# 6 0.0000 0.0000 0.0000 7.9616 0.0000 0.6795
#
#
#
# Elastic Compliance Matrix: (Units=1/GPa)
#
#
# Indices 1 2 3 4 5 6 
#
# 1 0.011203 -0.002835 -0.003685 0.000000 -0.004790 0.000000
# 2 -0.002835 0.011982 -0.002924 0.000000 0.000368 0.000000
# 3 -0.003685 -0.002924 0.010337 0.000000 0.000033 0.000000
# 4 0.000000 0.000000 0.000000 -0.013394 0.000000 0.156936
# 5 -0.004790 0.000368 0.000033 0.000000 0.026460 0.000000
# 6 0.000000 0.000000 0.000000 0.156936 0.000000 -0.367142
#
#
# Mechanical properties :
#
#
# Convention : Reuss Voigt Hill
#
# Bulk Modulus (GPa) = 68.33731 73.45777 70.89754
# Shear Modulus (GPa) = -16.84706 26.65492 4.90393
#
# Velocity S-wave (km/s) = -2.82593 3.55458 1.52466
# Velocity P-wave (km/s) = 4.66322 7.18800 6.05859
#
# Compressibility (1/GPa) = 0.01463330
#
# Stress axis : x y z
#
# Youngs Moduli (GPa) = 89.26251 83.45785 96.73925
#
# Poissons Ratio (x) = 0.23664 0.35652
# Poissons Ratio (y) = 0.25309 0.28283
# Poissons Ratio (z) = 0.32897 0.24400
#
# Static dielectric constant tensor:
#      x y z
#    x 3.836590 0.000000 0.228190 
#    y 0.000000 3.752340 0.000000 
#    z 0.228190 0.000000 3.739230 
# 
# 
# High freq. dielectric constant tensor:
#      x y z
#    x 1.828850 0.000000 0.006770 
#    y 0.000000 1.826920 0.000000 
#    z 0.006770 0.000000 1.829020 
# 
# From -- ./inp_files/31432.got.cif
#   From: 2010.06.25/outbox.cif.g09.slc.cpg/sg10_16_cif.got.tgz:31432.got - 2010.06.27 22:07:45.
