data_PCOD8061277
_publ_section_title
;
Structure prediction by ZEFSAII (Michael W. Deem and Ramdas Pophale) SiO2 
 PCOD8061277
Probable space group: P 2/M
;
_chemical_formula_sum "Si O2"
_cell_formula_units_Z 32
_cell_length_a 14.943686
_cell_length_b 8.877300
_cell_length_c 23.701017
_cell_angle_alpha 90.000000
_cell_angle_beta 149.597864
_cell_angle_gamma 90.000000
_cell_volume 1591.155786
_symmetry_space_group_name_H-M "P 2/M"
_symmetry_group_IT_number 10
_symmetry_cell_setting 'monoclinic'
loop_
_space_group_symop_operation_xyz
x,y,z
-x,y,-z
-x,-y,-z
x,-y,z
loop_
_atom_site_type_symbol
_atom_site_label
_atom_site_fract_x
_atom_site_fract_y
_atom_site_fract_z
Si Si1 0.005453 0.666216 0.068233
Si Si2 0.341558 0.330667 0.381053
Si Si3 0.381330 0.668147 0.278204
Si Si4 0.994269 0.178395 0.232081
Si Si5 0.721038 0.320093 0.401957
Si Si6 0.270424 0.177910 0.006327
Si Si7 0.994824 0.825824 0.361182
Si Si8 0.658092 0.173969 0.249952
O O1 0.005862 0.500000 0.098710
O O2 0.192319 0.753922 0.177712
O O3 0.843991 0.762818 0.003538
O O4 0.000000 0.640543 0.000000
O O5 0.500000 0.248215 0.500000
O O6 0.303442 0.500000 0.382732
O O7 0.437380 0.337686 0.373050
O O8 0.159938 0.239033 0.286488
O O9 0.350271 0.500000 0.236321
O O10 0.535069 0.745598 0.324982
O O11 0.998130 0.239057 0.298738
O O12 0.003735 0.000000 0.238428
O O13 0.816789 0.229818 0.101076
O O14 0.726533 0.500000 0.406310
O O15 0.735508 0.263714 0.345756
O O16 0.877405 0.262941 0.527078
O O17 0.470629 0.238203 0.124506
O O18 0.271628 0.000000 0.009741
O O19 0.794578 0.805264 0.273197
O O20 0.052354 0.000000 0.393562
O O21 0.640593 0.000000 0.258441
#
# Coordination Sequence:
#
# PCOD8061277 Si02
#       8
#     4   4   4   4   4   4   4   4
#     4  10  19  33  54  78 108 147 187 226 273 334
#     4  10  19  33  54  78 108 147 187 226 273 334
#     4   9  18  32  50  77 109 143 178 213 272 337
#     4  10  21  37  57  84 116 149 191 239 283 332
#     4  11  22  38  61  88 116 145 189 244 288 339
#     4  10  21  37  57  84 116 149 191 239 283 332
#     4  10  22  40  60  82 113 153 192 235 292 349
#     4  10  22  40  60  82 113 153 192 235 292 349
#
# _framework density 20.111166999999998
#
# number of rings (size 3 to 8) (size 9 to 14) (size 15 to 20)
#    0.000    2.000    1.250    2.250    0.000    6.000 
#    0.000    5.000    0.000    0.000    0.000    3.500 
#    0.000    0.000    0.000    0.000    0.000    0.000 
#
# Total GULP energy -396480.246917 kJ/mol
# GULP energy per Si atom -12390.007716 kJ/mol
# Density = 2.006539 g / cm^3
# Si number density = 20.111167 Si / 1000 Ang^3
#
#
#
# Elastic Constant Matrix: (Units=GPa)
#
#
# Indices 1 2 3 4 5 6 
#
# 1 93.9137 17.1420 27.9940 0.0000 -1.2372 0.0000
# 2 17.1420 26.6415 25.4711 0.0000 -3.8585 0.0000
# 3 27.9940 25.4711 118.9209 0.0000 -1.6557 0.0000
# 4 0.0000 0.0000 0.0000 21.2782 0.0000 0.0146
# 5 -1.2372 -3.8585 -1.6557 0.0000 37.9435 0.0000
# 6 0.0000 0.0000 0.0000 0.0146 0.0000 36.5474
#
#
#
# Elastic Compliance Matrix: (Units=1/GPa)
#
#
# Indices 1 2 3 4 5 6 
#
# 1 0.012280 -0.006515 -0.001500 0.000000 -0.000328 0.000000
# 2 -0.006515 0.051390 -0.009409 0.000000 0.004603 0.000000
# 3 -0.001500 -0.009409 0.010770 0.000000 -0.000536 0.000000
# 4 0.000000 0.000000 0.000000 0.046996 0.000000 -0.000019
# 5 -0.000328 0.004603 -0.000536 0.000000 0.026789 0.000000
# 6 0.000000 0.000000 0.000000 -0.000019 0.000000 0.027362
#
#
# Mechanical properties :
#
#
# Convention : Reuss Voigt Hill
#
# Bulk Modulus (GPa) = 25.25774 42.29892 33.77833
# Shear Modulus (GPa) = 22.35815 30.41176 26.38496
#
# Velocity S-wave (km/s) = 3.33788 3.89290 3.62602
# Velocity P-wave (km/s) = 5.23847 6.42530 5.86200
#
# Compressibility (1/GPa) = 0.03959182
#
# Stress axis : x y z
#
# Youngs Moduli (GPa) = 81.43334 19.45909 92.85137
#
# Poissons Ratio (x) = 0.12677 0.13927
# Poissons Ratio (y) = 0.53052 0.87367
# Poissons Ratio (z) = 0.12214 0.18310
#
# Static dielectric constant tensor:
#      x y z
#    x 3.655740 0.000000 0.084090 
#    y 0.000000 3.417730 0.000000 
#    z 0.084090 0.000000 3.789620 
# 
# 
# High freq. dielectric constant tensor:
#      x y z
#    x 1.787020 0.000000 -0.002790 
#    y 0.000000 1.751880 0.000000 
#    z -0.002790 0.000000 1.804950 
# 
# From -- ./inp_files/71623.got.cif
#   From: 2010.06.25/outbox.cif.g09.slc.cpg/sg10_36_cif.got.tgz:71623.got - 2010.06.27 22:07:45.
