data_PCOD8061663
_publ_section_title
;
Structure prediction by ZEFSAII (Michael W. Deem and Ramdas Pophale) SiO2 
 PCOD8061663
Probable space group: P 2/M
;
_chemical_formula_sum "Si O2"
_cell_formula_units_Z 24
_cell_length_a 20.879412
_cell_length_b 10.135616
_cell_length_c 14.316331
_cell_angle_alpha 90.000000
_cell_angle_beta 154.781162
_cell_angle_gamma 90.000000
_cell_volume 1290.886302
_symmetry_space_group_name_H-M "P 2/M"
_symmetry_group_IT_number 10
_symmetry_cell_setting 'monoclinic'
loop_
_space_group_symop_operation_xyz
x,y,z
-x,y,-z
-x,-y,-z
x,-y,z
loop_
_atom_site_type_symbol
_atom_site_label
_atom_site_fract_x
_atom_site_fract_y
_atom_site_fract_z
Si Si1 0.325562 0.347724 0.772355
Si Si2 0.674921 0.000000 0.768533
Si Si3 0.115356 0.261617 0.343400
Si Si4 0.838850 0.654365 0.261075
Si Si5 0.791431 0.270420 0.993669
Si Si6 0.672992 0.500000 0.710464
Si Si7 0.992096 0.000000 0.096775
Si Si8 0.843860 0.500000 0.743582
O O1 0.280706 0.500000 0.692716
O O2 0.251436 0.255174 0.596253
O O3 0.275435 0.303917 0.808935
O O4 0.500000 0.324073 0.000000
O O5 0.500000 0.000000 0.500000
O O6 0.707757 0.869446 0.871873
O O7 0.811726 0.000000 0.874595
O O8 0.086419 0.123358 0.256937
O O9 0.161396 0.369952 0.326999
O O10 0.968579 0.287505 0.211608
O O11 0.861366 0.500000 0.283482
O O12 0.000000 0.719887 0.500000
O O13 0.764004 0.699235 0.065596
O O14 0.727736 0.368834 0.832883
O O15 0.500000 0.500000 0.500000
O O16 0.715517 0.500000 0.655558
O O17 0.000000 0.000000 0.000000
O O18 0.000000 0.500000 0.000000
#
# Coordination Sequence:
#
# PCOD8061663 Si02
#       8
#     4   2   4   4   4   2   2   2
#     4  10  21  37  58  90 124 153 193 252 304 355
#     4  10  24  44  62  83 126 164 196 251 308 353
#     4  11  21  39  64  89 117 159 207 243 300 362
#     4  10  19  33  62  88 116 153 194 241 304 352
#     4  11  21  40  63  89 118 161 202 246 300 365
#     4  12  26  38  58  93 123 148 206 267 299 349
#     4  10  24  42  64  86 118 164 208 246 294 366
#     4  12  22  36  64  88 117 162 201 255 302 353
#
# _framework density 18.591877
#
# number of rings (size 3 to 8) (size 9 to 14) (size 15 to 20)
#    0.000    1.333    5.000    1.000    2.333    1.333 
#    3.000    1.667    0.000    0.000    0.000    0.000 
#    0.000    0.000    0.000    0.000    0.000    0.000 
#
# Total GULP energy -297363.471069 kJ/mol
# GULP energy per Si atom -12390.144628 kJ/mol
# Density = 1.854956 g / cm^3
# Si number density = 18.591877 Si / 1000 Ang^3
#
#
#
# Elastic Constant Matrix: (Units=GPa)
#
#
# Indices 1 2 3 4 5 6 
#
# 1 159.0816 60.0164 74.5356 0.0000 -13.8622 0.0000
# 2 60.0164 96.9298 40.5092 0.0000 -6.6939 0.0000
# 3 74.5356 40.5092 106.9129 0.0000 -5.9331 0.0000
# 4 0.0000 0.0000 0.0000 42.1689 0.0000 -9.8155
# 5 -13.8622 -6.6939 -5.9331 0.0000 33.0623 0.0000
# 6 0.0000 0.0000 0.0000 -9.8155 0.0000 44.6384
#
#
#
# Elastic Compliance Matrix: (Units=1/GPa)
#
#
# Indices 1 2 3 4 5 6 
#
# 1 0.010779 -0.004054 -0.005831 0.000000 0.002652 0.000000
# 2 -0.004054 0.013874 -0.002393 0.000000 0.000680 0.000000
# 3 -0.005831 -0.002393 0.014305 0.000000 -0.000362 0.000000
# 4 0.000000 0.000000 0.000000 0.024993 0.000000 0.005496
# 5 0.002652 0.000680 -0.000362 0.000000 0.031430 0.000000
# 6 0.000000 0.000000 0.000000 0.005496 0.000000 0.023611
#
#
# Mechanical properties :
#
#
# Convention : Reuss Voigt Hill
#
# Bulk Modulus (GPa) = 69.43575 79.22743 74.33159
# Shear Modulus (GPa) = 33.70428 36.49813 35.10120
#
# Velocity S-wave (km/s) = 4.26238 4.43552 4.34981
# Velocity P-wave (km/s) = 7.85189 8.30291 8.08055
#
# Compressibility (1/GPa) = 0.01440180
#
# Stress axis : x y z
#
# Youngs Moduli (GPa) = 92.77521 72.07889 69.90350
#
# Poissons Ratio (x) = 0.29218 0.40764
# Poissons Ratio (y) = 0.37608 0.16727
# Poissons Ratio (z) = 0.54101 0.17248
#
# Static dielectric constant tensor:
#      x y z
#    x 3.337610 0.000000 0.122310 
#    y 0.000000 3.396800 0.000000 
#    z 0.122310 0.000000 3.294920 
# 
# 
# High freq. dielectric constant tensor:
#      x y z
#    x 1.733640 0.000000 -0.006360 
#    y 0.000000 1.706130 0.000000 
#    z -0.006360 0.000000 1.727870 
# 
# From -- ./inp_files/53757.got.cif
#   From: 2010.06.25/outbox.cif.g09.slc.cpg/sg10_27_cif.got.tgz:53757.got - 2010.06.27 22:07:45.
