data_PCOD8061903
_publ_section_title
;
Structure prediction by ZEFSAII (Michael W. Deem and Ramdas Pophale) SiO2 
 PCOD8061903
Probable space group: P 2/M
;
_chemical_formula_sum "Si O2"
_cell_formula_units_Z 28
_cell_length_a 9.301527
_cell_length_b 9.412892
_cell_length_c 32.515583
_cell_angle_alpha 90.000000
_cell_angle_beta 33.256243
_cell_angle_gamma 90.000000
_cell_volume 1561.183395
_symmetry_space_group_name_H-M "P 2/M"
_symmetry_group_IT_number 10
_symmetry_cell_setting 'monoclinic'
loop_
_space_group_symop_operation_xyz
x,y,z
-x,y,-z
-x,-y,-z
x,-y,z
loop_
_atom_site_type_symbol
_atom_site_label
_atom_site_fract_x
_atom_site_fract_y
_atom_site_fract_z
Si Si1 0.719022 0.664976 0.260339
Si Si2 0.770061 0.334412 0.809842
Si Si3 0.296686 0.332227 0.428005
Si Si4 0.628225 0.654805 0.426318
Si Si5 0.079999 0.159184 0.303842
Si Si6 0.275112 0.833467 0.913750
Si Si7 0.638923 0.158572 0.199719
O O1 0.666281 0.500000 0.265443
O O2 0.485100 0.726045 0.345821
O O3 0.734443 0.739310 0.212598
O O4 0.008262 0.690946 0.209189
O O5 0.707400 0.500000 0.818981
O O6 0.498386 0.252874 0.885265
O O7 0.884251 0.269132 0.741319
O O8 0.277207 0.500000 0.427600
O O9 0.427071 0.289027 0.439990
O O10 0.000000 0.267558 0.500000
O O11 0.500000 0.626098 0.500000
O O12 0.743750 0.500000 0.383937
O O13 0.836209 0.777509 0.386565
O O14 0.324536 0.157912 0.275932
O O15 0.024950 0.000000 0.300449
O O16 0.264956 0.787320 0.868211
O O17 0.346002 0.000000 0.899645
O O18 0.000000 0.796416 0.000000
O O19 0.748594 0.000000 0.181584
#
# Coordination Sequence:
#
# PCOD8061903 Si02
#       7
#     4   4   4   4   4   4   4
#     4  10  20  34  54  79 109 143 180 225 271 320
#     4  10  19  34  56  82 109 138 179 222 264 320
#     4   9  18  33  50  73 105 139 179 226 272 316
#     4  10  20  33  52  76 101 134 181 231 278 325
#     4  10  20  35  53  74 104 142 181 225 272 319
#     4   9  19  38  61  84 111 143 179 218 264 320
#     4   9  20  35  53  79 107 137 178 220 261 318
#
# _framework density 17.935113000000001
#
# number of rings (size 3 to 8) (size 9 to 14) (size 15 to 20)
#    0.000    2.429    1.429    1.714    2.000    4.571 
#    0.000    0.714    0.000    5.143    0.000    0.000 
#    0.000    0.000    0.000    0.000    0.000    0.000 
#
# Total GULP energy -346995.511528 kJ/mol
# GULP energy per Si atom -12392.696840 kJ/mol
# Density = 1.789429 g / cm^3
# Si number density = 17.935113 Si / 1000 Ang^3
#
#
#
# Elastic Constant Matrix: (Units=GPa)
#
#
# Indices 1 2 3 4 5 6 
#
# 1 97.3810 58.9610 54.4209 0.0000 5.0170 0.0000
# 2 58.9610 78.9475 48.4270 0.0000 -10.8489 0.0000
# 3 54.4209 48.4270 111.2055 0.0000 -11.1985 0.0000
# 4 0.0000 0.0000 0.0000 31.3284 0.0000 5.2208
# 5 5.0170 -10.8489 -11.1985 0.0000 23.3040 0.0000
# 6 0.0000 0.0000 0.0000 5.2208 0.0000 37.0462
#
#
#
# Elastic Compliance Matrix: (Units=1/GPa)
#
#
# Indices 1 2 3 4 5 6 
#
# 1 0.025007 -0.016933 -0.006515 0.000000 -0.016398 0.000000
# 2 -0.016933 0.029244 -0.002848 0.000000 0.015891 0.000000
# 3 -0.006515 -0.002848 0.014111 0.000000 0.006858 0.000000
# 4 0.000000 0.000000 0.000000 0.032688 0.000000 -0.004607
# 5 -0.016398 0.015891 0.006858 0.000000 0.057135 0.000000
# 6 0.000000 0.000000 0.000000 -0.004607 0.000000 0.027643
#
#
# Mechanical properties :
#
#
# Convention : Reuss Voigt Hill
#
# Bulk Modulus (GPa) = 63.41238 67.90577 65.65907
# Shear Modulus (GPa) = 20.51902 26.71739 23.61820
#
# Velocity S-wave (km/s) = 3.38608 3.86381 3.63281
# Velocity P-wave (km/s) = 7.12185 7.60588 7.36784
#
# Compressibility (1/GPa) = 0.01576979
#
# Stress axis : x y z
#
# Youngs Moduli (GPa) = 39.98851 34.19534 70.86432
#
# Poissons Ratio (x) = 0.57904 0.46169
# Poissons Ratio (y) = 0.67714 0.20182
# Poissons Ratio (z) = 0.26053 0.09739
#
# Static dielectric constant tensor:
#      x y z
#    x 3.286930 0.000000 -0.199710 
#    y 0.000000 3.322270 0.000000 
#    z -0.199710 0.000000 3.399230 
# 
# 
# High freq. dielectric constant tensor:
#      x y z
#    x 1.688970 0.000000 -0.006500 
#    y 0.000000 1.683430 0.000000 
#    z -0.006500 0.000000 1.686320 
# 
# From -- ./inp_files/37944.got.cif
#   From: 2010.06.25/outbox.cif.g09.slc.cpg/sg10_19_cif.got.tgz:37944.got - 2010.06.27 22:07:45.
