data_PCOD8061391
_publ_section_title
;
Structure prediction by ZEFSAII (Michael W. Deem and Ramdas Pophale) SiO2 
 PCOD8061391
Probable space group: P 2/M
;
_chemical_formula_sum "Si O2"
_cell_formula_units_Z 28
_cell_length_a 21.968065
_cell_length_b 8.863135
_cell_length_c 14.921537
_cell_angle_alpha 90.000000
_cell_angle_beta 149.443970
_cell_angle_gamma 90.000000
_cell_volume 1477.004425
_symmetry_space_group_name_H-M "P 2/M"
_symmetry_group_IT_number 10
_symmetry_cell_setting 'monoclinic'
loop_
_space_group_symop_operation_xyz
x,y,z
-x,y,-z
-x,-y,-z
x,-y,z
loop_
_atom_site_type_symbol
_atom_site_label
_atom_site_fract_x
_atom_site_fract_y
_atom_site_fract_z
Si Si1 0.618944 0.678431 0.045174
Si Si2 0.474481 0.679391 0.565671
Si Si3 0.698671 0.320465 0.959162
Si Si4 0.861630 0.177966 0.661096
Si Si5 0.101644 0.321809 0.922994
Si Si6 0.793355 0.322648 0.751414
Si Si7 0.348345 0.678885 0.715850
O O1 0.611970 0.500000 0.036463
O O2 0.676894 0.729329 0.212914
O O3 0.700291 0.735812 0.064838
O O4 0.482097 0.733994 0.860673
O O5 0.500000 0.747122 0.500000
O O6 0.478839 0.500000 0.566305
O O7 0.575901 0.742662 0.760549
O O8 0.344038 0.730382 0.433840
O O9 0.697577 0.500000 0.951966
O O10 0.813418 0.261185 0.049748
O O11 0.870566 0.237214 0.774432
O O12 0.741426 0.235793 0.462612
O O13 0.975158 0.240141 0.750333
O O14 0.863946 0.000000 0.663529
O O15 0.081975 0.500000 0.891397
O O16 0.161633 0.276795 0.093225
O O17 0.808886 0.500000 0.755004
O O18 0.332288 0.500000 0.681952
#
# Coordination Sequence:
#
# PCOD8061391 Si02
#       7
#     4   4   4   4   4   4   4
#     4   8  15  29  56  89 111 127 156 209 268 311
#     4   9  14  24  47  82 113 130 153 199 254 304
#     4   9  15  26  48  81 113 134 160 204 259 312
#     4  12  25  37  50  70 101 142 183 219 258 299
#     4  10  20  34  53  76 103 137 177 215 253 304
#     4  10  19  33  55  80 104 134 173 215 259 308
#     4   9  17  34  58  83 107 131 165 210 260 311
#
# _framework density 18.957288999999999
#
# number of rings (size 3 to 8) (size 9 to 14) (size 15 to 20)
#    0.000    2.429    1.429    3.429    0.000    4.571 
#    0.000    2.143    0.000    9.000    0.000    0.000 
#    0.000    0.000    0.000    0.000    0.000    0.000 
#
# Total GULP energy -347106.504777 kJ/mol
# GULP energy per Si atom -12396.660885 kJ/mol
# Density = 1.891414 g / cm^3
# Si number density = 18.957289 Si / 1000 Ang^3
#
#
#
# Elastic Constant Matrix: (Units=GPa)
#
#
# Indices 1 2 3 4 5 6 
#
# 1 150.9408 26.7910 38.8114 0.0000 -2.0835 0.0000
# 2 26.7910 39.8117 23.6633 0.0000 -0.3888 0.0000
# 3 38.8114 23.6633 58.2002 0.0000 3.4258 0.0000
# 4 0.0000 0.0000 0.0000 3.9234 0.0000 -1.5459
# 5 -2.0835 -0.3888 3.4258 0.0000 30.1827 0.0000
# 6 0.0000 0.0000 0.0000 -1.5459 0.0000 -0.1192
#
#
#
# Elastic Compliance Matrix: (Units=1/GPa)
#
#
# Indices 1 2 3 4 5 6 
#
# 1 0.008293 -0.002964 -0.004386 0.000000 0.001032 0.000000
# 2 -0.002964 0.034299 -0.012063 0.000000 0.001606 0.000000
# 3 -0.004386 -0.012063 0.025207 0.000000 -0.003319 0.000000
# 4 0.000000 0.000000 0.000000 0.041714 0.000000 -0.541008
# 5 0.001032 0.001606 -0.003319 0.000000 0.033600 0.000000
# 6 0.000000 0.000000 0.000000 -0.541008 0.000000 -1.373062
#
#
# Mechanical properties :
#
#
# Convention : Reuss Voigt Hill
#
# Bulk Modulus (GPa) = 34.51564 47.49824 41.00694
# Shear Modulus (GPa) = -4.23204 17.44318 6.60557
#
# Velocity S-wave (km/s) = -1.49575 3.03666 1.86869
# Velocity P-wave (km/s) = 3.90686 6.11595 5.13169
#
# Compressibility (1/GPa) = 0.02897237
#
# Stress axis : x y z
#
# Youngs Moduli (GPa) = 120.58044 29.15569 39.67113
#
# Poissons Ratio (x) = 0.08641 0.17400
# Poissons Ratio (y) = 0.35737 0.47857
# Poissons Ratio (z) = 0.52889 0.35172
#
# Static dielectric constant tensor:
#      x y z
#    x 3.943200 0.000000 -0.022960 
#    y 0.000000 2.869210 0.000000 
#    z -0.022960 0.000000 3.482280 
# 
# 
# High freq. dielectric constant tensor:
#      x y z
#    x 1.752160 0.000000 0.000690 
#    y 0.000000 1.672610 0.000000 
#    z 0.000690 0.000000 1.730990 
# 
# From -- ./inp_files/49396.got.cif
#   From: 2010.06.25/outbox.cif.g09.slc.cpg/sg10_25_cif.got.tgz:49396.got - 2010.06.27 22:07:45.
