data_PCOD8061714
_publ_section_title
;
Structure prediction by ZEFSAII (Michael W. Deem and Ramdas Pophale) SiO2 
 PCOD8061714
Probable space group: P 2/M
;
_chemical_formula_sum "Si O2"
_cell_formula_units_Z 26
_cell_length_a 11.217259
_cell_length_b 9.641556
_cell_length_c 14.478964
_cell_angle_alpha 90.000000
_cell_angle_beta 118.665725
_cell_angle_gamma 90.000000
_cell_volume 1373.995997
_symmetry_space_group_name_H-M "P 2/M"
_symmetry_group_IT_number 10
_symmetry_cell_setting 'monoclinic'
loop_
_space_group_symop_operation_xyz
x,y,z
-x,y,-z
-x,-y,-z
x,-y,z
loop_
_atom_site_type_symbol
_atom_site_label
_atom_site_fract_x
_atom_site_fract_y
_atom_site_fract_z
Si Si1 0.980536 0.660764 0.743255
Si Si2 0.227262 0.846640 0.828430
Si Si3 0.500000 0.744118 0.000000
Si Si4 0.128576 0.340454 0.099754
Si Si5 0.577085 0.656257 0.832466
Si Si6 0.894021 0.839294 0.539172
Si Si7 0.347897 0.156455 0.678081
O O1 0.003945 0.500000 0.725556
O O2 0.882058 0.675399 0.794175
O O3 0.912089 0.742398 0.634133
O O4 0.124777 0.728404 0.825313
O O5 0.247780 0.821193 0.727320
O O6 0.165500 0.000000 0.822279
O O7 0.369580 0.840259 0.935054
O O8 0.473156 0.651616 0.080317
O O9 0.130012 0.500000 0.068885
O O10 0.272404 0.275651 0.120286
O O11 0.000000 0.268020 0.000000
O O12 0.577607 0.500000 0.794121
O O13 0.476200 0.742282 0.729581
O O14 0.740685 0.814932 0.446161
O O15 0.000000 0.794330 0.500000
O O16 0.917788 0.000000 0.575537
O O17 0.404975 0.000000 0.700139
#
# Coordination Sequence:
#
# PCOD8061714 Si02
#       7
#     4   4   2   4   4   4   4
#     4  11  22  34  55  85 111 141 187 233 272 321
#     4  10  19  34  53  76 108 146 181 219 274 333
#     4  10  20  32  54  84 106 136 184 234 272 328
#     4   9  19  37  56  76 111 154 185 218 273 332
#     4  10  20  35  56  80 110 144 181 229 282 329
#     4  10  19  37  59  80 110 150 184 221 279 337
#     4   9  19  35  55  78 108 142 177 221 275 333
#
# _framework density 18.922909000000001
#
# number of rings (size 3 to 8) (size 9 to 14) (size 15 to 20)
#    0.000    2.154    1.538    1.846    0.000    5.846 
#    0.000    2.308    0.000    7.846    0.000    0.000 
#    0.000    0.000    0.000    0.000    0.000    0.000 
#
# Total GULP energy -322368.680836 kJ/mol
# GULP energy per Si atom -12398.795417 kJ/mol
# Density = 1.887984 g / cm^3
# Si number density = 18.922909 Si / 1000 Ang^3
#
#
#
# Elastic Constant Matrix: (Units=GPa)
#
#
# Indices 1 2 3 4 5 6 
#
# 1 104.5723 44.3121 42.3550 0.0000 17.1738 0.0000
# 2 44.3121 91.7095 42.5504 0.0000 8.9589 0.0000
# 3 42.3550 42.5504 103.9235 0.0000 14.3481 0.0000
# 4 0.0000 0.0000 0.0000 20.7354 0.0000 8.4928
# 5 17.1738 8.9589 14.3481 0.0000 27.3090 0.0000
# 6 0.0000 0.0000 0.0000 8.4928 0.0000 19.6151
#
#
#
# Elastic Compliance Matrix: (Units=1/GPa)
#
#
# Indices 1 2 3 4 5 6 
#
# 1 0.013627 -0.004718 -0.002860 0.000000 -0.005519 0.000000
# 2 -0.004718 0.015163 -0.004322 0.000000 0.000263 0.000000
# 3 -0.002860 -0.004322 0.013061 0.000000 -0.003646 0.000000
# 4 0.000000 0.000000 0.000000 0.058622 0.000000 -0.025382
# 5 -0.005519 0.000263 -0.003646 0.000000 0.041918 0.000000
# 6 0.000000 0.000000 0.000000 -0.025382 0.000000 0.061971
#
#
# Mechanical properties :
#
#
# Convention : Reuss Voigt Hill
#
# Bulk Modulus (GPa) = 55.39838 62.07116 58.73477
# Shear Modulus (GPa) = 21.35122 24.93111 23.14116
#
# Velocity S-wave (km/s) = 3.36270 3.63369 3.50082
# Velocity P-wave (km/s) = 6.66456 7.10481 6.88820
#
# Compressibility (1/GPa) = 0.01805107
#
# Stress axis : x y z
#
# Youngs Moduli (GPa) = 73.38484 65.94929 76.56405
#
# Poissons Ratio (x) = 0.31116 0.21897
# Poissons Ratio (y) = 0.34624 0.33090
# Poissons Ratio (z) = 0.20988 0.28502
#
# Static dielectric constant tensor:
#      x y z
#    x 3.404660 0.000000 0.159500 
#    y 0.000000 3.290670 0.000000 
#    z 0.159500 0.000000 3.494080 
# 
# 
# High freq. dielectric constant tensor:
#      x y z
#    x 1.721960 0.000000 0.015410 
#    y 0.000000 1.718900 0.000000 
#    z 0.015410 0.000000 1.739390 
# 
# From -- ./inp_files/63571.got.cif
#   From: 2010.06.25/outbox.cif.g09.slc.cpg/sg10_32_cif.got.tgz:63571.got - 2010.06.27 22:07:45.
