data_PCOD8061205
_publ_section_title
;
Structure prediction by ZEFSAII (Michael W. Deem and Ramdas Pophale) SiO2 
 PCOD8061205
Probable space group: P 2/M
;
_chemical_formula_sum "Si O2"
_cell_formula_units_Z 32
_cell_length_a 24.146334
_cell_length_b 13.609505
_cell_length_c 12.427309
_cell_angle_alpha 90.000000
_cell_angle_beta 24.869029
_cell_angle_gamma 90.000000
_cell_volume 1717.447902
_symmetry_space_group_name_H-M "P 2/M"
_symmetry_group_IT_number 10
_symmetry_cell_setting 'monoclinic'
loop_
_space_group_symop_operation_xyz
x,y,z
-x,y,-z
-x,-y,-z
x,-y,z
loop_
_atom_site_type_symbol
_atom_site_label
_atom_site_fract_x
_atom_site_fract_y
_atom_site_fract_z
Si Si1 0.353718 0.615574 0.785507
Si Si2 0.663387 0.392903 0.751664
Si Si3 0.172088 0.703927 0.924694
Si Si4 0.632430 0.290377 0.023963
Si Si5 0.037036 0.608484 0.823027
Si Si6 0.625821 0.617622 0.580007
Si Si7 0.088036 0.888303 0.184972
Si Si8 0.802874 0.111871 0.771516
O O1 0.500000 0.657831 0.500000
O O2 0.357230 0.500000 0.775149
O O3 0.246352 0.652316 0.890839
O O4 0.300653 0.649518 0.996373
O O5 0.615920 0.500000 0.878872
O O6 0.583313 0.364756 0.781643
O O7 0.807973 0.401037 0.450601
O O8 0.673250 0.317598 0.831370
O O9 0.239970 0.672061 0.691575
O O10 0.021910 0.665810 0.176368
O O11 0.158466 0.820366 0.971144
O O12 0.479030 0.320232 0.305569
O O13 0.676056 0.177122 0.961343
O O14 0.972437 0.500000 0.935677
O O15 0.000000 0.662619 0.000000
O O16 0.627368 0.500000 0.550095
O O17 0.168496 0.875375 0.153121
O O18 0.934935 0.858885 0.473025
O O19 0.097582 0.000000 0.126897
O O20 0.763659 0.000000 0.814681
#
# Coordination Sequence:
#
# PCOD8061205 Si02
#       8
#     4   4   4   4   4   4   4   4
#     4  11  22  34  50  78 120 159 185 220 277 343
#     4  10  21  36  54  80 111 149 196 237 271 323
#     4  12  20  34  57  82 110 147 190 228 278 341
#     4  12  21  35  56  83 111 147 194 234 274 328
#     4  10  19  33  53  78 109 146 188 231 274 328
#     4  11  22  36  56  80 115 161 195 222 264 331
#     4   9  19  37  60  83 108 142 187 238 289 343
#     4   9  19  38  60  81 108 144 188 234 290 347
#
# _framework density 18.632297000000001
#
# number of rings (size 3 to 8) (size 9 to 14) (size 15 to 20)
#    0.000    1.500    3.750    4.125    0.000    1.000 
#    0.000    0.625    0.000    7.875    0.000    0.000 
#    0.000    0.000    0.000    0.000    0.000    0.000 
#
# Total GULP energy -396451.532373 kJ/mol
# GULP energy per Si atom -12389.110387 kJ/mol
# Density = 1.858989 g / cm^3
# Si number density = 18.632297 Si / 1000 Ang^3
#
#
#
# Elastic Constant Matrix: (Units=GPa)
#
#
# Indices 1 2 3 4 5 6 
#
# 1 87.3596 37.6973 0.8784 0.0000 4.4712 0.0000
# 2 37.6973 114.1084 32.7142 0.0000 2.5237 0.0000
# 3 0.8784 32.7142 30.0764 0.0000 12.4463 0.0000
# 4 0.0000 0.0000 0.0000 30.1750 0.0000 1.3641
# 5 4.4712 2.5237 12.4463 0.0000 27.8243 0.0000
# 6 0.0000 0.0000 0.0000 1.3641 0.0000 22.3290
#
#
#
# Elastic Compliance Matrix: (Units=1/GPa)
#
#
# Indices 1 2 3 4 5 6 
#
# 1 0.015132 -0.008011 0.011016 0.000000 -0.006633 0.000000
# 2 -0.008011 0.017907 -0.023443 0.000000 0.010150 0.000000
# 3 0.011016 -0.023443 0.071518 0.000000 -0.031635 0.000000
# 4 0.000000 0.000000 0.000000 0.033232 0.000000 -0.002030
# 5 -0.006633 0.010150 -0.031635 0.000000 0.050236 0.000000
# 6 0.000000 0.000000 0.000000 -0.002030 0.000000 0.044909
#
#
# Mechanical properties :
#
#
# Convention : Reuss Voigt Hill
#
# Bulk Modulus (GPa) = 15.70326 41.56935 28.63630
# Shear Modulus (GPa) = 16.94705 26.74928 21.84816
#
# Velocity S-wave (km/s) = 3.01915 3.79310 3.42803
# Velocity P-wave (km/s) = 4.53872 6.44533 5.57415
#
# Compressibility (1/GPa) = 0.06368105
#
# Stress axis : x y z
#
# Youngs Moduli (GPa) = 66.08306 55.84505 13.98253
#
# Poissons Ratio (x) = 0.44737 -0.15404
# Poissons Ratio (y) = 0.52938 0.32780
# Poissons Ratio (z) = -0.72799 1.30920
#
# Static dielectric constant tensor:
#      x y z
#    x 3.534550 0.000000 -0.090090 
#    y 0.000000 3.264810 0.000000 
#    z -0.090090 0.000000 3.560550 
# 
# 
# High freq. dielectric constant tensor:
#      x y z
#    x 1.733550 0.000000 -0.006050 
#    y 0.000000 1.691510 0.000000 
#    z -0.006050 0.000000 1.726910 
# 
# From -- ./inp_files/46996.got.cif
#   From: 2010.06.25/outbox.cif.g09.slc.cpg/sg10_24_cif.got.tgz:46996.got - 2010.06.27 22:07:45.
