data_PCOD8061040
_publ_section_title
;
Structure prediction by ZEFSAII (Michael W. Deem and Ramdas Pophale) SiO2 
 PCOD8061040
Probable space group: P 2/M
;
_chemical_formula_sum "Si O2"
_cell_formula_units_Z 28
_cell_length_a 20.105609
_cell_length_b 9.155377
_cell_length_c 28.231524
_cell_angle_alpha 90.000000
_cell_angle_beta 20.014036
_cell_angle_gamma 90.000000
_cell_volume 1778.572889
_symmetry_space_group_name_H-M "P 2/M"
_symmetry_group_IT_number 10
_symmetry_cell_setting 'monoclinic'
loop_
_space_group_symop_operation_xyz
x,y,z
-x,y,-z
-x,-y,-z
x,-y,z
loop_
_atom_site_type_symbol
_atom_site_label
_atom_site_fract_x
_atom_site_fract_y
_atom_site_fract_z
Si Si1 0.195769 0.671923 0.395840
Si Si2 0.693708 0.832338 0.397638
Si Si3 0.565799 0.164740 0.141954
Si Si4 0.339858 0.835587 0.381751
Si Si5 0.514507 0.831661 0.616379
Si Si6 0.116213 0.669317 0.876984
Si Si7 0.045909 0.669746 0.116307
O O1 0.230924 0.500000 0.373631
O O2 0.377350 0.749000 0.247031
O O3 0.184291 0.733783 0.457757
O O4 0.000000 0.714906 0.500000
O O5 0.500000 0.782241 0.500000
O O6 0.665592 0.812211 0.472559
O O7 0.867815 0.728817 0.266020
O O8 0.742761 0.000000 0.351659
O O9 0.539204 0.162321 0.217120
O O10 0.571794 0.000000 0.117477
O O11 0.761176 0.246722 0.996493
O O12 0.386730 0.768431 0.401940
O O13 0.254839 0.000000 0.443220
O O14 0.318381 0.749781 0.734892
O O15 0.459932 0.000000 0.661002
O O16 0.163846 0.500000 0.852413
O O17 0.987137 0.697552 0.917094
O O18 0.000000 0.731566 0.000000
O O19 0.072000 0.500000 0.110152
#
# Coordination Sequence:
#
# PCOD8061040 Si02
#       7
#     4   4   4   4   4   4   4
#     4   9  17  30  50  76 104 130 153 181 229 293
#     4  10  20  34  50  65  88 127 172 213 247 281
#     4   9  18  31  49  71  99 127 157 194 236 283
#     4   8  17  30  47  72  99 125 156 194 236 282
#     4  10  19  33  49  67  90 124 168 207 240 280
#     4  10  21  32  44  65  92 125 160 198 248 291
#     4  11  21  32  47  67  95 127 165 208 245 286
#
# _framework density 15.742959000000001
#
# number of rings (size 3 to 8) (size 9 to 14) (size 15 to 20)
#    0.857    1.571    1.429    1.714    0.000    3.429 
#    0.000    0.000    0.000    0.000    0.000    1.000 
#    0.000    8.000    0.000    0.000    0.000    0.000 
#
# Total GULP energy -347055.125283 kJ/mol
# GULP energy per Si atom -12394.825903 kJ/mol
# Density = 1.570713 g / cm^3
# Si number density = 15.742959 Si / 1000 Ang^3
#
#
#
# Elastic Constant Matrix: (Units=GPa)
#
#
# Indices 1 2 3 4 5 6 
#
# 1 43.4392 32.7913 35.3175 0.0000 -13.2773 0.0000
# 2 32.7913 88.0210 54.6419 0.0000 -16.7977 0.0000
# 3 35.3175 54.6419 95.0885 0.0000 -12.9750 0.0000
# 4 0.0000 0.0000 0.0000 25.9158 0.0000 -1.9734
# 5 -13.2773 -16.7977 -12.9750 0.0000 26.3884 0.0000
# 6 0.0000 0.0000 0.0000 -1.9734 0.0000 19.4699
#
#
#
# Elastic Compliance Matrix: (Units=1/GPa)
#
#
# Indices 1 2 3 4 5 6 
#
# 1 0.038774 -0.006784 -0.009036 0.000000 0.010747 0.000000
# 2 -0.006784 0.020028 -0.008270 0.000000 0.005269 0.000000
# 3 -0.009036 -0.008270 0.018530 0.000000 -0.000700 0.000000
# 4 0.000000 0.000000 0.000000 0.038887 0.000000 0.003941
# 5 0.010747 0.005269 -0.000700 0.000000 0.046313 0.000000
# 6 0.000000 0.000000 0.000000 0.003941 0.000000 0.051761
#
#
# Mechanical properties :
#
#
# Convention : Reuss Voigt Hill
#
# Bulk Modulus (GPa) = 34.30539 52.45001 43.37770
# Shear Modulus (GPa) = 18.36962 21.27469 19.82216
#
# Velocity S-wave (km/s) = 3.41962 3.68010 3.55225
# Velocity P-wave (km/s) = 6.11800 7.17261 6.66619
#
# Compressibility (1/GPa) = 0.02914994
#
# Stress axis : x y z
#
# Youngs Moduli (GPa) = 25.79075 49.93072 53.96787
#
# Poissons Ratio (x) = 0.33874 0.48767
# Poissons Ratio (y) = 0.17497 0.44632
# Poissons Ratio (z) = 0.23305 0.41293
#
# Static dielectric constant tensor:
#      x y z
#    x 2.874030 0.000000 0.040690 
#    y 0.000000 3.019760 0.000000 
#    z 0.040690 0.000000 2.783150 
# 
# 
# High freq. dielectric constant tensor:
#      x y z
#    x 1.581300 0.000000 0.000390 
#    y 0.000000 1.612720 0.000000 
#    z 0.000390 0.000000 1.585810 
# 
# From -- ./inp_files/95622.got.cif
#   From: 2010.06.25/outbox.cif.g09.slc.cpg/sg10_48_cif.got.tgz:95622.got - 2010.06.27 22:07:45.
