data_PCOD8061179
_publ_section_title
;
Structure prediction by ZEFSAII (Michael W. Deem and Ramdas Pophale) SiO2 
 PCOD8061179
Probable space group: P 2/M
;
_chemical_formula_sum "Si O2"
_cell_formula_units_Z 32
_cell_length_a 27.687238
_cell_length_b 8.651926
_cell_length_c 21.534607
_cell_angle_alpha 90.000000
_cell_angle_beta 18.646701
_cell_angle_gamma 90.000000
_cell_volume 1649.358639
_symmetry_space_group_name_H-M "P 2/M"
_symmetry_group_IT_number 10
_symmetry_cell_setting 'monoclinic'
loop_
_space_group_symop_operation_xyz
x,y,z
-x,y,-z
-x,-y,-z
x,-y,z
loop_
_atom_site_type_symbol
_atom_site_label
_atom_site_fract_x
_atom_site_fract_y
_atom_site_fract_z
Si Si1 0.078000 0.680052 0.578233
Si Si2 0.725376 0.816240 0.192467
Si Si3 0.663725 0.183871 0.527274
Si Si4 0.383423 0.175618 0.197054
Si Si5 0.419907 0.816047 0.505108
Si Si6 0.435210 0.816864 0.907612
Si Si7 0.904835 0.816098 0.675771
Si Si8 0.956525 0.183792 0.243906
O O1 0.052862 0.500000 0.618055
O O2 0.243530 0.716660 0.349863
O O3 0.057870 0.764055 0.668094
O O4 0.960904 0.743963 0.671255
O O5 0.591867 0.759249 0.308762
O O6 0.689061 0.758390 0.306605
O O7 0.730398 0.000000 0.185555
O O8 0.886806 0.748484 0.974649
O O9 0.643132 0.252282 0.482966
O O10 0.515140 0.236801 0.746548
O O11 0.816839 0.248418 0.372744
O O12 0.672985 0.000000 0.514313
O O13 0.462025 0.246821 0.161973
O O14 0.326294 0.000000 0.278222
O O15 0.500000 0.179662 0.000000
O O16 0.419453 0.000000 0.502826
O O17 0.428004 0.000000 0.921296
O O18 0.266097 0.752997 0.121417
O O19 0.000000 0.758231 0.500000
O O20 0.914132 0.000000 0.669527
O O21 0.956745 0.000000 0.242058
#
# Coordination Sequence:
#
# PCOD8061179 Si02
#       8
#     4   4   4   4   4   4   4   4
#     4  12  25  38  53  79 116 151 181 222 273 324
#     4   8  15  26  44  72 106 141 172 213 269 327
#     4   9  16  26  45  74 106 134 167 220 273 322
#     4  10  19  36  62  84 105 137 181 228 269 321
#     4   8  14  25  41  72 111 136 165 214 278 331
#     4   9  17  30  51  80 106 132 172 223 274 318
#     4  10  21  38  60  83 106 137 182 230 274 325
#     4  10  19  33  53  76 104 141 184 223 263 317
#
# _framework density 19.401481
#
# number of rings (size 3 to 8) (size 9 to 14) (size 15 to 20)
#    0.000    2.500    1.250    2.625    1.750    3.000 
#    0.000    3.125    0.000    0.000    0.000    3.500 
#    0.000    0.000    0.000    0.000    0.000    0.000 
#
# Total GULP energy -396680.761308 kJ/mol
# GULP energy per Si atom -12396.273791 kJ/mol
# Density = 1.935732 g / cm^3
# Si number density = 19.401481 Si / 1000 Ang^3
#
#
#
# Elastic Constant Matrix: (Units=GPa)
#
#
# Indices 1 2 3 4 5 6 
#
# 1 124.8561 9.7457 37.6049 0.0000 3.4789 0.0000
# 2 9.7457 14.3562 11.5651 0.0000 -1.2423 0.0000
# 3 37.6049 11.5651 131.4013 0.0000 -3.6557 0.0000
# 4 0.0000 0.0000 0.0000 3.2143 0.0000 -0.3008
# 5 3.4789 -1.2423 -3.6557 0.0000 29.6281 0.0000
# 6 0.0000 0.0000 0.0000 -0.3008 0.0000 2.6716
#
#
#
# Elastic Compliance Matrix: (Units=1/GPa)
#
#
# Indices 1 2 3 4 5 6 
#
# 1 0.009078 -0.004486 -0.002246 0.000000 -0.001531 0.000000
# 2 -0.004486 0.077350 -0.005438 0.000000 0.003099 0.000000
# 3 -0.002246 -0.005438 0.008763 0.000000 0.001117 0.000000
# 4 0.000000 0.000000 0.000000 0.314418 0.000000 0.035403
# 5 -0.001531 0.003099 0.001117 0.000000 0.034199 0.000000
# 6 0.000000 0.000000 0.000000 0.035403 0.000000 0.378294
#
#
# Mechanical properties :
#
#
# Convention : Reuss Voigt Hill
#
# Bulk Modulus (GPa) = 14.11397 43.16056 28.63727
# Shear Modulus (GPa) = 5.74673 21.21601 13.48137
#
# Velocity S-wave (km/s) = 1.72292 3.31044 2.63889
# Velocity P-wave (km/s) = 3.35386 6.07506 4.90687
#
# Compressibility (1/GPa) = 0.07085177
#
# Stress axis : x y z
#
# Youngs Moduli (GPa) = 110.15063 12.92820 114.12042
#
# Poissons Ratio (x) = 0.05800 0.25630
# Poissons Ratio (y) = 0.49416 0.62056
# Poissons Ratio (z) = 0.24738 0.07030
#
# Static dielectric constant tensor:
#      x y z
#    x 3.840900 0.000000 -0.052930 
#    y 0.000000 2.928240 0.000000 
#    z -0.052930 0.000000 3.892370 
# 
# 
# High freq. dielectric constant tensor:
#      x y z
#    x 1.768850 0.000000 -0.000580 
#    y 0.000000 1.684750 0.000000 
#    z -0.000580 0.000000 1.768760 
# 
# From -- ./inp_files/86778.got.cif
#   From: 2010.06.25/outbox.cif.g09.slc.cpg/sg10_44_cif.got.tgz:86778.got - 2010.06.27 22:07:45.
