data_PCOD8061768
_publ_section_title
;
Structure prediction by ZEFSAII (Michael W. Deem and Ramdas Pophale) SiO2 
 PCOD8061768
Probable space group: P 2/M
;
_chemical_formula_sum "Si O2"
_cell_formula_units_Z 28
_cell_length_a 10.446821
_cell_length_b 16.982160
_cell_length_c 15.089376
_cell_angle_alpha 90.000000
_cell_angle_beta 30.483196
_cell_angle_gamma 90.000000
_cell_volume 1358.003625
_symmetry_space_group_name_H-M "P 2/M"
_symmetry_group_IT_number 10
_symmetry_cell_setting 'monoclinic'
loop_
_space_group_symop_operation_xyz
x,y,z
-x,y,-z
-x,-y,-z
x,-y,z
loop_
_atom_site_type_symbol
_atom_site_label
_atom_site_fract_x
_atom_site_fract_y
_atom_site_fract_z
Si Si1 0.517087 0.500000 0.385256
Si Si2 0.595836 0.914011 0.209044
Si Si3 0.757964 0.667327 0.792671
Si Si4 0.508086 0.753126 0.791395
Si Si5 0.112000 0.913965 0.793743
Si Si6 0.023815 0.500000 0.381239
Si Si7 0.257270 0.663594 0.793665
Si Si8 0.989064 0.247330 0.208328
O O1 0.500000 0.500000 0.500000
O O2 0.675441 0.573467 0.257609
O O3 0.244109 0.500000 0.505309
O O4 0.421148 0.843983 0.274368
O O5 0.655810 0.899295 0.277118
O O6 0.465040 0.000000 0.274219
O O7 0.857801 0.912904 0.001196
O O8 0.730589 0.712456 0.715093
O O9 0.823605 0.576536 0.740072
O O10 0.978078 0.712719 0.715220
O O11 0.500000 0.671220 0.000000
O O12 0.478311 0.706272 0.716965
O O13 0.251025 0.749224 0.999851
O O14 0.103045 0.843690 0.726754
O O15 0.143566 0.000000 0.728249
O O16 0.000000 0.500000 0.500000
O O17 0.224789 0.704538 0.717391
O O18 0.000000 0.671394 0.000000
#
# Coordination Sequence:
#
# PCOD8061768 Si02
#       8
#     2   4   4   4   4   2   4   4
#     4  12  25  38  53  78 106 128 162 216 273 312
#     4   8  12  20  38  67 104 138 166 201 247 298
#     4  10  21  36  55  75 102 137 175 216 261 307
#     4   9  16  28  47  73  99 134 177 209 242 300
#     4   8  12  20  38  67 104 140 165 195 250 306
#     4  12  25  42  57  74 102 136 176 216 261 320
#     4  10  19  34  55  75 100 133 172 210 251 307
#     4   9  16  28  47  73 103 134 168 209 253 301
#
# _framework density 20.618500999999998
#
# number of rings (size 3 to 8) (size 9 to 14) (size 15 to 20)
#    0.000    2.571    1.429    3.000    0.000    0.000 
#    0.000    6.429    0.000    4.286    0.000    0.000 
#    0.000   22.857    0.000    0.000    0.000    0.000 
#
# Total GULP energy -347046.403883 kJ/mol
# GULP energy per Si atom -12394.514424 kJ/mol
# Density = 2.057157 g / cm^3
# Si number density = 20.618501 Si / 1000 Ang^3
#
#
#
# Elastic Constant Matrix: (Units=GPa)
#
#
# Indices 1 2 3 4 5 6 
#
# 1 176.9604 96.8182 11.3022 0.0000 -3.2758 0.0000
# 2 96.8182 224.4007 6.5574 0.0000 -2.3695 0.0000
# 3 11.3022 6.5574 6.0565 0.0000 -1.3218 0.0000
# 4 0.0000 0.0000 0.0000 1.1992 0.0000 4.9468
# 5 -3.2758 -2.3695 -1.3218 0.0000 9.0836 0.0000
# 6 0.0000 0.0000 0.0000 4.9468 0.0000 -0.7921
#
#
#
# Elastic Compliance Matrix: (Units=1/GPa)
#
#
# Indices 1 2 3 4 5 6 
#
# 1 0.008135 -0.003165 -0.011665 0.000000 0.000411 0.000000
# 2 -0.003165 0.005835 -0.000340 0.000000 0.000331 0.000000
# 3 -0.011665 -0.000340 0.192421 0.000000 0.023705 0.000000
# 4 0.000000 0.000000 0.000000 0.031159 0.000000 0.194598
# 5 0.000411 0.000331 0.023705 0.000000 0.113773 0.000000
# 6 0.000000 0.000000 0.000000 0.194598 0.000000 -0.047174
#
#
# Mechanical properties :
#
#
# Convention : Reuss Voigt Hill
#
# Bulk Modulus (GPa) = 5.68012 70.75257 38.21634
# Shear Modulus (GPa) = 12.71708 21.41413 17.06561
#
# Velocity S-wave (km/s) = 2.48620 3.22621 2.88007
# Velocity P-wave (km/s) = 3.31699 6.94748 5.44380
#
# Compressibility (1/GPa) = 0.17605276
#
# Stress axis : x y z
#
# Youngs Moduli (GPa) = 122.92480 171.37525 5.19693
#
# Poissons Ratio (x) = 0.54235 0.06062
# Poissons Ratio (y) = 0.38902 0.00177
# Poissons Ratio (z) = 1.43390 0.05823
#
# Static dielectric constant tensor:
#      x y z
#    x 3.963770 0.000000 -0.003240 
#    y 0.000000 4.243310 0.000000 
#    z -0.003240 0.000000 3.105380 
# 
# 
# High freq. dielectric constant tensor:
#      x y z
#    x 1.796450 0.000000 0.003550 
#    y 0.000000 1.828760 0.000000 
#    z 0.003550 0.000000 1.760040 
# 
# From -- ./inp_files/62341.got.cif
#   From: 2010.06.25/outbox.cif.g09.slc.cpg/sg10_32_cif.got.tgz:62341.got - 2010.06.27 22:07:45.
