data_PCOD8061627
_publ_section_title
;
Structure prediction by ZEFSAII (Michael W. Deem and Ramdas Pophale) SiO2 
 PCOD8061627
Probable space group: P 2/M
;
_chemical_formula_sum "Si O2"
_cell_formula_units_Z 28
_cell_length_a 16.174778
_cell_length_b 7.635867
_cell_length_c 19.255095
_cell_angle_alpha 90.000000
_cell_angle_beta 143.878161
_cell_angle_gamma 90.000000
_cell_volume 1401.939653
_symmetry_space_group_name_H-M "P 2/M"
_symmetry_group_IT_number 10
_symmetry_cell_setting 'monoclinic'
loop_
_space_group_symop_operation_xyz
x,y,z
-x,y,-z
-x,-y,-z
x,-y,z
loop_
_atom_site_type_symbol
_atom_site_label
_atom_site_fract_x
_atom_site_fract_y
_atom_site_fract_z
Si Si1 0.355849 0.206193 0.939420
Si Si2 0.195209 0.000000 0.197724
Si Si3 0.833696 0.199384 0.450319
Si Si4 0.136163 0.792133 0.681143
Si Si5 0.551563 0.296442 0.324205
Si Si6 0.589888 0.703164 0.629043
Si Si7 0.124691 0.000000 0.989461
Si Si8 0.306073 0.698779 0.058781
O O1 0.231163 0.285006 0.807236
O O2 0.343067 0.000000 0.944445
O O3 0.500000 0.254641 0.000000
O O4 0.349688 0.303311 0.008482
O O5 0.273374 0.175018 0.276955
O O6 0.042617 0.000000 0.128199
O O7 0.184280 0.000000 0.107545
O O8 0.807094 0.279289 0.355305
O O9 0.702080 0.212740 0.411659
O O10 0.975530 0.276778 0.581736
O O11 0.871935 0.000000 0.462443
O O12 0.152425 0.000000 0.697263
O O13 0.570643 0.500000 0.326283
O O14 0.508258 0.246788 0.372666
O O15 0.435531 0.225534 0.191878
O O16 0.500000 0.742674 0.500000
O O17 0.638117 0.500000 0.665257
O O18 0.174425 0.175064 0.983535
O O19 0.268095 0.500000 0.056300
#
# Coordination Sequence:
#
# PCOD8061627 Si02
#       8
#     4   2   4   4   4   4   2   4
#     4  10  19  33  57  86 119 162 205 249 296 346
#     4  11  23  42  70  94 119 158 208 249 308 388
#     4   9  17  31  56  79 108 153 191 238 294 346
#     4   8  16  32  49  80 117 147 195 242 288 345
#     4  10  21  36  56  83 111 145 193 240 291 353
#     4  10  22  42  64  92 128 156 194 254 306 366
#     4  11  24  42  65  94 122 158 206 256 306 371
#     4  11  23  40  60  86 124 161 202 254 300 358
#
# _framework density 19.972329999999999
#
# number of rings (size 3 to 8) (size 9 to 14) (size 15 to 20)
#    0.000    2.143    2.143    1.929    2.000    2.000 
#    2.571    4.286    0.000    0.000    0.000    0.000 
#    0.000    0.000    0.000    0.000    0.000    0.000 
#
# Total GULP energy -347142.198234 kJ/mol
# GULP energy per Si atom -12397.935651 kJ/mol
# Density = 1.992687 g / cm^3
# Si number density = 19.972330 Si / 1000 Ang^3
#
#
#
# Elastic Constant Matrix: (Units=GPa)
#
#
# Indices 1 2 3 4 5 6 
#
# 1 135.4637 36.8202 83.5420 0.0000 6.2355 0.0000
# 2 36.8202 73.4016 35.3308 0.0000 11.6074 0.0000
# 3 83.5420 35.3308 154.5948 0.0000 -4.5429 0.0000
# 4 0.0000 0.0000 0.0000 1.0664 0.0000 -18.5214
# 5 6.2355 11.6074 -4.5429 0.0000 39.0812 0.0000
# 6 0.0000 0.0000 0.0000 -18.5214 0.0000 5.2505
#
#
#
# Elastic Compliance Matrix: (Units=1/GPa)
#
#
# Indices 1 2 3 4 5 6 
#
# 1 0.011799 -0.002873 -0.005770 0.000000 -0.001700 0.000000
# 2 -0.002873 0.017034 -0.002484 0.000000 -0.004889 0.000000
# 3 -0.005770 -0.002484 0.010238 0.000000 0.002848 0.000000
# 4 0.000000 0.000000 0.000000 -0.015560 0.000000 -0.054888
# 5 -0.001700 -0.004889 0.002848 0.000000 0.027642 0.000000
# 6 0.000000 0.000000 0.000000 -0.054888 0.000000 -0.003160
#
#
# Mechanical properties :
#
#
# Convention : Reuss Voigt Hill
#
# Bulk Modulus (GPa) = 59.46138 74.98287 67.22213
# Shear Modulus (GPa) = 65.91748 22.93077 44.42413
#
# Velocity S-wave (km/s) = 5.75118 3.39208 4.72135
# Velocity P-wave (km/s) = 8.59872 7.27781 7.96569
#
# Compressibility (1/GPa) = 0.01681764
#
# Stress axis : x y z
#
# Youngs Moduli (GPa) = 84.74977 58.70727 97.67681
#
# Poissons Ratio (x) = 0.16866 0.56357
# Poissons Ratio (y) = 0.24348 0.24263
# Poissons Ratio (z) = 0.48898 0.14583
#
# Static dielectric constant tensor:
#      x y z
#    x 3.518500 0.000000 -0.041470 
#    y 0.000000 3.466900 0.000000 
#    z -0.041470 0.000000 3.792860 
# 
# 
# High freq. dielectric constant tensor:
#      x y z
#    x 1.771800 0.000000 -0.003550 
#    y 0.000000 1.770150 0.000000 
#    z -0.003550 0.000000 1.783170 
# 
# From -- ./inp_files/77821.got.cif
#   From: 2010.06.25/outbox.cif.g09.slc.cpg/sg10_39_cif.got.tgz:77821.got - 2010.06.27 22:07:45.
