data_PCOD8061083
_publ_section_title
;
Structure prediction by ZEFSAII (Michael W. Deem and Ramdas Pophale) SiO2 
 PCOD8061083
Probable space group: P 2/M
;
_chemical_formula_sum "Si O2"
_cell_formula_units_Z 32
_cell_length_a 11.703311
_cell_length_b 8.493032
_cell_length_c 18.751952
_cell_angle_alpha 90.000000
_cell_angle_beta 115.028644
_cell_angle_gamma 90.000000
_cell_volume 1688.855104
_symmetry_space_group_name_H-M "P 2/M"
_symmetry_group_IT_number 10
_symmetry_cell_setting 'monoclinic'
loop_
_space_group_symop_operation_xyz
x,y,z
-x,y,-z
-x,-y,-z
x,-y,z
loop_
_atom_site_type_symbol
_atom_site_label
_atom_site_fract_x
_atom_site_fract_y
_atom_site_fract_z
Si Si1 0.058216 0.187665 0.747114
Si Si2 0.292907 0.812674 0.721103
Si Si3 0.192446 0.188036 0.393211
Si Si4 0.424672 0.814843 0.192369
Si Si5 0.690122 0.187536 0.432435
Si Si6 0.589152 0.813955 0.649534
Si Si7 0.965010 0.185173 0.097762
Si Si8 0.184989 0.682735 0.067343
O O1 0.186937 0.254928 0.746403
O O2 0.045922 0.249160 0.824572
O O3 0.941452 0.252772 0.669573
O O4 0.057680 0.000000 0.746141
O O5 0.431542 0.758436 0.783948
O O6 0.265125 0.750211 0.633322
O O7 0.289088 0.000000 0.718872
O O8 0.216641 0.247864 0.480576
O O9 0.302179 0.258900 0.371561
O O10 0.194322 0.000000 0.390574
O O11 0.384492 0.767606 0.261771
O O12 0.332197 0.724685 0.113998
O O13 0.411478 0.000000 0.175923
O O14 0.548214 0.249431 0.410730
O O15 0.687728 0.000000 0.430460
O O16 0.590220 0.000000 0.641833
O O17 0.103952 0.221249 0.104191
O O18 0.940802 0.000000 0.087536
O O19 0.858169 0.271802 0.023480
O O20 0.160864 0.500000 0.073716
#
# Coordination Sequence:
#
# PCOD8061083 Si02
#       8
#     4   4   4   4   4   4   4   4
#     4   9  17  27  41  63  90 122 161 199 228 265
#     4   8  15  27  41  61  90 124 163 199 227 263
#     4   9  14  19  31  55  89 125 156 188 231 278
#     4   9  16  29  49  68  91 127 163 191 226 276
#     4   8  13  20  32  53  87 128 158 186 230 276
#     4   8  13  21  35  58  87 120 159 195 226 269
#     4  10  19  33  52  72  97 127 154 181 225 283
#     4  11  21  33  51  75  99 117 144 191 239 281
#
# _framework density 18.947745999999999
#
# number of rings (size 3 to 8) (size 9 to 14) (size 15 to 20)
#    0.000    3.000    0.000    4.875    0.000    4.000 
#    0.000    3.125    0.000    5.250    0.000    0.000 
#    0.000   36.000    0.000   14.625    0.000   16.250 
#
# Total GULP energy -396632.028072 kJ/mol
# GULP energy per Si atom -12394.750877 kJ/mol
# Density = 1.890462 g / cm^3
# Si number density = 18.947746 Si / 1000 Ang^3
#
#
#
# Elastic Constant Matrix: (Units=GPa)
#
#
# Indices 1 2 3 4 5 6 
#
# 1 132.1397 5.3651 84.5562 0.0000 4.1357 0.0000
# 2 5.3651 21.6781 13.7050 0.0000 2.4832 0.0000
# 3 84.5562 13.7050 155.9207 0.0000 15.6735 0.0000
# 4 0.0000 0.0000 0.0000 -1.1506 0.0000 0.5762
# 5 4.1357 2.4832 15.6735 0.0000 23.7238 0.0000
# 6 0.0000 0.0000 0.0000 0.5762 0.0000 2.5676
#
#
#
# Elastic Compliance Matrix: (Units=1/GPa)
#
#
# Indices 1 2 3 4 5 6 
#
# 1 0.011729 0.001062 -0.006681 0.000000 0.002258 0.000000
# 2 0.001062 0.049072 -0.004664 0.000000 -0.002240 0.000000
# 3 -0.006681 -0.004664 0.011012 0.000000 -0.005622 0.000000
# 4 0.000000 0.000000 0.000000 -0.781282 0.000000 0.175336
# 5 0.002258 -0.002240 -0.005622 0.000000 0.045707 0.000000
# 6 0.000000 0.000000 0.000000 0.175336 0.000000 0.350118
#
#
# Mechanical properties :
#
#
# Convention : Reuss Voigt Hill
#
# Bulk Modulus (GPa) = 19.51333 57.44345 38.47839
# Shear Modulus (GPa) = -18.11620 18.76897 0.32639
#
# Velocity S-wave (km/s) = -3.09546 3.15074 0.41549
# Velocity P-wave (km/s) = 1.56685 6.60445 4.53673
#
# Compressibility (1/GPa) = 0.05124702
#
# Stress axis : x y z
#
# Youngs Moduli (GPa) = 85.25719 20.37822 90.81122
#
# Poissons Ratio (x) = -0.02165 0.60672
# Poissons Ratio (y) = -0.09057 0.42356
# Poissons Ratio (z) = 0.56962 0.09505
#
# Static dielectric constant tensor:
#      x y z
#    x 3.727100 0.000000 0.027050 
#    y 0.000000 2.777340 0.000000 
#    z 0.027050 0.000000 3.678590 
# 
# 
# High freq. dielectric constant tensor:
#      x y z
#    x 1.729280 0.000000 0.007370 
#    y 0.000000 1.669360 0.000000 
#    z 0.007370 0.000000 1.744630 
# 
# From -- ./inp_files/83399.got.cif
#   From: 2010.06.25/outbox.cif.g09.slc.cpg/sg10_42_cif.got.tgz:83399.got - 2010.06.27 22:07:45.
