data_PCOD8061648
_publ_section_title
;
Structure prediction by ZEFSAII (Michael W. Deem and Ramdas Pophale) SiO2 
 PCOD8061648
Probable space group: P 2/M
;
_chemical_formula_sum "Si O2"
_cell_formula_units_Z 28
_cell_length_a 33.781204
_cell_length_b 7.793666
_cell_length_c 10.088237
_cell_angle_alpha 90.000000
_cell_angle_beta 34.425784
_cell_angle_gamma 90.000000
_cell_volume 1501.552664
_symmetry_space_group_name_H-M "P 2/M"
_symmetry_group_IT_number 10
_symmetry_cell_setting 'monoclinic'
loop_
_space_group_symop_operation_xyz
x,y,z
-x,y,-z
-x,-y,-z
x,-y,z
loop_
_atom_site_type_symbol
_atom_site_label
_atom_site_fract_x
_atom_site_fract_y
_atom_site_fract_z
Si Si1 0.789882 0.691408 0.167845
Si Si2 0.642676 0.190341 0.578039
Si Si3 0.207791 0.802990 0.555784
Si Si4 0.941437 0.700497 0.757100
Si Si5 0.446222 0.500000 0.266257
Si Si6 0.640262 0.804178 0.898280
Si Si7 0.543611 0.500000 0.246836
Si Si8 0.945654 0.199382 0.045679
O O1 0.781527 0.500000 0.132265
O O2 0.723509 0.803626 0.305338
O O3 0.789500 0.675644 0.328094
O O4 0.865268 0.776725 0.923399
O O5 0.599691 0.328133 0.613304
O O6 0.636680 0.231792 0.750651
O O7 0.613410 0.000000 0.628363
O O8 0.279100 0.774777 0.273781
O O9 0.134479 0.766049 0.681568
O O10 0.208027 0.000000 0.607961
O O11 0.937206 0.500000 0.741457
O O12 0.000000 0.785526 0.500000
O O13 0.959093 0.728443 0.862115
O O14 0.486532 0.500000 0.290987
O O15 0.500000 0.500000 0.000000
O O16 0.616493 0.000000 0.995037
O O17 0.590926 0.671107 0.110450
O O18 0.500000 0.500000 0.500000
O O19 0.961603 0.000000 0.992868
O O20 0.000000 0.285236 0.000000
#
# Coordination Sequence:
#
# PCOD8061648 Si02
#       8
#     4   4   4   4   2   4   2   4
#     4   9  15  26  48  76 106 139 175 219 267 309
#     4  10  19  33  58  88 112 135 175 228 273 312
#     4   8  15  27  47  75 102 131 175 222 261 307
#     4   9  18  31  48  72 106 144 179 215 259 313
#     4  12  22  38  60  86 111 138 174 220 267 322
#     4   9  18  34  57  83 109 140 177 219 266 316
#     4  12  26  40  58  82 113 142 176 214 261 328
#     4   9  17  30  49  74 103 135 174 223 267 301
#
# _framework density 18.647365000000001
#
# number of rings (size 3 to 8) (size 9 to 14) (size 15 to 20)
#    0.000    2.571    2.143    1.286    3.000    2.286 
#    0.000    0.000    3.143    0.000    0.000    0.000 
#    0.000    0.000    0.000    0.000    0.000    0.000 
#
# Total GULP energy -346876.516415 kJ/mol
# GULP energy per Si atom -12388.447015 kJ/mol
# Density = 1.860492 g / cm^3
# Si number density = 18.647365 Si / 1000 Ang^3
#
#
#
# Elastic Constant Matrix: (Units=GPa)
#
#
# Indices 1 2 3 4 5 6 
#
# 1 93.3022 30.3006 61.4564 0.0000 -22.7856 0.0000
# 2 30.3006 83.1527 49.0658 0.0000 -14.4476 0.0000
# 3 61.4564 49.0658 143.0839 0.0000 -21.2742 0.0000
# 4 0.0000 0.0000 0.0000 19.3257 0.0000 -5.2965
# 5 -22.7856 -14.4476 -21.2742 0.0000 27.5348 0.0000
# 6 0.0000 0.0000 0.0000 -5.2965 0.0000 31.1749
#
#
#
# Elastic Compliance Matrix: (Units=1/GPa)
#
#
# Indices 1 2 3 4 5 6 
#
# 1 0.016996 -0.001382 -0.005471 0.000000 0.009112 0.000000
# 2 -0.001382 0.015682 -0.004215 0.000000 0.003828 0.000000
# 3 -0.005471 -0.004215 0.011052 0.000000 0.001800 0.000000
# 4 0.000000 0.000000 0.000000 0.054272 0.000000 0.009221
# 5 0.009112 0.003828 0.001800 0.000000 0.047257 0.000000
# 6 0.000000 0.000000 0.000000 0.009221 0.000000 0.033644
#
#
# Mechanical properties :
#
#
# Convention : Reuss Voigt Hill
#
# Bulk Modulus (GPa) = 46.30963 66.79828 56.55395
# Shear Modulus (GPa) = 24.01130 27.52149 25.76640
#
# Velocity S-wave (km/s) = 3.59228 3.84590 3.72125
# Velocity P-wave (km/s) = 6.48801 7.45794 6.98982
#
# Compressibility (1/GPa) = 0.02159378
#
# Stress axis : x y z
#
# Youngs Moduli (GPa) = 58.83868 63.76836 90.48246
#
# Poissons Ratio (x) = 0.08810 0.49506
# Poissons Ratio (y) = 0.08129 0.38138
# Poissons Ratio (z) = 0.32192 0.26878
#
# Static dielectric constant tensor:
#      x y z
#    x 3.340820 0.000000 -0.514660 
#    y 0.000000 3.466480 0.000000 
#    z -0.514660 0.000000 3.584820 
# 
# 
# High freq. dielectric constant tensor:
#      x y z
#    x 1.687130 0.000000 -0.048140 
#    y 0.000000 1.727330 0.000000 
#    z -0.048140 0.000000 1.708210 
# 
# From -- ./inp_files/37980.got.cif
#   From: 2010.06.25/outbox.cif.g09.slc.cpg/sg10_19_cif.got.tgz:37980.got - 2010.06.27 22:07:45.
