data_PCOD8061751
_publ_section_title
;
Structure prediction by ZEFSAII (Michael W. Deem and Ramdas Pophale) SiO2 
 PCOD8061751
Probable space group: P 2/M
;
_chemical_formula_sum "Si O2"
_cell_formula_units_Z 28
_cell_length_a 5.189439
_cell_length_b 13.277408
_cell_length_c 20.980568
_cell_angle_alpha 90.000000
_cell_angle_beta 92.780062
_cell_angle_gamma 90.000000
_cell_volume 1443.907995
_symmetry_space_group_name_H-M "P 2/M"
_symmetry_group_IT_number 10
_symmetry_cell_setting 'monoclinic'
loop_
_space_group_symop_operation_xyz
x,y,z
-x,y,-z
-x,-y,-z
x,-y,z
loop_
_atom_site_type_symbol
_atom_site_label
_atom_site_fract_x
_atom_site_fract_y
_atom_site_fract_z
Si Si1 0.752475 0.243214 0.460553
Si Si2 0.708794 0.886134 0.259410
Si Si3 0.566941 0.737831 0.653508
Si Si4 0.749427 0.617098 0.765681
Si Si5 0.051402 0.109691 0.382710
Si Si6 0.757744 0.615727 0.041579
Si Si7 0.739896 0.708406 0.174958
O O1 0.500000 0.235033 0.500000
O O2 0.671200 0.302397 0.393536
O O3 0.000000 0.293525 0.500000
O O4 0.833691 0.132441 0.434026
O O5 0.495103 0.820837 0.293278
O O6 0.772124 0.826772 0.194234
O O7 0.953731 0.890545 0.308776
O O8 0.612473 0.000000 0.242682
O O9 0.696174 0.643914 0.690839
O O10 0.751627 0.797651 0.606525
O O11 0.716670 0.500000 0.775583
O O12 0.543958 0.669675 0.809796
O O13 0.041626 0.647285 0.784605
O O14 0.172842 0.000000 0.398793
O O15 0.759718 0.500000 0.066298
O O16 0.776830 0.692997 0.100333
O O17 0.500000 0.639271 0.000000
O O18 0.000000 0.637287 0.000000
#
# Coordination Sequence:
#
# PCOD8061751 Si02
#       7
#     4   4   4   4   4   4   4
#     4  11  22  37  52  75 104 147 182 223 273 333
#     4   9  19  34  55  83 113 147 185 228 279 333
#     4  10  20  36  56  79 112 141 183 226 285 333
#     4  11  22  36  59  87 114 142 180 236 290 331
#     4  10  19  34  54  78 109 141 177 225 278 334
#     4  10  20  34  54  80 114 153 187 223 272 325
#     4  11  21  37  58  87 117 147 188 228 275 331
#
# _framework density 19.391817
#
# number of rings (size 3 to 8) (size 9 to 14) (size 15 to 20)
#    0.000    1.714    2.857    2.571    0.000    2.286 
#    0.000    0.000    0.000    1.714    0.000    0.000 
#    0.000    0.000    0.000    0.000    0.000    0.000 
#
# Total GULP energy -346872.924243 kJ/mol
# GULP energy per Si atom -12388.318723 kJ/mol
# Density = 1.934768 g / cm^3
# Si number density = 19.391817 Si / 1000 Ang^3
#
#
#
# Elastic Constant Matrix: (Units=GPa)
#
#
# Indices 1 2 3 4 5 6 
#
# 1 85.2048 11.5970 36.8947 0.0000 -0.1508 0.0000
# 2 11.5970 62.8125 24.5827 0.0000 5.2306 0.0000
# 3 36.8947 24.5827 102.0205 0.0000 9.5367 0.0000
# 4 0.0000 0.0000 0.0000 16.7513 0.0000 -1.0308
# 5 -0.1508 5.2306 9.5367 0.0000 26.9324 0.0000
# 6 0.0000 0.0000 0.0000 -1.0308 0.0000 20.7080
#
#
#
# Elastic Compliance Matrix: (Units=1/GPa)
#
#
# Indices 1 2 3 4 5 6 
#
# 1 0.014046 -0.000773 -0.005083 0.000000 0.002029 0.000000
# 2 -0.000773 0.017723 -0.003794 0.000000 -0.002103 0.000000
# 3 -0.005083 -0.003794 0.012916 0.000000 -0.003865 0.000000
# 4 0.000000 0.000000 0.000000 0.059880 0.000000 0.002981
# 5 0.002029 -0.002103 -0.003865 0.000000 0.038918 0.000000
# 6 0.000000 0.000000 0.000000 0.002981 0.000000 0.048439
#
#
# Mechanical properties :
#
#
# Convention : Reuss Voigt Hill
#
# Bulk Modulus (GPa) = 39.39440 44.02075 41.70758
# Shear Modulus (GPa) = 22.75985 24.67591 23.71788
#
# Velocity S-wave (km/s) = 3.42962 3.57107 3.50106
# Velocity P-wave (km/s) = 6.00351 6.30503 6.15611
#
# Compressibility (1/GPa) = 0.02538432
#
# Stress axis : x y z
#
# Youngs Moduli (GPa) = 71.19336 56.42309 77.42462
#
# Poissons Ratio (x) = 0.04361 0.39356
# Poissons Ratio (y) = 0.05503 0.29378
# Poissons Ratio (z) = 0.36188 0.21410
#
# Static dielectric constant tensor:
#      x y z
#    x 3.754820 0.000000 0.099040 
#    y 0.000000 3.385180 0.000000 
#    z 0.099040 0.000000 3.639150 
# 
# 
# High freq. dielectric constant tensor:
#      x y z
#    x 1.769390 0.000000 0.003750 
#    y 0.000000 1.710240 0.000000 
#    z 0.003750 0.000000 1.750970 
# 
# From -- ./inp_files/81095.got.cif
#   From: 2010.06.25/outbox.cif.g09.slc.cpg/sg10_41_cif.got.tgz:81095.got - 2010.06.27 22:07:45.
