data_PCOD8061509
_publ_section_title
;
Structure prediction by ZEFSAII (Michael W. Deem and Ramdas Pophale) SiO2 
 PCOD8061509
Probable space group: P 2/M
;
_chemical_formula_sum "Si O2"
_cell_formula_units_Z 32
_cell_length_a 25.557738
_cell_length_b 9.017417
_cell_length_c 20.805061
_cell_angle_alpha 90.000000
_cell_angle_beta 20.537261
_cell_angle_gamma 90.000000
_cell_volume 1682.106585
_symmetry_space_group_name_H-M "P 2/M"
_symmetry_group_IT_number 10
_symmetry_cell_setting 'monoclinic'
loop_
_space_group_symop_operation_xyz
x,y,z
-x,y,-z
-x,-y,-z
x,-y,z
loop_
_atom_site_type_symbol
_atom_site_label
_atom_site_fract_x
_atom_site_fract_y
_atom_site_fract_z
Si Si1 0.182206 0.171255 0.639964
Si Si2 0.652889 0.333074 0.299451
Si Si3 0.278394 0.675023 0.404596
Si Si4 0.134128 0.826997 0.298705
Si Si5 0.847931 0.666454 0.199939
Si Si6 0.537329 0.172331 0.030129
Si Si7 0.145786 0.171594 0.030781
Si Si8 0.043914 0.675248 0.272376
O O1 0.276130 0.255898 0.478014
O O2 0.226180 0.235694 0.658766
O O3 0.006764 0.198571 0.832111
O O4 0.226194 0.000000 0.585933
O O5 0.500000 0.261043 0.500000
O O6 0.630715 0.500000 0.297447
O O7 0.747392 0.338417 0.254234
O O8 0.719627 0.232023 0.166771
O O9 0.286260 0.500000 0.402221
O O10 0.427035 0.731812 0.199983
O O11 0.129858 0.723630 0.535879
O O12 0.112676 0.735003 0.258845
O O13 0.000000 0.781575 0.500000
O O14 0.126990 0.000000 0.289807
O O15 0.291555 0.785251 0.150795
O O16 0.877323 0.500000 0.193213
O O17 0.000000 0.741204 0.000000
O O18 0.507110 0.000000 0.078674
O O19 0.500000 0.212945 0.000000
O O20 0.142512 0.258166 0.101648
O O21 0.172815 0.000000 0.014784
O O22 0.059769 0.500000 0.252536
#
# Coordination Sequence:
#
# PCOD8061509 Si02
#       8
#     4   4   4   4   4   4   4   4
#     4  10  20  34  56  84 111 143 186 235 282 331
#     4  10  21  37  55  78 109 145 184 229 283 338
#     4  10  21  37  58  84 115 150 190 233 281 335
#     4  10  21  38  61  88 117 150 189 230 275 331
#     4  10  19  33  56  81 107 142 185 231 278 333
#     4  10  21  38  61  88 118 151 186 228 279 332
#     4  10  20  35  57  82 110 145 187 233 280 333
#     4  10  21  37  59  85 113 149 191 234 279 333
#
# _framework density 19.023765000000001
#
# number of rings (size 3 to 8) (size 9 to 14) (size 15 to 20)
#    0.000    2.000    1.250    2.250    0.000    5.500 
#    2.250    0.000    0.000    0.000    0.000    0.000 
#    0.000    0.000    0.000    0.000    0.000    0.000 
#
# Total GULP energy -396847.798398 kJ/mol
# GULP energy per Si atom -12401.493700 kJ/mol
# Density = 1.898047 g / cm^3
# Si number density = 19.023765 Si / 1000 Ang^3
#
#
#
# Elastic Constant Matrix: (Units=GPa)
#
#
# Indices 1 2 3 4 5 6 
#
# 1 99.9030 48.5123 56.2157 0.0000 16.5264 0.0000
# 2 48.5123 83.0807 57.9330 0.0000 13.5356 0.0000
# 3 56.2157 57.9330 140.5800 0.0000 12.6457 0.0000
# 4 0.0000 0.0000 0.0000 38.9818 0.0000 12.7169
# 5 16.5264 13.5356 12.6457 0.0000 29.1821 0.0000
# 6 0.0000 0.0000 0.0000 12.7169 0.0000 39.5151
#
#
#
# Elastic Compliance Matrix: (Units=1/GPa)
#
#
# Indices 1 2 3 4 5 6 
#
# 1 0.015565 -0.006019 -0.003332 0.000000 -0.004579 0.000000
# 2 -0.006019 0.019954 -0.005504 0.000000 -0.003461 0.000000
# 3 -0.003332 -0.005504 0.010733 0.000000 -0.000211 0.000000
# 4 0.000000 0.000000 0.000000 0.028662 0.000000 -0.009224
# 5 -0.004579 -0.003461 -0.000211 0.000000 0.038557 0.000000
# 6 0.000000 0.000000 0.000000 -0.009224 0.000000 0.028275
#
#
# Mechanical properties :
#
#
# Convention : Reuss Voigt Hill
#
# Bulk Modulus (GPa) = 60.45806 72.09840 66.27823
# Shear Modulus (GPa) = 28.25324 32.26266 30.25795
#
# Velocity S-wave (km/s) = 3.85795 4.12261 3.99248
# Velocity P-wave (km/s) = 7.18988 7.78734 7.49456
#
# Compressibility (1/GPa) = 0.01654039
#
# Stress axis : x y z
#
# Youngs Moduli (GPa) = 64.24706 50.11651 93.17023
#
# Poissons Ratio (x) = 0.30167 0.31041
# Poissons Ratio (y) = 0.38673 0.51285
# Poissons Ratio (z) = 0.21405 0.27586
#
# Static dielectric constant tensor:
#      x y z
#    x 3.443900 0.000000 0.051500 
#    y 0.000000 3.487820 0.000000 
#    z 0.051500 0.000000 3.473360 
# 
# 
# High freq. dielectric constant tensor:
#      x y z
#    x 1.738050 0.000000 0.010530 
#    y 0.000000 1.739400 0.000000 
#    z 0.010530 0.000000 1.740300 
# 
# From -- ./inp_files/86822.got.cif
#   From: 2010.06.25/outbox.cif.g09.slc.cpg/sg10_44_cif.got.tgz:86822.got - 2010.06.27 22:07:45.
