data_PCOD8061747
_publ_section_title
;
Structure prediction by ZEFSAII (Michael W. Deem and Ramdas Pophale) SiO2 
 PCOD8061747
Probable space group: P 2/M
;
_chemical_formula_sum "Si O2"
_cell_formula_units_Z 32
_cell_length_a 12.781708
_cell_length_b 9.357305
_cell_length_c 31.675490
_cell_angle_alpha 90.000000
_cell_angle_beta 26.492679
_cell_angle_gamma 90.000000
_cell_volume 1689.970558
_symmetry_space_group_name_H-M "P 2/M"
_symmetry_group_IT_number 10
_symmetry_cell_setting 'monoclinic'
loop_
_space_group_symop_operation_xyz
x,y,z
-x,y,-z
-x,-y,-z
x,-y,z
loop_
_atom_site_type_symbol
_atom_site_label
_atom_site_fract_x
_atom_site_fract_y
_atom_site_fract_z
Si Si1 0.032961 0.670767 0.073743
Si Si2 0.086040 0.658573 0.149230
Si Si3 0.264345 0.837091 0.398071
Si Si4 0.623420 0.833595 0.412341
Si Si5 0.583870 0.162163 0.207236
Si Si6 0.567484 0.166365 0.116345
Si Si7 0.459500 0.659228 0.635602
Si Si8 0.845787 0.833698 0.796359
O O1 0.024560 0.500000 0.072700
O O2 0.115652 0.717735 0.090898
O O3 0.776638 0.730670 0.155994
O O4 0.212480 0.737330 0.975710
O O5 0.194882 0.500000 0.113402
O O6 0.814600 0.654443 0.257777
O O7 0.215274 0.756872 0.137145
O O8 0.343882 0.822280 0.320634
O O9 0.429207 0.735585 0.364973
O O10 0.000000 0.784173 0.500000
O O11 0.291909 0.000000 0.403986
O O12 0.500000 0.788264 0.500000
O O13 0.484595 0.747116 0.426770
O O14 0.898339 0.792029 0.314040
O O15 0.590201 0.000000 0.414690
O O16 0.515283 0.198787 0.184057
O O17 0.682088 0.000000 0.175138
O O18 0.340700 0.213754 0.171516
O O19 0.627548 0.000000 0.087062
O O20 0.562851 0.500000 0.593660
O O21 0.830705 0.000000 0.811626
#
# Coordination Sequence:
#
# PCOD8061747 Si02
#       8
#     4   4   4   4   4   4   4   4
#     4  11  22  37  58  83 109 144 190 233 277 331
#     4   9  19  35  55  78 107 142 179 226 275 325
#     4  10  21  36  57  85 111 142 185 230 278 331
#     4   9  18  33  56  83 108 142 187 231 275 328
#     4  10  21  38  59  81 112 149 184 229 279 332
#     4  10  22  38  54  79 114 149 184 227 282 334
#     4  10  19  34  54  77 109 145 180 225 277 330
#     4   9  19  35  55  80 111 145 182 227 278 332
#
# _framework density 18.935241999999999
#
# number of rings (size 3 to 8) (size 9 to 14) (size 15 to 20)
#    0.000    2.250    1.250    1.125    0.000    6.000 
#    0.000    6.250    0.000    1.500    0.000    0.000 
#    0.000    0.000    0.000    0.000    0.000    0.000 
#
# Total GULP energy -396820.553528 kJ/mol
# GULP energy per Si atom -12400.642298 kJ/mol
# Density = 1.889214 g / cm^3
# Si number density = 18.935242 Si / 1000 Ang^3
#
#
#
# Elastic Constant Matrix: (Units=GPa)
#
#
# Indices 1 2 3 4 5 6 
#
# 1 131.4596 51.3851 46.8153 0.0000 15.9948 0.0000
# 2 51.3851 66.6897 29.6376 0.0000 8.6220 0.0000
# 3 46.8153 29.6376 82.7358 0.0000 17.4174 0.0000
# 4 0.0000 0.0000 0.0000 17.5812 0.0000 4.5520
# 5 15.9948 8.6220 17.4174 0.0000 31.3417 0.0000
# 6 0.0000 0.0000 0.0000 4.5520 0.0000 3.6732
#
#
#
# Elastic Compliance Matrix: (Units=1/GPa)
#
#
# Indices 1 2 3 4 5 6 
#
# 1 0.012076 -0.007368 -0.003763 0.000000 -0.002045 0.000000
# 2 -0.007368 0.022395 -0.003791 0.000000 -0.000294 0.000000
# 3 -0.003763 -0.003791 0.016931 0.000000 -0.006446 0.000000
# 4 0.000000 0.000000 0.000000 0.083750 0.000000 -0.103785
# 5 -0.002045 -0.000294 -0.006446 0.000000 0.036613 0.000000
# 6 0.000000 0.000000 0.000000 -0.103785 0.000000 0.400851
#
#
# Mechanical properties :
#
#
# Convention : Reuss Voigt Hill
#
# Bulk Modulus (GPa) = 46.38935 59.61792 53.00363
# Shear Modulus (GPa) = 8.20149 20.72236 14.46192
#
# Velocity S-wave (km/s) = 2.08344 3.31173 2.76661
# Velocity P-wave (km/s) = 5.50816 6.79536 6.18533
#
# Compressibility (1/GPa) = 0.02155667
#
# Stress axis : x y z
#
# Youngs Moduli (GPa) = 82.81061 44.65352 59.06270
#
# Poissons Ratio (x) = 0.32899 0.22227
# Poissons Ratio (y) = 0.61013 0.22393
# Poissons Ratio (z) = 0.31164 0.16930
#
# Static dielectric constant tensor:
#      x y z
#    x 3.611880 0.000000 0.096090 
#    y 0.000000 3.571770 0.000000 
#    z 0.096090 0.000000 3.461040 
# 
# 
# High freq. dielectric constant tensor:
#      x y z
#    x 1.739250 0.000000 0.011270 
#    y 0.000000 1.732750 0.000000 
#    z 0.011270 0.000000 1.729810 
# 
# From -- ./inp_files/58150.got.cif
#   From: 2010.06.25/outbox.cif.g09.slc.cpg/sg10_30_cif.got.tgz:58150.got - 2010.06.27 22:07:45.
