data_PCOD8061994
_publ_section_title
;
Structure prediction by ZEFSAII (Michael W. Deem and Ramdas Pophale) SiO2 
 PCOD8061994
Probable space group: P 2/M
;
_chemical_formula_sum "Si O2"
_cell_formula_units_Z 28
_cell_length_a 10.124535
_cell_length_b 7.782074
_cell_length_c 31.221248
_cell_angle_alpha 90.000000
_cell_angle_beta 35.560755
_cell_angle_gamma 90.000000
_cell_volume 1430.604651
_symmetry_space_group_name_H-M "P 2/M"
_symmetry_group_IT_number 10
_symmetry_cell_setting 'monoclinic'
loop_
_space_group_symop_operation_xyz
x,y,z
-x,y,-z
-x,-y,-z
x,-y,z
loop_
_atom_site_type_symbol
_atom_site_label
_atom_site_fract_x
_atom_site_fract_y
_atom_site_fract_z
Si Si1 0.156992 0.191933 0.175882
Si Si2 0.208125 0.702358 0.415716
Si Si3 0.693436 0.694042 0.420411
Si Si4 0.311293 0.703208 0.672573
Si Si5 0.145827 0.194033 0.336871
Si Si6 0.547929 0.803162 0.820613
Si Si7 0.269139 0.500000 0.930599
Si Si8 0.423574 0.500000 0.068751
O O1 0.244198 0.222710 0.201253
O O2 0.273091 0.329406 0.114221
O O3 0.885036 0.213202 0.246635
O O4 0.219529 0.000000 0.143299
O O5 0.189193 0.500000 0.414065
O O6 0.442913 0.757985 0.375387
O O7 0.207665 0.791517 0.369974
O O8 0.000000 0.768988 0.500000
O O9 0.500000 0.788022 0.500000
O O10 0.610806 0.500000 0.433821
O O11 0.712274 0.781936 0.368994
O O12 0.930417 0.689305 0.382956
O O13 0.274501 0.500000 0.683400
O O14 0.360354 0.246816 0.250778
O O15 0.077231 0.000000 0.343505
O O16 0.347803 0.672020 0.885191
O O17 0.455870 0.000000 0.846346
O O18 0.363706 0.500000 0.954409
O O19 0.000000 0.500000 0.000000
O O20 0.500000 0.500000 0.000000
#
# Coordination Sequence:
#
# PCOD8061994 Si02
#       8
#     4   4   4   4   4   4   2   2
#     4  10  19  36  63  89 118 157 193 235 293 346
#     4  10  22  39  56  78 114 161 203 247 303 353
#     4  10  20  33  56  85 112 148 197 250 295 342
#     4  10  19  34  57  83 115 154 201 250 296 347
#     4  11  22  36  55  82 115 155 198 242 295 347
#     4   9  20  37  60  90 121 153 194 240 285 347
#     4  10  22  40  66  94 115 156 190 220 295 352
#     4  10  22  42  64  90 125 148 186 236 279 354
#
# _framework density 19.572144000000002
#
# number of rings (size 3 to 8) (size 9 to 14) (size 15 to 20)
#    0.000    2.000    2.143    1.286    2.000    4.000 
#    2.571    1.429    0.000    0.000    0.000    0.000 
#    0.000    0.000    0.000    0.000    0.000    0.000 
#
# Total GULP energy -347210.203456 kJ/mol
# GULP energy per Si atom -12400.364409 kJ/mol
# Density = 1.952760 g / cm^3
# Si number density = 19.572144 Si / 1000 Ang^3
#
#
#
# Elastic Constant Matrix: (Units=GPa)
#
#
# Indices 1 2 3 4 5 6 
#
# 1 97.2583 29.5656 69.6795 0.0000 -1.6963 0.0000
# 2 29.5656 88.7263 62.6077 0.0000 -1.5496 0.0000
# 3 69.6795 62.6077 165.8997 0.0000 0.1752 0.0000
# 4 0.0000 0.0000 0.0000 12.4276 0.0000 5.5796
# 5 -1.6963 -1.5496 0.1752 0.0000 42.2684 0.0000
# 6 0.0000 0.0000 0.0000 5.5796 0.0000 6.8963
#
#
#
# Elastic Compliance Matrix: (Units=1/GPa)
#
#
# Indices 1 2 3 4 5 6 
#
# 1 0.014758 -0.000727 -0.005925 0.000000 0.000590 0.000000
# 2 -0.000727 0.015412 -0.005511 0.000000 0.000559 0.000000
# 3 -0.005925 -0.005511 0.010597 0.000000 -0.000484 0.000000
# 4 0.000000 0.000000 0.000000 0.126370 0.000000 -0.102242
# 5 0.000590 0.000559 -0.000484 0.000000 0.023705 0.000000
# 6 0.000000 0.000000 0.000000 -0.102242 0.000000 0.227727
#
#
# Mechanical properties :
#
#
# Convention : Reuss Voigt Hill
#
# Bulk Modulus (GPa) = 60.82640 75.06555 67.94597
# Shear Modulus (GPa) = 11.15143 24.98723 18.06933
#
# Velocity S-wave (km/s) = 2.38956 3.57693 3.04174
# Velocity P-wave (km/s) = 6.22566 7.44955 6.86493
#
# Compressibility (1/GPa) = 0.01644023
#
# Stress axis : x y z
#
# Youngs Moduli (GPa) = 67.76048 64.88655 94.36914
#
# Poissons Ratio (x) = 0.04715 0.55913
# Poissons Ratio (y) = 0.04923 0.52011
# Poissons Ratio (z) = 0.40147 0.35762
#
# Static dielectric constant tensor:
#      x y z
#    x 3.365320 0.000000 0.066930 
#    y 0.000000 3.575780 0.000000 
#    z 0.066930 0.000000 3.483660 
# 
# 
# High freq. dielectric constant tensor:
#      x y z
#    x 1.746240 0.000000 0.002430 
#    y 0.000000 1.763300 0.000000 
#    z 0.002430 0.000000 1.756810 
# 
# From -- ./inp_files/92016.got.cif
#   From: 2010.06.25/outbox.cif.g09.slc.cpg/sg10_47_cif.got.tgz:92016.got - 2010.06.27 22:07:45.
