data_PCOD8061784
_publ_section_title
;
Structure prediction by ZEFSAII (Michael W. Deem and Ramdas Pophale) SiO2 
 PCOD8061784
Probable space group: P 2/M
;
_chemical_formula_sum "Si O2"
_cell_formula_units_Z 32
_cell_length_a 25.203985
_cell_length_b 9.029155
_cell_length_c 21.117591
_cell_angle_alpha 90.000000
_cell_angle_beta 160.854193
_cell_angle_gamma 90.000000
_cell_volume 1576.155778
_symmetry_space_group_name_H-M "P 2/M"
_symmetry_group_IT_number 10
_symmetry_cell_setting 'monoclinic'
loop_
_space_group_symop_operation_xyz
x,y,z
-x,y,-z
-x,-y,-z
x,-y,z
loop_
_atom_site_type_symbol
_atom_site_label
_atom_site_fract_x
_atom_site_fract_y
_atom_site_fract_z
Si Si1 0.005889 0.833610 0.862440
Si Si2 0.165649 0.670140 0.435015
Si Si3 0.645402 0.671136 0.119618
Si Si4 0.490986 0.325446 0.731728
Si Si5 0.672447 0.167601 0.562083
Si Si6 0.833227 0.332776 0.850090
Si Si7 0.063421 0.331261 0.459364
Si Si8 0.730725 0.174677 0.090653
O O1 0.974266 0.762388 0.758096
O O2 0.841315 0.829956 0.716093
O O3 0.068889 0.000000 0.923820
O O4 0.143230 0.743337 0.054984
O O5 0.133578 0.500000 0.381746
O O6 0.343500 0.716594 0.612224
O O7 0.157433 0.701720 0.500245
O O8 0.620066 0.500000 0.071541
O O9 0.814775 0.694612 0.345773
O O10 0.639786 0.769623 0.050749
O O11 0.500000 0.725316 0.000000
O O12 0.516947 0.500000 0.755039
O O13 0.459457 0.259088 0.626557
O O14 0.652169 0.250878 0.940702
O O15 0.695527 0.244512 0.656283
O O16 0.611408 0.000000 0.503106
O O17 0.773400 0.500000 0.793084
O O18 0.000000 0.330041 0.000000
O O19 0.997525 0.500000 0.385967
O O20 0.917979 0.218314 0.304549
O O21 0.712576 0.000000 0.064651
#
# Coordination Sequence:
#
# PCOD8061784 Si02
#       8
#     4   4   4   4   4   4   4   4
#     4   9  16  25  40  65  99 136 170 212 268 322
#     4   9  18  33  54  78 102 133 177 225 268 315
#     4  10  21  40  65  88 109 138 177 218 261 312
#     4  10  19  34  55  77 103 138 181 224 267 318
#     4   9  16  26  41  66 100 134 170 216 271 323
#     4   9  15  23  37  60  93 134 177 218 261 312
#     4  10  21  38  59  81 107 141 179 218 261 311
#     4  12  25  38  54  80 113 145 177 216 263 313
#
# _framework density 20.302562999999999
#
# number of rings (size 3 to 8) (size 9 to 14) (size 15 to 20)
#    0.000    2.250    0.000    3.750    0.000    9.750 
#    0.000    1.250    0.000    0.000    0.000    0.875 
#    0.000    7.000    0.000    0.000    0.000    0.000 
#
# Total GULP energy -396905.509666 kJ/mol
# GULP energy per Si atom -12403.297177 kJ/mol
# Density = 2.025635 g / cm^3
# Si number density = 20.302563 Si / 1000 Ang^3
#
#
#
# Elastic Constant Matrix: (Units=GPa)
#
#
# Indices 1 2 3 4 5 6 
#
# 1 10.6804 14.0577 12.8892 0.0000 -6.5006 0.0000
# 2 14.0577 134.7772 50.4920 0.0000 -14.6432 0.0000
# 3 12.8892 50.4920 95.3380 0.0000 -18.6146 0.0000
# 4 0.0000 0.0000 0.0000 28.1400 0.0000 -8.6149
# 5 -6.5006 -14.6432 -18.6146 0.0000 32.6460 0.0000
# 6 0.0000 0.0000 0.0000 -8.6149 0.0000 19.7246
#
#
#
# Elastic Compliance Matrix: (Units=1/GPa)
#
#
# Indices 1 2 3 4 5 6 
#
# 1 0.125193 -0.007675 -0.009751 0.000000 0.015926 0.000000
# 2 -0.007675 0.009795 -0.004040 0.000000 0.000561 0.000000
# 3 -0.009751 -0.004040 0.014870 0.000000 0.004725 0.000000
# 4 0.000000 0.000000 0.000000 0.041022 0.000000 0.017917
# 5 0.015926 0.000561 0.004725 0.000000 0.036749 0.000000
# 6 0.000000 0.000000 0.000000 0.017917 0.000000 0.058523
#
#
# Mechanical properties :
#
#
# Convention : Reuss Voigt Hill
#
# Bulk Modulus (GPa) = 9.35236 43.96371 26.65803
# Shear Modulus (GPa) = 13.70899 26.99256 20.35077
#
# Velocity S-wave (km/s) = 2.60135 3.65021 3.16946
# Velocity P-wave (km/s) = 3.69312 6.28225 5.15295
#
# Compressibility (1/GPa) = 0.10692493
#
# Stress axis : x y z
#
# Youngs Moduli (GPa) = 7.98769 102.09571 67.25165
#
# Poissons Ratio (x) = 0.78353 0.65579
# Poissons Ratio (y) = 0.06130 0.27171
# Poissons Ratio (z) = 0.07789 0.41249
#
# Static dielectric constant tensor:
#      x y z
#    x 3.410540 0.000000 -0.291920 
#    y 0.000000 3.701930 0.000000 
#    z -0.291920 0.000000 3.644900 
# 
# 
# High freq. dielectric constant tensor:
#      x y z
#    x 1.766260 0.000000 -0.028940 
#    y 0.000000 1.792710 0.000000 
#    z -0.028940 0.000000 1.791260 
# 
# From -- ./inp_files/87066.got.cif
#   From: 2010.06.25/outbox.cif.g09.slc.cpg/sg10_44_cif.got.tgz:87066.got - 2010.06.27 22:07:45.
