data_PCOD8061263
_publ_section_title
;
Structure prediction by ZEFSAII (Michael W. Deem and Ramdas Pophale) SiO2 
 PCOD8061263
Probable space group: P 2/M
;
_chemical_formula_sum "Si O2"
_cell_formula_units_Z 28
_cell_length_a 9.866688
_cell_length_b 8.866220
_cell_length_c 30.153375
_cell_angle_alpha 90.000000
_cell_angle_beta 36.098357
_cell_angle_gamma 90.000000
_cell_volume 1554.135218
_symmetry_space_group_name_H-M "P 2/M"
_symmetry_group_IT_number 10
_symmetry_cell_setting 'monoclinic'
loop_
_space_group_symop_operation_xyz
x,y,z
-x,y,-z
-x,-y,-z
x,-y,z
loop_
_atom_site_type_symbol
_atom_site_label
_atom_site_fract_x
_atom_site_fract_y
_atom_site_fract_z
Si Si1 0.941253 0.825875 0.062658
Si Si2 0.746706 0.823456 0.342039
Si Si3 0.025796 0.175989 0.355896
Si Si4 0.760227 0.174532 0.933640
Si Si5 0.548088 0.820839 0.229401
Si Si6 0.644143 0.330626 0.506619
Si Si7 0.156642 0.677996 0.775640
O O1 0.711857 0.758253 0.146475
O O2 0.158151 0.802964 0.037468
O O3 0.889744 0.000000 0.066971
O O4 0.000000 0.745731 0.000000
O O5 0.488407 0.769540 0.422013
O O6 0.838030 0.733266 0.276006
O O7 0.920952 0.783756 0.335825
O O8 0.741049 0.000000 0.333136
O O9 0.289616 0.229368 0.286946
O O10 0.894094 0.261186 0.430402
O O11 0.001452 0.000000 0.372124
O O12 0.912749 0.272657 0.860219
O O13 0.781206 0.000000 0.913621
O O14 0.500000 0.232743 0.000000
O O15 0.630119 0.749516 0.253954
O O16 0.574313 0.000000 0.227087
O O17 0.500000 0.328725 0.500000
O O18 0.673671 0.500000 0.517173
O O19 0.178998 0.500000 0.771423
#
# Coordination Sequence:
#
# PCOD8061263 Si02
#       7
#     4   4   4   4   4   4   4
#     4   8  14  26  47  73  97 122 156 201 248 291
#     4  10  19  33  54  78 103 132 171 214 253 298
#     4   9  18  32  53  78 101 130 170 215 258 300
#     4   9  18  33  53  74  97 129 169 210 251 296
#     4   9  18  34  53  74 102 134 169 209 254 303
#     4   9  17  30  49  74 105 136 165 203 254 307
#     4  11  22  35  51  73 105 141 172 205 252 304
#
# _framework density 18.016449999999999
#
# number of rings (size 3 to 8) (size 9 to 14) (size 15 to 20)
#    0.000    2.714    0.000    3.000    0.000    4.286 
#    0.000    5.000    0.000   11.143    0.000    0.000 
#    0.000    0.000    0.000    0.000    0.000    0.000 
#
# Total GULP energy -347175.517344 kJ/mol
# GULP energy per Si atom -12399.125619 kJ/mol
# Density = 1.797544 g / cm^3
# Si number density = 18.016450 Si / 1000 Ang^3
#
#
#
# Elastic Constant Matrix: (Units=GPa)
#
#
# Indices 1 2 3 4 5 6 
#
# 1 83.2636 34.8223 71.0262 0.0000 -14.3638 0.0000
# 2 34.8223 67.4859 44.8814 0.0000 -2.9034 0.0000
# 3 71.0262 44.8814 120.4946 0.0000 -12.8960 0.0000
# 4 0.0000 0.0000 0.0000 18.4543 0.0000 1.8026
# 5 -14.3638 -2.9034 -12.8960 0.0000 32.5375 0.0000
# 6 0.0000 0.0000 0.0000 1.8026 0.0000 15.3878
#
#
#
# Elastic Compliance Matrix: (Units=1/GPa)
#
#
# Indices 1 2 3 4 5 6 
#
# 1 0.026036 -0.004513 -0.013032 0.000000 0.005926 0.000000
# 2 -0.004513 0.020524 -0.005224 0.000000 -0.002231 0.000000
# 3 -0.013032 -0.005224 0.018026 0.000000 0.000925 0.000000
# 4 0.000000 0.000000 0.000000 0.054815 0.000000 -0.006421
# 5 0.005926 -0.002231 0.000925 0.000000 0.033517 0.000000
# 6 0.000000 0.000000 0.000000 -0.006421 0.000000 0.065739
#
#
# Mechanical properties :
#
#
# Convention : Reuss Voigt Hill
#
# Bulk Modulus (GPa) = 52.49462 63.63378 58.06420
# Shear Modulus (GPa) = 18.48121 21.31019 19.89570
#
# Velocity S-wave (km/s) = 3.20628 3.44294 3.32672
# Velocity P-wave (km/s) = 6.55036 7.15553 6.85963
#
# Compressibility (1/GPa) = 0.01904957
#
# Stress axis : x y z
#
# Youngs Moduli (GPa) = 38.40762 48.72248 55.47618
#
# Poissons Ratio (x) = 0.21987 0.72298
# Poissons Ratio (y) = 0.17332 0.28979
# Poissons Ratio (z) = 0.50054 0.25451
#
# Static dielectric constant tensor:
#      x y z
#    x 3.235670 0.000000 -0.023230 
#    y 0.000000 3.187930 0.000000 
#    z -0.023230 0.000000 3.576000 
# 
# 
# High freq. dielectric constant tensor:
#      x y z
#    x 1.680840 0.000000 -0.001680 
#    y 0.000000 1.680940 0.000000 
#    z -0.001680 0.000000 1.707310 
# 
# From -- ./inp_files/37268.got.cif
#   From: 2010.06.25/outbox.cif.g09.slc.cpg/sg10_19_cif.got.tgz:37268.got - 2010.06.27 22:07:45.
