data_PCOD8061504
_publ_section_title
;
Structure prediction by ZEFSAII (Michael W. Deem and Ramdas Pophale) SiO2 
 PCOD8061504
Probable space group: P 2/M
;
_chemical_formula_sum "Si O2"
_cell_formula_units_Z 32
_cell_length_a 25.614418
_cell_length_b 8.955219
_cell_length_c 20.881611
_cell_angle_alpha 90.000000
_cell_angle_beta 20.492639
_cell_angle_gamma 90.000000
_cell_volume 1676.875190
_symmetry_space_group_name_H-M "P 2/M"
_symmetry_group_IT_number 10
_symmetry_cell_setting 'monoclinic'
loop_
_space_group_symop_operation_xyz
x,y,z
-x,y,-z
-x,-y,-z
x,-y,z
loop_
_atom_site_type_symbol
_atom_site_label
_atom_site_fract_x
_atom_site_fract_y
_atom_site_fract_z
Si Si1 0.354277 0.675621 0.207006
Si Si2 0.458111 0.324815 0.228057
Si Si3 0.047373 0.823768 0.517255
Si Si4 0.217002 0.323365 0.101671
Si Si5 0.683360 0.826855 0.137586
Si Si6 0.651795 0.332133 0.299858
Si Si7 0.847867 0.667820 0.198666
Si Si8 0.354017 0.827793 0.470469
O O1 0.323024 0.500000 0.236424
O O2 0.388815 0.723110 0.240065
O O3 0.211255 0.761431 0.344343
O O4 0.500000 0.722794 0.000000
O O5 0.448947 0.500000 0.249606
O O6 0.356495 0.248058 0.398257
O O7 0.631961 0.274709 0.034088
O O8 0.000000 0.780193 0.500000
O O9 0.926259 0.751858 0.702798
O O10 0.049060 0.000000 0.525853
O O11 0.195014 0.500000 0.127778
O O12 0.224338 0.266500 0.020421
O O13 0.725525 0.767745 0.159489
O O14 0.507997 0.797575 0.330160
O O15 0.725540 0.000000 0.082354
O O16 0.500000 0.257751 0.500000
O O17 0.622876 0.500000 0.306154
O O18 0.753219 0.336542 0.244202
O O19 0.874130 0.500000 0.194923
O O20 0.779378 0.762800 0.334542
O O21 0.000000 0.743864 0.000000
O O22 0.323043 0.000000 0.494738
#
# Coordination Sequence:
#
# PCOD8061504 Si02
#       8
#     4   4   4   4   4   4   4   4
#     4  10  21  39  63  90 117 149 195 240 279 330
#     4   9  19  36  60  87 113 146 188 237 284 333
#     4  11  24  40  59  87 123 157 188 229 284 339
#     4  10  20  37  62  87 114 150 193 237 283 335
#     4  10  20  34  55  84 115 146 184 233 286 338
#     4  10  19  33  56  81 105 140 190 237 279 334
#     4  10  21  37  55  77 106 142 184 235 287 334
#     4  10  20  34  55  81 111 147 186 228 277 340
#
# _framework density 19.083113000000001
#
# number of rings (size 3 to 8) (size 9 to 14) (size 15 to 20)
#    0.000    2.000    1.250    2.250    0.000    5.250 
#    2.250    0.000    0.000    0.000    0.000    0.000 
#    0.000    0.000    0.000    0.000    0.000    0.000 
#
# Total GULP energy -396822.997819 kJ/mol
# GULP energy per Si atom -12400.718682 kJ/mol
# Density = 1.903968 g / cm^3
# Si number density = 19.083113 Si / 1000 Ang^3
#
#
#
# Elastic Constant Matrix: (Units=GPa)
#
#
# Indices 1 2 3 4 5 6 
#
# 1 103.5334 47.3894 62.1832 0.0000 16.4485 0.0000
# 2 47.3894 65.3242 50.8739 0.0000 8.2095 0.0000
# 3 62.1832 50.8739 152.3496 0.0000 13.5210 0.0000
# 4 0.0000 0.0000 0.0000 25.2089 0.0000 -0.2751
# 5 16.4485 8.2095 13.5210 0.0000 29.6168 0.0000
# 6 0.0000 0.0000 0.0000 -0.2751 0.0000 25.3050
#
#
#
# Elastic Compliance Matrix: (Units=1/GPa)
#
#
# Indices 1 2 3 4 5 6 
#
# 1 0.016481 -0.008680 -0.003366 0.000000 -0.005211 0.000000
# 2 -0.008680 0.025468 -0.004964 0.000000 0.000028 0.000000
# 3 -0.003366 -0.004964 0.009700 0.000000 -0.001183 0.000000
# 4 0.000000 0.000000 0.000000 0.039673 0.000000 0.000431
# 5 -0.005211 0.000028 -0.001183 0.000000 0.037191 0.000000
# 6 0.000000 0.000000 0.000000 0.000431 0.000000 0.039523
#
#
# Mechanical properties :
#
#
# Convention : Reuss Voigt Hill
#
# Bulk Modulus (GPa) = 56.72433 71.34447 64.03440
# Shear Modulus (GPa) = 24.04627 26.74352 25.39490
#
# Velocity S-wave (km/s) = 3.55361 3.74762 3.65191
# Velocity P-wave (km/s) = 6.82839 7.49624 7.17010
#
# Compressibility (1/GPa) = 0.01762912
#
# Stress axis : x y z
#
# Youngs Moduli (GPa) = 60.67498 39.26558 103.08898
#
# Poissons Ratio (x) = 0.34083 0.34700
# Poissons Ratio (y) = 0.52666 0.51173
# Poissons Ratio (z) = 0.20424 0.19491
#
# Static dielectric constant tensor:
#      x y z
#    x 3.491110 0.000000 0.085510 
#    y 0.000000 3.511160 0.000000 
#    z 0.085510 0.000000 3.472780 
# 
# 
# High freq. dielectric constant tensor:
#      x y z
#    x 1.741800 0.000000 0.012170 
#    y 0.000000 1.740200 0.000000 
#    z 0.012170 0.000000 1.744790 
# 
# From -- ./inp_files/86836.got.cif
#   From: 2010.06.25/outbox.cif.g09.slc.cpg/sg10_44_cif.got.tgz:86836.got - 2010.06.27 22:07:45.
