data_PCOD8061967
_publ_section_title
;
Structure prediction by ZEFSAII (Michael W. Deem and Ramdas Pophale) SiO2 
 PCOD8061967
Probable space group: P 2/M
;
_chemical_formula_sum "Si O2"
_cell_formula_units_Z 24
_cell_length_a 10.179218
_cell_length_b 8.547375
_cell_length_c 14.847796
_cell_angle_alpha 90.000000
_cell_angle_beta 99.582667
_cell_angle_gamma 90.000000
_cell_volume 1273.815521
_symmetry_space_group_name_H-M "P 2/M"
_symmetry_group_IT_number 10
_symmetry_cell_setting 'monoclinic'
loop_
_space_group_symop_operation_xyz
x,y,z
-x,y,-z
-x,-y,-z
x,-y,z
loop_
_atom_site_type_symbol
_atom_site_label
_atom_site_fract_x
_atom_site_fract_y
_atom_site_fract_z
Si Si1 0.031387 0.182586 0.228022
Si Si2 0.120162 0.681126 0.947305
Si Si3 0.082191 0.314548 0.422455
Si Si4 0.685965 0.682259 0.774349
Si Si5 0.384791 0.817613 0.052495
Si Si6 0.621447 0.683487 0.569945
O O1 0.013992 0.233931 0.329181
O O2 0.177208 0.222196 0.206771
O O3 0.920455 0.275026 0.158662
O O4 0.005046 0.000000 0.214751
O O5 0.160405 0.500000 0.958002
O O6 0.244096 0.785383 0.990473
O O7 0.000000 0.722384 0.000000
O O8 0.077876 0.500000 0.407370
O O9 0.235130 0.255009 0.448954
O O10 0.000000 0.260908 0.500000
O O11 0.723999 0.500000 0.780572
O O12 0.598288 0.727906 0.850516
O O13 0.604720 0.723397 0.674003
O O14 0.401700 0.000000 0.073653
O O15 0.500000 0.754714 0.000000
O O16 0.500000 0.762963 0.500000
O O17 0.616789 0.500000 0.552838
#
# Coordination Sequence:
#
# PCOD8061967 Si02
#       6
#     4   4   4   4   4   4
#     4  11  21  34  57  84 113 147 185 228 284 339
#     4  11  22  37  61  87 110 142 192 240 274 328
#     4   9  18  34  55  79 110 143 181 229 277 325
#     4  10  19  34  57  82 109 144 190 233 274 327
#     4  11  24  40  57  81 117 153 183 224 286 343
#     4   8  15  30  53  78 104 134 176 225 269 315
#
# _framework density 18.841034000000001
#
# number of rings (size 3 to 8) (size 9 to 14) (size 15 to 20)
#    0.000    2.000    1.667    4.000    0.000    2.333 
#    3.000    0.000    0.000   12.500    0.000    0.000 
#    0.000    0.000    0.000    0.000    0.000    0.000 
#
# Total GULP energy -297632.756881 kJ/mol
# GULP energy per Si atom -12401.364870 kJ/mol
# Density = 1.879815 g / cm^3
# Si number density = 18.841034 Si / 1000 Ang^3
#
#
#
# Elastic Constant Matrix: (Units=GPa)
#
#
# Indices 1 2 3 4 5 6 
#
# 1 86.1782 15.1956 71.5162 0.0000 -4.1164 0.0000
# 2 15.1956 36.2539 20.0907 0.0000 -4.5508 0.0000
# 3 71.5162 20.0907 154.4687 0.0000 -4.2873 0.0000
# 4 0.0000 0.0000 0.0000 21.5049 0.0000 -3.5899
# 5 -4.1164 -4.5508 -4.2873 0.0000 39.0282 0.0000
# 6 0.0000 0.0000 0.0000 -3.5899 0.0000 20.5070
#
#
#
# Elastic Compliance Matrix: (Units=1/GPa)
#
#
# Indices 1 2 3 4 5 6 
#
# 1 0.019238 -0.003285 -0.008459 0.000000 0.000717 0.000000
# 2 -0.003285 0.030653 -0.002383 0.000000 0.002966 0.000000
# 3 -0.008459 -0.002383 0.010701 0.000000 0.000005 0.000000
# 4 0.000000 0.000000 0.000000 0.047901 0.000000 0.008385
# 5 0.000717 0.002966 0.000005 0.000000 0.026045 0.000000
# 6 0.000000 0.000000 0.000000 0.008385 0.000000 0.050232
#
#
# Mechanical properties :
#
#
# Convention : Reuss Voigt Hill
#
# Bulk Modulus (GPa) = 30.92637 54.50064 42.71351
# Shear Modulus (GPa) = 22.34102 27.54791 24.94446
#
# Velocity S-wave (km/s) = 3.44723 3.82792 3.64255
# Velocity P-wave (km/s) = 5.68283 6.96611 6.35693
#
# Compressibility (1/GPa) = 0.03233487
#
# Stress axis : x y z
#
# Youngs Moduli (GPa) = 51.98154 32.62280 93.45332
#
# Poissons Ratio (x) = 0.10718 0.79056
# Poissons Ratio (y) = 0.17078 0.22274
# Poissons Ratio (z) = 0.43974 0.07776
#
# Static dielectric constant tensor:
#      x y z
#    x 3.477350 0.000000 0.052450 
#    y 0.000000 3.248610 0.000000 
#    z 0.052450 0.000000 3.693670 
# 
# 
# High freq. dielectric constant tensor:
#      x y z
#    x 1.713100 0.000000 0.004690 
#    y 0.000000 1.719830 0.000000 
#    z 0.004690 0.000000 1.745380 
# 
# From -- ./inp_files/33952.got.cif
#   From: 2010.06.25/outbox.cif.g09.slc.cpg/sg10_17_cif.got.tgz:33952.got - 2010.06.27 22:07:45.
