data_PCOD8061272
_publ_section_title
;
Structure prediction by ZEFSAII (Michael W. Deem and Ramdas Pophale) SiO2 
 PCOD8061272
Probable space group: P 2/M
;
_chemical_formula_sum "Si O2"
_cell_formula_units_Z 28
_cell_length_a 22.737017
_cell_length_b 9.039077
_cell_length_c 18.766395
_cell_angle_alpha 90.000000
_cell_angle_beta 157.278761
_cell_angle_gamma 90.000000
_cell_volume 1489.720041
_symmetry_space_group_name_H-M "P 2/M"
_symmetry_group_IT_number 10
_symmetry_cell_setting 'monoclinic'
loop_
_space_group_symop_operation_xyz
x,y,z
-x,y,-z
-x,-y,-z
x,-y,z
loop_
_atom_site_type_symbol
_atom_site_label
_atom_site_fract_x
_atom_site_fract_y
_atom_site_fract_z
Si Si1 0.934322 0.169300 0.082759
Si Si2 0.308974 0.326053 0.614968
Si Si3 0.820032 0.164171 0.813728
Si Si4 0.233533 0.331235 0.377473
Si Si5 0.441897 0.170940 0.014584
Si Si6 0.136877 0.670467 0.707554
Si Si7 0.996022 0.171293 0.306360
O O1 0.798190 0.207307 0.873758
O O2 0.989397 0.000000 0.128717
O O3 0.890864 0.184515 0.117381
O O4 0.068310 0.282256 0.217889
O O5 0.281714 0.500000 0.600098
O O6 0.340869 0.299178 0.565935
O O7 0.457853 0.268790 0.820572
O O8 0.164508 0.234437 0.481617
O O9 0.718404 0.255471 0.643630
O O10 0.762377 0.000000 0.736372
O O11 0.000000 0.183636 0.000000
O O12 0.229051 0.500000 0.352540
O O13 0.445244 0.000000 0.042372
O O14 0.500000 0.190632 0.000000
O O15 0.271922 0.232312 0.826699
O O16 0.186762 0.500000 0.771996
O O17 0.089391 0.733272 0.730675
O O18 0.000000 0.686925 0.500000
O O19 0.011563 0.000000 0.347438
#
# Coordination Sequence:
#
# PCOD8061272 Si02
#       7
#     4   4   4   4   4   4   4
#     4   8  15  26  40  62  94 132 169 207 253 299
#     4  10  20  34  52  76 108 142 175 213 260 312
#     4   8  13  22  36  57  90 130 168 205 249 299
#     4   9  16  24  38  64  96 130 168 209 251 296
#     4  11  24  40  59  82 105 132 170 214 256 302
#     4  11  24  40  58  80 107 138 169 205 255 312
#     4  10  19  33  54  78 106 139 177 219 258 302
#
# _framework density 18.795477000000002
#
# number of rings (size 3 to 8) (size 9 to 14) (size 15 to 20)
#    0.000    2.429    0.000    3.857    0.000    9.429 
#    0.000    0.000    0.000    0.000    0.000    1.000 
#    0.000    8.000    0.000    0.000    0.000    0.000 
#
# Total GULP energy -346927.226057 kJ/mol
# GULP energy per Si atom -12390.258073 kJ/mol
# Density = 1.875270 g / cm^3
# Si number density = 18.795477 Si / 1000 Ang^3
#
#
#
# Elastic Constant Matrix: (Units=GPa)
#
#
# Indices 1 2 3 4 5 6 
#
# 1 107.1552 48.7753 41.3899 0.0000 -26.7729 0.0000
# 2 48.7753 84.1611 35.7459 0.0000 -24.5624 0.0000
# 3 41.3899 35.7459 55.7172 0.0000 -13.7550 0.0000
# 4 0.0000 0.0000 0.0000 23.0803 0.0000 -7.8334
# 5 -26.7729 -24.5624 -13.7550 0.0000 30.0956 0.0000
# 6 0.0000 0.0000 0.0000 -7.8334 0.0000 24.2984
#
#
#
# Elastic Compliance Matrix: (Units=1/GPa)
#
#
# Indices 1 2 3 4 5 6 
#
# 1 0.015834 -0.003799 -0.007455 0.000000 0.007579 0.000000
# 2 -0.003799 0.020160 -0.007760 0.000000 0.009528 0.000000
# 3 -0.007455 -0.007760 0.028476 0.000000 0.000050 0.000000
# 4 0.000000 0.000000 0.000000 0.048650 0.000000 0.015684
# 5 0.007579 0.009528 0.000050 0.000000 0.047768 0.000000
# 6 0.000000 0.000000 0.000000 0.015684 0.000000 0.046211
#
#
# Mechanical properties :
#
#
# Convention : Reuss Voigt Hill
#
# Bulk Modulus (GPa) = 37.81525 55.42842 46.62184
# Shear Modulus (GPa) = 19.68959 23.56967 21.62963
#
# Velocity S-wave (km/s) = 3.24013 3.54504 3.39601
# Velocity P-wave (km/s) = 5.84474 6.80520 6.34317
#
# Compressibility (1/GPa) = 0.02644436
#
# Stress axis : x y z
#
# Youngs Moduli (GPa) = 63.15386 49.60325 35.11696
#
# Poissons Ratio (x) = 0.18843 0.26178
# Poissons Ratio (y) = 0.23990 0.27250
# Poissons Ratio (z) = 0.47079 0.38491
#
# Static dielectric constant tensor:
#      x y z
#    x 3.826300 0.000000 -0.554400 
#    y 0.000000 3.604130 0.000000 
#    z -0.554400 0.000000 3.269990 
# 
# 
# High freq. dielectric constant tensor:
#      x y z
#    x 1.736290 0.000000 -0.044850 
#    y 0.000000 1.742900 0.000000 
#    z -0.044850 0.000000 1.687760 
# 
# From -- ./inp_files/86541.got.cif
#   From: 2010.06.25/outbox.cif.g09.slc.cpg/sg10_44_cif.got.tgz:86541.got - 2010.06.27 22:07:45.
