data_PCOD8061731
_publ_section_title
;
Structure prediction by ZEFSAII (Michael W. Deem and Ramdas Pophale) SiO2 
 PCOD8061731
Probable space group: P 2/M
;
_chemical_formula_sum "Si O2"
_cell_formula_units_Z 32
_cell_length_a 15.624973
_cell_length_b 23.832983
_cell_length_c 8.967655
_cell_angle_alpha 90.000000
_cell_angle_beta 150.596640
_cell_angle_gamma 90.000000
_cell_volume 1639.525288
_symmetry_space_group_name_H-M "P 2/M"
_symmetry_group_IT_number 10
_symmetry_cell_setting 'monoclinic'
loop_
_space_group_symop_operation_xyz
x,y,z
-x,y,-z
-x,-y,-z
x,-y,z
loop_
_atom_site_type_symbol
_atom_site_label
_atom_site_fract_x
_atom_site_fract_y
_atom_site_fract_z
Si Si1 0.680084 0.745671 0.860168
Si Si2 0.843296 0.322707 0.860649
Si Si3 0.584025 0.439103 0.860648
Si Si4 0.482646 0.322707 0.139351
Si Si5 0.319761 0.873455 0.139522
Si Si6 0.984196 0.934347 0.146431
Si Si7 0.776623 0.560897 0.860648
Si Si8 0.337765 0.934347 0.853569
O O1 0.500000 0.742348 0.500000
O O2 0.827060 0.714593 0.985088
O O3 0.658028 0.714593 0.985088
O O4 0.737165 0.809426 0.974330
O O5 0.667949 0.319766 0.500000
O O6 0.892598 0.386908 0.981156
O O7 0.000000 0.298050 0.000000
O O8 0.600328 0.500000 0.967887
O O9 0.588559 0.386908 0.981156
O O10 0.406625 0.436642 0.500000
O O11 0.742992 0.432389 0.985984
O O12 0.500000 0.298050 0.000000
O O13 0.500000 0.878194 0.500000
O O14 0.172534 0.902486 0.013654
O O15 0.341120 0.902486 0.013654
O O16 0.162279 0.919368 0.500000
O O17 0.941894 0.000000 0.090133
O O18 0.000000 0.914129 0.000000
O O19 0.867559 0.500000 0.967887
O O20 0.351762 0.000000 0.909868
O O21 0.500000 0.914129 0.000000
#
# Coordination Sequence:
#
# PCOD8061731 Si02
#       8
#     4   4   4   4   4   4   4   4
#     4   9  20  38  55  73 103 143 184 221 260 310
#     4  10  19  34  54  75 101 135 174 219 266 316
#     4   8  13  24  47  75  98 127 169 212 256 314
#     4  10  19  34  54  75 101 135 174 219 266 316
#     4  11  22  36  57  83 112 149 190 231 274 324
#     4  10  21  38  60  87 118 149 182 223 272 326
#     4   8  13  24  47  75  98 127 169 212 256 314
#     4  10  21  38  60  87 118 149 182 223 272 326
#
# _framework density 19.517845000000001
#
# number of rings (size 3 to 8) (size 9 to 14) (size 15 to 20)
#    0.000    2.500    1.250    2.250    0.000    4.500 
#    0.000    5.625    0.000    0.000    0.000    1.750 
#    0.000    0.000    0.000    0.000    0.000    0.000 
#
# Total GULP energy -396684.884100 kJ/mol
# GULP energy per Si atom -12396.402628 kJ/mol
# Density = 1.947342 g / cm^3
# Si number density = 19.517845 Si / 1000 Ang^3
#
#
#
# Elastic Constant Matrix: (Units=GPa)
#
#
# Indices 1 2 3 4 5 6 
#
# 1 182.0956 85.5963 47.8063 0.0000 2.2743 0.0000
# 2 85.5963 114.3821 45.9909 0.0000 1.3367 0.0000
# 3 47.8063 45.9909 55.2344 0.0000 2.0078 0.0000
# 4 0.0000 0.0000 0.0000 15.1215 0.0000 0.8218
# 5 2.2743 1.3367 2.0078 0.0000 33.4643 0.0000
# 6 0.0000 0.0000 0.0000 0.8218 0.0000 39.4623
#
#
#
# Elastic Compliance Matrix: (Units=1/GPa)
#
#
# Indices 1 2 3 4 5 6 
#
# 1 0.008838 -0.005320 -0.003213 0.000000 -0.000195 0.000000
# 2 -0.005320 0.016345 -0.009015 0.000000 0.000249 0.000000
# 3 -0.003213 -0.009015 0.028433 0.000000 -0.001127 0.000000
# 4 0.000000 0.000000 0.000000 0.066206 0.000000 -0.001379
# 5 -0.000195 0.000249 -0.001127 0.000000 0.029954 0.000000
# 6 0.000000 0.000000 0.000000 -0.001379 0.000000 0.025369
#
#
# Mechanical properties :
#
#
# Convention : Reuss Voigt Hill
#
# Bulk Modulus (GPa) = 53.99194 78.94435 66.46814
# Shear Modulus (GPa) = 23.10391 29.09752 26.10072
#
# Velocity S-wave (km/s) = 3.44427 3.86530 3.66084
# Velocity P-wave (km/s) = 6.59851 7.77533 7.21097
#
# Compressibility (1/GPa) = 0.01852128
#
# Stress axis : x y z
#
# Youngs Moduli (GPa) = 113.14503 61.17965 35.17088
#
# Poissons Ratio (x) = 0.32546 0.11300
# Poissons Ratio (y) = 0.60191 0.31705
# Poissons Ratio (z) = 0.36354 0.55151
#
# Static dielectric constant tensor:
#      x y z
#    x 3.665870 0.000000 0.017520 
#    y 0.000000 3.852400 0.000000 
#    z 0.017520 0.000000 3.146840 
# 
# 
# High freq. dielectric constant tensor:
#      x y z
#    x 1.767850 0.000000 0.001570 
#    y 0.000000 1.764720 0.000000 
#    z 0.001570 0.000000 1.721370 
# 
# From -- ./inp_files/30641.got.cif
#   From: 2010.06.25/outbox.cif.g09.slc.cpg/sg10_16_cif.got.tgz:30641.got - 2010.06.27 22:07:45.
