data_PCOD8061530
_publ_section_title
;
Structure prediction by ZEFSAII (Michael W. Deem and Ramdas Pophale) SiO2 
 PCOD8061530
Probable space group: P 2/M
;
_chemical_formula_sum "Si O2"
_cell_formula_units_Z 32
_cell_length_a 23.981480
_cell_length_b 9.053405
_cell_length_c 15.007782
_cell_angle_alpha 90.000000
_cell_angle_beta 29.710395
_cell_angle_gamma 90.000000
_cell_volume 1614.916172
_symmetry_space_group_name_H-M "P 2/M"
_symmetry_group_IT_number 10
_symmetry_cell_setting 'monoclinic'
loop_
_space_group_symop_operation_xyz
x,y,z
-x,y,-z
-x,-y,-z
x,-y,z
loop_
_atom_site_type_symbol
_atom_site_label
_atom_site_fract_x
_atom_site_fract_y
_atom_site_fract_z
Si Si1 0.271247 0.170883 0.093278
Si Si2 0.262391 0.173995 0.467088
Si Si3 0.526205 0.824312 0.721793
Si Si4 0.808951 0.668082 0.097920
Si Si5 0.592140 0.826370 0.435887
Si Si6 0.128046 0.160205 0.825311
Si Si7 0.916262 0.671324 0.764194
Si Si8 0.850213 0.170793 0.555600
O O1 0.186786 0.259337 0.147267
O O2 0.236211 0.190020 0.243988
O O3 0.267255 0.000000 0.069200
O O4 0.398646 0.235728 0.909256
O O5 0.388611 0.232030 0.317982
O O6 0.176549 0.218490 0.664636
O O7 0.212731 0.240735 0.443812
O O8 0.268771 0.000000 0.445129
O O9 0.579228 0.766767 0.554844
O O10 0.521741 0.000000 0.730038
O O11 0.766911 0.500000 0.158057
O O12 0.706051 0.778863 0.230302
O O13 0.864460 0.708975 0.114335
O O14 0.895601 0.695187 0.897724
O O15 0.500000 0.753335 0.500000
O O16 0.580124 0.000000 0.452349
O O17 0.189037 0.000000 0.764844
O O18 0.000000 0.119160 0.000000
O O19 0.923776 0.500000 0.727892
O O20 0.035160 0.746016 0.577097
O O21 0.882085 0.000000 0.495410
#
# Coordination Sequence:
#
# PCOD8061530 Si02
#       8
#     4   4   4   4   4   4   4   4
#     4  10  21  37  60  88 113 143 188 240 288 334
#     4   9  17  32  55  84 118 149 183 229 280 337
#     4   9  17  32  55  84 118 149 183 229 280 337
#     4  11  23  36  52  79 113 147 184 227 276 329
#     4  10  19  33  56  82 110 148 189 227 272 331
#     4  10  19  33  56  82 110 148 189 227 272 331
#     4  11  24  40  57  80 114 153 189 232 290 347
#     4  10  21  37  60  88 113 143 188 240 288 334
#
# _framework density 19.815270999999999
#
# number of rings (size 3 to 8) (size 9 to 14) (size 15 to 20)
#    0.000    2.000    1.250    2.625    0.000    7.000 
#    0.000    3.750    0.000    0.000    0.000    1.750 
#    0.000    0.000    0.000    0.000    0.000    0.000 
#
# Total GULP energy -396594.435215 kJ/mol
# GULP energy per Si atom -12393.576100 kJ/mol
# Density = 1.977017 g / cm^3
# Si number density = 19.815271 Si / 1000 Ang^3
#
#
#
# Elastic Constant Matrix: (Units=GPa)
#
#
# Indices 1 2 3 4 5 6 
#
# 1 100.8648 30.8415 15.5042 0.0000 -10.5672 0.0000
# 2 30.8415 38.2408 30.2634 0.0000 3.4025 0.0000
# 3 15.5042 30.2634 82.5796 0.0000 -12.5749 0.0000
# 4 0.0000 0.0000 0.0000 8.7854 0.0000 13.9982
# 5 -10.5672 3.4025 -12.5749 0.0000 38.3201 0.0000
# 6 0.0000 0.0000 0.0000 13.9982 0.0000 1.4646
#
#
#
# Elastic Compliance Matrix: (Units=1/GPa)
#
#
# Indices 1 2 3 4 5 6 
#
# 1 0.014823 -0.015745 0.004023 0.000000 0.006806 0.000000
# 2 -0.015745 0.056113 -0.020029 0.000000 -0.015897 0.000000
# 3 0.004023 -0.020029 0.020140 0.000000 0.009497 0.000000
# 4 0.000000 0.000000 0.000000 -0.007999 0.000000 0.076458
# 5 0.006806 -0.015897 0.009497 0.000000 0.032501 0.000000
# 6 0.000000 0.000000 0.000000 0.076458 0.000000 -0.047986
#
#
# Mechanical properties :
#
#
# Convention : Reuss Voigt Hill
#
# Bulk Modulus (GPa) = 36.26246 41.65594 38.95920
# Shear Modulus (GPa) = 35.64191 19.38575 27.51383
#
# Velocity S-wave (km/s) = 4.24572 3.13121 3.73032
# Velocity P-wave (km/s) = 6.50960 5.84298 6.18527
#
# Compressibility (1/GPa) = 0.02757673
#
# Stress axis : x y z
#
# Youngs Moduli (GPa) = 67.46240 17.82109 49.65146
#
# Poissons Ratio (x) = 0.28059 -0.19977
# Poissons Ratio (y) = 1.06216 0.99446
# Poissons Ratio (z) = -0.27143 0.35694
#
# Static dielectric constant tensor:
#      x y z
#    x 3.879780 0.000000 -0.029300 
#    y 0.000000 3.276070 0.000000 
#    z -0.029300 0.000000 3.686440 
# 
# 
# High freq. dielectric constant tensor:
#      x y z
#    x 1.784200 0.000000 -0.005040 
#    y 0.000000 1.729940 0.000000 
#    z -0.005040 0.000000 1.781050 
# 
# From -- ./inp_files/71529.got.cif
#   From: 2010.06.25/outbox.cif.g09.slc.cpg/sg10_36_cif.got.tgz:71529.got - 2010.06.27 22:07:45.
