data_PCOD8061942
_publ_section_title
;
Structure prediction by ZEFSAII (Michael W. Deem and Ramdas Pophale) SiO2 
 PCOD8061942
Probable space group: P 2/M
;
_chemical_formula_sum "Si O2"
_cell_formula_units_Z 32
_cell_length_a 27.652951
_cell_length_b 8.804566
_cell_length_c 9.181342
_cell_angle_alpha 90.000000
_cell_angle_beta 48.533967
_cell_angle_gamma 90.000000
_cell_volume 1675.094817
_symmetry_space_group_name_H-M "P 2/M"
_symmetry_group_IT_number 10
_symmetry_cell_setting 'monoclinic'
loop_
_space_group_symop_operation_xyz
x,y,z
-x,y,-z
-x,-y,-z
x,-y,z
loop_
_atom_site_type_symbol
_atom_site_label
_atom_site_fract_x
_atom_site_fract_y
_atom_site_fract_z
Si Si1 0.300678 0.176410 0.304889
Si Si2 0.936603 0.678031 0.215592
Si Si3 0.938068 0.176669 0.524626
Si Si4 0.181565 0.180606 0.046110
Si Si5 0.561830 0.678110 0.290142
Si Si6 0.443420 0.823713 0.005766
Si Si7 0.819195 0.180880 0.279501
Si Si8 0.693906 0.819515 0.032670
O O1 0.373297 0.205032 0.220135
O O2 0.247649 0.247431 0.519483
O O3 0.285142 0.000000 0.324880
O O4 0.293868 0.244015 0.155247
O O5 0.923198 0.500000 0.234512
O O6 0.945807 0.727423 0.363310
O O7 0.877119 0.765462 0.264334
O O8 0.000000 0.724386 0.000000
O O9 0.876583 0.238871 0.736706
O O10 0.000000 0.204266 0.500000
O O11 0.930020 0.000000 0.499445
O O12 0.180523 0.000000 0.044110
O O13 0.173707 0.246123 0.898449
O O14 0.248913 0.240135 0.978108
O O15 0.500000 0.739879 0.500000
O O16 0.570097 0.500000 0.292312
O O17 0.625978 0.756415 0.227177
O O18 0.550308 0.719049 0.146210
O O19 0.449718 0.000000 0.947235
O O20 0.500000 0.773274 0.000000
O O21 0.819096 0.000000 0.275280
O O22 0.689759 0.000000 0.040801
#
# Coordination Sequence:
#
# PCOD8061942 Si02
#       8
#     4   4   4   4   4   4   4   4
#     4   8  15  29  50  76 104 133 166 210 258 301
#     4  11  24  39  54  76 108 142 176 216 260 305
#     4  10  20  36  59  84 108 136 174 215 255 306
#     4   9  18  32  54  85 111 132 167 217 263 302
#     4  10  21  35  50  72 104 139 175 215 259 308
#     4   9  18  33  54  79 104 132 171 215 259 310
#     4  10  19  34  57  81 107 138 172 212 259 309
#     4   9  17  32  52  73 102 138 175 214 257 306
#
# _framework density 19.103394000000002
#
# number of rings (size 3 to 8) (size 9 to 14) (size 15 to 20)
#    0.000    2.500    0.000    3.000    0.000    6.500 
#    0.000    9.375    0.000    0.000    0.000    0.000 
#    0.000    0.000    0.000    0.000    0.000    0.000 
#
# Total GULP energy -396762.701478 kJ/mol
# GULP energy per Si atom -12398.834421 kJ/mol
# Density = 1.905991 g / cm^3
# Si number density = 19.103394 Si / 1000 Ang^3
#
#
#
# Elastic Constant Matrix: (Units=GPa)
#
#
# Indices 1 2 3 4 5 6 
#
# 1 126.7301 15.1624 59.6772 0.0000 -13.5643 0.0000
# 2 15.1624 20.9998 24.5814 0.0000 -4.6926 0.0000
# 3 59.6772 24.5814 157.5401 0.0000 -15.4422 0.0000
# 4 0.0000 0.0000 0.0000 20.6861 0.0000 0.3975
# 5 -13.5643 -4.6926 -15.4422 0.0000 33.3955 0.0000
# 6 0.0000 0.0000 0.0000 0.3975 0.0000 10.0034
#
#
#
# Elastic Compliance Matrix: (Units=1/GPa)
#
#
# Indices 1 2 3 4 5 6 
#
# 1 0.009940 -0.003098 -0.003068 0.000000 0.002183 0.000000
# 2 -0.003098 0.059786 -0.007809 0.000000 0.003532 0.000000
# 3 -0.003068 -0.007809 0.008902 0.000000 0.001773 0.000000
# 4 0.000000 0.000000 0.000000 0.048379 0.000000 -0.001922
# 5 0.002183 0.003532 0.001773 0.000000 0.032147 0.000000
# 6 0.000000 0.000000 0.000000 -0.001922 0.000000 0.100042
#
#
# Mechanical properties :
#
#
# Convention : Reuss Voigt Hill
#
# Bulk Modulus (GPa) = 19.73211 56.01243 37.87227
# Shear Modulus (GPa) = 16.44531 26.54026 21.49279
#
# Velocity S-wave (km/s) = 2.93722 3.73137 3.35786
# Velocity P-wave (km/s) = 4.67489 6.92448 5.90775
#
# Compressibility (1/GPa) = 0.05067882
#
# Stress axis : x y z
#
# Youngs Moduli (GPa) = 100.60597 16.72623 112.33486
#
# Poissons Ratio (x) = 0.05181 0.34463
# Poissons Ratio (y) = 0.31165 0.87722
# Poissons Ratio (z) = 0.30865 0.13061
#
# Static dielectric constant tensor:
#      x y z
#    x 3.620180 0.000000 -0.101090 
#    y 0.000000 3.110020 0.000000 
#    z -0.101090 0.000000 3.846040 
# 
# 
# High freq. dielectric constant tensor:
#      x y z
#    x 1.753010 0.000000 -0.010560 
#    y 0.000000 1.704600 0.000000 
#    z -0.010560 0.000000 1.753010 
# 
# From -- ./inp_files/36735.got.cif
#   From: 2010.06.25/outbox.cif.g09.slc.cpg/sg10_19_cif.got.tgz:36735.got - 2010.06.27 22:07:45.
