data_PCOD8061898
_publ_section_title
;
Structure prediction by ZEFSAII (Michael W. Deem and Ramdas Pophale) SiO2 
 PCOD8061898
Probable space group: P 2/M
;
_chemical_formula_sum "Si O2"
_cell_formula_units_Z 32
_cell_length_a 12.431424
_cell_length_b 8.902159
_cell_length_c 14.728604
_cell_angle_alpha 90.000000
_cell_angle_beta 90.028626
_cell_angle_gamma 90.000000
_cell_volume 1629.963043
_symmetry_space_group_name_H-M "P 2/M"
_symmetry_group_IT_number 10
_symmetry_cell_setting 'monoclinic'
loop_
_space_group_symop_operation_xyz
x,y,z
-x,y,-z
-x,-y,-z
x,-y,z
loop_
_atom_site_type_symbol
_atom_site_label
_atom_site_fract_x
_atom_site_fract_y
_atom_site_fract_z
Si Si1 0.822194 0.823915 0.506940
Si Si2 0.383278 0.671597 0.460575
Si Si3 0.123903 0.672898 0.302136
Si Si4 0.719316 0.670895 0.854885
Si Si5 0.465271 0.669178 0.278862
Si Si6 0.116148 0.327548 0.671386
Si Si7 0.377125 0.822681 0.979887
Si Si8 0.685107 0.679458 0.207529
O O1 0.699644 0.775658 0.484684
O O2 0.853301 0.756736 0.604101
O O3 0.892887 0.762494 0.423382
O O4 0.837715 0.000000 0.510833
O O5 0.500000 0.689468 0.500000
O O6 0.341297 0.500000 0.464865
O O7 0.392121 0.740247 0.358366
O O8 0.158087 0.500000 0.316828
O O9 0.192651 0.735937 0.216619
O O10 0.998051 0.689548 0.277816
O O11 0.749665 0.500000 0.882688
O O12 0.599724 0.675878 0.813863
O O13 0.708357 0.776105 0.942317
O O14 0.486217 0.500000 0.313005
O O15 0.582725 0.741723 0.264912
O O16 0.140727 0.500000 0.646826
O O17 0.207440 0.265868 0.740229
O O18 0.324515 0.750372 0.891196
O O19 0.377419 0.000000 0.968930
O O20 0.500000 0.766277 0.000000
O O21 0.681915 0.500000 0.196862
#
# Coordination Sequence:
#
# PCOD8061898 Si02
#       8
#     4   4   4   4   4   4   4   4
#     4  12  24  36  55  85 121 158 195 236 287 349
#     4  10  19  34  56  81 113 153 196 240 286 339
#     4  10  21  40  63  85 112 149 198 249 287 330
#     4  10  19  35  60  85 109 142 186 235 285 333
#     4   9  16  29  53  82 109 139 180 231 282 332
#     4  10  22  40  62  85 111 149 198 247 289 335
#     4  11  23  37  56  86 120 151 183 224 281 347
#     4  10  20  37  61  87 112 144 188 236 288 341
#
# _framework density 19.632348
#
# number of rings (size 3 to 8) (size 9 to 14) (size 15 to 20)
#    0.000    1.750    2.500    2.625    0.000    5.750 
#    0.000    1.250    0.000    3.750    0.000    0.000 
#    0.000    0.000    0.000    0.000    0.000    0.000 
#
# Total GULP energy -396645.643762 kJ/mol
# GULP energy per Si atom -12395.176368 kJ/mol
# Density = 1.958766 g / cm^3
# Si number density = 19.632348 Si / 1000 Ang^3
#
#
#
# Elastic Constant Matrix: (Units=GPa)
#
#
# Indices 1 2 3 4 5 6 
#
# 1 105.4822 23.3576 33.7317 0.0000 -14.2457 0.0000
# 2 23.3576 60.0354 33.5720 0.0000 -4.6043 0.0000
# 3 33.7317 33.5720 100.3661 0.0000 -15.3284 0.0000
# 4 0.0000 0.0000 0.0000 12.0947 0.0000 1.0035
# 5 -14.2457 -4.6043 -15.3284 0.0000 28.3212 0.0000
# 6 0.0000 0.0000 0.0000 1.0035 0.0000 14.0159
#
#
#
# Elastic Compliance Matrix: (Units=1/GPa)
#
#
# Indices 1 2 3 4 5 6 
#
# 1 0.011379 -0.002858 -0.002251 0.000000 0.004041 0.000000
# 2 -0.002858 0.021212 -0.006353 0.000000 -0.001428 0.000000
# 3 -0.002251 -0.006353 0.013642 0.000000 0.005218 0.000000
# 4 0.000000 0.000000 0.000000 0.083175 0.000000 -0.005955
# 5 0.004041 -0.001428 0.005218 0.000000 0.039934 0.000000
# 6 0.000000 0.000000 0.000000 -0.005955 0.000000 0.071774
#
#
# Mechanical properties :
#
#
# Convention : Reuss Voigt Hill
#
# Bulk Modulus (GPa) = 42.90282 49.68959 46.29620
# Shear Modulus (GPa) = 18.39526 22.56785 20.48156
#
# Velocity S-wave (km/s) = 3.06435 3.39414 3.23345
# Velocity P-wave (km/s) = 5.86693 6.38163 6.12969
#
# Compressibility (1/GPa) = 0.02330849
#
# Stress axis : x y z
#
# Youngs Moduli (GPa) = 87.88297 47.14346 73.30320
#
# Poissons Ratio (x) = 0.13475 0.16501
# Poissons Ratio (y) = 0.25120 0.46567
# Poissons Ratio (z) = 0.19783 0.29948
#
# Static dielectric constant tensor:
#      x y z
#    x 3.771100 0.000000 -0.154810 
#    y 0.000000 3.280310 0.000000 
#    z -0.154810 0.000000 3.741310 
# 
# 
# High freq. dielectric constant tensor:
#      x y z
#    x 1.771290 0.000000 -0.010190 
#    y 0.000000 1.727950 0.000000 
#    z -0.010190 0.000000 1.765480 
# 
# From -- ./inp_files/63766.got.cif
#   From: 2010.06.25/outbox.cif.g09.slc.cpg/sg10_32_cif.got.tgz:63766.got - 2010.06.27 22:07:45.
