data_PCOD8061480
_publ_section_title
;
Structure prediction by ZEFSAII (Michael W. Deem and Ramdas Pophale) SiO2 
 PCOD8061480
Probable space group: P 2/M
;
_chemical_formula_sum "Si O2"
_cell_formula_units_Z 28
_cell_length_a 9.502026
_cell_length_b 17.369330
_cell_length_c 16.019927
_cell_angle_alpha 90.000000
_cell_angle_beta 35.478780
_cell_angle_gamma 90.000000
_cell_volume 1534.575519
_symmetry_space_group_name_H-M "P 2/M"
_symmetry_group_IT_number 10
_symmetry_cell_setting 'monoclinic'
loop_
_space_group_symop_operation_xyz
x,y,z
-x,y,-z
-x,-y,-z
x,-y,z
loop_
_atom_site_type_symbol
_atom_site_label
_atom_site_fract_x
_atom_site_fract_y
_atom_site_fract_z
Si Si1 0.007948 0.762912 0.677822
Si Si2 0.263786 0.913130 0.849652
Si Si3 0.494817 0.290284 0.356457
Si Si4 0.453864 0.776840 0.202821
Si Si5 0.897184 0.589187 0.137600
Si Si6 0.290202 0.145794 0.661717
Si Si7 0.719661 0.668994 0.944959
O O1 0.242372 0.717808 0.527928
O O2 0.068259 0.838666 0.705029
O O3 0.818678 0.790871 0.699001
O O4 0.894107 0.700291 0.790855
O O5 0.454187 0.858639 0.805310
O O6 0.265870 0.915997 0.747214
O O7 0.310120 0.000000 0.859164
O O8 0.000000 0.881907 0.000000
O O9 0.437666 0.282448 0.286539
O O10 0.650907 0.368894 0.288878
O O11 0.669329 0.225418 0.308704
O O12 0.628448 0.739362 0.048541
O O13 0.829052 0.500000 0.166574
O O14 0.129685 0.602279 0.083716
O O15 0.000000 0.620717 0.000000
O O16 0.500000 0.116544 0.500000
O O17 0.500000 0.629992 0.000000
#
# Coordination Sequence:
#
# PCOD8061480 Si02
#       7
#     4   4   4   4   4   4   4
#     4  10  19  33  55  86 107 135 188 234 278 317
#     4  10  21  35  54  82 113 148 186 229 280 329
#     4  10  19  34  57  80 108 140 186 233 268 321
#     4  10  20  34  58  79 110 147 187 229 275 328
#     4  11  22  36  57  84 113 150 187 224 279 338
#     4   9  18  32  56  78 105 140 183 230 271 326
#     4  10  20  34  55  83 109 147 184 232 277 327
#
# _framework density 18.246086999999999
#
# number of rings (size 3 to 8) (size 9 to 14) (size 15 to 20)
#    0.000    2.000    2.857    1.286    2.000    0.571 
#    0.000    2.143    0.000   19.286    0.000    0.000 
#    0.000    0.000    0.000    0.000    0.000    0.000 
#
# Total GULP energy -346870.028502 kJ/mol
# GULP energy per Si atom -12388.215304 kJ/mol
# Density = 1.820456 g / cm^3
# Si number density = 18.246087 Si / 1000 Ang^3
#
#
#
# Elastic Constant Matrix: (Units=GPa)
#
#
# Indices 1 2 3 4 5 6 
#
# 1 137.0639 24.7986 45.2019 0.0000 -7.0439 0.0000
# 2 24.7986 47.6976 24.8977 0.0000 -5.8915 0.0000
# 3 45.2019 24.8977 87.6817 0.0000 -0.6548 0.0000
# 4 0.0000 0.0000 0.0000 20.1311 0.0000 2.5520
# 5 -7.0439 -5.8915 -0.6548 0.0000 31.5943 0.0000
# 6 0.0000 0.0000 0.0000 2.5520 0.0000 16.6560
#
#
#
# Elastic Compliance Matrix: (Units=1/GPa)
#
#
# Indices 1 2 3 4 5 6 
#
# 1 0.009139 -0.002482 -0.003996 0.000000 0.001492 0.000000
# 2 -0.002482 0.025928 -0.006052 0.000000 0.004156 0.000000
# 3 -0.003996 -0.006052 0.015171 0.000000 -0.001705 0.000000
# 4 0.000000 0.000000 0.000000 0.050658 0.000000 -0.007762
# 5 0.001492 0.004156 -0.001705 0.000000 0.032724 0.000000
# 6 0.000000 0.000000 0.000000 -0.007762 0.000000 0.061228
#
#
# Mechanical properties :
#
#
# Convention : Reuss Voigt Hill
#
# Bulk Modulus (GPa) = 39.71535 51.35997 45.53766
# Shear Modulus (GPa) = 21.90108 25.51262 23.70685
#
# Velocity S-wave (km/s) = 3.46832 3.74338 3.60847
# Velocity P-wave (km/s) = 6.15246 6.84788 6.50946
#
# Compressibility (1/GPa) = 0.02517918
#
# Stress axis : x y z
#
# Youngs Moduli (GPa) = 109.41812 38.56816 65.91730
#
# Poissons Ratio (x) = 0.09571 0.26338
# Poissons Ratio (y) = 0.27153 0.39894
# Poissons Ratio (z) = 0.43720 0.23342
#
# Static dielectric constant tensor:
#      x y z
#    x -0.475470 0.000000 1.785110 
#    y 0.000000 2.968200 0.000000 
#    z 1.785110 0.000000 2.829420 
# 
# 
# High freq. dielectric constant tensor:
#      x y z
#    x 1.724340 0.000000 0.008270 
#    y 0.000000 1.668090 0.000000 
#    z 0.008270 0.000000 1.718490 
# 
# From -- ./inp_files/30120.got.cif
#   From: 2010.06.25/outbox.cif.g09.slc.cpg/sg10_16_cif.got.tgz:30120.got - 2010.06.27 22:07:45.
