data_PCOD8061169
_publ_section_title
;
Structure prediction by ZEFSAII (Michael W. Deem and Ramdas Pophale) SiO2 
 PCOD8061169
Probable space group: P 2/M
;
_chemical_formula_sum "Si O2"
_cell_formula_units_Z 32
_cell_length_a 30.521995
_cell_length_b 9.529583
_cell_length_c 10.552314
_cell_angle_alpha 90.000000
_cell_angle_beta 148.081544
_cell_angle_gamma 90.000000
_cell_volume 1622.757046
_symmetry_space_group_name_H-M "P 2/M"
_symmetry_group_IT_number 10
_symmetry_cell_setting 'monoclinic'
loop_
_space_group_symop_operation_xyz
x,y,z
-x,y,-z
-x,-y,-z
x,-y,z
loop_
_atom_site_type_symbol
_atom_site_label
_atom_site_fract_x
_atom_site_fract_y
_atom_site_fract_z
Si Si1 0.647416 0.154403 0.408308
Si Si2 0.531617 0.340148 0.264614
Si Si3 0.223702 0.846986 0.061452
Si Si4 0.626530 0.340891 0.986099
Si Si5 0.052183 0.835147 0.753088
Si Si6 0.334071 0.659748 0.186165
Si Si7 0.758926 0.657755 0.508833
Si Si8 0.050369 0.664284 0.999066
O O1 0.565274 0.248255 0.229271
O O2 0.694314 0.135138 0.655049
O O3 0.711233 0.230617 0.474513
O O4 0.623134 0.000000 0.295316
O O5 0.522702 0.500000 0.194084
O O6 0.594854 0.331070 0.535860
O O7 0.443571 0.272688 0.093974
O O8 0.248710 0.739141 0.012564
O O9 0.199020 0.000000 0.943424
O O10 0.146915 0.790166 0.956072
O O11 0.594786 0.500000 0.891368
O O12 0.718351 0.333595 0.270185
O O13 0.630699 0.271226 0.857322
O O14 0.022264 0.749525 0.804084
O O15 0.000000 0.794064 0.500000
O O16 0.044042 0.000000 0.764105
O O17 0.306908 0.500000 0.094283
O O18 0.748049 0.500000 0.538454
O O19 0.854557 0.698538 0.734891
O O20 0.035427 0.500000 0.935353
O O21 0.000000 0.713458 0.000000
#
# Coordination Sequence:
#
# PCOD8061169 Si02
#       8
#     4   4   4   4   4   4   4   4
#     4  10  19  33  53  75 102 136 176 221 265 309
#     4   9  17  31  52  76 103 137 178 222 268 316
#     4   9  18  33  52  75 103 134 169 214 265 314
#     4   9  18  32  50  75 106 140 179 222 263 315
#     4  10  21  38  60  85 112 145 187 232 279 338
#     4   9  17  30  52  78 102 135 177 219 264 316
#     4  10  20  35  55  75 102 142 181 215 263 325
#     4  10  22  39  59  85 117 149 184 232 288 341
#
# _framework density 19.719526999999999
#
# number of rings (size 3 to 8) (size 9 to 14) (size 15 to 20)
#    0.000    2.500    1.250    0.750    0.000    4.500 
#    0.000    5.625    0.000    3.000    0.000    0.000 
#    0.000    0.000    0.000    0.000    0.000    0.000 
#
# Total GULP energy -396631.246206 kJ/mol
# GULP energy per Si atom -12394.726444 kJ/mol
# Density = 1.967464 g / cm^3
# Si number density = 19.719527 Si / 1000 Ang^3
#
#
#
# Elastic Constant Matrix: (Units=GPa)
#
#
# Indices 1 2 3 4 5 6 
#
# 1 131.5464 57.3197 36.4797 0.0000 22.2787 0.0000
# 2 57.3197 85.4401 28.0341 0.0000 9.3905 0.0000
# 3 36.4797 28.0341 62.7017 0.0000 7.3330 0.0000
# 4 0.0000 0.0000 0.0000 14.9577 0.0000 -1.3920
# 5 22.2787 9.3905 7.3330 0.0000 20.4465 0.0000
# 6 0.0000 0.0000 0.0000 -1.3920 0.0000 14.3575
#
#
#
# Elastic Compliance Matrix: (Units=1/GPa)
#
#
# Indices 1 2 3 4 5 6 
#
# 1 0.013137 -0.006548 -0.003542 0.000000 -0.010037 0.000000
# 2 -0.006548 0.017349 -0.004018 0.000000 0.000608 0.000000
# 3 -0.003542 -0.004018 0.019976 0.000000 -0.001460 0.000000
# 4 0.000000 0.000000 0.000000 0.067464 0.000000 0.006541
# 5 -0.010037 0.000608 -0.001460 0.000000 0.060089 0.000000
# 6 0.000000 0.000000 0.000000 0.006541 0.000000 0.070284
#
#
# Mechanical properties :
#
#
# Convention : Reuss Voigt Hill
#
# Bulk Modulus (GPa) = 44.95129 58.15058 51.55094
# Shear Modulus (GPa) = 17.60998 20.47598 19.04298
#
# Velocity S-wave (km/s) = 2.99159 3.22586 3.11093
# Velocity P-wave (km/s) = 5.89726 6.58997 6.25321
#
# Compressibility (1/GPa) = 0.02224630
#
# Stress axis : x y z
#
# Youngs Moduli (GPa) = 76.11990 57.64127 50.05938
#
# Poissons Ratio (x) = 0.37745 0.17729
# Poissons Ratio (y) = 0.49845 0.20114
# Poissons Ratio (z) = 0.26959 0.23161
#
# Static dielectric constant tensor:
#      x y z
#    x 3.607560 0.000000 0.094100 
#    y 0.000000 3.678110 0.000000 
#    z 0.094100 0.000000 3.583400 
# 
# 
# High freq. dielectric constant tensor:
#      x y z
#    x 1.767490 0.000000 0.005810 
#    y 0.000000 1.747390 0.000000 
#    z 0.005810 0.000000 1.764640 
# 
# From -- ./inp_files/58231.got.cif
#   From: 2010.06.25/outbox.cif.g09.slc.cpg/sg10_30_cif.got.tgz:58231.got - 2010.06.27 22:07:45.
