data_PCOD8061647
_publ_section_title
;
Structure prediction by ZEFSAII (Michael W. Deem and Ramdas Pophale) SiO2 
 PCOD8061647
Probable space group: P 2/M
;
_chemical_formula_sum "Si O2"
_cell_formula_units_Z 26
_cell_length_a 12.680922
_cell_length_b 13.627828
_cell_length_c 8.882132
_cell_angle_alpha 90.000000
_cell_angle_beta 121.535605
_cell_angle_gamma 90.000000
_cell_volume 1308.262779
_symmetry_space_group_name_H-M "P 2/M"
_symmetry_group_IT_number 10
_symmetry_cell_setting 'monoclinic'
loop_
_space_group_symop_operation_xyz
x,y,z
-x,y,-z
-x,-y,-z
x,-y,z
loop_
_atom_site_type_symbol
_atom_site_label
_atom_site_fract_x
_atom_site_fract_y
_atom_site_fract_z
Si Si1 0.358412 0.706458 0.356013
Si Si2 0.772476 0.221455 0.005263
Si Si3 0.139595 0.227947 0.597080
Si Si4 0.319431 0.115783 0.520173
Si Si5 0.543197 0.888171 0.878135
Si Si6 0.000000 0.725320 0.000000
Si Si7 0.147866 0.387512 0.358107
O O1 0.500000 0.687656 0.500000
O O2 0.320951 0.700781 0.149758
O O3 0.303384 0.814553 0.363306
O O4 0.285220 0.622657 0.391881
O O5 0.689255 0.123404 0.956636
O O6 0.809340 0.255180 0.199546
O O7 0.894208 0.205198 0.993172
O O8 0.220589 0.143578 0.576001
O O9 0.140488 0.330209 0.509420
O O10 0.000000 0.185991 0.500000
O O11 0.457581 0.148497 0.676885
O O12 0.307658 0.000000 0.470468
O O13 0.507882 0.000000 0.870171
O O14 0.500000 0.833611 0.000000
O O15 0.951279 0.655591 0.832205
O O16 0.116650 0.500000 0.367149
#
# Coordination Sequence:
#
# PCOD8061647 Si02
#       7
#     4   4   4   4   4   2   4
#     4  10  21  37  60  88 118 158 187 240 306 347
#     4  11  21  37  59  84 120 155 196 242 291 360
#     4  11  22  39  60  85 117 160 196 243 297 343
#     4  10  21  37  58  88 120 154 202 246 291 347
#     4  10  19  33  58  87 115 154 201 249 292 340
#     4  10  21  40  61  84 118 158 191 238 302 356
#     4  10  22  40  62  88 116 149 198 246 293 355
#
# _framework density 19.873684000000001
#
# number of rings (size 3 to 8) (size 9 to 14) (size 15 to 20)
#    0.000    1.692    4.615    0.231    0.000    1.846 
#    0.000    1.154    0.000    0.923    0.000    0.000 
#    0.000    0.000    0.000    0.000    0.000    0.000 
#
# Total GULP energy -322161.346216 kJ/mol
# GULP energy per Si atom -12390.821008 kJ/mol
# Density = 1.982845 g / cm^3
# Si number density = 19.873684 Si / 1000 Ang^3
#
#
#
# Elastic Constant Matrix: (Units=GPa)
#
#
# Indices 1 2 3 4 5 6 
#
# 1 102.7619 15.1396 44.1424 0.0000 23.6514 0.0000
# 2 15.1396 58.1589 14.5584 0.0000 1.9494 0.0000
# 3 44.1424 14.5584 133.6665 0.0000 3.7132 0.0000
# 4 0.0000 0.0000 0.0000 16.1196 0.0000 2.9154
# 5 23.6514 1.9494 3.7132 0.0000 34.5524 0.0000
# 6 0.0000 0.0000 0.0000 2.9154 0.0000 16.7927
#
#
#
# Elastic Compliance Matrix: (Units=1/GPa)
#
#
# Indices 1 2 3 4 5 6 
#
# 1 0.013880 -0.002291 -0.004086 0.000000 -0.008932 0.000000
# 2 -0.002291 0.018076 -0.001231 0.000000 0.000681 0.000000
# 3 -0.004086 -0.001231 0.008912 0.000000 0.001909 0.000000
# 4 0.000000 0.000000 0.000000 0.064047 0.000000 -0.011119
# 5 -0.008932 0.000681 0.001909 0.000000 0.034812 0.000000
# 6 0.000000 0.000000 0.000000 -0.011119 0.000000 0.061480
#
#
# Mechanical properties :
#
#
# Convention : Reuss Voigt Hill
#
# Bulk Modulus (GPa) = 38.98416 49.14089 44.06253
# Shear Modulus (GPa) = 22.22478 28.20939 25.21708
#
# Velocity S-wave (km/s) = 3.34773 3.77163 3.56598
# Velocity P-wave (km/s) = 5.88231 6.61416 6.25895
#
# Compressibility (1/GPa) = 0.02565144
#
# Stress axis : x y z
#
# Youngs Moduli (GPa) = 72.04701 55.32200 112.21124
#
# Poissons Ratio (x) = 0.12674 0.45850
# Poissons Ratio (y) = 0.16505 0.13815
# Poissons Ratio (z) = 0.29439 0.06811
#
# Static dielectric constant tensor:
#      x y z
#    x 3.822510 0.000000 -0.012740 
#    y 0.000000 3.116730 0.000000 
#    z -0.012740 0.000000 4.036410 
# 
# 
# High freq. dielectric constant tensor:
#      x y z
#    x 1.789550 0.000000 0.000670 
#    y 0.000000 1.720880 0.000000 
#    z 0.000670 0.000000 1.799220 
# 
# From -- ./inp_files/25116.got.cif
#   From: 2010.06.25/outbox.cif.g09.slc.cpg/sg10_13_cif.got.tgz:25116.got - 2010.06.27 22:07:45.
