data_PCOD8061288
_publ_section_title
;
Structure prediction by ZEFSAII (Michael W. Deem and Ramdas Pophale) SiO2 
 PCOD8061288
Probable space group: P 2/M
;
_chemical_formula_sum "Si O2"
_cell_formula_units_Z 28
_cell_length_a 15.511199
_cell_length_b 18.998426
_cell_length_c 8.772463
_cell_angle_alpha 90.000000
_cell_angle_beta 30.253832
_cell_angle_gamma 90.000000
_cell_volume 1302.477016
_symmetry_space_group_name_H-M "P 2/M"
_symmetry_group_IT_number 10
_symmetry_cell_setting 'monoclinic'
loop_
_space_group_symop_operation_xyz
x,y,z
-x,y,-z
-x,-y,-z
x,-y,z
loop_
_atom_site_type_symbol
_atom_site_label
_atom_site_fract_x
_atom_site_fract_y
_atom_site_fract_z
Si Si1 0.915990 0.000000 0.360684
Si Si2 0.656904 0.852809 0.358684
Si Si3 0.828117 0.228761 0.334444
Si Si4 0.479059 0.421177 0.866514
Si Si5 0.725750 0.000000 0.355666
Si Si6 0.018024 0.151355 0.642544
Si Si7 0.167242 0.416870 0.145415
Si Si8 0.172064 0.616891 0.796459
O O1 0.753537 0.000000 0.495228
O O2 0.907970 0.928641 0.472625
O O3 0.089371 0.000000 0.001808
O O4 0.500000 0.823508 0.500000
O O5 0.665906 0.806733 0.499814
O O6 0.617966 0.932621 0.467762
O O7 0.830322 0.844848 0.000301
O O8 0.845767 0.204797 0.483803
O O9 0.819981 0.311512 0.314272
O O10 0.000000 0.195038 0.000000
O O11 0.413872 0.500000 0.999447
O O12 0.657100 0.425452 0.503692
O O13 0.500000 0.382599 0.000000
O O14 0.331036 0.386654 0.988546
O O15 0.000000 0.179578 0.500000
O O16 0.183629 0.500000 0.082350
O O17 0.000000 0.400715 0.500000
O O18 0.159653 0.373667 0.998169
O O19 0.000000 0.576993 0.000000
#
# Coordination Sequence:
#
# PCOD8061288 Si02
#       8
#     2   4   4   4   2   4   4   4
#     4   9  15  28  57  84 103 144 185 231 282 340
#     4  10  19  33  54  79 107 143 185 229 279 334
#     4   9  20  38  55  76 109 150 195 228 272 338
#     4  10  21  38  60  88 120 153 191 238 289 341
#     4   9  15  28  53  80 105 142 183 225 276 338
#     4  10  19  35  58  82 109 142 189 237 284 338
#     4  10  21  38  62  91 120 149 187 240 299 350
#     4  11  22  37  57  84 116 157 198 239 284 348
#
# _framework density 21.497501
#
# number of rings (size 3 to 8) (size 9 to 14) (size 15 to 20)
#    0.000    2.143    1.429    2.143    0.000    4.571 
#    0.000   12.857    0.000    0.857    0.000    0.000 
#    0.000    0.000    0.000    0.000    0.000    0.000 
#
# Total GULP energy -347022.966534 kJ/mol
# GULP energy per Si atom -12393.677376 kJ/mol
# Density = 2.144857 g / cm^3
# Si number density = 21.497501 Si / 1000 Ang^3
#
#
#
# Elastic Constant Matrix: (Units=GPa)
#
#
# Indices 1 2 3 4 5 6 
#
# 1 210.1933 32.0153 49.4358 0.0000 -6.6380 0.0000
# 2 32.0153 65.8531 2.4343 0.0000 1.3899 0.0000
# 3 49.4358 2.4343 79.7398 0.0000 -9.0048 0.0000
# 4 0.0000 0.0000 0.0000 8.2351 0.0000 -1.3946
# 5 -6.6380 1.3899 -9.0048 0.0000 42.3998 0.0000
# 6 0.0000 0.0000 0.0000 -1.3946 0.0000 23.3810
#
#
#
# Elastic Compliance Matrix: (Units=1/GPa)
#
#
# Indices 1 2 3 4 5 6 
#
# 1 0.006049 -0.002812 -0.003634 0.000000 0.000267 0.000000
# 2 -0.002812 0.016525 0.001156 0.000000 -0.000736 0.000000
# 3 -0.003634 0.001156 0.015051 0.000000 0.002590 0.000000
# 4 0.000000 0.000000 0.000000 0.122671 0.000000 0.007317
# 5 0.000267 -0.000736 0.002590 0.000000 0.024201 0.000000
# 6 0.000000 0.000000 0.000000 0.007317 0.000000 0.043206
#
#
# Mechanical properties :
#
#
# Convention : Reuss Voigt Hill
#
# Bulk Modulus (GPa) = 36.97637 58.17301 47.57469
# Shear Modulus (GPa) = 20.21840 32.92988 26.57414
#
# Velocity S-wave (km/s) = 3.07008 3.91807 3.51971
# Velocity P-wave (km/s) = 5.45938 6.89837 6.22062
#
# Compressibility (1/GPa) = 0.02704430
#
# Stress axis : x y z
#
# Youngs Moduli (GPa) = 165.31632 60.51337 66.44084
#
# Poissons Ratio (x) = 0.17017 0.24145
# Poissons Ratio (y) = 0.46489 -0.07679
# Poissons Ratio (z) = 0.60078 -0.06994
#
# Static dielectric constant tensor:
#      x y z
#    x 4.234250 0.000000 -0.161470 
#    y 0.000000 3.607400 0.000000 
#    z -0.161470 0.000000 3.494250 
# 
# 
# High freq. dielectric constant tensor:
#      x y z
#    x 1.867810 0.000000 -0.009820 
#    y 0.000000 1.821300 0.000000 
#    z -0.009820 0.000000 1.805270 
# 
# From -- ./inp_files/30459.got.cif
#   From: 2010.06.25/outbox.cif.g09.slc.cpg/sg10_16_cif.got.tgz:30459.got - 2010.06.27 22:07:45.
