data_PCOD8061059
_publ_section_title
;
Structure prediction by ZEFSAII (Michael W. Deem and Ramdas Pophale) SiO2 
 PCOD8061059
Probable space group: P 2/M
;
_chemical_formula_sum "Si O2"
_cell_formula_units_Z 28
_cell_length_a 24.158352
_cell_length_b 11.675909
_cell_length_c 17.835565
_cell_angle_alpha 90.000000
_cell_angle_beta 19.399186
_cell_angle_gamma 90.000000
_cell_volume 1670.998918
_symmetry_space_group_name_H-M "P 2/M"
_symmetry_group_IT_number 10
_symmetry_cell_setting 'monoclinic'
loop_
_space_group_symop_operation_xyz
x,y,z
-x,y,-z
-x,-y,-z
x,-y,z
loop_
_atom_site_type_symbol
_atom_site_label
_atom_site_fract_x
_atom_site_fract_y
_atom_site_fract_z
Si Si1 0.678062 0.364736 0.483311
Si Si2 0.515200 0.243388 0.823067
Si Si3 0.157411 0.238786 0.348974
Si Si4 0.997003 0.634529 0.165836
Si Si5 0.337022 0.636750 0.666897
Si Si6 0.217137 0.635156 0.423224
Si Si7 0.580701 0.000000 0.781795
Si Si8 0.233839 0.000000 0.310045
O O1 0.650376 0.500000 0.524683
O O2 0.539986 0.306251 0.712346
O O3 0.861271 0.328820 0.277355
O O4 0.658059 0.319177 0.424689
O O5 0.612809 0.304400 0.766822
O O6 0.582933 0.113455 0.727936
O O7 0.320186 0.246202 0.089585
O O8 0.170829 0.329699 0.398769
O O9 0.131407 0.111946 0.416142
O O10 0.000000 0.272816 0.500000
O O11 0.019872 0.500000 0.134809
O O12 0.934324 0.673099 0.328109
O O13 0.175363 0.689092 0.916036
O O14 0.500000 0.684720 0.500000
O O15 0.332893 0.500000 0.672993
O O16 0.247672 0.500000 0.388669
O O17 0.741029 0.000000 0.632155
O O18 0.414534 0.000000 0.042935
#
# Coordination Sequence:
#
# PCOD8061059 Si02
#       8
#     4   4   4   4   4   4   2   2
#     4   9  17  29  47  70  95 124 155 190 234 280
#     4  10  19  33  51  72  94 122 163 201 240 280
#     4  11  22  33  48  70  98 129 159 197 241 285
#     4   8  15  28  44  63  88 118 157 195 225 266
#     4   9  16  26  43  67  94 124 155 189 229 273
#     4  10  20  33  49  69  96 132 165 194 234 283
#     4   9  16  30  56  74  85 113 162 212 239 267
#     4   9  17  34  52  70  89 116 161 209 243 272
#
# _framework density 16.756443000000001
#
# number of rings (size 3 to 8) (size 9 to 14) (size 15 to 20)
#    0.000    2.571    1.429    2.357    0.000    4.857 
#    0.000    1.429    0.000    0.000    0.000    9.500 
#    0.000    0.000    0.000    0.000    0.000    0.000 
#
# Total GULP energy -347142.436794 kJ/mol
# GULP energy per Si atom -12397.944171 kJ/mol
# Density = 1.671830 g / cm^3
# Si number density = 16.756443 Si / 1000 Ang^3
#
#
#
# Elastic Constant Matrix: (Units=GPa)
#
#
# Indices 1 2 3 4 5 6 
#
# 1 78.5991 18.4839 56.9070 0.0000 -7.2320 0.0000
# 2 18.4839 62.4352 28.0529 0.0000 -0.7068 0.0000
# 3 56.9070 28.0529 111.9522 0.0000 -4.4147 0.0000
# 4 0.0000 0.0000 0.0000 12.1858 0.0000 -2.7276
# 5 -7.2320 -0.7068 -4.4147 0.0000 21.7045 0.0000
# 6 0.0000 0.0000 0.0000 -2.7276 0.0000 12.0812
#
#
#
# Elastic Compliance Matrix: (Units=1/GPa)
#
#
# Indices 1 2 3 4 5 6 
#
# 1 0.020755 -0.001617 -0.009954 0.000000 0.004838 0.000000
# 2 -0.001617 0.018177 -0.003761 0.000000 -0.000712 0.000000
# 3 -0.009954 -0.003761 0.014919 0.000000 -0.000405 0.000000
# 4 0.000000 0.000000 0.000000 0.086430 0.000000 0.019514
# 5 0.004838 -0.000712 -0.000405 0.000000 0.047580 0.000000
# 6 0.000000 0.000000 0.000000 0.019514 0.000000 0.087179
#
#
# Mechanical properties :
#
#
# Convention : Reuss Voigt Hill
#
# Bulk Modulus (GPa) = 43.12844 51.09713 47.11279
# Shear Modulus (GPa) = 15.95236 19.16384 17.55810
#
# Velocity S-wave (km/s) = 3.08882 3.38549 3.24055
# Velocity P-wave (km/s) = 6.20607 6.77069 6.49452
#
# Compressibility (1/GPa) = 0.02318656
#
# Stress axis : x y z
#
# Youngs Moduli (GPa) = 48.18049 55.01421 67.03017
#
# Poissons Ratio (x) = 0.08897 0.66723
# Poissons Ratio (y) = 0.07792 0.25209
# Poissons Ratio (z) = 0.47960 0.20690
#
# Static dielectric constant tensor:
#      x y z
#    x 3.196610 0.000000 0.055140 
#    y 0.000000 2.988350 0.000000 
#    z 0.055140 0.000000 3.224370 
# 
# 
# High freq. dielectric constant tensor:
#      x y z
#    x 1.642900 0.000000 0.001290 
#    y 0.000000 1.612610 0.000000 
#    z 0.001290 0.000000 1.639320 
# 
# From -- ./inp_files/35995.got.cif
#   From: 2010.06.25/outbox.cif.g09.slc.cpg/sg10_18_cif.got.tgz:35995.got - 2010.06.27 22:07:45.
