data_PCOD8061127
_publ_section_title
;
Structure prediction by ZEFSAII (Michael W. Deem and Ramdas Pophale) SiO2 
 PCOD8061127
Probable space group: P 2/M
;
_chemical_formula_sum "Si O2"
_cell_formula_units_Z 24
_cell_length_a 22.656987
_cell_length_b 8.755653
_cell_length_c 16.404242
_cell_angle_alpha 90.000000
_cell_angle_beta 156.990423
_cell_angle_gamma 90.000000
_cell_volume 1272.025605
_symmetry_space_group_name_H-M "P 2/M"
_symmetry_group_IT_number 10
_symmetry_cell_setting 'monoclinic'
loop_
_space_group_symop_operation_xyz
x,y,z
-x,y,-z
-x,-y,-z
x,-y,z
loop_
_atom_site_type_symbol
_atom_site_label
_atom_site_fract_x
_atom_site_fract_y
_atom_site_fract_z
Si Si1 0.094533 0.681715 0.502428
Si Si2 0.780105 0.681650 0.169440
Si Si3 0.820128 0.318120 0.564828
Si Si4 0.533312 0.681419 0.297847
Si Si5 0.391570 0.822521 0.435586
Si Si6 0.079181 0.674448 0.014222
O O1 0.093846 0.500000 0.498308
O O2 0.198379 0.737803 0.709737
O O3 0.162021 0.747898 0.504030
O O4 0.922150 0.739271 0.296113
O O5 0.774375 0.500000 0.160559
O O6 0.625281 0.750004 0.936283
O O7 0.813482 0.500000 0.556542
O O8 0.666983 0.252833 0.410435
O O9 0.963767 0.263735 0.799569
O O10 0.532095 0.500000 0.292377
O O11 0.558971 0.728150 0.423016
O O12 0.500000 0.774956 0.500000
O O13 0.223150 0.782570 0.194056
O O14 0.403182 0.000000 0.471388
O O15 0.128487 0.500000 0.059471
O O16 0.000000 0.686886 0.000000
#
# Coordination Sequence:
#
# PCOD8061127 Si02
#       6
#     4   4   4   4   4   4
#     4   8  14  26  42  70 107 136 164 203 253 307
#     4   8  15  26  44  71 105 137 165 203 253 304
#     4   9  17  28  46  74 106 134 165 207 254 302
#     4  10  19  33  52  77 103 132 172 215 258 304
#     4  11  25  40  52  73 105 140 176 216 261 312
#     4  10  19  35  56  79 106 135 170 217 261 307
#
# _framework density 18.867543000000001
#
# number of rings (size 3 to 8) (size 9 to 14) (size 15 to 20)
#    0.000    2.667    1.667    1.500    2.333    2.333 
#    0.000    3.333    0.000    0.000    0.000    5.833 
#    0.000    0.000    0.000    0.000    0.000    0.000 
#
# Total GULP energy -297538.711156 kJ/mol
# GULP energy per Si atom -12397.446298 kJ/mol
# Density = 1.882460 g / cm^3
# Si number density = 18.867543 Si / 1000 Ang^3
#
#
#
# Elastic Constant Matrix: (Units=GPa)
#
#
# Indices 1 2 3 4 5 6 
#
# 1 151.9148 11.8491 75.2479 0.0000 -0.5561 0.0000
# 2 11.8491 7.6703 9.8379 0.0000 3.1453 0.0000
# 3 75.2479 9.8379 162.6119 0.0000 3.2809 0.0000
# 4 0.0000 0.0000 0.0000 16.5312 0.0000 2.7506
# 5 -0.5561 3.1453 3.2809 0.0000 22.1107 0.0000
# 6 0.0000 0.0000 0.0000 2.7506 0.0000 9.6203
#
#
#
# Elastic Compliance Matrix: (Units=1/GPa)
#
#
# Indices 1 2 3 4 5 6 
#
# 1 0.009232 -0.010466 -0.003685 0.000000 0.002268 0.000000
# 2 -0.010466 0.161539 -0.004474 0.000000 -0.022579 0.000000
# 3 -0.003685 -0.004474 0.008139 0.000000 -0.000664 0.000000
# 4 0.000000 0.000000 0.000000 0.063513 0.000000 -0.018159
# 5 0.002268 -0.022579 -0.000664 0.000000 0.048594 0.000000
# 6 0.000000 0.000000 0.000000 -0.018159 0.000000 0.109138
#
#
# Mechanical properties :
#
#
# Convention : Reuss Voigt Hill
#
# Bulk Modulus (GPa) = 7.05917 57.34074 32.19995
# Shear Modulus (GPa) = 10.31723 24.66995 17.49359
#
# Velocity S-wave (km/s) = 2.34096 3.61991 3.04826
# Velocity P-wave (km/s) = 3.32511 6.92306 5.43071
#
# Compressibility (1/GPa) = 0.14165974
#
# Stress axis : x y z
#
# Youngs Moduli (GPa) = 108.31308 6.19046 122.86765
#
# Poissons Ratio (x) = 0.06479 0.45275
# Poissons Ratio (y) = 1.13362 0.54974
# Poissons Ratio (z) = 0.39912 0.02770
#
# Static dielectric constant tensor:
#      x y z
#    x 3.727020 0.000000 0.030530 
#    y 0.000000 2.841930 0.000000 
#    z 0.030530 0.000000 3.751600 
# 
# 
# High freq. dielectric constant tensor:
#      x y z
#    x 1.744640 0.000000 -0.001020 
#    y 0.000000 1.668520 0.000000 
#    z -0.001020 0.000000 1.745210 
# 
# From -- ./inp_files/68483.got.cif
#   From: 2010.06.25/outbox.cif.g09.slc.cpg/sg10_35_cif.got.tgz:68483.got - 2010.06.27 22:07:45.
