data_PCOD8061889
_publ_section_title
;
Structure prediction by ZEFSAII (Michael W. Deem and Ramdas Pophale) SiO2 
 PCOD8061889
Probable space group: P 2/M
;
_chemical_formula_sum "Si O2"
_cell_formula_units_Z 28
_cell_length_a 25.838729
_cell_length_b 8.844751
_cell_length_c 9.582120
_cell_angle_alpha 90.000000
_cell_angle_beta 137.224731
_cell_angle_gamma 90.000000
_cell_volume 1487.194548
_symmetry_space_group_name_H-M "P 2/M"
_symmetry_group_IT_number 10
_symmetry_cell_setting 'monoclinic'
loop_
_space_group_symop_operation_xyz
x,y,z
-x,y,-z
-x,-y,-z
x,-y,z
loop_
_atom_site_type_symbol
_atom_site_label
_atom_site_fract_x
_atom_site_fract_y
_atom_site_fract_z
Si Si1 0.612626 0.172704 0.378404
Si Si2 0.787702 0.173422 0.741599
Si Si3 0.096984 0.678693 0.830470
Si Si4 0.070920 0.321453 0.466641
Si Si5 0.488241 0.322781 0.316652
Si Si6 0.798140 0.678842 0.472905
Si Si7 0.360561 0.822039 0.883437
O O1 0.698861 0.193126 0.600826
O O2 0.562123 0.282130 0.372393
O O3 0.605397 0.220376 0.201433
O O4 0.584589 0.000000 0.342168
O O5 0.811529 0.274833 0.658209
O O6 0.805732 0.000000 0.741371
O O7 0.834792 0.228709 0.966708
O O8 0.112249 0.500000 0.874426
O O9 0.095018 0.734607 0.667242
O O10 0.016161 0.725050 0.741606
O O11 0.074797 0.500000 0.475789
O O12 0.129742 0.255641 0.470090
O O13 0.500000 0.272512 0.500000
O O14 0.472849 0.500000 0.274889
O O15 0.415294 0.235694 0.113172
O O16 0.792339 0.500000 0.450263
O O17 0.721591 0.747980 0.257107
O O18 0.349754 0.000000 0.873222
#
# Coordination Sequence:
#
# PCOD8061889 Si02
#       7
#     4   4   4   4   4   4   4
#     4   9  20  38  57  76 103 139 176 214 260 314
#     4  10  21  36  52  78 111 139 173 217 262 310
#     4   9  17  34  56  76 102 140 180 218 264 313
#     4   8  17  33  54  78 104 136 178 223 264 311
#     4  11  24  38  54  81 111 137 173 217 256 303
#     4  10  19  34  56  81 106 136 176 219 262 309
#     4  10  21  38  58  80 107 139 174 213 262 316
#
# _framework density 18.827396
#
# number of rings (size 3 to 8) (size 9 to 14) (size 15 to 20)
#    0.000    2.429    0.000    3.857    0.000    8.000 
#    0.000   11.429    0.000    0.000    0.000    0.000 
#    0.000    0.000    0.000    0.000    0.000    0.000 
#
# Total GULP energy -347212.991608 kJ/mol
# GULP energy per Si atom -12400.463986 kJ/mol
# Density = 1.878454 g / cm^3
# Si number density = 18.827396 Si / 1000 Ang^3
#
#
#
# Elastic Constant Matrix: (Units=GPa)
#
#
# Indices 1 2 3 4 5 6 
#
# 1 42.3165 16.3019 -3.5118 0.0000 -1.7908 0.0000
# 2 16.3019 59.4091 24.9824 0.0000 1.0351 0.0000
# 3 -3.5118 24.9824 100.8688 0.0000 -1.8475 0.0000
# 4 0.0000 0.0000 0.0000 25.7119 0.0000 0.1615
# 5 -1.7908 1.0351 -1.8475 0.0000 17.2868 0.0000
# 6 0.0000 0.0000 0.0000 0.1615 0.0000 14.1163
#
#
#
# Elastic Compliance Matrix: (Units=1/GPa)
#
#
# Indices 1 2 3 4 5 6 
#
# 1 0.027520 -0.008984 0.003252 0.000000 0.003736 0.000000
# 2 -0.008984 0.021768 -0.005756 0.000000 -0.002849 0.000000
# 3 0.003252 -0.005756 0.011488 0.000000 0.001909 0.000000
# 4 0.000000 0.000000 0.000000 0.038895 0.000000 -0.000445
# 5 0.003736 -0.002849 0.001909 0.000000 0.058609 0.000000
# 6 0.000000 0.000000 0.000000 -0.000445 0.000000 0.070845
#
#
# Mechanical properties :
#
#
# Convention : Reuss Voigt Hill
#
# Bulk Modulus (GPa) = 26.45595 30.90437 28.68016
# Shear Modulus (GPa) = 18.88910 22.41111 20.65011
#
# Velocity S-wave (km/s) = 3.17089 3.45388 3.31541
# Velocity P-wave (km/s) = 5.24294 5.68823 5.47012
#
# Compressibility (1/GPa) = 0.03779869
#
# Stress axis : x y z
#
# Youngs Moduli (GPa) = 36.33665 45.93915 87.04943
#
# Poissons Ratio (x) = 0.41272 -0.28306
# Poissons Ratio (y) = 0.32645 0.50108
# Poissons Ratio (z) = -0.11816 0.26444
#
# Static dielectric constant tensor:
#      x y z
#    x 3.690610 0.000000 0.045420 
#    y 0.000000 3.302820 0.000000 
#    z 0.045420 0.000000 3.506080 
# 
# 
# High freq. dielectric constant tensor:
#      x y z
#    x 1.730910 0.000000 0.007470 
#    y 0.000000 1.722040 0.000000 
#    z 0.007470 0.000000 1.737900 
# 
# From -- ./inp_files/36945.got.cif
#   From: 2010.06.25/outbox.cif.g09.slc.cpg/sg10_19_cif.got.tgz:36945.got - 2010.06.27 22:07:45.
