data_PCOD8061227
_publ_section_title
;
Structure prediction by ZEFSAII (Michael W. Deem and Ramdas Pophale) SiO2 
 PCOD8061227
Probable space group: P 2/M
;
_chemical_formula_sum "Si O2"
_cell_formula_units_Z 32
_cell_length_a 12.485714
_cell_length_b 8.679683
_cell_length_c 32.402736
_cell_angle_alpha 90.000000
_cell_angle_beta 153.428024
_cell_angle_gamma 90.000000
_cell_volume 1570.792756
_symmetry_space_group_name_H-M "P 2/M"
_symmetry_group_IT_number 10
_symmetry_cell_setting 'monoclinic'
loop_
_space_group_symop_operation_xyz
x,y,z
-x,y,-z
-x,-y,-z
x,-y,z
loop_
_atom_site_type_symbol
_atom_site_label
_atom_site_fract_x
_atom_site_fract_y
_atom_site_fract_z
Si Si1 0.394402 0.318648 0.790577
Si Si2 0.026580 0.674192 0.411815
Si Si3 0.731427 0.179440 0.842131
Si Si4 0.869083 0.320097 0.069741
Si Si5 0.424321 0.176532 0.592870
Si Si6 0.606510 0.820064 0.120666
Si Si7 0.035873 0.822758 0.209463
Si Si8 0.634914 0.325745 0.342789
O O1 0.420938 0.500000 0.792366
O O2 0.146537 0.260982 0.684030
O O3 0.621545 0.238326 0.847261
O O4 0.391882 0.278877 0.837383
O O5 0.102255 0.500000 0.427753
O O6 0.889450 0.685836 0.408136
O O7 0.269271 0.774825 0.499175
O O8 0.550975 0.209071 0.742219
O O9 0.978760 0.268109 0.917810
O O10 0.788260 0.000000 0.865238
O O11 0.814144 0.500000 0.047965
O O12 0.012568 0.282248 0.160971
O O13 0.620772 0.226789 0.985133
O O14 0.704619 0.205326 0.680698
O O15 0.332462 0.281293 0.598659
O O16 0.373952 0.000000 0.586347
O O17 0.842320 0.774350 0.176678
O O18 0.600024 0.000000 0.129218
O O19 0.001308 0.000000 0.184013
O O20 0.533784 0.500000 0.304007
#
# Coordination Sequence:
#
# PCOD8061227 Si02
#       8
#     4   4   4   4   4   4   4   4
#     4  10  22  42  63  87 121 157 200 249 296 350
#     4   9  20  36  55  81 118 157 193 240 297 350
#     4  11  21  36  60  90 123 158 195 239 296 357
#     4  12  24  39  63  93 122 154 195 244 300 358
#     4  11  21  33  55  86 118 155 199 243 292 352
#     4  11  24  43  65  86 115 158 202 248 301 353
#     4  10  23  42  61  87 123 158 196 248 301 350
#     4  10  19  33  53  82 120 159 194 238 296 352
#
# _framework density 20.371877999999999
#
# number of rings (size 3 to 8) (size 9 to 14) (size 15 to 20)
#    0.000    1.500    1.250    5.250    0.000    8.000 
#    0.000    3.125    0.000    3.750    0.000    0.000 
#    0.000    0.000    0.000    0.000    0.000    0.000 
#
# Total GULP energy -396934.879061 kJ/mol
# GULP energy per Si atom -12404.214971 kJ/mol
# Density = 2.032551 g / cm^3
# Si number density = 20.371878 Si / 1000 Ang^3
#
#
#
# Elastic Constant Matrix: (Units=GPa)
#
#
# Indices 1 2 3 4 5 6 
#
# 1 82.4340 29.2973 28.0702 0.0000 6.9400 0.0000
# 2 29.2973 72.6682 24.3625 0.0000 7.3536 0.0000
# 3 28.0702 24.3625 73.4192 0.0000 20.1739 0.0000
# 4 0.0000 0.0000 0.0000 33.9833 0.0000 -0.6189
# 5 6.9400 7.3536 20.1739 0.0000 23.9450 0.0000
# 6 0.0000 0.0000 0.0000 -0.6189 0.0000 17.1171
#
#
#
# Elastic Compliance Matrix: (Units=1/GPa)
#
#
# Indices 1 2 3 4 5 6 
#
# 1 0.015275 -0.004734 -0.004492 0.000000 0.000811 0.000000
# 2 -0.004734 0.016957 -0.003595 0.000000 -0.000806 0.000000
# 3 -0.004492 -0.003595 0.020650 0.000000 -0.014992 0.000000
# 4 0.000000 0.000000 0.000000 0.029446 0.000000 0.001065
# 5 0.000811 -0.000806 -0.014992 0.000000 0.054406 0.000000
# 6 0.000000 0.000000 0.000000 0.001065 0.000000 0.058460
#
#
# Mechanical properties :
#
#
# Convention : Reuss Voigt Hill
#
# Bulk Modulus (GPa) = 36.71200 43.55350 40.13275
# Shear Modulus (GPa) = 21.74712 24.79516 23.27114
#
# Velocity S-wave (km/s) = 3.27082 3.49252 3.38348
# Velocity P-wave (km/s) = 5.68545 6.13916 5.91665
#
# Compressibility (1/GPa) = 0.02723905
#
# Stress axis : x y z
#
# Youngs Moduli (GPa) = 65.46722 58.97339 48.42568
#
# Poissons Ratio (x) = 0.27921 0.21752
# Poissons Ratio (y) = 0.30995 0.17409
# Poissons Ratio (z) = 0.29407 0.21201
#
# Static dielectric constant tensor:
#      x y z
#    x 3.526620 0.000000 0.157600 
#    y 0.000000 3.629970 0.000000 
#    z 0.157600 0.000000 3.709420 
# 
# 
# High freq. dielectric constant tensor:
#      x y z
#    x 1.776030 0.000000 0.009590 
#    y 0.000000 1.799930 0.000000 
#    z 0.009590 0.000000 1.801010 
# 
# From -- ./inp_files/95088.got.cif
#   From: 2010.06.25/outbox.cif.g09.slc.cpg/sg10_48_cif.got.tgz:95088.got - 2010.06.27 22:07:45.
