data_PCOD8061746
_publ_section_title
;
Structure prediction by ZEFSAII (Michael W. Deem and Ramdas Pophale) SiO2 
 PCOD8061746
Probable space group: P 2/M
;
_chemical_formula_sum "Si O2"
_cell_formula_units_Z 32
_cell_length_a 12.096551
_cell_length_b 13.893499
_cell_length_c 10.921086
_cell_angle_alpha 90.000000
_cell_angle_beta 67.366060
_cell_angle_gamma 90.000000
_cell_volume 1694.074274
_symmetry_space_group_name_H-M "P 2/M"
_symmetry_group_IT_number 10
_symmetry_cell_setting 'monoclinic'
loop_
_space_group_symop_operation_xyz
x,y,z
-x,y,-z
-x,-y,-z
x,-y,z
loop_
_atom_site_type_symbol
_atom_site_label
_atom_site_fract_x
_atom_site_fract_y
_atom_site_fract_z
Si Si1 0.607200 0.291535 0.044259
Si Si2 0.339960 0.105746 0.847601
Si Si3 0.046290 0.604150 0.616586
Si Si4 0.473567 0.387639 0.689964
Si Si5 0.730481 0.295323 0.575559
Si Si6 0.158236 0.266116 0.211160
Si Si7 0.378447 0.207052 0.590501
Si Si8 0.083304 0.106075 0.071433
O O1 0.582377 0.184547 0.111200
O O2 0.600357 0.371485 0.153065
O O3 0.500000 0.314496 0.000000
O O4 0.736805 0.300402 0.925077
O O5 0.315093 0.145200 0.721856
O O6 0.403513 0.000000 0.819696
O O7 0.213858 0.094508 0.962902
O O8 0.059089 0.500000 0.672834
O O9 0.177231 0.648751 0.550876
O O10 0.000000 0.595718 0.500000
O O11 0.950397 0.658794 0.741684
O O12 0.463828 0.500000 0.654942
O O13 0.613063 0.359511 0.654215
O O14 0.411330 0.318221 0.615892
O O15 0.787171 0.253237 0.676177
O O16 0.699208 0.206075 0.500436
O O17 0.093946 0.169390 0.189816
O O18 0.500000 0.153017 0.500000
O O19 0.032734 0.000000 0.128641
O O20 0.000000 0.152676 0.000000
#
# Coordination Sequence:
#
# PCOD8061746 Si02
#       8
#     4   4   4   4   4   4   4   4
#     4  10  19  35  54  79 107 138 175 222 271 320
#     4   9  19  35  55  79 104 135 175 217 265 321
#     4   9  19  33  50  75 105 140 177 210 255 315
#     4  10  20  34  54  80 109 144 183 224 264 309
#     4  10  19  34  54  77 107 147 178 219 262 313
#     4  10  20  35  56  79 110 138 176 223 270 315
#     4   9  20  34  53  77 109 142 179 217 260 318
#     4   9  19  36  60  82 102 136 178 219 267 322
#
# _framework density 18.889372999999999
#
# number of rings (size 3 to 8) (size 9 to 14) (size 15 to 20)
#    0.000    2.500    1.250    0.375    1.750    4.500 
#    0.000    0.625    0.000    3.750    0.000    0.000 
#    0.000    0.000    0.000    0.000    0.000    0.000 
#
# Total GULP energy -396452.230244 kJ/mol
# GULP energy per Si atom -12389.132195 kJ/mol
# Density = 1.884638 g / cm^3
# Si number density = 18.889373 Si / 1000 Ang^3
#
#
#
# Elastic Constant Matrix: (Units=GPa)
#
#
# Indices 1 2 3 4 5 6 
#
# 1 71.8150 21.0766 28.3281 0.0000 4.9927 0.0000
# 2 21.0766 88.5146 40.9595 0.0000 0.7427 0.0000
# 3 28.3281 40.9595 104.1490 0.0000 0.5587 0.0000
# 4 0.0000 0.0000 0.0000 100.7650 0.0000 8.4214
# 5 4.9927 0.7427 0.5587 0.0000 32.5493 0.0000
# 6 0.0000 0.0000 0.0000 8.4214 0.0000 12.9616
#
#
#
# Elastic Compliance Matrix: (Units=1/GPa)
#
#
# Indices 1 2 3 4 5 6 
#
# 1 0.016117 -0.002195 -0.003508 0.000000 -0.002362 0.000000
# 2 -0.002195 0.014111 -0.004953 0.000000 0.000100 0.000000
# 3 -0.003508 -0.004953 0.012501 0.000000 0.000437 0.000000
# 4 0.000000 0.000000 0.000000 0.010494 0.000000 -0.006818
# 5 -0.002362 0.000100 0.000437 0.000000 0.031075 0.000000
# 6 0.000000 0.000000 0.000000 -0.006818 0.000000 0.081580
#
#
# Mechanical properties :
#
#
# Convention : Reuss Voigt Hill
#
# Bulk Modulus (GPa) = 46.68984 49.46745 48.07865
# Shear Modulus (GPa) = 25.72944 40.86282 33.29613
#
# Velocity S-wave (km/s) = 3.69468 4.65614 4.20300
# Velocity P-wave (km/s) = 6.55531 7.42638 7.00440
#
# Compressibility (1/GPa) = 0.02141794
#
# Stress axis : x y z
#
# Youngs Moduli (GPa) = 62.04761 70.86471 79.99065
#
# Poissons Ratio (x) = 0.15551 0.28060
# Poissons Ratio (y) = 0.13616 0.39622
# Poissons Ratio (z) = 0.21766 0.35102
#
# Static dielectric constant tensor:
#      x y z
#    x 4.087270 0.000000 -0.793350 
#    y 0.000000 3.836870 0.000000 
#    z -0.793350 0.000000 4.532840 
# 
# 
# High freq. dielectric constant tensor:
#      x y z
#    x 1.728410 0.000000 -0.004870 
#    y 0.000000 1.712830 0.000000 
#    z -0.004870 0.000000 1.741440 
# 
# From -- ./inp_files/47380.got.cif
#   From: 2010.06.25/outbox.cif.g09.slc.cpg/sg10_24_cif.got.tgz:47380.got - 2010.06.27 22:07:45.
