data_PCOD8061615
_publ_section_title
;
Structure prediction by ZEFSAII (Michael W. Deem and Ramdas Pophale) SiO2 
 PCOD8061615
Probable space group: P 2/M
;
_chemical_formula_sum "Si O2"
_cell_formula_units_Z 28
_cell_length_a 12.656795
_cell_length_b 8.586795
_cell_length_c 14.665532
_cell_angle_alpha 90.000000
_cell_angle_beta 59.878200
_cell_angle_gamma 90.000000
_cell_volume 1378.633917
_symmetry_space_group_name_H-M "P 2/M"
_symmetry_group_IT_number 10
_symmetry_cell_setting 'monoclinic'
loop_
_space_group_symop_operation_xyz
x,y,z
-x,y,-z
-x,-y,-z
x,-y,z
loop_
_atom_site_type_symbol
_atom_site_label
_atom_site_fract_x
_atom_site_fract_y
_atom_site_fract_z
Si Si1 0.052233 0.676170 0.077329
Si Si2 0.413554 0.685039 0.618147
Si Si3 0.288204 0.316678 0.214129
Si Si4 0.977745 0.315021 0.609669
Si Si5 0.696599 0.818310 0.987819
Si Si6 0.492417 0.183251 0.776994
Si Si7 0.145065 0.684965 0.696211
O O1 0.088693 0.500000 0.092045
O O2 0.168855 0.786106 0.032625
O O3 0.947211 0.746207 0.186864
O O4 0.000000 0.676192 0.000000
O O5 0.500000 0.748063 0.500000
O O6 0.410548 0.500000 0.619335
O O7 0.461276 0.739159 0.694744
O O8 0.278957 0.755456 0.656238
O O9 0.300643 0.500000 0.222423
O O10 0.150004 0.257376 0.291767
O O11 0.329265 0.271761 0.094671
O O12 0.372276 0.233033 0.252340
O O13 0.974705 0.500000 0.605876
O O14 0.000000 0.242937 0.500000
O O15 0.091234 0.258685 0.622539
O O16 0.678648 0.000000 0.976307
O O17 0.601784 0.757792 0.104866
O O18 0.484096 0.000000 0.768364
O O19 0.152749 0.500000 0.697210
#
# Coordination Sequence:
#
# PCOD8061615 Si02
#       7
#     4   4   4   4   4   4   4
#     4  10  19  33  57  85 115 152 194 242 291 341
#     4  10  22  39  64  93 118 152 203 251 290 341
#     4  11  22  38  64  92 116 151 202 249 295 351
#     4   9  18  32  57  89 119 148 183 237 299 347
#     4  11  23  39  58  84 121 159 195 240 299 362
#     4  11  25  42  59  83 122 164 197 237 300 360
#     4   9  17  33  55  85 120 148 184 240 296 340
#
# _framework density 20.30996
#
# number of rings (size 3 to 8) (size 9 to 14) (size 15 to 20)
#    0.000    1.857    1.429    2.571    2.000    5.714 
#    0.000    0.714    0.000    1.714    0.000    0.000 
#    0.000    0.000    0.000    0.000    0.000    0.000 
#
# Total GULP energy -347256.300679 kJ/mol
# GULP energy per Si atom -12402.010739 kJ/mol
# Density = 2.026373 g / cm^3
# Si number density = 20.309960 Si / 1000 Ang^3
#
#
#
# Elastic Constant Matrix: (Units=GPa)
#
#
# Indices 1 2 3 4 5 6 
#
# 1 140.1881 -0.1817 46.4609 0.0000 1.7714 0.0000
# 2 -0.1817 11.1195 10.6331 0.0000 -5.3590 0.0000
# 3 46.4609 10.6331 125.5966 0.0000 9.8129 0.0000
# 4 0.0000 0.0000 0.0000 12.5687 0.0000 -9.3424
# 5 1.7714 -5.3590 9.8129 0.0000 37.3984 0.0000
# 6 0.0000 0.0000 0.0000 -9.3424 0.0000 3.0570
#
#
#
# Elastic Compliance Matrix: (Units=1/GPa)
#
#
# Indices 1 2 3 4 5 6 
#
# 1 0.008280 0.003998 -0.003487 0.000000 0.001096 0.000000
# 2 0.003998 0.110941 -0.012352 0.000000 0.018949 0.000000
# 3 -0.003487 -0.012352 0.010641 0.000000 -0.004397 0.000000
# 4 0.000000 0.000000 0.000000 -0.062571 0.000000 -0.191219
# 5 0.001096 0.018949 -0.004397 0.000000 0.030556 0.000000
# 6 0.000000 0.000000 0.000000 -0.191219 0.000000 -0.257256
#
#
# Mechanical properties :
#
#
# Convention : Reuss Voigt Hill
#
# Bulk Modulus (GPa) = 9.41791 43.41434 26.41612
# Shear Modulus (GPa) = -49.83403 25.27095 -12.28154
#
# Velocity S-wave (km/s) = -4.95883 3.53124 -2.46174
# Velocity P-wave (km/s) = 5.30467 6.16835 2.22587
#
# Compressibility (1/GPa) = 0.10618067
#
# Stress axis : x y z
#
# Youngs Moduli (GPa) = 120.76839 9.01379 93.97423
#
# Poissons Ratio (x) = -0.03604 0.32770
# Poissons Ratio (y) = -0.48283 1.16075
# Poissons Ratio (z) = 0.42114 0.11134
#
# Static dielectric constant tensor:
#      x y z
#    x 3.875020 0.000000 -0.109750 
#    y 0.000000 3.344370 0.000000 
#    z -0.109750 0.000000 3.869710 
# 
# 
# High freq. dielectric constant tensor:
#      x y z
#    x 1.811000 0.000000 0.002610 
#    y 0.000000 1.754700 0.000000 
#    z 0.002610 0.000000 1.805290 
# 
# From -- ./inp_files/63614.got.cif
#   From: 2010.06.25/outbox.cif.g09.slc.cpg/sg10_32_cif.got.tgz:63614.got - 2010.06.27 22:07:45.
