data_PCOD8061726
_publ_section_title
;
Structure prediction by ZEFSAII (Michael W. Deem and Ramdas Pophale) SiO2 
 PCOD8061726
Probable space group: P 2/M
;
_chemical_formula_sum "Si O2"
_cell_formula_units_Z 24
_cell_length_a 21.482148
_cell_length_b 8.475577
_cell_length_c 10.058467
_cell_angle_alpha 90.000000
_cell_angle_beta 44.942985
_cell_angle_gamma 90.000000
_cell_volume 1293.692854
_symmetry_space_group_name_H-M "P 2/M"
_symmetry_group_IT_number 10
_symmetry_cell_setting 'monoclinic'
loop_
_space_group_symop_operation_xyz
x,y,z
-x,y,-z
-x,-y,-z
x,-y,z
loop_
_atom_site_type_symbol
_atom_site_label
_atom_site_fract_x
_atom_site_fract_y
_atom_site_fract_z
Si Si1 0.732946 0.813160 0.005876
Si Si2 0.269657 0.814763 0.688457
Si Si3 0.930204 0.186704 0.002631
Si Si4 0.401988 0.317331 0.279095
Si Si5 0.928474 0.188467 0.709846
Si Si6 0.409840 0.814309 0.984865
O O1 0.830531 0.750745 0.819363
O O2 0.661744 0.744402 0.010317
O O3 0.734188 0.000000 0.994829
O O4 0.708727 0.763543 0.192926
O O5 0.169111 0.768809 0.805398
O O6 0.331447 0.715896 0.499054
O O7 0.286619 0.000000 0.641893
O O8 0.939976 0.000000 0.986898
O O9 0.951736 0.250352 0.822439
O O10 0.000000 0.263010 0.000000
O O11 0.401850 0.500000 0.241979
O O12 0.377790 0.220342 0.182982
O O13 0.498065 0.269251 0.186890
O O14 0.000000 0.260066 0.500000
O O15 0.930371 0.000000 0.704066
O O16 0.422372 0.000000 0.947325
#
# Coordination Sequence:
#
# PCOD8061726 Si02
#       6
#     4   4   4   4   4   4
#     4   8  16  29  47  72  98 125 159 198 237 282
#     4   9  17  32  51  72 100 130 161 197 238 284
#     4   8  14  24  41  68  98 125 154 191 233 277
#     4  11  22  35  49  70  99 127 160 200 243 288
#     4   8  13  22  37  62  98 128 148 182 234 282
#     4  10  19  34  54  73  94 124 162 200 243 289
#
# _framework density 18.551545000000001
#
# number of rings (size 3 to 8) (size 9 to 14) (size 15 to 20)
#    0.000    3.000    0.000    5.000    0.000    2.000 
#    0.000   10.000    0.000    0.500    0.000    0.000 
#    0.000    8.000    0.000    0.000    0.000    0.000 
#
# Total GULP energy -297501.216143 kJ/mol
# GULP energy per Si atom -12395.884006 kJ/mol
# Density = 1.850932 g / cm^3
# Si number density = 18.551545 Si / 1000 Ang^3
#
#
#
# Elastic Constant Matrix: (Units=GPa)
#
#
# Indices 1 2 3 4 5 6 
#
# 1 180.1077 9.6082 71.8517 0.0000 2.1608 0.0000
# 2 9.6082 28.7725 12.0261 0.0000 -3.1322 0.0000
# 3 71.8517 12.0261 145.9254 0.0000 -8.5962 0.0000
# 4 0.0000 0.0000 0.0000 4.3731 0.0000 2.5044
# 5 2.1608 -3.1322 -8.5962 0.0000 15.6469 0.0000
# 6 0.0000 0.0000 0.0000 2.5044 0.0000 -0.8551
#
#
#
# Elastic Compliance Matrix: (Units=1/GPa)
#
#
# Indices 1 2 3 4 5 6 
#
# 1 0.007081 -0.001218 -0.003574 0.000000 -0.003185 0.000000
# 2 -0.001218 0.036715 -0.002050 0.000000 0.006392 0.000000
# 3 -0.003574 -0.002050 0.009080 0.000000 0.005072 0.000000
# 4 0.000000 0.000000 0.000000 0.085413 0.000000 0.250154
# 5 -0.003185 0.006392 0.005072 0.000000 0.068416 0.000000
# 6 0.000000 0.000000 0.000000 0.250154 0.000000 -0.436815
#
#
# Mechanical properties :
#
#
# Convention : Reuss Voigt Hill
#
# Bulk Modulus (GPa) = 25.51441 60.19752 42.85597
# Shear Modulus (GPa) = -24.58666 21.25429 -1.66619
#
# Velocity S-wave (km/s) = -3.64444 3.38847 -0.94873
# Velocity P-wave (km/s) = 1.98145 6.91580 4.68519
#
# Compressibility (1/GPa) = 0.03919354
#
# Stress axis : x y z
#
# Youngs Moduli (GPa) = 141.21920 27.23713 110.12873
#
# Poissons Ratio (x) = 0.03316 0.39360
# Poissons Ratio (y) = 0.17195 0.22573
# Poissons Ratio (z) = 0.50471 0.05583
#
# Static dielectric constant tensor:
#      x y z
#    x 3.933960 0.000000 0.021680 
#    y 0.000000 2.874970 0.000000 
#    z 0.021680 0.000000 3.486620 
# 
# 
# High freq. dielectric constant tensor:
#      x y z
#    x 1.726590 0.000000 -0.001040 
#    y 0.000000 1.671470 0.000000 
#    z -0.001040 0.000000 1.722990 
# 
# From -- ./inp_files/33770.got.cif
#   From: 2010.06.25/outbox.cif.g09.slc.cpg/sg10_17_cif.got.tgz:33770.got - 2010.06.27 22:07:45.
