data_PCOD8061878
_publ_section_title
;
Structure prediction by ZEFSAII (Michael W. Deem and Ramdas Pophale) SiO2 
 PCOD8061878
Probable space group: P 2/M
;
_chemical_formula_sum "Si O2"
_cell_formula_units_Z 30
_cell_length_a 12.856338
_cell_length_b 13.219115
_cell_length_c 20.133339
_cell_angle_alpha 90.000000
_cell_angle_beta 27.763511
_cell_angle_gamma 90.000000
_cell_volume 1593.883522
_symmetry_space_group_name_H-M "P 2/M"
_symmetry_group_IT_number 10
_symmetry_cell_setting 'monoclinic'
loop_
_space_group_symop_operation_xyz
x,y,z
-x,y,-z
-x,-y,-z
x,-y,z
loop_
_atom_site_type_symbol
_atom_site_label
_atom_site_fract_x
_atom_site_fract_y
_atom_site_fract_z
Si Si1 0.051465 0.613431 0.681125
Si Si2 0.352223 0.683713 0.022750
Si Si3 0.744585 0.385289 0.726346
Si Si4 0.000000 0.766158 0.500000
Si Si5 0.340981 0.117516 0.392365
Si Si6 0.799260 0.118269 0.070981
Si Si7 0.296781 0.188961 0.564606
Si Si8 0.853457 0.115665 0.886334
O O1 0.150637 0.500000 0.626284
O O2 0.252043 0.693321 0.572279
O O3 0.890330 0.631023 0.835930
O O4 0.905491 0.633888 0.698137
O O5 0.329459 0.806012 0.038504
O O6 0.500000 0.645974 0.000000
O O7 0.484015 0.640996 0.885139
O O8 0.766474 0.500000 0.688300
O O9 0.807223 0.306522 0.634923
O O10 0.886675 0.833063 0.506683
O O11 0.559690 0.162544 0.230641
O O12 0.359933 0.133608 0.460617
O O13 0.318913 0.000000 0.389408
O O14 0.790088 0.000000 0.091006
O O15 0.861702 0.140505 0.959700
O O16 0.000000 0.168190 0.000000
O O17 0.500000 0.180237 0.500000
O O18 0.088415 0.134159 0.717401
O O19 0.776289 0.000000 0.917150
#
# Coordination Sequence:
#
# PCOD8061878 Si02
#       8
#     4   4   4   2   4   4   4   4
#     4   9  18  35  56  79 107 140 182 233 287 335
#     4   9  18  32  52  77 106 139 180 222 269 331
#     4  10  19  34  56  80 108 142 184 231 275 328
#     4  12  22  36  54  82 118 150 186 224 278 356
#     4  11  23  38  56  81 116 156 188 227 283 339
#     4   9  18  34  54  74  99 139 190 230 263 314
#     4  11  22  37  57  83 112 145 190 239 281 332
#     4  10  20  34  52  78 108 142 184 228 273 320
#
# _framework density 18.821953000000001
#
# number of rings (size 3 to 8) (size 9 to 14) (size 15 to 20)
#    0.000    2.000    1.333    2.800    0.000    4.267 
#    0.000    0.667    0.000    0.000    0.000    0.000 
#    0.000   11.733    0.000    0.000    0.000    0.000 
#
# Total GULP energy -371851.311614 kJ/mol
# GULP energy per Si atom -12395.043720 kJ/mol
# Density = 1.877911 g / cm^3
# Si number density = 18.821953 Si / 1000 Ang^3
#
#
#
# Elastic Constant Matrix: (Units=GPa)
#
#
# Indices 1 2 3 4 5 6 
#
# 1 58.8503 17.4278 18.1714 0.0000 2.2202 0.0000
# 2 17.4278 88.9767 23.4112 0.0000 -0.3871 0.0000
# 3 18.1714 23.4112 86.7656 0.0000 14.7348 0.0000
# 4 0.0000 0.0000 0.0000 22.5028 0.0000 2.9980
# 5 2.2202 -0.3871 14.7348 0.0000 28.6494 0.0000
# 6 0.0000 0.0000 0.0000 2.9980 0.0000 11.4303
#
#
#
# Elastic Compliance Matrix: (Units=1/GPa)
#
#
# Indices 1 2 3 4 5 6 
#
# 1 0.018816 -0.002843 -0.003199 0.000000 0.000149 0.000000
# 2 -0.002843 0.012635 -0.003156 0.000000 0.002014 0.000000
# 3 -0.003199 -0.003156 0.014257 0.000000 -0.007127 0.000000
# 4 0.000000 0.000000 0.000000 0.046048 0.000000 -0.012078
# 5 0.000149 0.002014 -0.007127 0.000000 0.038586 0.000000
# 6 0.000000 0.000000 0.000000 -0.012078 0.000000 0.090655
#
#
# Mechanical properties :
#
#
# Convention : Reuss Voigt Hill
#
# Bulk Modulus (GPa) = 36.61285 39.17924 37.89604
# Shear Modulus (GPa) = 20.12093 24.22197 22.17145
#
# Velocity S-wave (km/s) = 3.27312 3.59123 3.43586
# Velocity P-wave (km/s) = 5.81196 6.16902 5.99315
#
# Compressibility (1/GPa) = 0.02731282
#
# Stress axis : x y z
#
# Youngs Moduli (GPa) = 53.14530 79.14594 70.14045
#
# Poissons Ratio (x) = 0.22503 0.22436
# Poissons Ratio (y) = 0.15110 0.22134
# Poissons Ratio (z) = 0.17000 0.24976
#
# Static dielectric constant tensor:
#      x y z
#    x 3.223520 0.000000 0.099000 
#    y 0.000000 3.406730 0.000000 
#    z 0.099000 0.000000 3.730550 
# 
# 
# High freq. dielectric constant tensor:
#      x y z
#    x 1.705140 0.000000 0.009420 
#    y 0.000000 1.726270 0.000000 
#    z 0.009420 0.000000 1.741830 
# 
# From -- ./inp_files/76909.got.cif
#   From: 2010.06.25/outbox.cif.g09.slc.cpg/sg10_39_cif.got.tgz:76909.got - 2010.06.27 22:07:45.
