data_PCOD8061767
_publ_section_title
;
Structure prediction by ZEFSAII (Michael W. Deem and Ramdas Pophale) SiO2 
 PCOD8061767
Probable space group: P 2/M
;
_chemical_formula_sum "Si O2"
_cell_formula_units_Z 32
_cell_length_a 31.116061
_cell_length_b 9.261516
_cell_length_c 11.929632
_cell_angle_alpha 90.000000
_cell_angle_beta 149.485706
_cell_angle_gamma 90.000000
_cell_volume 1745.607104
_symmetry_space_group_name_H-M "P 2/M"
_symmetry_group_IT_number 10
_symmetry_cell_setting 'monoclinic'
loop_
_space_group_symop_operation_xyz
x,y,z
-x,y,-z
-x,-y,-z
x,-y,z
loop_
_atom_site_type_symbol
_atom_site_label
_atom_site_fract_x
_atom_site_fract_y
_atom_site_fract_z
Si Si1 0.893839 0.170793 0.372998
Si Si2 0.473648 0.335934 0.068311
Si Si3 0.769772 0.170726 0.691831
Si Si4 0.282341 0.332301 0.640406
Si Si5 0.080819 0.828962 0.819121
Si Si6 0.617119 0.828984 0.511262
Si Si7 0.405245 0.667426 0.316695
Si Si8 0.751673 0.664626 0.184717
O O1 0.889618 0.229085 0.235988
O O2 0.817809 0.235354 0.271650
O O3 0.984499 0.218973 0.629325
O O4 0.884259 0.000000 0.355193
O O5 0.482647 0.500000 0.134317
O O6 0.528578 0.229734 0.266919
O O7 0.500000 0.326136 0.000000
O O8 0.378585 0.279091 0.863687
O O9 0.767017 0.243290 0.564392
O O10 0.690979 0.218310 0.591935
O O11 0.770700 0.000000 0.677032
O O12 0.855661 0.228785 0.943111
O O13 0.279177 0.500000 0.600128
O O14 0.240279 0.301568 0.665657
O O15 0.085777 0.000000 0.824456
O O16 0.634276 0.759369 0.670653
O O17 0.613041 0.000000 0.515499
O O18 0.500000 0.721231 0.500000
O O19 0.407560 0.500000 0.357439
O O20 0.344275 0.693716 0.072982
O O21 0.776303 0.500000 0.215029
#
# Coordination Sequence:
#
# PCOD8061767 Si02
#       8
#     4   4   4   4   4   4   4   4
#     4   9  17  34  60  82 103 136 175 210 256 319
#     4  10  19  34  55  74  99 142 189 220 249 306
#     4  10  20  34  52  78 109 136 169 216 267 312
#     4  10  21  37  54  74 103 142 184 219 257 308
#     4   8  16  33  57  82 106 134 169 213 260 313
#     4  11  22  33  52  82 112 135 167 222 277 316
#     4  10  21  38  57  75 102 142 183 217 256 313
#     4  10  21  36  54  77 107 139 174 220 265 306
#
# _framework density 18.331731999999999
#
# number of rings (size 3 to 8) (size 9 to 14) (size 15 to 20)
#    0.000    2.250    1.250    2.625    0.000    5.500 
#    0.000    4.375    0.000    3.750    0.000    0.000 
#    0.000    0.000    0.000    0.000    0.000    0.000 
#
# Total GULP energy -396818.306608 kJ/mol
# GULP energy per Si atom -12400.572082 kJ/mol
# Density = 1.829001 g / cm^3
# Si number density = 18.331732 Si / 1000 Ang^3
#
#
#
# Elastic Constant Matrix: (Units=GPa)
#
#
# Indices 1 2 3 4 5 6 
#
# 1 90.2139 34.7037 55.9054 0.0000 -1.0568 0.0000
# 2 34.7037 46.2847 39.3192 0.0000 -4.2413 0.0000
# 3 55.9054 39.3192 136.5016 0.0000 -6.2357 0.0000
# 4 0.0000 0.0000 0.0000 27.5057 0.0000 -3.3047
# 5 -1.0568 -4.2413 -6.2357 0.0000 33.1291 0.0000
# 6 0.0000 0.0000 0.0000 -3.3047 0.0000 30.9544
#
#
#
# Elastic Compliance Matrix: (Units=1/GPa)
#
#
# Indices 1 2 3 4 5 6 
#
# 1 0.017488 -0.009410 -0.004520 0.000000 -0.001498 0.000000
# 2 -0.009410 0.033818 -0.005753 0.000000 0.002947 0.000000
# 3 -0.004520 -0.005753 0.010888 0.000000 0.001169 0.000000
# 4 0.000000 0.000000 0.000000 0.036828 0.000000 0.003932
# 5 -0.001498 0.002947 0.001169 0.000000 0.030734 0.000000
# 6 0.000000 0.000000 0.000000 0.003932 0.000000 0.032725
#
#
# Mechanical properties :
#
#
# Convention : Reuss Voigt Hill
#
# Bulk Modulus (GPa) = 43.80574 59.20633 51.50603
# Shear Modulus (GPa) = 23.87128 27.85598 25.86363
#
# Velocity S-wave (km/s) = 3.61249 3.90237 3.76023
# Velocity P-wave (km/s) = 6.43025 7.25754 6.85639
#
# Compressibility (1/GPa) = 0.02282806
#
# Stress axis : x y z
#
# Youngs Moduli (GPa) = 57.18133 29.57039 91.84607
#
# Poissons Ratio (x) = 0.27824 0.41519
# Poissons Ratio (y) = 0.53805 0.52837
# Poissons Ratio (z) = 0.25849 0.17011
#
# Static dielectric constant tensor:
#      x y z
#    x 3.305960 0.000000 -0.061160 
#    y 0.000000 3.154560 0.000000 
#    z -0.061160 0.000000 3.600520 
# 
# 
# High freq. dielectric constant tensor:
#      x y z
#    x 1.708740 0.000000 -0.004010 
#    y 0.000000 1.689930 0.000000 
#    z -0.004010 0.000000 1.717470 
# 
# From -- ./inp_files/55253.got.cif
#   From: 2010.06.25/outbox.cif.g09.slc.cpg/sg10_28_cif.got.tgz:55253.got - 2010.06.27 22:07:45.
