data_PCOD8061000
_publ_section_title
;
Structure prediction by ZEFSAII (Michael W. Deem and Ramdas Pophale) SiO2 
 PCOD8061000
Probable space group: P 2/M
;
_chemical_formula_sum "Si O2"
_cell_formula_units_Z 28
_cell_length_a 21.270454
_cell_length_b 7.450161
_cell_length_c 15.140182
_cell_angle_alpha 90.000000
_cell_angle_beta 32.933271
_cell_angle_gamma 90.000000
_cell_volume 1304.374875
_symmetry_space_group_name_H-M "P 2/M"
_symmetry_group_IT_number 10
_symmetry_cell_setting 'monoclinic'
loop_
_space_group_symop_operation_xyz
x,y,z
-x,y,-z
-x,-y,-z
x,-y,z
loop_
_atom_site_type_symbol
_atom_site_label
_atom_site_fract_x
_atom_site_fract_y
_atom_site_fract_z
Si Si1 0.710009 0.212730 0.168434
Si Si2 0.975450 0.500000 0.658214
Si Si3 0.404072 0.787661 0.038628
Si Si4 0.043336 0.793671 0.178604
Si Si5 0.344773 0.799973 0.579487
Si Si6 0.902461 0.289952 0.181732
Si Si7 0.792472 0.500000 0.727982
Si Si8 0.535301 0.787745 0.227965
O O1 0.652825 0.294182 0.325944
O O2 0.644591 0.276182 0.157353
O O3 0.707656 0.000000 0.180457
O O4 0.841726 0.279950 0.006046
O O5 0.978590 0.683026 0.708272
O O6 0.852453 0.500000 0.752884
O O7 0.095897 0.500000 0.465305
O O8 0.286410 0.677127 0.195696
O O9 0.373926 0.000000 0.073216
O O10 0.500000 0.744694 0.000000
O O11 0.453878 0.717381 0.885240
O O12 0.935720 0.762552 0.241482
O O13 0.056617 0.000000 0.191145
O O14 0.214403 0.813550 0.700251
O O15 0.423903 0.704411 0.411195
O O16 0.395724 0.000000 0.530068
O O17 0.881217 0.500000 0.195886
O O18 0.000000 0.218512 0.000000
O O19 0.526519 0.000000 0.231747
#
# Coordination Sequence:
#
# PCOD8061000 Si02
#       8
#     4   2   4   4   4   4   2   4
#     4   9  17  31  56  85 119 163 206 248 302 366
#     4  11  26  44  63  99 131 160 215 271 320 395
#     4  10  22  43  70  97 126 162 210 265 326 394
#     4  11  22  39  64  90 125 171 215 259 310 369
#     4  10  19  32  55  85 119 160 207 254 301 359
#     4  11  22  37  55  80 124 173 215 259 301 352
#     4  11  25  46  70  93 130 167 203 267 341 396
#     4   9  18  34  57  89 121 153 199 256 310 365
#
# _framework density 21.466221999999998
#
# number of rings (size 3 to 8) (size 9 to 14) (size 15 to 20)
#    0.000    1.857    2.143    1.929    0.000    5.714 
#    1.286    2.857    0.000    0.857    0.000    0.000 
#    0.000    0.000    0.000    0.000    0.000    0.000 
#
# Total GULP energy -347042.578033 kJ/mol
# GULP energy per Si atom -12394.377787 kJ/mol
# Density = 2.141736 g / cm^3
# Si number density = 21.466222 Si / 1000 Ang^3
#
#
#
# Elastic Constant Matrix: (Units=GPa)
#
#
# Indices 1 2 3 4 5 6 
#
# 1 166.5092 18.9155 52.0370 0.0000 7.9271 0.0000
# 2 18.9155 72.1541 16.2859 0.0000 5.0256 0.0000
# 3 52.0370 16.2859 92.9858 0.0000 1.3280 0.0000
# 4 0.0000 0.0000 0.0000 21.6973 0.0000 4.4560
# 5 7.9271 5.0256 1.3280 0.0000 30.7838 0.0000
# 6 0.0000 0.0000 0.0000 4.4560 0.0000 -5.3205
#
#
#
# Elastic Compliance Matrix: (Units=1/GPa)
#
#
# Indices 1 2 3 4 5 6 
#
# 1 0.007429 -0.000941 -0.003970 0.000000 -0.001588 0.000000
# 2 -0.000941 0.014706 -0.002020 0.000000 -0.002071 0.000000
# 3 -0.003970 -0.002020 0.013319 0.000000 0.000777 0.000000
# 4 0.000000 0.000000 0.000000 0.039325 0.000000 0.032935
# 5 -0.001588 -0.002071 0.000777 0.000000 0.033198 0.000000
# 6 0.000000 0.000000 0.000000 0.032935 0.000000 -0.160369
#
#
# Mechanical properties :
#
#
# Convention : Reuss Voigt Hill
#
# Bulk Modulus (GPa) = 46.31170 56.23621 51.27395
# Shear Modulus (GPa) = -159.56908 25.72618 -66.92145
#
# Velocity S-wave (km/s) = -8.63113 3.46562 -5.58954
# Velocity P-wave (km/s) = 8.81518 6.50142 4.20945
#
# Compressibility (1/GPa) = 0.02159282
#
# Stress axis : x y z
#
# Youngs Moduli (GPa) = 134.61102 67.99956 75.08312
#
# Poissons Ratio (x) = 0.06398 0.29807
# Poissons Ratio (y) = 0.12665 0.15164
# Poissons Ratio (z) = 0.53439 0.13733
#
# Static dielectric constant tensor:
#      x y z
#    x 4.032660 0.000000 0.092580 
#    y 0.000000 3.603410 0.000000 
#    z 0.092580 0.000000 3.990860 
# 
# 
# High freq. dielectric constant tensor:
#      x y z
#    x 1.851470 0.000000 -0.002230 
#    y 0.000000 1.827570 0.000000 
#    z -0.002230 0.000000 1.840390 
# 
# From -- ./inp_files/70233.got.cif
#   From: 2010.06.25/outbox.cif.g09.slc.cpg/sg10_36_cif.got.tgz:70233.got - 2010.06.27 22:07:45.
