data_PCOD8061969
_publ_section_title
;
Structure prediction by ZEFSAII (Michael W. Deem and Ramdas Pophale) SiO2 
 PCOD8061969
Probable space group: P 2/M
;
_chemical_formula_sum "Si O2"
_cell_formula_units_Z 32
_cell_length_a 14.178976
_cell_length_b 8.705026
_cell_length_c 14.202492
_cell_angle_alpha 90.000000
_cell_angle_beta 86.519884
_cell_angle_gamma 90.000000
_cell_volume 1749.757575
_symmetry_space_group_name_H-M "P 2/M"
_symmetry_group_IT_number 10
_symmetry_cell_setting 'monoclinic'
loop_
_space_group_symop_operation_xyz
x,y,z
-x,y,-z
-x,-y,-z
x,-y,z
loop_
_atom_site_type_symbol
_atom_site_label
_atom_site_fract_x
_atom_site_fract_y
_atom_site_fract_z
Si Si1 0.799568 0.681735 0.661347
Si Si2 0.864923 0.821711 0.273580
Si Si3 0.664380 0.180566 0.807961
Si Si4 0.712420 0.178043 0.136077
Si Si5 0.048676 0.677720 0.197166
Si Si6 0.893284 0.818484 0.481358
Si Si7 0.484805 0.679419 0.892753
Si Si8 0.795929 0.678884 0.955734
O O1 0.784846 0.500000 0.668955
O O2 0.704721 0.765062 0.704470
O O3 0.819871 0.733515 0.554108
O O4 0.886453 0.739037 0.721172
O O5 0.763883 0.786411 0.232177
O O6 0.947741 0.757530 0.202674
O O7 0.868768 0.754068 0.378904
O O8 0.884468 0.000000 0.279743
O O9 0.554010 0.223081 0.821374
O O10 0.715258 0.274954 0.887161
O O11 0.679855 0.000000 0.820551
O O12 0.620870 0.283471 0.133551
O O13 0.684046 0.000000 0.129339
O O14 0.786583 0.220104 0.049651
O O15 0.030339 0.500000 0.213022
O O16 0.101028 0.710534 0.095050
O O17 0.000000 0.770637 0.500000
O O18 0.878334 0.000000 0.491869
O O19 0.504587 0.500000 0.877955
O O20 0.500000 0.729617 0.000000
O O21 0.781956 0.500000 0.980892
#
# Coordination Sequence:
#
# PCOD8061969 Si02
#       8
#     4   4   4   4   4   4   4   4
#     4  10  20  34  54  83 115 144 181 228 275 325
#     4  10  22  37  53  78 112 146 185 232 274 322
#     4  11  21  34  57  85 112 142 179 224 275 328
#     4  11  23  37  54  79 110 147 187 226 274 328
#     4   9  19  33  51  75 107 146 185 223 268 323
#     4  10  19  34  57  82 109 145 188 230 276 324
#     4  11  22  37  59  83 110 142 180 228 276 322
#     4  10  20  35  52  77 111 147 186 227 269 319
#
# _framework density 18.288247999999999
#
# number of rings (size 3 to 8) (size 9 to 14) (size 15 to 20)
#    0.000    1.750    2.500    3.375    0.000    5.250 
#    0.000    2.500    0.000    0.750    0.000    5.250 
#    0.000    0.000    0.000    0.000    0.000    0.000 
#
# Total GULP energy -396884.794028 kJ/mol
# GULP energy per Si atom -12402.649813 kJ/mol
# Density = 1.824662 g / cm^3
# Si number density = 18.288248 Si / 1000 Ang^3
#
#
#
# Elastic Constant Matrix: (Units=GPa)
#
#
# Indices 1 2 3 4 5 6 
#
# 1 92.0510 32.5950 45.7569 0.0000 -9.9297 0.0000
# 2 32.5950 48.0027 23.4218 0.0000 -3.7546 0.0000
# 3 45.7569 23.4218 94.4057 0.0000 -7.0521 0.0000
# 4 0.0000 0.0000 0.0000 25.6695 0.0000 -7.8902
# 5 -9.9297 -3.7546 -7.0521 0.0000 27.3139 0.0000
# 6 0.0000 0.0000 0.0000 -7.8902 0.0000 28.9957
#
#
#
# Elastic Compliance Matrix: (Units=1/GPa)
#
#
# Indices 1 2 3 4 5 6 
#
# 1 0.017228 -0.008505 -0.005975 0.000000 0.003551 0.000000
# 2 -0.008505 0.027985 -0.002819 0.000000 0.000027 0.000000
# 3 -0.005975 -0.002819 0.014272 0.000000 0.001125 0.000000
# 4 0.000000 0.000000 0.000000 0.042513 0.000000 0.011568
# 5 0.003551 0.000027 0.001125 0.000000 0.038197 0.000000
# 6 0.000000 0.000000 0.000000 0.011568 0.000000 0.037636
#
#
# Mechanical properties :
#
#
# Convention : Reuss Voigt Hill
#
# Bulk Modulus (GPa) = 40.18081 48.66743 44.42412
# Shear Modulus (GPa) = 22.65277 25.24154 23.94715
#
# Velocity S-wave (km/s) = 3.52327 3.71914 3.62253
# Velocity P-wave (km/s) = 6.21045 6.71653 6.46844
#
# Compressibility (1/GPa) = 0.02488750
#
# Stress axis : x y z
#
# Youngs Moduli (GPa) = 58.04384 35.73357 70.06818
#
# Poissons Ratio (x) = 0.30393 0.41865
# Poissons Ratio (y) = 0.49369 0.19749
# Poissons Ratio (z) = 0.34680 0.10072
#
# Static dielectric constant tensor:
#      x y z
#    x 3.287280 0.000000 -0.169300 
#    y 0.000000 3.297320 0.000000 
#    z -0.169300 0.000000 3.466670 
# 
# 
# High freq. dielectric constant tensor:
#      x y z
#    x 1.696480 0.000000 -0.016840 
#    y 0.000000 1.713700 0.000000 
#    z -0.016840 0.000000 1.696100 
# 
# From -- ./inp_files/63837.got.cif
#   From: 2010.06.25/outbox.cif.g09.slc.cpg/sg10_32_cif.got.tgz:63837.got - 2010.06.27 22:07:45.
