data_PCOD8061517
_publ_section_title
;
Structure prediction by ZEFSAII (Michael W. Deem and Ramdas Pophale) SiO2 
 PCOD8061517
Probable space group: P 2/M
;
_chemical_formula_sum "Si O2"
_cell_formula_units_Z 32
_cell_length_a 23.990838
_cell_length_b 8.908052
_cell_length_c 14.435326
_cell_angle_alpha 90.000000
_cell_angle_beta 147.474753
_cell_angle_gamma 90.000000
_cell_volume 1658.714056
_symmetry_space_group_name_H-M "P 2/M"
_symmetry_group_IT_number 10
_symmetry_cell_setting 'monoclinic'
loop_
_space_group_symop_operation_xyz
x,y,z
-x,y,-z
-x,-y,-z
x,-y,z
loop_
_atom_site_type_symbol
_atom_site_label
_atom_site_fract_x
_atom_site_fract_y
_atom_site_fract_z
Si Si1 0.540514 0.178165 0.816933
Si Si2 0.099972 0.323269 0.695923
Si Si3 0.805396 0.821232 0.481130
Si Si4 0.696994 0.178200 0.515417
Si Si5 0.596677 0.178490 0.693154
Si Si6 0.959764 0.823363 0.202591
Si Si7 0.712475 0.677547 0.171745
Si Si8 0.780023 0.822637 0.824464
O O1 0.421662 0.232530 0.654538
O O2 0.589893 0.234496 0.789360
O O3 0.549393 0.000000 0.842015
O O4 0.601517 0.259260 0.985073
O O5 0.095251 0.500000 0.703595
O O6 0.201378 0.272237 0.782073
O O7 0.000000 0.265108 0.500000
O O8 0.101701 0.247015 0.798006
O O9 0.758036 0.763033 0.511293
O O10 0.923586 0.761482 0.641990
O O11 0.738493 0.748770 0.306633
O O12 0.800192 0.000000 0.465393
O O13 0.753912 0.245302 0.686696
O O14 0.700344 0.000000 0.523735
O O15 0.500000 0.243127 0.500000
O O16 0.700549 0.240799 0.790407
O O17 0.592494 0.000000 0.686824
O O18 0.960531 0.000000 0.218927
O O19 0.896586 0.780967 0.020260
O O20 0.708034 0.500000 0.176408
O O21 0.765066 0.000000 0.798127
#
# Coordination Sequence:
#
# PCOD8061517 Si02
#       8
#     4   4   4   4   4   4   4   4
#     4  10  19  33  56  82 107 138 176 217 258 308
#     4  10  20  36  56  76 103 141 176 208 261 329
#     4  10  21  36  53  77 107 140 180 221 260 303
#     4   9  18  33  53  77 108 144 177 212 258 313
#     4   9  14  24  47  79 108 133 165 208 257 308
#     4  10  20  32  53  84 111 135 170 221 265 301
#     4  11  23  38  56  77 104 139 175 217 269 318
#     4   9  16  28  48  79 112 137 167 210 263 314
#
# _framework density 19.292055000000001
#
# number of rings (size 3 to 8) (size 9 to 14) (size 15 to 20)
#    0.000    2.250    2.500    1.125    0.000    3.250 
#    0.000    5.625    0.000    1.875    0.000    1.750 
#    0.000    0.000    0.000    0.000    0.000    0.000 
#
# Total GULP energy -396786.800225 kJ/mol
# GULP energy per Si atom -12399.587507 kJ/mol
# Density = 1.924815 g / cm^3
# Si number density = 19.292055 Si / 1000 Ang^3
#
#
#
# Elastic Constant Matrix: (Units=GPa)
#
#
# Indices 1 2 3 4 5 6 
#
# 1 139.9445 19.6689 59.9123 0.0000 -19.0994 0.0000
# 2 19.6689 19.3463 19.5783 0.0000 -5.6811 0.0000
# 3 59.9123 19.5783 141.9220 0.0000 -26.1222 0.0000
# 4 0.0000 0.0000 0.0000 5.3810 0.0000 6.9599
# 5 -19.0994 -5.6811 -26.1222 0.0000 23.2069 0.0000
# 6 0.0000 0.0000 0.0000 6.9599 0.0000 8.9553
#
#
#
# Elastic Compliance Matrix: (Units=1/GPa)
#
#
# Indices 1 2 3 4 5 6 
#
# 1 0.009578 -0.006124 -0.002552 0.000000 0.003511 0.000000
# 2 -0.006124 0.064851 -0.005508 0.000000 0.004636 0.000000
# 3 -0.002552 -0.005508 0.010404 0.000000 0.008262 0.000000
# 4 0.000000 0.000000 0.000000-35.468390 0.000000 27.565645
# 5 0.003511 0.004636 0.008262 0.000000 0.056415 0.000000
# 6 0.000000 0.000000 0.000000 27.565645 0.000000-21.312051
#
#
# Mechanical properties :
#
#
# Convention : Reuss Voigt Hill
#
# Bulk Modulus (GPa) = 17.71016 55.50353 36.60684
# Shear Modulus (GPa) = -0.08835 20.97887 10.44526
#
# Velocity S-wave (km/s) = -0.21423 3.30121 2.32938
# Velocity P-wave (km/s) = 3.02304 6.58508 5.12357
#
# Compressibility (1/GPa) = 0.05646477
#
# Stress axis : x y z
#
# Youngs Moduli (GPa) = 104.40282 15.42008 96.11524
#
# Poissons Ratio (x) = 0.09443 0.24533
# Poissons Ratio (y) = 0.63936 0.52937
# Poissons Ratio (z) = 0.26649 0.08493
#
# Static dielectric constant tensor:
#      x y z
#    x 3.671790 0.000000 -0.002410 
#    y 0.000000 2.971380 0.000000 
#    z -0.002410 0.000000 3.721680 
# 
# 
# High freq. dielectric constant tensor:
#      x y z
#    x 1.751880 0.000000 -0.003830 
#    y 0.000000 1.696390 0.000000 
#    z -0.003830 0.000000 1.768630 
# 
# From -- ./inp_files/71582.got.cif
#   From: 2010.06.25/outbox.cif.g09.slc.cpg/sg10_36_cif.got.tgz:71582.got - 2010.06.27 22:07:45.
