data_PCOD8061846
_publ_section_title
;
Structure prediction by ZEFSAII (Michael W. Deem and Ramdas Pophale) SiO2 
 PCOD8061846
Probable space group: P 2/M
;
_chemical_formula_sum "Si O2"
_cell_formula_units_Z 28
_cell_length_a 17.670731
_cell_length_b 8.839525
_cell_length_c 15.361739
_cell_angle_alpha 90.000000
_cell_angle_beta 141.771937
_cell_angle_gamma 90.000000
_cell_volume 1484.804852
_symmetry_space_group_name_H-M "P 2/M"
_symmetry_group_IT_number 10
_symmetry_cell_setting 'monoclinic'
loop_
_space_group_symop_operation_xyz
x,y,z
-x,y,-z
-x,-y,-z
x,-y,z
loop_
_atom_site_type_symbol
_atom_site_label
_atom_site_fract_x
_atom_site_fract_y
_atom_site_fract_z
Si Si1 0.597096 0.322500 0.849839
Si Si2 0.025221 0.322745 0.650933
Si Si3 0.155741 0.829150 0.912062
Si Si4 0.866745 0.172004 0.904261
Si Si5 0.169113 0.172255 0.636742
Si Si6 0.549140 0.172814 0.136485
Si Si7 0.389403 0.321712 0.337877
O O1 0.619720 0.500000 0.876646
O O2 0.487045 0.272995 0.812806
O O3 0.574445 0.275761 0.728443
O O4 0.712926 0.236771 0.994148
O O5 0.002642 0.500000 0.623787
O O6 0.052055 0.273419 0.773800
O O7 0.140249 0.273554 0.695219
O O8 0.905204 0.234958 0.512389
O O9 0.147457 0.000000 0.869510
O O10 0.135804 0.819056 0.995411
O O11 0.744793 0.255160 0.756765
O O12 0.860941 0.000000 0.864325
O O13 0.000000 0.244186 0.000000
O O14 0.307284 0.185435 0.735221
O O15 0.131358 0.000000 0.622792
O O16 0.503773 0.000000 0.108097
O O17 0.500000 0.237471 0.000000
O O18 0.500000 0.261116 0.500000
O O19 0.376728 0.500000 0.337107
#
# Coordination Sequence:
#
# PCOD8061846 Si02
#       7
#     4   4   4   4   4   4   4
#     4  10  20  34  55  81 109 140 180 224 265 317
#     4  11  21  34  53  77 105 137 178 222 265 314
#     4  10  19  34  56  77 105 140 176 217 267 323
#     4   9  19  36  57  83 111 138 180 234 278 324
#     4  10  20  35  54  75 105 143 179 216 264 317
#     4  10  21  36  54  77 106 141 179 218 265 318
#     4   9  19  37  58  81 113 150 185 222 275 340
#
# _framework density 18.857696000000001
#
# number of rings (size 3 to 8) (size 9 to 14) (size 15 to 20)
#    0.000    2.143    0.000    4.286    0.000    4.286 
#    2.571    0.000    0.000    0.000    0.000    0.000 
#    0.000    0.000    0.000    0.000    0.000    0.000 
#
# Total GULP energy -347112.568325 kJ/mol
# GULP energy per Si atom -12396.877440 kJ/mol
# Density = 1.881478 g / cm^3
# Si number density = 18.857696 Si / 1000 Ang^3
#
#
#
# Elastic Constant Matrix: (Units=GPa)
#
#
# Indices 1 2 3 4 5 6 
#
# 1 75.8890 32.5995 46.5536 0.0000 18.3282 0.0000
# 2 32.5995 55.2899 32.4695 0.0000 7.4880 0.0000
# 3 46.5536 32.4695 118.7926 0.0000 6.2877 0.0000
# 4 0.0000 0.0000 0.0000 25.4630 0.0000 -3.8083
# 5 18.3282 7.4880 6.2877 0.0000 24.8515 0.0000
# 6 0.0000 0.0000 0.0000 -3.8083 0.0000 21.0267
#
#
#
# Elastic Compliance Matrix: (Units=1/GPa)
#
#
# Indices 1 2 3 4 5 6 
#
# 1 0.024040 -0.008612 -0.006351 0.000000 -0.013528 0.000000
# 2 -0.008612 0.025279 -0.003515 0.000000 -0.000376 0.000000
# 3 -0.006351 -0.003515 0.011721 0.000000 0.002777 0.000000
# 4 0.000000 0.000000 0.000000 0.040366 0.000000 0.007311
# 5 -0.013528 -0.000376 0.002777 0.000000 0.049626 0.000000
# 6 0.000000 0.000000 0.000000 0.007311 0.000000 0.048883
#
#
# Mechanical properties :
#
#
# Convention : Reuss Voigt Hill
#
# Bulk Modulus (GPa) = 41.52153 52.57963 47.05058
# Shear Modulus (GPa) = 20.41661 23.49150 21.95405
#
# Velocity S-wave (km/s) = 3.29396 3.53331 3.41573
# Velocity P-wave (km/s) = 6.04426 6.67747 6.36874
#
# Compressibility (1/GPa) = 0.02408389
#
# Stress axis : x y z
#
# Youngs Moduli (GPa) = 41.59766 39.55797 85.32056
#
# Poissons Ratio (x) = 0.34069 0.54186
# Poissons Ratio (y) = 0.35826 0.29986
# Poissons Ratio (z) = 0.26418 0.13903
#
# Static dielectric constant tensor:
#      x y z
#    x 3.360340 0.000000 0.048330 
#    y 0.000000 3.579980 0.000000 
#    z 0.048330 0.000000 3.632440 
# 
# 
# High freq. dielectric constant tensor:
#      x y z
#    x 1.721830 0.000000 0.002790 
#    y 0.000000 1.732770 0.000000 
#    z 0.002790 0.000000 1.739370 
# 
# From -- ./inp_files/68678.got.cif
#   From: 2010.06.25/outbox.cif.g09.slc.cpg/sg10_35_cif.got.tgz:68678.got - 2010.06.27 22:07:45.
