data_PCOD8061216
_publ_section_title
;
Structure prediction by ZEFSAII (Michael W. Deem and Ramdas Pophale) SiO2 
 PCOD8061216
Probable space group: P 2/M
;
_chemical_formula_sum "Si O2"
_cell_formula_units_Z 32
_cell_length_a 16.979229
_cell_length_b 9.022953
_cell_length_c 25.853655
_cell_angle_alpha 90.000000
_cell_angle_beta 155.185825
_cell_angle_gamma 90.000000
_cell_volume 1662.277096
_symmetry_space_group_name_H-M "P 2/M"
_symmetry_group_IT_number 10
_symmetry_cell_setting 'monoclinic'
loop_
_space_group_symop_operation_xyz
x,y,z
-x,y,-z
-x,-y,-z
x,-y,z
loop_
_atom_site_type_symbol
_atom_site_label
_atom_site_fract_x
_atom_site_fract_y
_atom_site_fract_z
Si Si1 0.248264 0.325461 0.529964
Si Si2 0.176564 0.324048 0.895061
Si Si3 0.876060 0.675448 0.252082
Si Si4 0.655871 0.673711 0.735509
Si Si5 0.936804 0.826058 0.836564
Si Si6 0.238478 0.831942 0.101989
Si Si7 0.404836 0.675147 0.827948
Si Si8 0.651743 0.830325 0.308923
O O1 0.240788 0.500000 0.535861
O O2 0.438385 0.281379 0.613098
O O3 0.233493 0.246742 0.576663
O O4 0.075791 0.267995 0.392630
O O5 0.152316 0.500000 0.883389
O O6 0.157510 0.262631 0.825359
O O7 0.010758 0.248786 0.828507
O O8 0.379301 0.275016 0.037508
O O9 0.876187 0.500000 0.249974
O O10 0.707332 0.729589 0.188260
O O11 0.682084 0.500000 0.743393
O O12 0.772280 0.724681 0.855283
O O13 0.735127 0.757151 0.731978
O O14 0.917416 0.000000 0.815628
O O15 0.077108 0.785384 0.966514
O O16 0.431644 0.813139 0.187105
O O17 0.212089 0.000000 0.106377
O O18 0.388865 0.500000 0.811118
O O19 0.305510 0.751036 0.719752
O O20 0.716004 0.000000 0.343837
#
# Coordination Sequence:
#
# PCOD8061216 Si02
#       8
#     4   4   4   4   4   4   4   4
#     4   9  19  37  57  77 107 144 183 221 262 315
#     4  10  20  35  57  83 109 136 177 228 269 312
#     4   9  19  37  59  80 104 141 182 223 271 318
#     4  10  20  32  51  79 105 135 178 223 262 307
#     4  11  21  34  52  76 108 144 176 211 267 328
#     4   9  18  32  49  72 106 144 173 205 262 326
#     4  10  19  33  57  85 110 136 174 222 273 323
#     4  10  19  33  53  79 113 146 176 216 265 317
#
# _framework density 19.250702
#
# number of rings (size 3 to 8) (size 9 to 14) (size 15 to 20)
#    0.000    2.250    1.250    1.875    0.000    5.500 
#    0.000    5.000    0.000    5.250    0.000    0.000 
#    0.000    0.000    0.000    0.000    0.000    0.000 
#
# Total GULP energy -396854.813740 kJ/mol
# GULP energy per Si atom -12401.712929 kJ/mol
# Density = 1.920689 g / cm^3
# Si number density = 19.250702 Si / 1000 Ang^3
#
#
#
# Elastic Constant Matrix: (Units=GPa)
#
#
# Indices 1 2 3 4 5 6 
#
# 1 147.4176 48.0622 44.4063 0.0000 -1.0753 0.0000
# 2 48.0622 56.9578 27.9000 0.0000 -5.2922 0.0000
# 3 44.4063 27.9000 69.5099 0.0000 -11.9280 0.0000
# 4 0.0000 0.0000 0.0000 13.9934 0.0000 2.3395
# 5 -1.0753 -5.2922 -11.9280 0.0000 14.0628 0.0000
# 6 0.0000 0.0000 0.0000 2.3395 0.0000 9.4013
#
#
#
# Elastic Compliance Matrix: (Units=1/GPa)
#
#
# Indices 1 2 3 4 5 6 
#
# 1 0.010512 -0.007013 -0.004934 0.000000 -0.006020 0.000000
# 2 -0.007013 0.026542 -0.005327 0.000000 0.004934 0.000000
# 3 -0.004934 -0.005327 0.022550 0.000000 0.016745 0.000000
# 4 0.000000 0.000000 0.000000 0.074564 0.000000 -0.018555
# 5 -0.006020 0.004934 0.016745 0.000000 0.086709 0.000000
# 6 0.000000 0.000000 0.000000 -0.018555 0.000000 0.110986
#
#
# Mechanical properties :
#
#
# Convention : Reuss Voigt Hill
#
# Bulk Modulus (GPa) = 39.90851 57.18026 48.54438
# Shear Modulus (GPa) = 13.34175 17.72595 15.53385
#
# Velocity S-wave (km/s) = 2.63545 3.03775 2.84372
# Velocity P-wave (km/s) = 5.48058 6.48624 6.00450
#
# Compressibility (1/GPa) = 0.02505731
#
# Stress axis : x y z
#
# Youngs Moduli (GPa) = 95.12766 37.67586 44.34608
#
# Poissons Ratio (x) = 0.26422 0.21880
# Poissons Ratio (y) = 0.66713 0.23621
# Poissons Ratio (z) = 0.46935 0.20068
#
# Static dielectric constant tensor:
#      x y z
#    x 3.634710 0.000000 0.064430 
#    y 0.000000 3.319070 0.000000 
#    z 0.064430 0.000000 3.491090 
# 
# 
# High freq. dielectric constant tensor:
#      x y z
#    x 1.757690 0.000000 0.009330 
#    y 0.000000 1.731450 0.000000 
#    z 0.009330 0.000000 1.735770 
# 
# From -- ./inp_files/71444.got.cif
#   From: 2010.06.25/outbox.cif.g09.slc.cpg/sg10_36_cif.got.tgz:71444.got - 2010.06.27 22:07:45.
