data_PCOD8061496
_publ_section_title
;
Structure prediction by ZEFSAII (Michael W. Deem and Ramdas Pophale) SiO2 
 PCOD8061496
Probable space group: P 2/M
;
_chemical_formula_sum "Si O2"
_cell_formula_units_Z 32
_cell_length_a 21.615718
_cell_length_b 9.074869
_cell_length_c 27.903654
_cell_angle_alpha 90.000000
_cell_angle_beta 18.785931
_cell_angle_gamma 90.000000
_cell_volume 1762.673210
_symmetry_space_group_name_H-M "P 2/M"
_symmetry_group_IT_number 10
_symmetry_cell_setting 'monoclinic'
loop_
_space_group_symop_operation_xyz
x,y,z
-x,y,-z
-x,-y,-z
x,-y,z
loop_
_atom_site_type_symbol
_atom_site_label
_atom_site_fract_x
_atom_site_fract_y
_atom_site_fract_z
Si Si1 0.274413 0.669318 0.874854
Si Si2 0.202878 0.168753 0.088344
Si Si3 0.781259 0.824895 0.659131
Si Si4 0.486261 0.330322 0.813769
Si Si5 0.501442 0.171139 0.946315
Si Si6 0.590031 0.672838 0.329622
Si Si7 0.884402 0.172617 0.184003
Si Si8 0.213964 0.830743 0.635096
O O1 0.203861 0.500000 0.926695
O O2 0.446972 0.692402 0.786194
O O3 0.354418 0.716836 0.764855
O O4 0.096919 0.771908 0.017762
O O5 0.976262 0.198398 0.257058
O O6 0.244038 0.000000 0.042282
O O7 0.298245 0.273846 0.979351
O O8 0.294755 0.199177 0.073202
O O9 0.677027 0.758736 0.688780
O O10 0.670465 0.766009 0.787965
O O11 0.000000 0.769067 0.500000
O O12 0.769093 0.000000 0.664043
O O13 0.518665 0.500000 0.803056
O O14 0.544655 0.000000 0.921591
O O15 0.500000 0.247949 0.000000
O O16 0.603428 0.500000 0.328553
O O17 0.733031 0.750971 0.260777
O O18 0.374274 0.724511 0.496802
O O19 0.828296 0.211388 0.279241
O O20 0.878221 0.000000 0.178824
O O21 0.281728 0.000000 0.581385
#
# Coordination Sequence:
#
# PCOD8061496 Si02
#       8
#     4   4   4   4   4   4   4   4
#     4  10  22  39  56  78 109 144 182 222 265 320
#     4   9  17  33  55  78 106 139 176 219 263 307
#     4   9  18  33  52  77 107 137 173 216 260 307
#     4  10  19  33  56  80 104 139 182 218 257 310
#     4   8  14  27  50  76 102 132 168 208 252 304
#     4  11  24  39  54  77 111 145 178 219 271 324
#     4  11  22  37  60  83 105 136 179 226 272 321
#     4  10  21  37  55  80 110 139 178 226 271 316
#
# _framework density 18.154243999999998
#
# number of rings (size 3 to 8) (size 9 to 14) (size 15 to 20)
#    0.000    2.250    1.250    2.625    0.000    6.250 
#    2.250    0.000    0.000    6.000    0.000    0.000 
#    0.000    0.000    0.000    0.000    0.000    0.000 
#
# Total GULP energy -396807.599863 kJ/mol
# GULP energy per Si atom -12400.237496 kJ/mol
# Density = 1.811292 g / cm^3
# Si number density = 18.154244 Si / 1000 Ang^3
#
#
#
# Elastic Constant Matrix: (Units=GPa)
#
#
# Indices 1 2 3 4 5 6 
#
# 1 83.8786 12.4011 35.4964 0.0000 -16.0437 0.0000
# 2 12.4011 41.8683 28.0343 0.0000 -5.6946 0.0000
# 3 35.4964 28.0343 94.2339 0.0000 -14.4283 0.0000
# 4 0.0000 0.0000 0.0000 24.2814 0.0000 2.0241
# 5 -16.0437 -5.6946 -14.4283 0.0000 27.1697 0.0000
# 6 0.0000 0.0000 0.0000 2.0241 0.0000 27.7749
#
#
#
# Elastic Compliance Matrix: (Units=1/GPa)
#
#
# Indices 1 2 3 4 5 6 
#
# 1 0.015162 -0.000564 -0.004562 0.000000 0.006413 0.000000
# 2 -0.000564 0.029917 -0.008467 0.000000 0.001441 0.000000
# 3 -0.004562 -0.008467 0.015419 0.000000 0.003720 0.000000
# 4 0.000000 0.000000 0.000000 0.041435 0.000000 -0.003020
# 5 0.006413 0.001441 0.003720 0.000000 0.042870 0.000000
# 6 0.000000 0.000000 0.000000 -0.003020 0.000000 0.036224
#
#
# Mechanical properties :
#
#
# Convention : Reuss Voigt Hill
#
# Bulk Modulus (GPa) = 30.01932 41.31604 35.66768
# Shear Modulus (GPa) = 22.79805 25.44847 24.12326
#
# Velocity S-wave (km/s) = 3.54757 3.74811 3.64922
# Velocity P-wave (km/s) = 5.77511 6.44507 6.11926
#
# Compressibility (1/GPa) = 0.03331188
#
# Stress axis : x y z
#
# Youngs Moduli (GPa) = 65.95230 33.42594 64.85657
#
# Poissons Ratio (x) = 0.01886 0.29586
# Poissons Ratio (y) = 0.03722 0.54914
# Poissons Ratio (z) = 0.30086 0.28302
#
# Static dielectric constant tensor:
#      x y z
#    x 3.591920 0.000000 -0.064590 
#    y 0.000000 3.269500 0.000000 
#    z -0.064590 0.000000 3.361350 
# 
# 
# High freq. dielectric constant tensor:
#      x y z
#    x 1.713480 0.000000 -0.010540 
#    y 0.000000 1.692310 0.000000 
#    z -0.010540 0.000000 1.696510 
# 
# From -- ./inp_files/87075.got.cif
#   From: 2010.06.25/outbox.cif.g09.slc.cpg/sg10_44_cif.got.tgz:87075.got - 2010.06.27 22:07:45.
