data_PCOD8061813
_publ_section_title
;
Structure prediction by ZEFSAII (Michael W. Deem and Ramdas Pophale) SiO2 
 PCOD8061813
Probable space group: P 2/M
;
_chemical_formula_sum "Si O2"
_cell_formula_units_Z 28
_cell_length_a 15.135139
_cell_length_b 21.469323
_cell_length_c 8.891964
_cell_angle_alpha 90.000000
_cell_angle_beta 30.456724
_cell_angle_gamma 90.000000
_cell_volume 1464.582951
_symmetry_space_group_name_H-M "P 2/M"
_symmetry_group_IT_number 10
_symmetry_cell_setting 'monoclinic'
loop_
_space_group_symop_operation_xyz
x,y,z
-x,y,-z
-x,-y,-z
x,-y,z
loop_
_atom_site_type_symbol
_atom_site_label
_atom_site_fract_x
_atom_site_fract_y
_atom_site_fract_z
Si Si1 0.344570 0.371797 0.333494
Si Si2 0.979610 0.626778 0.698433
Si Si3 0.418509 0.500000 0.382713
Si Si4 0.473300 0.068363 0.360357
Si Si5 0.848437 0.072251 0.833597
Si Si6 0.826090 0.847314 0.160323
Si Si7 0.780996 0.500000 0.020765
Si Si8 0.180630 0.293115 0.821669
O O1 0.166266 0.374462 0.503299
O O2 0.393454 0.440327 0.316032
O O3 0.326654 0.326294 0.504068
O O4 0.500000 0.345973 0.000000
O O5 0.000000 0.653243 0.500000
O O6 0.900156 0.558420 0.808647
O O7 0.842677 0.670363 0.987694
O O8 0.612182 0.500000 0.163804
O O9 0.272276 0.500000 0.726490
O O10 0.500000 0.070094 0.500000
O O11 0.329263 0.118245 0.520096
O O12 0.409536 0.000000 0.401487
O O13 0.665564 0.083297 0.012643
O O14 0.000000 0.091694 0.500000
O O15 0.862210 0.000000 0.865800
O O16 0.866110 0.117090 0.948828
O O17 0.761293 0.777103 0.224961
O O18 0.000000 0.848095 0.000000
O O19 0.000000 0.293112 0.000000
#
# Coordination Sequence:
#
# PCOD8061813 Si02
#       8
#     4   4   2   4   4   4   2   4
#     4  11  22  40  61  82 110 148 185 225 288 339
#     4  11  22  39  60  82 110 146 187 228 276 335
#     4  11  22  37  60  88 114 140 180 233 285 335
#     4   8  15  30  51  76 106 140 177 215 264 323
#     4   9  18  34  55  80 111 145 182 226 277 329
#     4  10  19  34  55  80 108 143 186 228 271 325
#     4  11  22  37  58  88 114 138 182 233 275 331
#     4   9  21  39  56  77 112 150 186 226 279 335
#
# _framework density 19.118072000000002
#
# number of rings (size 3 to 8) (size 9 to 14) (size 15 to 20)
#    0.000    2.143    1.429    3.000    0.000    2.286 
#    0.000   13.571    0.000    2.571    0.000    0.000 
#    0.000    0.000    0.000    0.000    0.000    0.000 
#
# Total GULP energy -347161.184388 kJ/mol
# GULP energy per Si atom -12398.613728 kJ/mol
# Density = 1.907456 g / cm^3
# Si number density = 19.118072 Si / 1000 Ang^3
#
#
#
# Elastic Constant Matrix: (Units=GPa)
#
#
# Indices 1 2 3 4 5 6 
#
# 1 71.9528 44.9454 42.7618 0.0000 7.0168 0.0000
# 2 44.9454 151.0134 68.7249 0.0000 6.6422 0.0000
# 3 42.7618 68.7249 156.3480 0.0000 8.8619 0.0000
# 4 0.0000 0.0000 0.0000 6.1280 0.0000 7.9015
# 5 7.0168 6.6422 8.8619 0.0000 33.4587 0.0000
# 6 0.0000 0.0000 0.0000 7.9015 0.0000 4.2429
#
#
#
# Elastic Compliance Matrix: (Units=1/GPa)
#
#
# Indices 1 2 3 4 5 6 
#
# 1 0.018480 -0.003949 -0.003191 0.000000 -0.002246 0.000000
# 2 -0.003949 0.009137 -0.002924 0.000000 -0.000211 0.000000
# 3 -0.003191 -0.002924 0.008613 0.000000 -0.001031 0.000000
# 4 0.000000 0.000000 0.000000 -0.116459 0.000000 0.216879
# 5 -0.002246 -0.000211 -0.001031 0.000000 0.030674 0.000000
# 6 0.000000 0.000000 0.000000 0.216879 0.000000 -0.168201
#
#
# Mechanical properties :
#
#
# Convention : Reuss Voigt Hill
#
# Bulk Modulus (GPa) = 62.10773 76.90871 69.50822
# Shear Modulus (GPa) = -26.00665 23.62473 -1.19096
#
# Velocity S-wave (km/s) = -3.69225 3.51911 -0.79013
# Velocity P-wave (km/s) = 3.79209 7.53842 5.96690
#
# Compressibility (1/GPa) = 0.01610105
#
# Stress axis : x y z
#
# Youngs Moduli (GPa) = 54.11112 109.43969 116.10701
#
# Poissons Ratio (x) = 0.43219 0.37053
# Poissons Ratio (y) = 0.21369 0.33955
# Poissons Ratio (z) = 0.17268 0.32005
#
# Static dielectric constant tensor:
#      x y z
#    x 3.305760 0.000000 -0.052520 
#    y 0.000000 3.641120 0.000000 
#    z -0.052520 0.000000 4.000910 
# 
# 
# High freq. dielectric constant tensor:
#      x y z
#    x 1.721560 0.000000 -0.005500 
#    y 0.000000 1.742420 0.000000 
#    z -0.005500 0.000000 1.758080 
# 
# From -- ./inp_files/30449.got.cif
#   From: 2010.06.25/outbox.cif.g09.slc.cpg/sg10_16_cif.got.tgz:30449.got - 2010.06.27 22:07:45.
