data_PCOD8061383
_publ_section_title
;
Structure prediction by ZEFSAII (Michael W. Deem and Ramdas Pophale) SiO2 
 PCOD8061383
Probable space group: P 2/M
;
_chemical_formula_sum "Si O2"
_cell_formula_units_Z 32
_cell_length_a 24.354573
_cell_length_b 8.953757
_cell_length_c 19.563064
_cell_angle_alpha 90.000000
_cell_angle_beta 24.103265
_cell_angle_gamma 90.000000
_cell_volume 1742.167062
_symmetry_space_group_name_H-M "P 2/M"
_symmetry_group_IT_number 10
_symmetry_cell_setting 'monoclinic'
loop_
_space_group_symop_operation_xyz
x,y,z
-x,y,-z
-x,-y,-z
x,-y,z
loop_
_atom_site_type_symbol
_atom_site_label
_atom_site_fract_x
_atom_site_fract_y
_atom_site_fract_z
Si Si1 0.997254 0.825302 0.292095
Si Si2 0.553226 0.677042 0.367668
Si Si3 0.676215 0.327537 0.472906
Si Si4 0.950783 0.827710 0.132248
Si Si5 0.153922 0.322946 0.003776
Si Si6 0.732807 0.670403 0.558776
Si Si7 0.090202 0.824061 0.459927
Si Si8 0.639284 0.325348 0.811925
O O1 0.860925 0.778109 0.408304
O O2 0.987037 0.777994 0.382954
O O3 0.018501 0.000000 0.258986
O O4 0.122373 0.740915 0.115186
O O5 0.500000 0.743620 0.500000
O O6 0.560341 0.500000 0.364372
O O7 0.455354 0.727871 0.417753
O O8 0.701538 0.740463 0.183874
O O9 0.709062 0.500000 0.418156
O O10 0.798387 0.226728 0.309311
O O11 0.647142 0.307283 0.586969
O O12 0.960149 0.000000 0.143915
O O13 0.000000 0.802466 0.000000
O O14 0.041873 0.729949 0.078344
O O15 0.152954 0.500000 0.008441
O O16 0.785264 0.500000 0.505351
O O17 0.642191 0.711145 0.727519
O O18 0.236679 0.750377 0.289958
O O19 0.000000 0.764715 0.500000
O O20 0.112213 0.000000 0.430907
O O21 0.649439 0.500000 0.815188
O O22 0.500000 0.260157 0.000000
#
# Coordination Sequence:
#
# PCOD8061383 Si02
#       8
#     4   4   4   4   4   4   4   4
#     4  10  19  33  55  79 108 141 176 222 269 310
#     4   9  19  35  53  75 104 137 175 217 261 312
#     4  10  19  34  56  78 101 136 179 221 263 311
#     4  11  23  36  53  80 109 136 174 223 266 312
#     4  11  21  35  56  81 108 139 177 219 264 321
#     4   9  17  31  53  78 105 137 176 217 262 314
#     4   9  19  36  56  78 107 144 184 220 258 312
#     4   9  18  33  52  79 112 141 173 217 267 314
#
# _framework density 18.367927999999999
#
# number of rings (size 3 to 8) (size 9 to 14) (size 15 to 20)
#    0.000    2.250    1.250    1.875    0.000    3.000 
#    2.250    1.250    0.000    3.375    0.000    0.000 
#    0.000    0.000    0.000    0.000    0.000    0.000 
#
# Total GULP energy -396832.408100 kJ/mol
# GULP energy per Si atom -12401.012753 kJ/mol
# Density = 1.832612 g / cm^3
# Si number density = 18.367928 Si / 1000 Ang^3
#
#
#
# Elastic Constant Matrix: (Units=GPa)
#
#
# Indices 1 2 3 4 5 6 
#
# 1 126.0726 28.0171 60.1433 0.0000 0.6586 0.0000
# 2 28.0171 49.2066 38.3749 0.0000 3.3892 0.0000
# 3 60.1433 38.3749 150.7300 0.0000 6.6366 0.0000
# 4 0.0000 0.0000 0.0000 16.3656 0.0000 5.6003
# 5 0.6586 3.3892 6.6366 0.0000 23.5444 0.0000
# 6 0.0000 0.0000 0.0000 5.6003 0.0000 18.4713
#
#
#
# Elastic Compliance Matrix: (Units=1/GPa)
#
#
# Indices 1 2 3 4 5 6 
#
# 1 0.010235 -0.003346 -0.003281 0.000000 0.001120 0.000000
# 2 -0.003346 0.026531 -0.005322 0.000000 -0.002225 0.000000
# 3 -0.003281 -0.005322 0.009377 0.000000 -0.001785 0.000000
# 4 0.000000 0.000000 0.000000 0.068177 0.000000 -0.020671
# 5 0.001120 -0.002225 -0.001785 0.000000 0.043265 0.000000
# 6 0.000000 0.000000 0.000000 -0.020671 0.000000 0.060405
#
#
# Mechanical properties :
#
#
# Convention : Reuss Voigt Hill
#
# Bulk Modulus (GPa) = 44.95265 64.34220 54.64743
# Shear Modulus (GPa) = 20.05587 24.97453 22.51520
#
# Velocity S-wave (km/s) = 3.30797 3.69139 3.50492
# Velocity P-wave (km/s) = 6.25434 7.29891 6.79672
#
# Compressibility (1/GPa) = 0.02224563
#
# Stress axis : x y z
#
# Youngs Moduli (GPa) = 97.70388 37.69187 106.64171
#
# Poissons Ratio (x) = 0.12610 0.34994
# Poissons Ratio (y) = 0.32688 0.56751
# Poissons Ratio (z) = 0.32061 0.20058
#
# Static dielectric constant tensor:
#      x y z
#    x 3.504380 0.000000 0.193420 
#    y 0.000000 3.251820 0.000000 
#    z 0.193420 0.000000 3.571520 
# 
# 
# High freq. dielectric constant tensor:
#      x y z
#    x 1.715100 0.000000 0.013910 
#    y 0.000000 1.699060 0.000000 
#    z 0.013910 0.000000 1.710960 
# 
# From -- ./inp_files/86861.got.cif
#   From: 2010.06.25/outbox.cif.g09.slc.cpg/sg10_44_cif.got.tgz:86861.got - 2010.06.27 22:07:45.
