data_PCOD8061503
_publ_section_title
;
Structure prediction by ZEFSAII (Michael W. Deem and Ramdas Pophale) SiO2 
 PCOD8061503
Probable space group: P 2/M
;
_chemical_formula_sum "Si O2"
_cell_formula_units_Z 32
_cell_length_a 29.677294
_cell_length_b 9.536137
_cell_length_c 12.477553
_cell_angle_alpha 90.000000
_cell_angle_beta 151.229938
_cell_angle_gamma 90.000000
_cell_volume 1699.566675
_symmetry_space_group_name_H-M "P 2/M"
_symmetry_group_IT_number 10
_symmetry_cell_setting 'monoclinic'
loop_
_space_group_symop_operation_xyz
x,y,z
-x,y,-z
-x,-y,-z
x,-y,z
loop_
_atom_site_type_symbol
_atom_site_label
_atom_site_fract_x
_atom_site_fract_y
_atom_site_fract_z
Si Si1 0.311367 0.663955 0.364417
Si Si2 0.231469 0.337661 0.834702
Si Si3 0.248838 0.339649 0.626729
Si Si4 0.136073 0.837765 0.030016
Si Si5 0.043868 0.162741 0.476821
Si Si6 0.105295 0.161977 0.210225
Si Si7 0.400674 0.336147 0.329942
Si Si8 0.602079 0.333775 0.233530
O O1 0.286857 0.500000 0.321599
O O2 0.215164 0.744890 0.137385
O O3 0.385371 0.693126 0.423893
O O4 0.356211 0.723248 0.567604
O O5 0.209884 0.500000 0.816538
O O6 0.271863 0.321143 0.799212
O O7 0.136177 0.253169 0.651348
O O8 0.312536 0.274138 0.080070
O O9 0.226289 0.500000 0.550366
O O10 0.159175 0.248570 0.411743
O O11 0.335536 0.285037 0.736693
O O12 0.143149 0.806928 0.170775
O O13 0.155629 0.000000 0.043741
O O14 0.033303 0.796060 0.773271
O O15 0.000000 0.197936 0.500000
O O16 0.071906 0.000000 0.526214
O O17 0.114626 0.000000 0.260466
O O18 0.000000 0.213604 0.000000
O O19 0.500000 0.268192 0.500000
O O20 0.404074 0.500000 0.310689
O O21 0.594765 0.500000 0.226018
O O22 0.500000 0.267863 0.000000
#
# Coordination Sequence:
#
# PCOD8061503 Si02
#       8
#     4   4   4   4   4   4   4   4
#     4  10  19  33  56  81 105 138 178 218 260 310
#     4  10  21  35  53  80 111 141 173 218 269 309
#     4  10  20  34  52  78 110 139 173 217 261 308
#     4  10  20  34  53  77 106 138 172 216 266 311
#     4  10  21  37  57  79 104 141 183 218 259 314
#     4  10  20  34  52  74 103 141 178 212 257 312
#     4   9  19  34  54  81 109 138 175 218 264 313
#     4   9  18  31  51  79 106 136 175 218 262 308
#
# _framework density 18.828327999999999
#
# number of rings (size 3 to 8) (size 9 to 14) (size 15 to 20)
#    0.000    2.250    1.250    1.500    1.750    2.500 
#    0.000    0.000    0.000    3.000    0.000    0.000 
#    0.000    0.000    0.000    0.000    0.000    0.000 
#
# Total GULP energy -396834.672208 kJ/mol
# GULP energy per Si atom -12401.083507 kJ/mol
# Density = 1.878547 g / cm^3
# Si number density = 18.828328 Si / 1000 Ang^3
#
#
#
# Elastic Constant Matrix: (Units=GPa)
#
#
# Indices 1 2 3 4 5 6 
#
# 1 111.1070 34.0304 56.0540 0.0000 13.7669 0.0000
# 2 34.0304 40.4673 40.1894 0.0000 10.3233 0.0000
# 3 56.0540 40.1894 129.2079 0.0000 12.3620 0.0000
# 4 0.0000 0.0000 0.0000 218.4372 0.0000 8.7712
# 5 13.7669 10.3233 12.3620 0.0000 36.3875 0.0000
# 6 0.0000 0.0000 0.0000 8.7712 0.0000 17.0225
#
#
#
# Elastic Compliance Matrix: (Units=1/GPa)
#
#
# Indices 1 2 3 4 5 6 
#
# 1 0.013102 -0.007364 -0.003224 0.000000 -0.001773 0.000000
# 2 -0.007364 0.041488 -0.009148 0.000000 -0.005876 0.000000
# 3 -0.003224 -0.009148 0.012009 0.000000 -0.000265 0.000000
# 4 0.000000 0.000000 0.000000 0.004675 0.000000 -0.002409
# 5 -0.001773 -0.005876 -0.000265 0.000000 0.029910 0.000000
# 6 0.000000 0.000000 0.000000 -0.002409 0.000000 0.059987
#
#
# Mechanical properties :
#
#
# Convention : Reuss Voigt Hill
#
# Bulk Modulus (GPa) = 36.86289 60.14777 48.50533
# Shear Modulus (GPa) = 23.84549 64.40332 44.12441
#
# Velocity S-wave (km/s) = 3.56261 5.85490 4.84624
# Velocity P-wave (km/s) = 6.04515 8.81596 7.55860
#
# Compressibility (1/GPa) = 0.02712755
#
# Stress axis : x y z
#
# Youngs Moduli (GPa) = 76.32492 24.10347 83.27280
#
# Poissons Ratio (x) = 0.17750 0.26846
# Poissons Ratio (y) = 0.56205 0.76175
# Poissons Ratio (z) = 0.24606 0.22049
#
# Static dielectric constant tensor:
#      x y z
#    x 3.545100 0.000000 -0.033580 
#    y 0.000000 3.115420 0.000000 
#    z -0.033580 0.000000 3.631740 
# 
# 
# High freq. dielectric constant tensor:
#      x y z
#    x 1.744830 0.000000 -0.003610 
#    y 0.000000 1.692570 0.000000 
#    z -0.003610 0.000000 1.738910 
# 
# From -- ./inp_files/58215.got.cif
#   From: 2010.06.25/outbox.cif.g09.slc.cpg/sg10_30_cif.got.tgz:58215.got - 2010.06.27 22:07:45.
