data_PCOD8061719
_publ_section_title
;
Structure prediction by ZEFSAII (Michael W. Deem and Ramdas Pophale) SiO2 
 PCOD8061719
Probable space group: P 2/M
;
_chemical_formula_sum "Si O2"
_cell_formula_units_Z 20
_cell_length_a 8.576389
_cell_length_b 12.174363
_cell_length_c 12.923723
_cell_angle_alpha 90.000000
_cell_angle_beta 130.288420
_cell_angle_gamma 90.000000
_cell_volume 1029.315457
_symmetry_space_group_name_H-M "P 2/M"
_symmetry_group_IT_number 10
_symmetry_cell_setting 'monoclinic'
loop_
_space_group_symop_operation_xyz
x,y,z
-x,y,-z
-x,-y,-z
x,-y,z
loop_
_atom_site_type_symbol
_atom_site_label
_atom_site_fract_x
_atom_site_fract_y
_atom_site_fract_z
Si Si1 0.718973 0.301326 0.808144
Si Si2 0.725046 0.872199 0.642343
Si Si3 0.722662 0.377486 0.396854
Si Si4 0.141887 0.376509 0.927126
Si Si5 0.026154 0.286171 0.668776
O O1 0.742201 0.182722 0.763603
O O2 0.512055 0.356254 0.680987
O O3 0.901556 0.380221 0.850140
O O4 0.733222 0.297035 0.939809
O O5 0.500000 0.848534 0.500000
O O6 0.907577 0.827065 0.646234
O O7 0.764858 0.000000 0.674022
O O8 0.752850 0.500000 0.363470
O O9 0.844682 0.370051 0.557880
O O10 0.813576 0.283166 0.358437
O O11 0.231122 0.500000 0.971406
O O12 0.165431 0.328819 0.822598
#
# Coordination Sequence:
#
# PCOD8061719 Si02
#       5
#     4   4   4   4   4
#     4  10  20  34  54  82 107 142 183 224 268 323
#     4  10  20  39  60  79 102 139 188 240 277 308
#     4  11  20  34  54  81 118 147 178 217 268 331
#     4  10  19  34  53  80 116 147 181 220 267 326
#     4  10  21  35  52  81 111 146 182 220 267 325
#
# _framework density 19.430389000000002
#
# number of rings (size 3 to 8) (size 9 to 14) (size 15 to 20)
#    0.000    1.800    2.000    4.800    0.000    0.800 
#    0.000   16.000    0.000    0.000    0.000   14.000 
#    0.000    0.000    0.000    0.000    0.000    0.000 
#
# Total GULP energy -247799.557928 kJ/mol
# GULP energy per Si atom -12389.977896 kJ/mol
# Density = 1.938616 g / cm^3
# Si number density = 19.430389 Si / 1000 Ang^3
#
#
#
# Elastic Constant Matrix: (Units=GPa)
#
#
# Indices 1 2 3 4 5 6 
#
# 1 32.7981 30.5762 8.6408 0.0000 -2.8649 0.0000
# 2 30.5762 125.5831 33.6803 0.0000 -11.0039 0.0000
# 3 8.6408 33.6803 77.9478 0.0000 -19.6821 0.0000
# 4 0.0000 0.0000 0.0000 25.2031 0.0000 -0.5721
# 5 -2.8649 -11.0039 -19.6821 0.0000 35.0868 0.0000
# 6 0.0000 0.0000 0.0000 -0.5721 0.0000 21.5302
#
#
#
# Elastic Compliance Matrix: (Units=1/GPa)
#
#
# Indices 1 2 3 4 5 6 
#
# 1 0.039447 -0.009534 -0.000227 0.000000 0.000103 0.000000
# 2 -0.009534 0.011328 -0.003655 0.000000 0.000724 0.000000
# 3 -0.000227 -0.003655 0.016473 0.000000 0.008076 0.000000
# 4 0.000000 0.000000 0.000000 0.039702 0.000000 0.001055
# 5 0.000103 0.000724 0.008076 0.000000 0.033266 0.000000
# 6 0.000000 0.000000 0.000000 0.001055 0.000000 0.046474
#
#
# Mechanical properties :
#
#
# Convention : Reuss Voigt Hill
#
# Bulk Modulus (GPa) = 24.74342 42.45817 33.60079
# Shear Modulus (GPa) = 22.02702 27.25946 24.64324
#
# Velocity S-wave (km/s) = 3.37061 3.74963 3.56516
# Velocity P-wave (km/s) = 5.28299 6.37536 5.85471
#
# Compressibility (1/GPa) = 0.04041479
#
# Stress axis : x y z
#
# Youngs Moduli (GPa) = 25.35054 88.27783 60.70674
#
# Poissons Ratio (x) = 0.84167 0.01378
# Poissons Ratio (y) = 0.24170 0.22188
# Poissons Ratio (z) = 0.00575 0.32265
#
# Static dielectric constant tensor:
#      x y z
#    x 3.430070 0.000000 -0.117420 
#    y 0.000000 3.238440 0.000000 
#    z -0.117420 0.000000 3.964140 
# 
# 
# High freq. dielectric constant tensor:
#      x y z
#    x 1.746890 0.000000 -0.001440 
#    y 0.000000 1.716180 0.000000 
#    z -0.001440 0.000000 1.773950 
# 
# From -- ./inp_files/60828.got.cif
#   From: 2010.06.25/outbox.cif.g09.slc.cpg/sg10_31_cif.got.tgz:60828.got - 2010.06.27 22:07:45.
