data_PCOD8061609
_publ_section_title
;
Structure prediction by ZEFSAII (Michael W. Deem and Ramdas Pophale) SiO2 
 PCOD8061609
Probable space group: P 2/M
;
_chemical_formula_sum "Si O2"
_cell_formula_units_Z 32
_cell_length_a 20.319863
_cell_length_b 9.006141
_cell_length_c 12.106997
_cell_angle_alpha 90.000000
_cell_angle_beta 127.508508
_cell_angle_gamma 90.000000
_cell_volume 1757.571958
_symmetry_space_group_name_H-M "P 2/M"
_symmetry_group_IT_number 10
_symmetry_cell_setting 'monoclinic'
loop_
_space_group_symop_operation_xyz
x,y,z
-x,y,-z
-x,-y,-z
x,-y,z
loop_
_atom_site_type_symbol
_atom_site_label
_atom_site_fract_x
_atom_site_fract_y
_atom_site_fract_z
Si Si1 0.025214 0.674986 0.402700
Si Si2 0.770047 0.324282 0.851690
Si Si3 0.708490 0.827791 0.576413
Si Si4 0.120546 0.824522 0.866279
Si Si5 0.802730 0.828553 0.446841
Si Si6 0.267402 0.171723 0.855303
Si Si7 0.627194 0.672149 0.871809
Si Si8 0.536175 0.327170 0.418152
O O1 0.015095 0.500000 0.376662
O O2 0.118575 0.722082 0.473002
O O3 0.000000 0.725197 0.500000
O O4 0.968202 0.758381 0.255815
O O5 0.782552 0.500000 0.861405
O O6 0.760984 0.263822 0.719029
O O7 0.687544 0.276032 0.834237
O O8 0.850265 0.248470 0.988938
O O9 0.750572 0.798985 0.502408
O O10 0.614641 0.772638 0.471613
O O11 0.709001 0.000000 0.609832
O O12 0.184855 0.778139 0.836100
O O13 0.113008 0.000000 0.873788
O O14 0.743564 0.785391 0.283638
O O15 0.831672 0.000000 0.465685
O O16 0.283414 0.000000 0.888959
O O17 0.348477 0.251046 0.988116
O O18 0.639433 0.500000 0.903321
O O19 0.532923 0.710875 0.744330
O O20 0.500000 0.284979 0.500000
O O21 0.561975 0.500000 0.442528
#
# Coordination Sequence:
#
# PCOD8061609 Si02
#       8
#     4   4   4   4   4   4   4   4
#     4  11  22  35  56  87 115 143 186 233 275 326
#     4  10  19  35  56  80 114 148 181 227 281 332
#     4  11  23  37  56  83 113 147 189 231 275 331
#     4  10  19  33  57  85 112 144 184 229 276 328
#     4  10  22  40  57  78 113 153 187 225 277 334
#     4   9  18  33  54  79 108 144 182 221 273 327
#     4   9  18  32  54  81 108 140 180 227 275 325
#     4  10  19  36  57  80 110 147 186 227 280 332
#
# _framework density 18.206935000000001
#
# number of rings (size 3 to 8) (size 9 to 14) (size 15 to 20)
#    0.000    2.000    2.500    1.500    0.000    3.750 
#    0.000    1.250    0.000    7.500    0.000    0.000 
#    0.000    0.000    0.000    0.000    0.000    0.000 
#
# Total GULP energy -396909.924456 kJ/mol
# GULP energy per Si atom -12403.435139 kJ/mol
# Density = 1.816550 g / cm^3
# Si number density = 18.206935 Si / 1000 Ang^3
#
#
#
# Elastic Constant Matrix: (Units=GPa)
#
#
# Indices 1 2 3 4 5 6 
#
# 1 72.6585 39.1932 51.4124 0.0000 -0.4578 0.0000
# 2 39.1932 77.0432 60.9676 0.0000 1.8134 0.0000
# 3 51.4124 60.9676 155.2773 0.0000 -3.4709 0.0000
# 4 0.0000 0.0000 0.0000 37.8634 0.0000 4.1696
# 5 -0.4578 1.8134 -3.4709 0.0000 24.0704 0.0000
# 6 0.0000 0.0000 0.0000 4.1696 0.0000 22.6461
#
#
#
# Elastic Compliance Matrix: (Units=1/GPa)
#
#
# Indices 1 2 3 4 5 6 
#
# 1 0.020481 -0.007353 -0.003886 0.000000 0.000383 0.000000
# 2 -0.007353 0.021621 -0.006114 0.000000 -0.002650 0.000000
# 3 -0.003886 -0.006114 0.010169 0.000000 0.001853 0.000000
# 4 0.000000 0.000000 0.000000 0.026957 0.000000 -0.004963
# 5 0.000383 -0.002650 0.001853 0.000000 0.042019 0.000000
# 6 0.000000 0.000000 0.000000 -0.004963 0.000000 0.045072
#
#
# Mechanical properties :
#
#
# Convention : Reuss Voigt Hill
#
# Bulk Modulus (GPa) = 56.93011 67.56950 62.24980
# Shear Modulus (GPa) = 24.16868 27.14303 25.65586
#
# Velocity S-wave (km/s) = 3.64736 3.86529 3.75790
# Velocity P-wave (km/s) = 7.00528 7.55732 7.28653
#
# Compressibility (1/GPa) = 0.01756540
#
# Stress axis : x y z
#
# Youngs Moduli (GPa) = 48.82484 46.25145 98.34285
#
# Poissons Ratio (x) = 0.34010 0.38212
# Poissons Ratio (y) = 0.35903 0.60124
# Poissons Ratio (z) = 0.18971 0.28277
#
# Static dielectric constant tensor:
#      x y z
#    x 3.136920 0.000000 0.007000 
#    y 0.000000 3.348550 0.000000 
#    z 0.007000 0.000000 3.550150 
# 
# 
# High freq. dielectric constant tensor:
#      x y z
#    x 1.673090 0.000000 0.003960 
#    y 0.000000 1.710170 0.000000 
#    z 0.003960 0.000000 1.722870 
# 
# From -- ./inp_files/49903.got.cif
#   From: 2010.06.25/outbox.cif.g09.slc.cpg/sg10_25_cif.got.tgz:49903.got - 2010.06.27 22:07:45.
