data_PCOD8061376
_publ_section_title
;
Structure prediction by ZEFSAII (Michael W. Deem and Ramdas Pophale) SiO2 
 PCOD8061376
Probable space group: P 2/M
;
_chemical_formula_sum "Si O2"
_cell_formula_units_Z 32
_cell_length_a 20.157244
_cell_length_b 9.134052
_cell_length_c 12.160386
_cell_angle_alpha 90.000000
_cell_angle_beta 125.600713
_cell_angle_gamma 90.000000
_cell_volume 1820.465662
_symmetry_space_group_name_H-M "P 2/M"
_symmetry_group_IT_number 10
_symmetry_cell_setting 'monoclinic'
loop_
_space_group_symop_operation_xyz
x,y,z
-x,y,-z
-x,-y,-z
x,-y,z
loop_
_atom_site_type_symbol
_atom_site_label
_atom_site_fract_x
_atom_site_fract_y
_atom_site_fract_z
Si Si1 0.290562 0.674256 0.135596
Si Si2 0.203933 0.169277 0.852886
Si Si3 0.629164 0.672817 0.381772
Si Si4 0.238348 0.329143 0.317045
Si Si5 0.873325 0.669292 0.602558
Si Si6 0.472532 0.673246 0.355801
Si Si7 0.258740 0.830596 0.664419
Si Si8 0.037918 0.331457 0.654012
O O1 0.285452 0.500000 0.118220
O O2 0.242285 0.734536 0.197347
O O3 0.383741 0.730361 0.235106
O O4 0.250498 0.744892 0.991680
O O5 0.254876 0.193648 0.790943
O O6 0.112583 0.227795 0.752824
O O7 0.198220 0.000000 0.878978
O O8 0.637597 0.500000 0.371161
O O9 0.687079 0.728893 0.536687
O O10 0.536965 0.718783 0.323186
O O11 0.658670 0.753216 0.299321
O O12 0.251502 0.500000 0.315730
O O13 0.153331 0.291151 0.297562
O O14 0.852100 0.500000 0.557191
O O15 0.822578 0.762746 0.466531
O O16 0.969303 0.698229 0.680958
O O17 0.500000 0.740396 0.500000
O O18 0.470104 0.500000 0.366199
O O19 0.261480 0.000000 0.635272
O O20 0.066996 0.500000 0.683363
O O21 0.000000 0.290323 0.500000
#
# Coordination Sequence:
#
# PCOD8061376 Si02
#       8
#     4   4   4   4   4   4   4   4
#     4  10  19  33  55  79 105 138 175 213 258 312
#     4  11  24  38  51  71 106 147 180 212 257 311
#     4   9  16  29  53  81 107 131 165 216 266 309
#     4   8  14  27  50  79 105 132 163 203 258 310
#     4   9  17  31  54  82 107 128 162 215 267 310
#     4   9  15  28  54  86 109 129 168 220 266 307
#     4  10  20  33  49  72 103 139 177 212 254 307
#     4  10  19  33  56  84 106 128 170 222 264 308
#
# _framework density 17.577919999999999
#
# number of rings (size 3 to 8) (size 9 to 14) (size 15 to 20)
#    0.000    2.500    2.500    1.500    0.000    2.250 
#    0.000    4.375    0.000    8.250    0.000    0.000 
#    0.000    0.000    0.000    0.000    0.000    0.000 
#
# Total GULP energy -396670.773229 kJ/mol
# GULP energy per Si atom -12395.961663 kJ/mol
# Density = 1.753791 g / cm^3
# Si number density = 17.577920 Si / 1000 Ang^3
#
#
#
# Elastic Constant Matrix: (Units=GPa)
#
#
# Indices 1 2 3 4 5 6 
#
# 1 146.2964 47.6391 60.1361 0.0000 -4.8126 0.0000
# 2 47.6391 58.2004 40.4061 0.0000 -5.8706 0.0000
# 3 60.1361 40.4061 97.3019 0.0000 -4.5935 0.0000
# 4 0.0000 0.0000 0.0000 6.1208 0.0000 -1.7198
# 5 -4.8126 -5.8706 -4.5935 0.0000 23.0050 0.0000
# 6 0.0000 0.0000 0.0000 -1.7198 0.0000 14.4170
#
#
#
# Elastic Compliance Matrix: (Units=1/GPa)
#
#
# Indices 1 2 3 4 5 6 
#
# 1 0.010339 -0.005666 -0.004041 0.000000 -0.000090 0.000000
# 2 -0.005666 0.027656 -0.007779 0.000000 0.004319 0.000000
# 3 -0.004041 -0.007779 0.016022 0.000000 0.000369 0.000000
# 4 0.000000 0.000000 0.000000 0.169044 0.000000 0.020165
# 5 -0.000090 0.004319 0.000369 0.000000 0.044626 0.000000
# 6 0.000000 0.000000 0.000000 0.020165 0.000000 0.071768
#
#
# Mechanical properties :
#
#
# Convention : Reuss Voigt Hill
#
# Bulk Modulus (GPa) = 52.50641 66.46237 59.48439
# Shear Modulus (GPa) = 13.13112 18.94972 16.04042
#
# Velocity S-wave (km/s) = 2.73614 3.28692 3.02409
# Velocity P-wave (km/s) = 6.31803 7.23169 6.79024
#
# Compressibility (1/GPa) = 0.01904529
#
# Stress axis : x y z
#
# Youngs Moduli (GPa) = 96.72462 36.15838 62.41253
#
# Poissons Ratio (x) = 0.20488 0.25220
# Poissons Ratio (y) = 0.54806 0.48550
# Poissons Ratio (z) = 0.39086 0.28127
#
# Static dielectric constant tensor:
#      x y z
#    x 3.727520 0.000000 -0.085440 
#    y 0.000000 3.007140 0.000000 
#    z -0.085440 0.000000 3.069110 
# 
# 
# High freq. dielectric constant tensor:
#      x y z
#    x 1.701590 0.000000 -0.007850 
#    y 0.000000 1.650010 0.000000 
#    z -0.007850 0.000000 1.649990 
# 
# From -- ./inp_files/55365.got.cif
#   From: 2010.06.25/outbox.cif.g09.slc.cpg/sg10_28_cif.got.tgz:55365.got - 2010.06.27 22:07:45.
