data_PCOD8061957
_publ_section_title
;
Structure prediction by ZEFSAII (Michael W. Deem and Ramdas Pophale) SiO2 
 PCOD8061957
Probable space group: P 2/M
;
_chemical_formula_sum "Si O2"
_cell_formula_units_Z 32
_cell_length_a 15.276715
_cell_length_b 9.395001
_cell_length_c 22.278281
_cell_angle_alpha 90.000000
_cell_angle_beta 32.408641
_cell_angle_gamma 90.000000
_cell_volume 1713.705154
_symmetry_space_group_name_H-M "P 2/M"
_symmetry_group_IT_number 10
_symmetry_cell_setting 'monoclinic'
loop_
_space_group_symop_operation_xyz
x,y,z
-x,y,-z
-x,-y,-z
x,-y,z
loop_
_atom_site_type_symbol
_atom_site_label
_atom_site_fract_x
_atom_site_fract_y
_atom_site_fract_z
Si Si1 0.815951 0.659106 0.547889
Si Si2 0.365258 0.662666 0.470761
Si Si3 0.961813 0.332151 0.277263
Si Si4 0.004968 0.832366 0.132170
Si Si5 0.333069 0.167498 0.734509
Si Si6 0.316738 0.831811 0.879214
Si Si7 0.146480 0.338186 0.289212
Si Si8 0.652788 0.168068 0.742350
O O1 0.784880 0.500000 0.591865
O O2 0.703113 0.684772 0.555985
O O3 0.774300 0.777955 0.620482
O O4 0.004502 0.674530 0.421017
O O5 0.416195 0.500000 0.452523
O O6 0.225470 0.708798 0.598888
O O7 0.524434 0.759873 0.387134
O O8 0.975324 0.500000 0.258117
O O9 0.020786 0.246380 0.185904
O O10 0.079996 0.286222 0.263452
O O11 0.837701 0.791436 0.196530
O O12 0.019170 0.000000 0.135606
O O13 0.151293 0.775506 0.005469
O O14 0.332971 0.229733 0.802405
O O15 0.364613 0.000000 0.715450
O O16 0.469302 0.784244 0.831770
O O17 0.308531 0.000000 0.878210
O O18 0.208424 0.500000 0.248748
O O19 0.297095 0.239367 0.223222
O O20 0.669752 0.000000 0.738345
#
# Coordination Sequence:
#
# PCOD8061957 Si02
#       8
#     4   4   4   4   4   4   4   4
#     4   9  17  31  50  73 105 142 174 205 253 317
#     4   9  18  33  54  79 108 142 173 211 265 317
#     4   9  20  39  57  75 106 144 180 217 260 310
#     4  10  21  37  58  78 100 140 185 221 262 312
#     4  10  19  34  57  82 107 136 174 219 266 318
#     4   9  19  36  54  77 110 141 172 215 268 317
#     4   9  19  35  53  73 103 143 177 208 255 315
#     4  11  20  30  50  80 108 135 170 216 265 309
#
# _framework density 18.672991
#
# number of rings (size 3 to 8) (size 9 to 14) (size 15 to 20)
#    0.000    2.500    1.250    2.625    0.000    5.500 
#    0.000    7.500    0.000    5.250    0.000    0.000 
#    0.000    0.000    0.000    0.000    0.000    0.000 
#
# Total GULP energy -396793.999574 kJ/mol
# GULP energy per Si atom -12399.812487 kJ/mol
# Density = 1.863049 g / cm^3
# Si number density = 18.672991 Si / 1000 Ang^3
#
#
#
# Elastic Constant Matrix: (Units=GPa)
#
#
# Indices 1 2 3 4 5 6 
#
# 1 76.6350 31.5112 26.9291 0.0000 -9.0743 0.0000
# 2 31.5112 40.9750 8.8020 0.0000 -5.6088 0.0000
# 3 26.9291 8.8020 29.1006 0.0000 -0.2760 0.0000
# 4 0.0000 0.0000 0.0000 12.3441 0.0000 4.0337
# 5 -9.0743 -5.6088 -0.2760 0.0000 28.4820 0.0000
# 6 0.0000 0.0000 0.0000 4.0337 0.0000 30.2818
#
#
#
# Elastic Compliance Matrix: (Units=1/GPa)
#
#
# Indices 1 2 3 4 5 6 
#
# 1 0.027478 -0.015978 -0.020544 0.000000 0.005409 0.000000
# 2 -0.015978 0.036144 0.003873 0.000000 0.002064 0.000000
# 3 -0.020544 0.003873 0.052153 0.000000 -0.005277 0.000000
# 4 0.000000 0.000000 0.000000 0.084697 0.000000 -0.011282
# 5 0.005409 0.002064 -0.005277 0.000000 0.037189 0.000000
# 6 0.000000 0.000000 0.000000 -0.011282 0.000000 0.034526
#
#
# Mechanical properties :
#
#
# Convention : Reuss Voigt Hill
#
# Bulk Modulus (GPa) = 19.81091 31.24391 25.52741
# Shear Modulus (GPa) = 14.11195 19.51944 16.81569
#
# Velocity S-wave (km/s) = 2.75206 3.23666 3.00415
# Velocity P-wave (km/s) = 4.55311 5.54405 5.07283
#
# Compressibility (1/GPa) = 0.05047724
#
# Stress axis : x y z
#
# Youngs Moduli (GPa) = 36.39230 27.66746 19.17444
#
# Poissons Ratio (x) = 0.44208 0.39391
# Poissons Ratio (y) = 0.58149 -0.07427
# Poissons Ratio (z) = 0.74763 -0.10716
#
# Static dielectric constant tensor:
#      x y z
#    x 3.484730 0.000000 -0.109110 
#    y 0.000000 3.204400 0.000000 
#    z -0.109110 0.000000 3.394090 
# 
# 
# High freq. dielectric constant tensor:
#      x y z
#    x 1.732960 0.000000 -0.010550 
#    y 0.000000 1.705010 0.000000 
#    z -0.010550 0.000000 1.712400 
# 
# From -- ./inp_files/89544.got.cif
#   From: 2010.06.25/outbox.cif.g09.slc.cpg/sg10_45_cif.got.tgz:89544.got - 2010.06.27 22:07:45.
