data_PCOD8061146
_publ_section_title
;
Structure prediction by ZEFSAII (Michael W. Deem and Ramdas Pophale) SiO2 
 PCOD8061146
Probable space group: P 2/M
;
_chemical_formula_sum "Si O2"
_cell_formula_units_Z 32
_cell_length_a 23.281685
_cell_length_b 9.000254
_cell_length_c 20.999412
_cell_angle_alpha 90.000000
_cell_angle_beta 155.947826
_cell_angle_gamma 90.000000
_cell_volume 1793.398355
_symmetry_space_group_name_H-M "P 2/M"
_symmetry_group_IT_number 10
_symmetry_cell_setting 'monoclinic'
loop_
_space_group_symop_operation_xyz
x,y,z
-x,y,-z
-x,-y,-z
x,-y,z
loop_
_atom_site_type_symbol
_atom_site_label
_atom_site_fract_x
_atom_site_fract_y
_atom_site_fract_z
Si Si1 0.402885 0.165503 0.963468
Si Si2 0.269719 0.328257 0.514549
Si Si3 0.163075 0.324179 0.653153
Si Si4 0.940686 0.669490 0.805744
Si Si5 0.758726 0.330798 0.849339
Si Si6 0.462262 0.328975 0.595651
Si Si7 0.680444 0.823917 0.304901
Si Si8 0.745731 0.825355 0.703822
O O1 0.265000 0.268900 0.814289
O O2 0.347406 0.000000 0.923501
O O3 0.500000 0.161245 0.000000
O O4 0.514399 0.223880 0.129801
O O5 0.279582 0.500000 0.545904
O O6 0.125988 0.294490 0.330451
O O7 0.400198 0.281952 0.601203
O O8 0.268229 0.223405 0.573843
O O9 0.177360 0.500000 0.662729
O O10 0.216473 0.252575 0.641715
O O11 0.000000 0.277724 0.500000
O O12 0.904540 0.500000 0.787642
O O13 0.880371 0.771397 0.800568
O O14 0.106750 0.698581 0.969862
O O15 0.755055 0.500000 0.820192
O O16 0.628148 0.297929 0.763670
O O17 0.759350 0.223462 0.790127
O O18 0.423678 0.500000 0.543968
O O19 0.396642 0.237425 0.471107
O O20 0.694711 0.000000 0.310031
O O21 0.739143 0.000000 0.694809
#
# Coordination Sequence:
#
# PCOD8061146 Si02
#       8
#     4   4   4   4   4   4   4   4
#     4   8  16  31  50  74 103 134 167 199 235 285
#     4   9  18  34  53  72  97 130 170 210 245 288
#     4  10  20  33  52  81 111 135 164 205 248 285
#     4   9  19  35  53  72  97 131 168 207 250 298
#     4  10  19  33  53  73  95 126 164 206 255 307
#     4   9  19  35  53  72  95 127 166 207 251 299
#     4  10  20  34  54  77 102 136 172 202 240 294
#     4  11  21  31  47  73 102 130 162 203 252 305
#
# _framework density 17.843219000000001
#
# number of rings (size 3 to 8) (size 9 to 14) (size 15 to 20)
#    0.000    2.500    0.000    4.125    0.000    9.750 
#    0.000    1.250    0.000    3.000    0.000    0.000 
#    0.000    0.000    0.000    0.000    0.000    0.000 
#
# Total GULP energy -396691.834893 kJ/mol
# GULP energy per Si atom -12396.619840 kJ/mol
# Density = 1.780261 g / cm^3
# Si number density = 17.843219 Si / 1000 Ang^3
#
#
#
# Elastic Constant Matrix: (Units=GPa)
#
#
# Indices 1 2 3 4 5 6 
#
# 1 77.2610 40.6853 74.3122 0.0000 -8.5293 0.0000
# 2 40.6853 85.6287 56.1197 0.0000 0.1095 0.0000
# 3 74.3122 56.1197 146.2140 0.0000 20.9218 0.0000
# 4 0.0000 0.0000 0.0000 13.0297 0.0000 -5.7605
# 5 -8.5293 0.1095 20.9218 0.0000 22.9508 0.0000
# 6 0.0000 0.0000 0.0000 -5.7605 0.0000 15.2012
#
#
#
# Elastic Compliance Matrix: (Units=1/GPa)
#
#
# Indices 1 2 3 4 5 6 
#
# 1 0.048189 -0.003604 -0.029525 0.000000 0.044840 0.000000
# 2 -0.003604 0.016678 -0.005022 0.000000 0.003159 0.000000
# 3 -0.029525 -0.005022 0.029140 0.000000 -0.037512 0.000000
# 4 0.000000 0.000000 0.000000 0.092193 0.000000 0.034937
# 5 0.044840 0.003159 -0.037512 0.000000 0.094416 0.000000
# 6 0.000000 0.000000 0.000000 0.034937 0.000000 0.079024
#
#
# Mechanical properties :
#
#
# Convention : Reuss Voigt Hill
#
# Bulk Modulus (GPa) = 56.47638 72.37090 64.42364
# Shear Modulus (GPa) = 11.31627 19.43545 15.37586
#
# Velocity S-wave (km/s) = 2.52108 3.30394 2.93869
# Velocity P-wave (km/s) = 6.33992 7.42981 6.90640
#
# Compressibility (1/GPa) = 0.01770652
#
# Stress axis : x y z
#
# Youngs Moduli (GPa) = 20.75176 59.96059 34.31708
#
# Poissons Ratio (x) = 0.21607 1.01320
# Poissons Ratio (y) = 0.07478 0.17233
# Poissons Ratio (z) = 0.61269 0.30110
#
# Static dielectric constant tensor:
#      x y z
#    x 3.074340 0.000000 0.040940 
#    y 0.000000 3.249010 0.000000 
#    z 0.040940 0.000000 3.741380 
# 
# 
# High freq. dielectric constant tensor:
#      x y z
#    x 1.661720 0.000000 0.002090 
#    y 0.000000 1.687100 0.000000 
#    z 0.002090 0.000000 1.701720 
# 
# From -- ./inp_files/91229.got.cif
#   From: 2010.06.25/outbox.cif.g09.slc.cpg/sg10_46_cif.got.tgz:91229.got - 2010.06.27 22:07:45.
