data_PCOD8061097
_publ_section_title
;
Structure prediction by ZEFSAII (Michael W. Deem and Ramdas Pophale) SiO2 
 PCOD8061097
Probable space group: P 2/M
;
_chemical_formula_sum "Si O2"
_cell_formula_units_Z 32
_cell_length_a 19.562331
_cell_length_b 13.892220
_cell_length_c 9.268946
_cell_angle_alpha 90.000000
_cell_angle_beta 41.256047
_cell_angle_gamma 90.000000
_cell_volume 1661.070713
_symmetry_space_group_name_H-M "P 2/M"
_symmetry_group_IT_number 10
_symmetry_cell_setting 'monoclinic'
loop_
_space_group_symop_operation_xyz
x,y,z
-x,y,-z
-x,-y,-z
x,-y,z
loop_
_atom_site_type_symbol
_atom_site_label
_atom_site_fract_x
_atom_site_fract_y
_atom_site_fract_z
Si Si1 0.035815 0.277890 0.606893
Si Si2 0.839027 0.391679 0.007922
Si Si3 0.579988 0.278158 0.176134
Si Si4 0.645539 0.722639 0.395158
Si Si5 0.230422 0.607256 0.210404
Si Si6 0.068168 0.891425 0.765602
Si Si7 0.706232 0.891783 0.502367
Si Si8 0.597140 0.895138 0.947394
O O1 0.142622 0.338289 0.441921
O O2 0.061327 0.174790 0.635264
O O3 0.000000 0.260714 0.500000
O O4 0.946475 0.331756 0.841781
O O5 0.859658 0.500000 0.032598
O O6 0.746994 0.345481 0.253138
O O7 0.801768 0.396232 0.903919
O O8 0.462983 0.323101 0.371234
O O9 0.630227 0.258504 0.251022
O O10 0.655164 0.345125 0.960344
O O11 0.573877 0.173353 0.116703
O O12 0.662973 0.823730 0.446021
O O13 0.239226 0.500000 0.260163
O O14 0.172179 0.893732 0.692187
O O15 0.036798 0.000000 0.767213
O O16 0.000000 0.846673 0.000000
O O17 0.683325 0.853336 0.701401
O O18 0.659661 0.000000 0.552702
O O19 0.630317 0.000000 0.956856
O O20 0.500000 0.906308 0.000000
#
# Coordination Sequence:
#
# PCOD8061097 Si02
#       8
#     4   4   4   4   4   4   4   4
#     4  10  19  34  59  85 105 133 177 225 265 301
#     4   9  18  33  54  80 107 135 173 219 265 317
#     4  10  20  33  52  80 108 137 176 221 263 307
#     4  10  20  33  52  79 108 138 175 219 265 306
#     4   9  18  33  54  80 107 136 174 220 268 313
#     4  10  21  36  54  79 110 145 177 206 258 327
#     4  10  20  35  54  75 104 143 180 211 256 318
#     4  10  19  33  52  74 101 138 177 211 256 312
#
# _framework density 19.264681
#
# number of rings (size 3 to 8) (size 9 to 14) (size 15 to 20)
#    0.000    2.250    1.250    1.875    0.000    2.750 
#    0.000    3.750    0.000   19.875    0.000    0.000 
#    0.000    0.000    0.000    0.000    0.000    0.000 
#
# Total GULP energy -396476.983544 kJ/mol
# GULP energy per Si atom -12389.905736 kJ/mol
# Density = 1.922083 g / cm^3
# Si number density = 19.264681 Si / 1000 Ang^3
#
#
#
# Elastic Constant Matrix: (Units=GPa)
#
#
# Indices 1 2 3 4 5 6 
#
# 1 47.5173 39.8495 34.8644 0.0000 -13.1048 0.0000
# 2 39.8495 126.5208 58.8032 0.0000 -3.3596 0.0000
# 3 34.8644 58.8032 130.4186 0.0000 -29.7592 0.0000
# 4 0.0000 0.0000 0.0000 28.3793 0.0000 -4.6762
# 5 -13.1048 -3.3596 -29.7592 0.0000 26.3805 0.0000
# 6 0.0000 0.0000 0.0000 -4.6762 0.0000 19.4512
#
#
#
# Elastic Compliance Matrix: (Units=1/GPa)
#
#
# Indices 1 2 3 4 5 6 
#
# 1 0.034147 -0.009639 -0.001605 0.000000 0.013925 0.000000
# 2 -0.009639 0.013265 -0.005536 0.000000 -0.009345 0.000000
# 3 -0.001605 -0.005536 0.013803 0.000000 0.014069 0.000000
# 4 0.000000 0.000000 0.000000 0.036690 0.000000 0.008821
# 5 0.013925 -0.009345 0.014069 0.000000 0.059505 0.000000
# 6 0.000000 0.000000 0.000000 0.008821 0.000000 0.053531
#
#
# Mechanical properties :
#
#
# Convention : Reuss Voigt Hill
#
# Bulk Modulus (GPa) = 36.16129 63.49898 49.83013
# Shear Modulus (GPa) = 19.70680 26.23815 22.97247
#
# Velocity S-wave (km/s) = 3.20183 3.69451 3.45696
# Velocity P-wave (km/s) = 5.69916 7.15766 6.46964
#
# Compressibility (1/GPa) = 0.02765388
#
# Stress axis : x y z
#
# Youngs Moduli (GPa) = 29.28546 75.38717 72.44800
#
# Poissons Ratio (x) = 0.72669 0.11625
# Poissons Ratio (y) = 0.28229 0.40109
# Poissons Ratio (z) = 0.04699 0.41736
#
# Static dielectric constant tensor:
#      x y z
#    x 3.244330 0.000000 -0.346650 
#    y 0.000000 3.649660 0.000000 
#    z -0.346650 0.000000 3.772330 
# 
# 
# High freq. dielectric constant tensor:
#      x y z
#    x 1.721250 0.000000 -0.024950 
#    y 0.000000 1.741640 0.000000 
#    z -0.024950 0.000000 1.768570 
# 
# From -- ./inp_files/35096.got.cif
#   From: 2010.06.25/outbox.cif.g09.slc.cpg/sg10_18_cif.got.tgz:35096.got - 2010.06.27 22:07:45.
