data_PCOD8061312
_publ_section_title
;
Structure prediction by ZEFSAII (Michael W. Deem and Ramdas Pophale) SiO2 
 PCOD8061312
Probable space group: P 2/M
;
_chemical_formula_sum "Si O2"
_cell_formula_units_Z 28
_cell_length_a 26.119880
_cell_length_b 8.920534
_cell_length_c 10.103069
_cell_angle_alpha 90.000000
_cell_angle_beta 39.601525
_cell_angle_gamma 90.000000
_cell_volume 1500.575067
_symmetry_space_group_name_H-M "P 2/M"
_symmetry_group_IT_number 10
_symmetry_cell_setting 'monoclinic'
loop_
_space_group_symop_operation_xyz
x,y,z
-x,y,-z
-x,-y,-z
x,-y,z
loop_
_atom_site_type_symbol
_atom_site_label
_atom_site_fract_x
_atom_site_fract_y
_atom_site_fract_z
Si Si1 0.665082 0.676311 0.308695
Si Si2 0.092526 0.174633 0.820019
Si Si3 0.907275 0.672075 0.681495
Si Si4 0.492922 0.834911 0.357332
Si Si5 0.331437 0.822600 0.983172
Si Si6 0.816594 0.825998 0.094032
Si Si7 0.184647 0.326353 0.401666
O O1 0.669505 0.500000 0.286744
O O2 0.578130 0.721877 0.541302
O O3 0.733308 0.734775 0.273042
O O4 0.682827 0.744950 0.129511
O O5 0.126217 0.212520 0.897479
O O6 0.142992 0.271348 0.617286
O O7 0.101302 0.000000 0.766614
O O8 0.000000 0.225213 0.000000
O O9 0.892303 0.500000 0.754147
O O10 0.876450 0.703449 0.595882
O O11 0.000000 0.714593 0.500000
O O12 0.861610 0.781165 0.870889
O O13 0.500000 0.843630 0.500000
O O14 0.471951 0.000000 0.342541
O O15 0.580521 0.780841 0.131882
O O16 0.266630 0.765325 0.217135
O O17 0.324411 0.000000 0.975549
O O18 0.794989 0.000000 0.131280
O O19 0.206867 0.500000 0.370947
#
# Coordination Sequence:
#
# PCOD8061312 Si02
#       7
#     4   4   4   4   4   4   4
#     4  11  20  31  51  81 115 147 182 228 279 328
#     4  10  23  42  60  80 108 146 193 237 279 334
#     4  10  21  36  54  80 112 142 177 228 284 335
#     4   8  16  30  49  76 110 147 183 220 270 328
#     4  10  19  33  54  80 113 149 184 227 273 326
#     4  11  22  36  57  81 108 147 189 231 279 332
#     4  11  22  35  56  84 113 148 185 228 281 335
#
# _framework density 18.659511999999999
#
# number of rings (size 3 to 8) (size 9 to 14) (size 15 to 20)
#    0.000    1.857    1.429    4.286    0.000    5.429 
#    0.000    0.000    0.000    0.857    0.000    6.000 
#    0.000    0.000    0.000    0.000    0.000    0.000 
#
# Total GULP energy -347248.788253 kJ/mol
# GULP energy per Si atom -12401.742438 kJ/mol
# Density = 1.861704 g / cm^3
# Si number density = 18.659512 Si / 1000 Ang^3
#
#
#
# Elastic Constant Matrix: (Units=GPa)
#
#
# Indices 1 2 3 4 5 6 
#
# 1 80.8516 46.1337 31.5153 0.0000 -25.2372 0.0000
# 2 46.1337 103.5752 41.2732 0.0000 -14.5330 0.0000
# 3 31.5153 41.2732 79.8597 0.0000 -26.9846 0.0000
# 4 0.0000 0.0000 0.0000 30.5282 0.0000 -2.8505
# 5 -25.2372 -14.5330 -26.9846 0.0000 35.3190 0.0000
# 6 0.0000 0.0000 0.0000 -2.8505 0.0000 23.3252
#
#
#
# Elastic Compliance Matrix: (Units=1/GPa)
#
#
# Indices 1 2 3 4 5 6 
#
# 1 0.020123 -0.007224 -0.000477 0.000000 0.011042 0.000000
# 2 -0.007224 0.014754 -0.006022 0.000000 -0.003691 0.000000
# 3 -0.000477 -0.006022 0.020045 0.000000 0.012496 0.000000
# 4 0.000000 0.000000 0.000000 0.033135 0.000000 0.004049
# 5 0.011042 -0.003691 0.012496 0.000000 0.044232 0.000000
# 6 0.000000 0.000000 0.000000 0.004049 0.000000 0.043367
#
#
# Mechanical properties :
#
#
# Convention : Reuss Voigt Hill
#
# Bulk Modulus (GPa) = 36.39382 55.79234 46.09308
# Shear Modulus (GPa) = 23.55623 27.52543 25.54083
#
# Velocity S-wave (km/s) = 3.55692 3.84492 3.70372
# Velocity P-wave (km/s) = 6.03452 7.04815 6.56094
#
# Compressibility (1/GPa) = 0.02747719
#
# Stress axis : x y z
#
# Youngs Moduli (GPa) = 49.69543 67.77855 49.88838
#
# Poissons Ratio (x) = 0.48960 0.02378
# Poissons Ratio (y) = 0.35898 0.30042
# Poissons Ratio (z) = 0.02369 0.40815
#
# Static dielectric constant tensor:
#      x y z
#    x 3.576810 0.000000 -0.461080 
#    y 0.000000 3.441170 0.000000 
#    z -0.461080 0.000000 3.467710 
# 
# 
# High freq. dielectric constant tensor:
#      x y z
#    x 1.716470 0.000000 -0.031850 
#    y 0.000000 1.729540 0.000000 
#    z -0.031850 0.000000 1.714190 
# 
# From -- ./inp_files/37022.got.cif
#   From: 2010.06.25/outbox.cif.g09.slc.cpg/sg10_19_cif.got.tgz:37022.got - 2010.06.27 22:07:45.
