data_PCOD8061188
_publ_section_title
;
Structure prediction by ZEFSAII (Michael W. Deem and Ramdas Pophale) SiO2 
 PCOD8061188
Probable space group: P 2/M
;
_chemical_formula_sum "Si O2"
_cell_formula_units_Z 32
_cell_length_a 12.142565
_cell_length_b 8.882081
_cell_length_c 20.228851
_cell_angle_alpha 90.000000
_cell_angle_beta 56.339421
_cell_angle_gamma 90.000000
_cell_volume 1815.912383
_symmetry_space_group_name_H-M "P 2/M"
_symmetry_group_IT_number 10
_symmetry_cell_setting 'monoclinic'
loop_
_space_group_symop_operation_xyz
x,y,z
-x,y,-z
-x,-y,-z
x,-y,z
loop_
_atom_site_type_symbol
_atom_site_label
_atom_site_fract_x
_atom_site_fract_y
_atom_site_fract_z
Si Si1 0.410679 0.178547 0.938330
Si Si2 0.304189 0.822084 0.108994
Si Si3 0.427194 0.828478 0.791673
Si Si4 0.387504 0.821100 0.661576
Si Si5 0.338723 0.323648 0.448056
Si Si6 0.729279 0.827431 0.662608
Si Si7 0.883633 0.675738 0.727042
Si Si8 0.809255 0.326450 0.369239
O O1 0.556673 0.236798 0.908540
O O2 0.370847 0.245307 0.878864
O O3 0.422191 0.000000 0.929604
O O4 0.304004 0.220498 0.030470
O O5 0.185957 0.734996 0.183516
O O6 0.285043 0.000000 0.126208
O O7 0.373002 0.755182 0.741700
O O8 0.585299 0.813412 0.742867
O O9 0.381479 0.000000 0.805340
O O10 0.519579 0.752475 0.585542
O O11 0.259583 0.775260 0.663264
O O12 0.405471 0.000000 0.656903
O O13 0.360956 0.500000 0.431472
O O14 0.264577 0.259741 0.408632
O O15 0.246327 0.284821 0.540560
O O16 0.834119 0.758180 0.677969
O O17 0.766674 0.000000 0.636728
O O18 0.856079 0.500000 0.727873
O O19 0.037229 0.712494 0.683774
O O20 0.781048 0.500000 0.361761
#
# Coordination Sequence:
#
# PCOD8061188 Si02
#       8
#     4   4   4   4   4   4   4   4
#     4   8  13  25  49  77 103 130 162 197 249 310
#     4   9  16  28  50  76 100 133 168 201 246 304
#     4   8  14  27  49  76 103 127 154 200 253 301
#     4  10  20  33  54  81 103 126 167 220 262 294
#     4  10  20  36  56  75  99 131 169 211 258 310
#     4  10  19  33  53  77 104 132 166 208 256 303
#     4  11  22  35  50  70 103 141 174 208 251 306
#     4  10  23  39  52  68  97 142 180 207 251 310
#
# _framework density 17.621995999999999
#
# number of rings (size 3 to 8) (size 9 to 14) (size 15 to 20)
#    0.000    2.500    1.250    3.375    0.000    4.000 
#    0.000    3.750    0.000    0.750    0.000    5.250 
#    0.000    0.000    0.000    0.000    0.000    0.000 
#
# Total GULP energy -396645.456213 kJ/mol
# GULP energy per Si atom -12395.170507 kJ/mol
# Density = 1.758189 g / cm^3
# Si number density = 17.621996 Si / 1000 Ang^3
#
#
#
# Elastic Constant Matrix: (Units=GPa)
#
#
# Indices 1 2 3 4 5 6 
#
# 1 93.4144 50.4450 78.9798 0.0000 7.1442 0.0000
# 2 50.4450 62.9997 32.7874 0.0000 8.0691 0.0000
# 3 78.9798 32.7874 106.0113 0.0000 24.3461 0.0000
# 4 0.0000 0.0000 0.0000 23.9549 0.0000 -0.5148
# 5 7.1442 8.0691 24.3461 0.0000 20.2498 0.0000
# 6 0.0000 0.0000 0.0000 -0.5148 0.0000 19.4981
#
#
#
# Elastic Compliance Matrix: (Units=1/GPa)
#
#
# Indices 1 2 3 4 5 6 
#
# 1 0.076246 -0.038127 -0.058467 0.000000 0.058587 0.000000
# 2 -0.038127 0.037991 0.023543 0.000000 -0.029993 0.000000
# 3 -0.058467 0.023543 0.059578 0.000000 -0.060383 0.000000
# 4 0.000000 0.000000 0.000000 0.041769 0.000000 0.001103
# 5 0.058587 -0.029993 -0.060383 0.000000 0.113263 0.000000
# 6 0.000000 0.000000 0.000000 0.001103 0.000000 0.051316
#
#
# Mechanical properties :
#
#
# Convention : Reuss Voigt Hill
#
# Bulk Modulus (GPa) = 36.08469 65.20554 50.64512
# Shear Modulus (GPa) = 9.33705 19.42147 14.37926
#
# Velocity S-wave (km/s) = 2.30435 3.32341 2.85964
# Velocity P-wave (km/s) = 5.25372 7.19788 6.30123
#
# Compressibility (1/GPa) = 0.02771258
#
# Stress axis : x y z
#
# Youngs Moduli (GPa) = 13.11545 26.32227 16.78484
#
# Poissons Ratio (x) = 1.00358 0.98136
# Poissons Ratio (y) = 0.50005 -0.39517
# Poissons Ratio (z) = 0.76682 -0.61971
#
# Static dielectric constant tensor:
#      x y z
#    x 3.189220 0.000000 0.329790 
#    y 0.000000 3.109590 0.000000 
#    z 0.329790 0.000000 3.499080 
# 
# 
# High freq. dielectric constant tensor:
#      x y z
#    x 1.664600 0.000000 0.025520 
#    y 0.000000 1.663980 0.000000 
#    z 0.025520 0.000000 1.685130 
# 
# From -- ./inp_files/83591.got.cif
#   From: 2010.06.25/outbox.cif.g09.slc.cpg/sg10_42_cif.got.tgz:83591.got - 2010.06.27 22:07:45.
