data_PCOD8061833
_publ_section_title
;
Structure prediction by ZEFSAII (Michael W. Deem and Ramdas Pophale) SiO2 
 PCOD8061833
Probable space group: P 2/M
;
_chemical_formula_sum "Si O2"
_cell_formula_units_Z 28
_cell_length_a 25.667216
_cell_length_b 9.240003
_cell_length_c 10.012227
_cell_angle_alpha 90.000000
_cell_angle_beta 140.406762
_cell_angle_gamma 90.000000
_cell_volume 1513.380052
_symmetry_space_group_name_H-M "P 2/M"
_symmetry_group_IT_number 10
_symmetry_cell_setting 'monoclinic'
loop_
_space_group_symop_operation_xyz
x,y,z
-x,y,-z
-x,-y,-z
x,-y,z
loop_
_atom_site_type_symbol
_atom_site_label
_atom_site_fract_x
_atom_site_fract_y
_atom_site_fract_z
Si Si1 0.842848 0.666427 0.940777
Si Si2 0.826256 0.165669 0.398449
Si Si3 0.566758 0.828075 0.530569
Si Si4 0.430804 0.172181 0.764474
Si Si5 0.248802 0.171296 0.471272
Si Si6 0.745865 0.166904 0.963986
Si Si7 0.018608 0.665600 0.389798
O O1 0.815175 0.500000 0.876337
O O2 0.810743 0.753078 0.750788
O O3 0.809173 0.734162 0.010465
O O4 0.940627 0.679916 0.139261
O O5 0.779999 0.219375 0.439251
O O6 0.908575 0.253294 0.539378
O O7 0.852952 0.000000 0.465517
O O8 0.761949 0.186761 0.152185
O O9 0.500000 0.761214 0.500000
O O10 0.550896 0.770909 0.349082
O O11 0.655289 0.776459 0.754240
O O12 0.561471 0.000000 0.522741
O O13 0.341525 0.226314 0.634033
O O14 0.433250 0.000000 0.772809
O O15 0.500000 0.236246 0.000000
O O16 0.243308 0.000000 0.437960
O O17 0.756510 0.000000 0.939831
O O18 0.045718 0.500000 0.462405
O O19 0.000000 0.732433 0.500000
#
# Coordination Sequence:
#
# PCOD8061833 Si02
#       7
#     4   4   4   4   4   4   4
#     4  11  22  37  59  81 104 146 190 226 269 326
#     4  10  22  35  55  84 113 144 179 226 279 331
#     4   9  17  28  48  80 111 140 177 221 267 316
#     4   9  17  29  49  77 110 145 176 216 268 320
#     4  10  21  38  55  81 117 147 180 224 276 328
#     4  10  19  34  55  83 114 144 180 227 275 322
#     4  10  21  38  57  79 109 142 184 232 272 321
#
# _framework density 18.501632000000001
#
# number of rings (size 3 to 8) (size 9 to 14) (size 15 to 20)
#    0.000    2.143    2.857    0.429    2.000    2.571 
#    0.000    2.857    0.000    0.857    0.000    0.000 
#    0.000    0.000    0.000    0.000    0.000    0.000 
#
# Total GULP energy -347236.938117 kJ/mol
# GULP energy per Si atom -12401.319218 kJ/mol
# Density = 1.845952 g / cm^3
# Si number density = 18.501632 Si / 1000 Ang^3
#
#
#
# Elastic Constant Matrix: (Units=GPa)
#
#
# Indices 1 2 3 4 5 6 
#
# 1 152.0972 31.1729 65.2515 0.0000 -10.6925 0.0000
# 2 31.1729 34.1667 27.4990 0.0000 -1.4109 0.0000
# 3 65.2515 27.4990 131.9782 0.0000 -4.7782 0.0000
# 4 0.0000 0.0000 0.0000 14.5991 0.0000 -7.7373
# 5 -10.6925 -1.4109 -4.7782 0.0000 33.9344 0.0000
# 6 0.0000 0.0000 0.0000 -7.7373 0.0000 -2.0916
#
#
#
# Elastic Compliance Matrix: (Units=1/GPa)
#
#
# Indices 1 2 3 4 5 6 
#
# 1 0.009342 -0.005742 -0.003342 0.000000 0.002234 0.000000
# 2 -0.005742 0.038701 -0.005259 0.000000 -0.000941 0.000000
# 3 -0.003342 -0.005259 0.010332 0.000000 0.000183 0.000000
# 4 0.000000 0.000000 0.000000 0.023137 0.000000 -0.085588
# 5 0.002234 -0.000941 0.000183 0.000000 0.030159 0.000000
# 6 0.000000 0.000000 0.000000 -0.085588 0.000000 -0.161492
#
#
# Mechanical properties :
#
#
# Convention : Reuss Voigt Hill
#
# Bulk Modulus (GPa) = 33.68169 62.89877 48.29023
# Shear Modulus (GPa) = -444.83867 22.24297 -211.29785
#
# Velocity S-wave (km/s) = -15.52270 3.47106 -10.69827
# Velocity P-wave (km/s) = 17.40770 7.08057 11.24485
#
# Compressibility (1/GPa) = 0.02968972
#
# Stress axis : x y z
#
# Youngs Moduli (GPa) = 107.04066 25.83928 96.79111
#
# Poissons Ratio (x) = 0.14837 0.32344
# Poissons Ratio (y) = 0.61461 0.50901
# Poissons Ratio (z) = 0.35769 0.13589
#
# Static dielectric constant tensor:
#      x y z
#    x 3.536620 0.000000 -0.042990 
#    y 0.000000 3.068480 0.000000 
#    z -0.042990 0.000000 3.572720 
# 
# 
# High freq. dielectric constant tensor:
#      x y z
#    x 1.723070 0.000000 -0.001270 
#    y 0.000000 1.677120 0.000000 
#    z -0.001270 0.000000 1.732940 
# 
# From -- ./inp_files/37339.got.cif
#   From: 2010.06.25/outbox.cif.g09.slc.cpg/sg10_19_cif.got.tgz:37339.got - 2010.06.27 22:07:45.
