data_PCOD8061332
_publ_section_title
;
Structure prediction by ZEFSAII (Michael W. Deem and Ramdas Pophale) SiO2 
 PCOD8061332
Probable space group: P 2/M
;
_chemical_formula_sum "Si O2"
_cell_formula_units_Z 32
_cell_length_a 12.508393
_cell_length_b 9.245315
_cell_length_c 14.404264
_cell_angle_alpha 90.000000
_cell_angle_beta 85.092206
_cell_angle_gamma 90.000000
_cell_volume 1659.659931
_symmetry_space_group_name_H-M "P 2/M"
_symmetry_group_IT_number 10
_symmetry_cell_setting 'monoclinic'
loop_
_space_group_symop_operation_xyz
x,y,z
-x,y,-z
-x,-y,-z
x,-y,z
loop_
_atom_site_type_symbol
_atom_site_label
_atom_site_fract_x
_atom_site_fract_y
_atom_site_fract_z
Si Si1 0.112561 0.170708 0.033849
Si Si2 0.044491 0.830622 0.596790
Si Si3 0.471668 0.671823 0.603252
Si Si4 0.254739 0.331732 0.877980
Si Si5 0.508490 0.670791 0.100193
Si Si6 0.860756 0.169516 0.755229
Si Si7 0.352007 0.671577 0.265815
Si Si8 0.235736 0.670302 0.672005
O O1 0.119697 0.221926 0.140373
O O2 0.125731 0.000000 0.024754
O O3 0.204656 0.242640 0.965742
O O4 0.000000 0.223005 0.000000
O O5 0.962621 0.789831 0.685011
O O6 0.000000 0.779997 0.500000
O O7 0.155053 0.748402 0.608078
O O8 0.069313 0.000000 0.593769
O O9 0.500000 0.731223 0.500000
O O10 0.468044 0.500000 0.607843
O O11 0.567899 0.727544 0.660627
O O12 0.355391 0.730399 0.643303
O O13 0.241115 0.500000 0.903513
O O14 0.379572 0.288004 0.859983
O O15 0.203486 0.295082 0.781477
O O16 0.500503 0.500000 0.092701
O O17 0.406969 0.724733 0.166356
O O18 0.500000 0.744343 0.000000
O O19 0.761601 0.251582 0.716188
O O20 0.837064 0.000000 0.753813
O O21 0.334484 0.500000 0.271670
O O22 0.229753 0.500000 0.653206
#
# Coordination Sequence:
#
# PCOD8061332 Si02
#       8
#     4   4   4   4   4   4   4   4
#     4  10  21  37  56  77 105 147 190 226 276 334
#     4  10  23  42  61  80 108 149 190 230 280 333
#     4   9  18  33  55  84 115 146 179 223 278 331
#     4  10  19  33  54  82 112 140 178 227 272 319
#     4   9  16  28  48  75 107 141 174 212 261 315
#     4  10  22  39  56  79 114 147 183 235 283 326
#     4  10  19  34  57  83 111 146 186 221 269 336
#     4  10  20  36  59  87 116 143 182 234 279 325
#
# _framework density 19.281058999999999
#
# number of rings (size 3 to 8) (size 9 to 14) (size 15 to 20)
#    0.000    2.250    1.250    1.500    1.750    4.000 
#    0.000    1.250    0.000    3.000    0.000    0.000 
#    0.000    0.000    0.000    0.000    0.000    0.000 
#
# Total GULP energy -396771.584929 kJ/mol
# GULP energy per Si atom -12399.112029 kJ/mol
# Density = 1.923717 g / cm^3
# Si number density = 19.281059 Si / 1000 Ang^3
#
#
#
# Elastic Constant Matrix: (Units=GPa)
#
#
# Indices 1 2 3 4 5 6 
#
# 1 114.0859 33.6534 51.4624 0.0000 14.0759 0.0000
# 2 33.6534 26.2358 27.3690 0.0000 3.5294 0.0000
# 3 51.4624 27.3690 135.3854 0.0000 9.2445 0.0000
# 4 0.0000 0.0000 0.0000 16.7226 0.0000 -7.6044
# 5 14.0759 3.5294 9.2445 0.0000 37.4950 0.0000
# 6 0.0000 0.0000 0.0000 -7.6044 0.0000 -1.3748
#
#
#
# Elastic Compliance Matrix: (Units=1/GPa)
#
#
# Indices 1 2 3 4 5 6 
#
# 1 0.015071 -0.016638 -0.002121 0.000000 -0.003568 0.000000
# 2 -0.016638 0.066847 -0.007309 0.000000 0.001756 0.000000
# 3 -0.002121 -0.007309 0.009733 0.000000 -0.000915 0.000000
# 4 0.000000 0.000000 0.000000 0.017011 0.000000 -0.094094
# 5 -0.003568 0.001756 -0.000915 0.000000 0.028070 0.000000
# 6 0.000000 0.000000 0.000000 -0.094094 0.000000 -0.206921
#
#
# Mechanical properties :
#
#
# Convention : Reuss Voigt Hill
#
# Bulk Modulus (GPa) = 25.30822 55.63075 40.46948
# Shear Modulus (GPa) = -1024.42736 21.45003 -501.48866
#
# Velocity S-wave (km/s) = -23.07523 3.33902 -16.14492
# Velocity P-wave (km/s) = 26.39698 6.61669 18.06959
#
# Compressibility (1/GPa) = 0.03951286
#
# Stress axis : x y z
#
# Youngs Moduli (GPa) = 66.35450 14.95956 102.74622
#
# Poissons Ratio (x) = 0.24890 0.21796
# Poissons Ratio (y) = 1.10404 0.75096
# Poissons Ratio (z) = 0.14076 0.10934
#
# Static dielectric constant tensor:
#      x y z
#    x 3.540400 0.000000 0.033060 
#    y 0.000000 3.081340 0.000000 
#    z 0.033060 0.000000 3.844200 
# 
# 
# High freq. dielectric constant tensor:
#      x y z
#    x 1.759360 0.000000 0.002480 
#    y 0.000000 1.706910 0.000000 
#    z 0.002480 0.000000 1.767300 
# 
# From -- ./inp_files/63831.got.cif
#   From: 2010.06.25/outbox.cif.g09.slc.cpg/sg10_32_cif.got.tgz:63831.got - 2010.06.27 22:07:45.
