data_PCOD8061458
_publ_section_title
;
Structure prediction by ZEFSAII (Michael W. Deem and Ramdas Pophale) SiO2 
 PCOD8061458
Probable space group: P 2/M
;
_chemical_formula_sum "Si O2"
_cell_formula_units_Z 32
_cell_length_a 24.094031
_cell_length_b 8.822052
_cell_length_c 25.269863
_cell_angle_alpha 90.000000
_cell_angle_beta 17.914270
_cell_angle_gamma 90.000000
_cell_volume 1652.187286
_symmetry_space_group_name_H-M "P 2/M"
_symmetry_group_IT_number 10
_symmetry_cell_setting 'monoclinic'
loop_
_space_group_symop_operation_xyz
x,y,z
-x,y,-z
-x,-y,-z
x,-y,z
loop_
_atom_site_type_symbol
_atom_site_label
_atom_site_fract_x
_atom_site_fract_y
_atom_site_fract_z
Si Si1 0.387913 0.820733 0.243229
Si Si2 0.379139 0.320535 0.060232
Si Si3 0.499228 0.322565 0.440962
Si Si4 0.889618 0.823697 0.936341
Si Si5 0.731911 0.179949 0.436995
Si Si6 0.857459 0.824654 0.084902
Si Si7 0.009862 0.178435 0.430317
Si Si8 0.506843 0.819210 0.250567
O O1 0.180179 0.772008 0.423018
O O2 0.441011 0.763272 0.253301
O O3 0.409406 0.000000 0.216607
O O4 0.526301 0.742216 0.077875
O O5 0.369752 0.500000 0.065443
O O6 0.175367 0.258876 0.250347
O O7 0.500000 0.265612 0.000000
O O8 0.500000 0.259148 0.500000
O O9 0.463128 0.500000 0.472612
O O10 0.342830 0.242081 0.550239
O O11 0.687970 0.284056 0.243092
O O12 0.059610 0.766074 0.747755
O O13 0.862087 0.000000 0.951956
O O14 0.936070 0.792140 0.955541
O O15 0.704096 0.747904 0.084168
O O16 0.627693 0.245147 0.582456
O O17 0.717197 0.000000 0.447569
O O18 0.798771 0.000000 0.144653
O O19 0.000000 0.776954 0.000000
O O20 0.000000 0.231120 0.500000
O O21 0.042617 0.000000 0.395870
O O22 0.506355 0.000000 0.253354
#
# Coordination Sequence:
#
# PCOD8061458 Si02
#       8
#     4   4   4   4   4   4   4   4
#     4  10  21  37  60  88 117 152 193 238 287 342
#     4  11  23  37  57  85 118 157 196 237 288 342
#     4  11  23  36  51  77 113 147 183 226 277 336
#     4   9  17  31  55  86 111 136 176 229 279 327
#     4  10  19  35  60  82 107 142 182 230 279 325
#     4  10  19  33  55  83 110 137 180 230 277 332
#     4  10  20  35  58  88 119 151 191 239 290 342
#     4   9  18  34  57  86 114 142 184 232 278 329
#
# _framework density 19.368264
#
# number of rings (size 3 to 8) (size 9 to 14) (size 15 to 20)
#    0.000    2.000    2.500    1.500    0.000    4.500 
#    0.000    5.000    0.000    1.500    0.000    0.000 
#    0.000    0.000    0.000    0.000    0.000    0.000 
#
# Total GULP energy -396770.968720 kJ/mol
# GULP energy per Si atom -12399.092772 kJ/mol
# Density = 1.932418 g / cm^3
# Si number density = 19.368264 Si / 1000 Ang^3
#
#
#
# Elastic Constant Matrix: (Units=GPa)
#
#
# Indices 1 2 3 4 5 6 
#
# 1 159.7581 23.3591 87.9403 0.0000 -5.0782 0.0000
# 2 23.3591 28.7087 33.6351 0.0000 2.1833 0.0000
# 3 87.9403 33.6351 185.6383 0.0000 -4.6068 0.0000
# 4 0.0000 0.0000 0.0000 10.5374 0.0000 0.4750
# 5 -5.0782 2.1833 -4.6068 0.0000 32.5595 0.0000
# 6 0.0000 0.0000 0.0000 0.4750 0.0000 13.1286
#
#
#
# Elastic Compliance Matrix: (Units=1/GPa)
#
#
# Indices 1 2 3 4 5 6 
#
# 1 0.008681 -0.002991 -0.003544 0.000000 0.001053 0.000000
# 2 -0.002991 0.045806 -0.006995 0.000000 -0.004528 0.000000
# 3 -0.003544 -0.006995 0.008361 0.000000 0.001099 0.000000
# 4 0.000000 0.000000 0.000000 0.095055 0.000000 -0.003439
# 5 0.001053 -0.004528 0.001099 0.000000 0.031336 0.000000
# 6 0.000000 0.000000 0.000000 -0.003439 0.000000 0.076294
#
#
# Mechanical properties :
#
#
# Convention : Reuss Voigt Hill
#
# Bulk Modulus (GPa) = 27.94311 73.77491 50.85901
# Shear Modulus (GPa) = 16.41912 26.52314 21.47113
#
# Velocity S-wave (km/s) = 2.91474 3.70457 3.33314
# Velocity P-wave (km/s) = 5.07802 7.51477 6.41319
#
# Compressibility (1/GPa) = 0.03578700
#
# Stress axis : x y z
#
# Youngs Moduli (GPa) = 115.18948 21.83129 119.60969
#
# Poissons Ratio (x) = 0.06530 0.42395
# Poissons Ratio (y) = 0.34454 0.83665
# Poissons Ratio (z) = 0.40828 0.15271
#
# Static dielectric constant tensor:
#      x y z
#    x 3.767260 0.000000 -0.116580 
#    y 0.000000 3.133760 0.000000 
#    z -0.116580 0.000000 3.820080 
# 
# 
# High freq. dielectric constant tensor:
#      x y z
#    x 1.756620 0.000000 -0.002690 
#    y 0.000000 1.714610 0.000000 
#    z -0.002690 0.000000 1.770580 
# 
# From -- ./inp_files/90616.got.cif
#   From: 2010.06.25/outbox.cif.g09.slc.cpg/sg10_46_cif.got.tgz:90616.got - 2010.06.27 22:07:45.
