data_PCOD8061022
_publ_section_title
;
Structure prediction by ZEFSAII (Michael W. Deem and Ramdas Pophale) SiO2 
 PCOD8061022
Probable space group: P 2/M
;
_chemical_formula_sum "Si O2"
_cell_formula_units_Z 26
_cell_length_a 9.956773
_cell_length_b 13.106446
_cell_length_c 12.383661
_cell_angle_alpha 90.000000
_cell_angle_beta 123.378871
_cell_angle_gamma 90.000000
_cell_volume 1349.477052
_symmetry_space_group_name_H-M "P 2/M"
_symmetry_group_IT_number 10
_symmetry_cell_setting 'monoclinic'
loop_
_space_group_symop_operation_xyz
x,y,z
-x,y,-z
-x,-y,-z
x,-y,z
loop_
_atom_site_type_symbol
_atom_site_label
_atom_site_fract_x
_atom_site_fract_y
_atom_site_fract_z
Si Si1 0.150410 0.117296 0.144016
Si Si2 0.225437 0.617152 0.891157
Si Si3 0.963263 0.798286 0.250789
Si Si4 0.000000 0.737628 0.500000
Si Si5 0.412746 0.736784 0.160932
Si Si6 0.312728 0.386698 0.685486
Si Si7 0.632428 0.890364 0.147295
O O1 0.289140 0.195770 0.173450
O O2 0.099121 0.143484 0.243264
O O3 0.210937 0.000000 0.163514
O O4 0.000000 0.135822 0.000000
O O5 0.188636 0.500000 0.911541
O O6 0.057998 0.680013 0.798490
O O7 0.320158 0.616995 0.819926
O O8 0.329281 0.677392 0.025717
O O9 0.792175 0.852920 0.156717
O O10 0.008792 0.807277 0.397027
O O11 0.160280 0.670963 0.570210
O O12 0.512346 0.655191 0.277573
O O13 0.566323 0.807540 0.200125
O O14 0.295225 0.500000 0.633407
O O15 0.665847 0.000000 0.219285
O O16 0.500000 0.908148 0.000000
#
# Coordination Sequence:
#
# PCOD8061022 Si02
#       7
#     4   4   4   2   4   4   4
#     4  11  23  39  61  88 123 161 191 236 305 369
#     4  10  19  32  56  89 121 153 190 244 303 349
#     4  11  21  40  58  87 119 157 199 247 291 351
#     4  10  21  38  65  84 118 158 207 250 287 332
#     4  12  19  35  56  90 122 151 190 246 304 355
#     4  10  20  35  60  89 119 158 204 247 293 348
#     4  11  19  32  57  84 111 145 195 249 295 344
#
# _framework density 19.266724
#
# number of rings (size 3 to 8) (size 9 to 14) (size 15 to 20)
#    0.000    1.231    6.154    2.077    0.000    4.308 
#    0.000    4.615    0.000    1.846    0.000    0.000 
#    0.000    0.000    0.000    0.000    0.000    0.000 
#
# Total GULP energy -322189.930589 kJ/mol
# GULP energy per Si atom -12391.920407 kJ/mol
# Density = 1.922287 g / cm^3
# Si number density = 19.266724 Si / 1000 Ang^3
#
#
#
# Elastic Constant Matrix: (Units=GPa)
#
#
# Indices 1 2 3 4 5 6 
#
# 1 87.0123 34.7514 25.5158 0.0000 8.3129 0.0000
# 2 34.7514 94.8401 34.0616 0.0000 -1.0901 0.0000
# 3 25.5158 34.0616 79.2113 0.0000 8.4463 0.0000
# 4 0.0000 0.0000 0.0000 24.5509 0.0000 7.6341
# 5 8.3129 -1.0901 8.4463 0.0000 20.9538 0.0000
# 6 0.0000 0.0000 0.0000 7.6341 0.0000 28.9477
#
#
#
# Elastic Compliance Matrix: (Units=1/GPa)
#
#
# Indices 1 2 3 4 5 6 
#
# 1 0.014436 -0.004581 -0.002136 0.000000 -0.005105 0.000000
# 2 -0.004581 0.014099 -0.005077 0.000000 0.004598 0.000000
# 3 -0.002136 -0.005077 0.016127 0.000000 -0.005917 0.000000
# 4 0.000000 0.000000 0.000000 0.044370 0.000000 -0.011701
# 5 -0.005105 0.004598 -0.005917 0.000000 0.052374 0.000000
# 6 0.000000 0.000000 0.000000 -0.011701 0.000000 0.037631
#
#
# Mechanical properties :
#
#
# Convention : Reuss Voigt Hill
#
# Bulk Modulus (GPa) = 47.45378 49.96902 48.71140
# Shear Modulus (GPa) = 23.84922 26.00614 24.92768
#
# Velocity S-wave (km/s) = 3.52212 3.67794 3.60087
# Velocity P-wave (km/s) = 6.42058 6.63536 6.52885
#
# Compressibility (1/GPa) = 0.02107314
#
# Stress axis : x y z
#
# Youngs Moduli (GPa) = 69.26946 70.92661 62.00884
#
# Poissons Ratio (x) = 0.32494 0.13245
# Poissons Ratio (y) = 0.31735 0.31483
# Poissons Ratio (z) = 0.14796 0.36011
#
# Static dielectric constant tensor:
#      x y z
#    x 3.344220 0.000000 0.123730 
#    y 0.000000 4.161080 0.000000 
#    z 0.123730 0.000000 3.312390 
# 
# 
# High freq. dielectric constant tensor:
#      x y z
#    x 1.721700 0.000000 0.019780 
#    y 0.000000 1.771930 0.000000 
#    z 0.019780 0.000000 1.721670 
# 
# From -- ./inp_files/42793.got.cif
#   From: 2010.06.25/outbox.cif.g09.slc.cpg/sg10_22_cif.got.tgz:42793.got - 2010.06.27 22:07:45.
