data_PCOD8061340
_publ_section_title
;
Structure prediction by ZEFSAII (Michael W. Deem and Ramdas Pophale) SiO2 
 PCOD8061340
Probable space group: P 2/M
;
_chemical_formula_sum "Si O2"
_cell_formula_units_Z 30
_cell_length_a 15.010493
_cell_length_b 20.787550
_cell_length_c 14.975500
_cell_angle_alpha 90.000000
_cell_angle_beta 19.584693
_cell_angle_gamma 90.000000
_cell_volume 1566.330660
_symmetry_space_group_name_H-M "P 2/M"
_symmetry_group_IT_number 10
_symmetry_cell_setting 'monoclinic'
loop_
_space_group_symop_operation_xyz
x,y,z
-x,y,-z
-x,-y,-z
x,-y,z
loop_
_atom_site_type_symbol
_atom_site_label
_atom_site_fract_x
_atom_site_fract_y
_atom_site_fract_z
Si Si1 0.387234 0.322828 0.819148
Si Si2 0.794763 0.113196 0.443410
Si Si3 0.051758 0.185341 0.549209
Si Si4 0.448993 0.726941 0.947375
Si Si5 0.722864 0.575244 0.218201
Si Si6 0.756628 0.928656 0.103908
Si Si7 0.000000 0.828763 0.000000
Si Si8 0.141831 0.246586 0.703516
O O1 0.429042 0.328322 0.888032
O O2 0.311064 0.390884 0.846369
O O3 0.650389 0.302013 0.516300
O O4 0.159175 0.270932 0.017155
O O5 0.901657 0.116986 0.443690
O O6 0.810281 0.189244 0.409862
O O7 0.983164 0.070767 0.203524
O O8 0.498168 0.086557 0.716010
O O9 0.310087 0.229228 0.309365
O O10 0.000000 0.160021 0.500000
O O11 0.811678 0.229341 0.811134
O O12 0.500000 0.697935 0.000000
O O13 0.500000 0.595510 0.500000
O O14 0.714836 0.500000 0.204697
O O15 0.000000 0.596930 0.000000
O O16 0.730456 0.000000 0.171280
O O17 0.787025 0.874832 0.151325
O O18 0.823203 0.783652 0.230697
#
# Coordination Sequence:
#
# PCOD8061340 Si02
#       8
#     4   4   4   4   4   4   2   4
#     4  12  21  36  56  85 117 150 186 233 285 335
#     4  11  20  38  56  80 110 138 180 236 269 337
#     4  10  19  33  55  82 113 145 171 218 289 353
#     4  10  19  33  54  84 118 146 181 225 286 358
#     4  10  23  41  57  80 114 163 208 235 266 322
#     4  11  24  40  59  74 103 151 190 223 272 332
#     4  10  25  40  54  82 115 144 180 238 276 346
#     4  11  23  34  55  83 116 142 176 228 292 333
#
# _framework density 19.153044000000001
#
# number of rings (size 3 to 8) (size 9 to 14) (size 15 to 20)
#    0.000    1.333    2.667    3.800    2.800    4.267 
#    0.000    3.333    0.000    2.800    0.000    0.000 
#    0.000    8.533    0.000    0.000    0.000    1.333 
#
# Total GULP energy -371835.219715 kJ/mol
# GULP energy per Si atom -12394.507324 kJ/mol
# Density = 1.910945 g / cm^3
# Si number density = 19.153044 Si / 1000 Ang^3
#
#
#
# Elastic Constant Matrix: (Units=GPa)
#
#
# Indices 1 2 3 4 5 6 
#
# 1 150.9794 48.3143 40.2788 0.0000 10.0901 0.0000
# 2 48.3143 58.2061 13.8311 0.0000 4.7525 0.0000
# 3 40.2788 13.8311 108.0500 0.0000 -9.4259 0.0000
# 4 0.0000 0.0000 0.0000 14.2652 0.0000 -4.3518
# 5 10.0901 4.7525 -9.4259 0.0000 31.6968 0.0000
# 6 0.0000 0.0000 0.0000 -4.3518 0.0000 2.2197
#
#
#
# Elastic Compliance Matrix: (Units=1/GPa)
#
#
# Indices 1 2 3 4 5 6 
#
# 1 0.009975 -0.007313 -0.003043 0.000000 -0.002984 0.000000
# 2 -0.007313 0.023449 -0.000389 0.000000 -0.001304 0.000000
# 3 -0.003043 -0.000389 0.010809 0.000000 0.004241 0.000000
# 4 0.000000 0.000000 0.000000 0.174421 0.000000 0.341959
# 5 -0.002984 -0.001304 0.004241 0.000000 0.033955 0.000000
# 6 0.000000 0.000000 0.000000 0.341959 0.000000 1.120930
#
#
# Mechanical properties :
#
#
# Convention : Reuss Voigt Hill
#
# Bulk Modulus (GPa) = 43.96847 58.00931 50.98889
# Shear Modulus (GPa) = 3.56478 23.95709 13.76094
#
# Velocity S-wave (km/s) = 1.36574 3.54054 2.68334
# Velocity P-wave (km/s) = 5.04908 6.86053 6.02329
#
# Compressibility (1/GPa) = 0.02274357
#
# Stress axis : x y z
#
# Youngs Moduli (GPa) = 100.25354 42.64487 92.51558
#
# Poissons Ratio (x) = 0.31186 0.28148
# Poissons Ratio (y) = 0.73315 0.03602
# Poissons Ratio (z) = 0.30502 0.01660
#
# Static dielectric constant tensor:
#      x y z
#    x 4.087270 0.000000 0.000690 
#    y 0.000000 3.184550 0.000000 
#    z 0.000690 0.000000 3.622080 
# 
# 
# High freq. dielectric constant tensor:
#      x y z
#    x 1.754430 0.000000 -0.002850 
#    y 0.000000 1.702000 0.000000 
#    z -0.002850 0.000000 1.765220 
# 
# From -- ./inp_files/67864.got.cif
#   From: 2010.06.25/outbox.cif.g09.slc.cpg/sg10_34_cif.got.tgz:67864.got - 2010.06.27 22:07:45.
