data_PCOD8061142
_publ_section_title
;
Structure prediction by ZEFSAII (Michael W. Deem and Ramdas Pophale) SiO2 
 PCOD8061142
Probable space group: P 2/M
;
_chemical_formula_sum "Si O2"
_cell_formula_units_Z 28
_cell_length_a 31.868847
_cell_length_b 10.332413
_cell_length_c 26.260595
_cell_angle_alpha 90.000000
_cell_angle_beta 170.511400
_cell_angle_gamma 90.000000
_cell_volume 1425.493412
_symmetry_space_group_name_H-M "P 2/M"
_symmetry_group_IT_number 10
_symmetry_cell_setting 'monoclinic'
loop_
_space_group_symop_operation_xyz
x,y,z
-x,y,-z
-x,-y,-z
x,-y,z
loop_
_atom_site_type_symbol
_atom_site_label
_atom_site_fract_x
_atom_site_fract_y
_atom_site_fract_z
Si Si1 0.775304 0.859574 0.805906
Si Si2 0.023332 0.278060 0.862033
Si Si3 0.281049 0.147045 0.962272
Si Si4 0.725817 0.850729 0.419550
Si Si5 0.584021 0.354210 0.506522
Si Si6 0.455214 0.642372 0.657360
Si Si7 0.287011 0.150113 0.708699
O O1 0.500000 0.869965 0.500000
O O2 0.772732 0.745742 0.760688
O O3 0.850776 0.000000 0.872407
O O4 0.966700 0.830103 0.081507
O O5 0.947908 0.216977 0.717642
O O6 0.799540 0.372299 0.613375
O O7 0.293324 0.348365 0.178859
O O8 0.989458 0.170946 0.597007
O O9 0.315895 0.000000 0.024926
O O10 0.450415 0.169427 0.115184
O O11 0.356976 0.247382 0.097070
O O12 0.711756 0.787726 0.346454
O O13 0.804189 0.000000 0.509686
O O14 0.681627 0.500000 0.634329
O O15 0.606631 0.318927 0.474494
O O16 0.587358 0.500000 0.816795
O O17 0.357608 0.000000 0.787100
O O18 0.500000 0.216394 0.000000
#
# Coordination Sequence:
#
# PCOD8061142 Si02
#       7
#     4   4   4   4   4   4   4
#     4   9  19  34  52  74 100 132 170 211 254 299
#     4  10  19  33  53  72  96 131 170 208 250 297
#     4   9  18  32  50  74 102 132 167 205 245 291
#     4   9  17  29  47  72 101 131 163 204 250 293
#     4  10  21  35  51  72 100 133 168 209 256 300
#     4  10  21  35  52  76 102 131 169 210 250 295
#     4   9  17  29  48  76 106 133 162 199 245 295
#
# _framework density 19.642322
#
# number of rings (size 3 to 8) (size 9 to 14) (size 15 to 20)
#    0.000    2.571    0.000    1.714    0.000    6.000 
#    0.000    5.000    0.000    0.429    0.000    4.000 
#    0.000    0.000    0.000    0.000    0.000    0.000 
#
# Total GULP energy -347061.999762 kJ/mol
# GULP energy per Si atom -12395.071420 kJ/mol
# Density = 1.959761 g / cm^3
# Si number density = 19.642322 Si / 1000 Ang^3
#
#
#
# Elastic Constant Matrix: (Units=GPa)
#
#
# Indices 1 2 3 4 5 6 
#
# 1 83.8282 27.1506 30.5619 0.0000 -18.1345 0.0000
# 2 27.1506 90.6419 25.6844 0.0000 -20.4799 0.0000
# 3 30.5619 25.6844 82.7093 0.0000 -22.1981 0.0000
# 4 0.0000 0.0000 0.0000 4.2814 0.0000 -7.0948
# 5 -18.1345 -20.4799 -22.1981 0.0000 32.8521 0.0000
# 6 0.0000 0.0000 0.0000 -7.0948 0.0000 11.4035
#
#
#
# Elastic Compliance Matrix: (Units=1/GPa)
#
#
# Indices 1 2 3 4 5 6 
#
# 1 0.014979 -0.002498 -0.003613 0.000000 0.004270 0.000000
# 2 -0.002498 0.013609 -0.001705 0.000000 0.005952 0.000000
# 3 -0.003613 -0.001705 0.016044 0.000000 0.007783 0.000000
# 4 0.000000 0.000000 0.000000 -7.537904 0.000000 -4.689752
# 5 0.004270 0.005952 0.007783 0.000000 0.041766 0.000000
# 6 0.000000 0.000000 0.000000 -4.689752 0.000000 -2.830065
#
#
# Mechanical properties :
#
#
# Convention : Reuss Voigt Hill
#
# Bulk Modulus (GPa) = 34.48448 47.10813 40.79631
# Shear Modulus (GPa) = -0.48751 21.29290 10.40270
#
# Velocity S-wave (km/s) = -0.49873 3.29604 2.30381
# Velocity P-wave (km/s) = 4.15484 6.20646 5.28123
#
# Compressibility (1/GPa) = 0.02899855
#
# Stress axis : x y z
#
# Youngs Moduli (GPa) = 66.75882 73.48135 62.32776
#
# Poissons Ratio (x) = 0.18358 0.22520
# Poissons Ratio (y) = 0.16678 0.10630
# Poissons Ratio (z) = 0.24121 0.12532
#
# Static dielectric constant tensor:
#      x y z
#    x 3.651670 0.000000 -0.047460 
#    y 0.000000 3.499270 0.000000 
#    z -0.047460 0.000000 3.549920 
# 
# 
# High freq. dielectric constant tensor:
#      x y z
#    x 1.767870 0.000000 0.008450 
#    y 0.000000 1.740560 0.000000 
#    z 0.008450 0.000000 1.756100 
# 
# From -- ./inp_files/79589.got.cif
#   From: 2010.06.25/outbox.cif.g09.slc.cpg/sg10_40_cif.got.tgz:79589.got - 2010.06.27 22:07:45.
