data_PCOD8061427
_publ_section_title
;
Structure prediction by ZEFSAII (Michael W. Deem and Ramdas Pophale) SiO2 
 PCOD8061427
Probable space group: P 2/M
;
_chemical_formula_sum "Si O2"
_cell_formula_units_Z 32
_cell_length_a 12.088502
_cell_length_b 9.028171
_cell_length_c 20.475441
_cell_angle_alpha 90.000000
_cell_angle_beta 127.913113
_cell_angle_gamma 90.000000
_cell_volume 1762.996363
_symmetry_space_group_name_H-M "P 2/M"
_symmetry_group_IT_number 10
_symmetry_cell_setting 'monoclinic'
loop_
_space_group_symop_operation_xyz
x,y,z
-x,y,-z
-x,-y,-z
x,-y,z
loop_
_atom_site_type_symbol
_atom_site_label
_atom_site_fract_x
_atom_site_fract_y
_atom_site_fract_z
Si Si1 0.577910 0.828586 0.212196
Si Si2 0.445888 0.829699 0.303608
Si Si3 0.595961 0.674586 0.474354
Si Si4 0.137893 0.673273 0.877333
Si Si5 0.402006 0.826146 0.023274
Si Si6 0.865604 0.826557 0.619207
Si Si7 0.850378 0.325763 0.269002
Si Si8 0.139881 0.830221 0.232252
O O1 0.500841 0.796557 0.251667
O O2 0.473025 0.779740 0.116829
O O3 0.717325 0.730607 0.261013
O O4 0.620302 0.000000 0.219343
O O5 0.523017 0.720828 0.380911
O O6 0.280200 0.795555 0.242904
O O7 0.472430 0.000000 0.334411
O O8 0.500000 0.726403 0.500000
O O9 0.620490 0.500000 0.484227
O O10 0.745195 0.755122 0.531462
O O11 0.142845 0.500000 0.890076
O O12 0.169365 0.718337 0.813923
O O13 0.984316 0.730673 0.842102
O O14 0.252400 0.746891 0.965536
O O15 0.375685 0.000000 0.008414
O O16 0.500000 0.769368 0.000000
O O17 0.830972 0.790208 0.681809
O O18 0.012928 0.753978 0.652258
O O19 0.872578 0.000000 0.607277
O O20 0.868265 0.500000 0.284622
O O21 0.092848 0.000000 0.208559
#
# Coordination Sequence:
#
# PCOD8061427 Si02
#       8
#     4   4   4   4   4   4   4   4
#     4  10  21  37  57  81 110 145 185 226 272 326
#     4  10  21  38  58  81 110 145 185 226 269 324
#     4  11  22  35  55  84 115 144 179 223 271 324
#     4  10  20  32  52  81 110 141 179 226 272 320
#     4  10  19  33  55  81 108 141 183 229 272 318
#     4  10  19  33  57  83 108 140 183 229 269 315
#     4  10  20  34  53  80 114 145 178 223 277 328
#     4   9  18  33  54  79 107 141 179 222 271 319
#
# _framework density 18.150918000000001
#
# number of rings (size 3 to 8) (size 9 to 14) (size 15 to 20)
#    0.000    2.000    2.500    1.500    0.000    3.750 
#    0.000    1.250    0.000    7.500    0.000    0.000 
#    0.000    0.000    0.000    0.000    0.000    0.000 
#
# Total GULP energy -396967.068257 kJ/mol
# GULP energy per Si atom -12405.220883 kJ/mol
# Density = 1.810961 g / cm^3
# Si number density = 18.150918 Si / 1000 Ang^3
#
#
#
# Elastic Constant Matrix: (Units=GPa)
#
#
# Indices 1 2 3 4 5 6 
#
# 1 117.2912 47.2547 57.9833 0.0000 15.7643 0.0000
# 2 47.2547 73.2194 48.3052 0.0000 13.0899 0.0000
# 3 57.9833 48.3052 105.3390 0.0000 15.6988 0.0000
# 4 0.0000 0.0000 0.0000 22.6463 0.0000 2.0021
# 5 15.7643 13.0899 15.6988 0.0000 31.7806 0.0000
# 6 0.0000 0.0000 0.0000 2.0021 0.0000 19.4887
#
#
#
# Elastic Compliance Matrix: (Units=1/GPa)
#
#
# Indices 1 2 3 4 5 6 
#
# 1 0.013118 -0.005059 -0.004579 0.000000 -0.002162 0.000000
# 2 -0.005059 0.021995 -0.006828 0.000000 -0.003177 0.000000
# 3 -0.004579 -0.006828 0.015530 0.000000 -0.002588 0.000000
# 4 0.000000 0.000000 0.000000 0.044562 0.000000 -0.004578
# 5 -0.002162 -0.003177 -0.002588 0.000000 0.035125 0.000000
# 6 0.000000 0.000000 0.000000 -0.004578 0.000000 0.051782
#
#
# Mechanical properties :
#
#
# Convention : Reuss Voigt Hill
#
# Bulk Modulus (GPa) = 56.45916 66.99287 61.72601
# Shear Modulus (GPa) = 22.62969 24.27021 23.44995
#
# Velocity S-wave (km/s) = 3.53477 3.66065 3.59826
# Velocity P-wave (km/s) = 6.91610 7.40649 7.16549
#
# Compressibility (1/GPa) = 0.01771192
#
# Stress axis : x y z
#
# Youngs Moduli (GPa) = 76.23117 45.46412 64.39004
#
# Poissons Ratio (x) = 0.23000 0.29482
# Poissons Ratio (y) = 0.38566 0.43967
# Poissons Ratio (z) = 0.34904 0.31044
#
# Static dielectric constant tensor:
#      x y z
#    x 3.279550 0.000000 0.155390 
#    y 0.000000 3.293790 0.000000 
#    z 0.155390 0.000000 3.236230 
# 
# 
# High freq. dielectric constant tensor:
#      x y z
#    x 1.693980 0.000000 0.021790 
#    y 0.000000 1.705750 0.000000 
#    z 0.021790 0.000000 1.695650 
# 
# From -- ./inp_files/49777.got.cif
#   From: 2010.06.25/outbox.cif.g09.slc.cpg/sg10_25_cif.got.tgz:49777.got - 2010.06.27 22:07:45.
