data_PCOD8061546
_publ_section_title
;
Structure prediction by ZEFSAII (Michael W. Deem and Ramdas Pophale) SiO2 
 PCOD8061546
Probable space group: P 2/M
;
_chemical_formula_sum "Si O2"
_cell_formula_units_Z 32
_cell_length_a 30.908316
_cell_length_b 8.913911
_cell_length_c 12.620606
_cell_angle_alpha 90.000000
_cell_angle_beta 27.888196
_cell_angle_gamma 90.000000
_cell_volume 1626.430600
_symmetry_space_group_name_H-M "P 2/M"
_symmetry_group_IT_number 10
_symmetry_cell_setting 'monoclinic'
loop_
_space_group_symop_operation_xyz
x,y,z
-x,y,-z
-x,-y,-z
x,-y,z
loop_
_atom_site_type_symbol
_atom_site_label
_atom_site_fract_x
_atom_site_fract_y
_atom_site_fract_z
Si Si1 0.136464 0.326023 0.530091
Si Si2 0.398971 0.329495 0.695814
Si Si3 0.666676 0.668384 0.393861
Si Si4 0.596268 0.828725 0.737802
Si Si5 0.213990 0.177521 0.154333
Si Si6 0.074147 0.673381 0.038316
Si Si7 0.845979 0.824885 0.946800
Si Si8 0.789895 0.174320 0.422228
O O1 0.162675 0.500000 0.466241
O O2 0.161050 0.249562 0.366220
O O3 0.192694 0.252671 0.503510
O O4 0.027910 0.303275 0.787503
O O5 0.500000 0.260926 0.500000
O O6 0.390850 0.500000 0.756028
O O7 0.391143 0.323183 0.587335
O O8 0.320023 0.231975 0.923252
O O9 0.705168 0.500000 0.328923
O O10 0.598795 0.716409 0.633910
O O11 0.750252 0.786364 0.212304
O O12 0.682183 0.798565 0.630225
O O13 0.598034 0.000000 0.693912
O O14 0.500000 0.789459 0.000000
O O15 0.160383 0.227099 0.162258
O O16 0.213962 0.000000 0.165666
O O17 0.101657 0.500000 0.981087
O O18 0.075553 0.737529 0.156289
O O19 0.146666 0.758224 0.807293
O O20 0.866686 0.000000 0.910007
O O21 0.814260 0.000000 0.379713
#
# Coordination Sequence:
#
# PCOD8061546 Si02
#       8
#     4   4   4   4   4   4   4   4
#     4  11  25  42  60  85 122 162 198 245 302 358
#     4   9  19  36  58  85 117 154 196 241 294 355
#     4  10  19  33  56  83 112 149 192 240 290 347
#     4  10  22  39  58  84 118 154 192 240 298 353
#     4  10  22  39  59  86 120 156 199 247 299 354
#     4  11  23  39  62  90 118 155 200 245 298 358
#     4  10  20  36  60  87 116 152 192 242 295 349
#     4  11  23  40  63  88 118 158 201 247 297 352
#
# _framework density 19.674987000000002
#
# number of rings (size 3 to 8) (size 9 to 14) (size 15 to 20)
#    0.000    1.750    1.250    2.625    0.000    8.000 
#    0.000    5.000    0.000    0.000    0.000    0.000 
#    0.000    0.000    0.000    0.000    0.000    0.000 
#
# Total GULP energy -396854.581907 kJ/mol
# GULP energy per Si atom -12401.705685 kJ/mol
# Density = 1.963021 g / cm^3
# Si number density = 19.674987 Si / 1000 Ang^3
#
#
#
# Elastic Constant Matrix: (Units=GPa)
#
#
# Indices 1 2 3 4 5 6 
#
# 1 91.1503 46.3626 51.8863 0.0000 6.1145 0.0000
# 2 46.3626 86.9424 40.4863 0.0000 3.7518 0.0000
# 3 51.8863 40.4863 91.6301 0.0000 4.1634 0.0000
# 4 0.0000 0.0000 0.0000 32.5930 0.0000 3.7592
# 5 6.1145 3.7518 4.1634 0.0000 31.7193 0.0000
# 6 0.0000 0.0000 0.0000 3.7592 0.0000 33.5004
#
#
#
# Elastic Compliance Matrix: (Units=1/GPa)
#
#
# Indices 1 2 3 4 5 6 
#
# 1 0.018689 -0.006292 -0.007719 0.000000 -0.001845 0.000000
# 2 -0.006292 0.016624 -0.003771 0.000000 -0.000259 0.000000
# 3 -0.007719 -0.003771 0.016964 0.000000 -0.000293 0.000000
# 4 0.000000 0.000000 0.000000 0.031084 0.000000 -0.003488
# 5 -0.001845 -0.000259 -0.000293 0.000000 0.031951 0.000000
# 6 0.000000 0.000000 0.000000 -0.003488 0.000000 0.030242
#
#
# Mechanical properties :
#
#
# Convention : Reuss Voigt Hill
#
# Bulk Modulus (GPa) = 59.83092 60.79924 60.31508
# Shear Modulus (GPa) = 26.78273 28.29505 27.53889
#
# Velocity S-wave (km/s) = 3.69353 3.79637 3.74530
# Velocity P-wave (km/s) = 6.97604 7.08417 7.03031
#
# Compressibility (1/GPa) = 0.01671376
#
# Stress axis : x y z
#
# Youngs Moduli (GPa) = 53.50787 60.15363 58.94957
#
# Poissons Ratio (x) = 0.37848 0.45502
# Poissons Ratio (y) = 0.33667 0.22228
# Poissons Ratio (z) = 0.41302 0.22682
#
# Static dielectric constant tensor:
#      x y z
#    x 3.821840 0.000000 -0.046720 
#    y 0.000000 3.679500 0.000000 
#    z -0.046720 0.000000 3.448290 
# 
# 
# High freq. dielectric constant tensor:
#      x y z
#    x 1.777370 0.000000 -0.000230 
#    y 0.000000 1.775150 0.000000 
#    z -0.000230 0.000000 1.757930 
# 
# From -- ./inp_files/58159.got.cif
#   From: 2010.06.25/outbox.cif.g09.slc.cpg/sg10_30_cif.got.tgz:58159.got - 2010.06.27 22:07:45.
