data_PCOD8061785
_publ_section_title
;
Structure prediction by ZEFSAII (Michael W. Deem and Ramdas Pophale) SiO2 
 PCOD8061785
Probable space group: P 2/M
;
_chemical_formula_sum "Si O2"
_cell_formula_units_Z 32
_cell_length_a 25.078215
_cell_length_b 9.943857
_cell_length_c 9.114169
_cell_angle_alpha 90.000000
_cell_angle_beta 130.278592
_cell_angle_gamma 90.000000
_cell_volume 1733.971056
_symmetry_space_group_name_H-M "P 2/M"
_symmetry_group_IT_number 10
_symmetry_cell_setting 'monoclinic'
loop_
_space_group_symop_operation_xyz
x,y,z
-x,y,-z
-x,-y,-z
x,-y,z
loop_
_atom_site_type_symbol
_atom_site_label
_atom_site_fract_x
_atom_site_fract_y
_atom_site_fract_z
Si Si1 0.939897 0.348676 0.278109
Si Si2 0.998431 0.154826 0.824660
Si Si3 0.849758 0.851067 0.497889
Si Si4 0.580330 0.654642 0.659202
Si Si5 0.793657 0.257207 0.119928
Si Si6 0.331673 0.649270 0.911413
Si Si7 0.688752 0.156256 0.700279
Si Si8 0.285317 0.158230 0.591182
O O1 0.955237 0.500000 0.251756
O O2 0.942113 0.245344 0.145365
O O3 0.861064 0.346268 0.200271
O O4 0.000000 0.303992 0.500000
O O5 0.924647 0.221120 0.640464
O O6 0.009753 0.000000 0.795113
O O7 0.000000 0.169669 0.000000
O O8 0.820307 0.856751 0.279994
O O9 0.792624 0.788797 0.507439
O O10 0.865149 0.000000 0.582791
O O11 0.500000 0.694481 0.500000
O O12 0.594146 0.500000 0.635732
O O13 0.623929 0.753576 0.633380
O O14 0.601451 0.676307 0.866331
O O15 0.736898 0.345241 0.106791
O O16 0.758983 0.190212 0.915375
O O17 0.334787 0.500000 0.847865
O O18 0.336647 0.757689 0.788986
O O19 0.701321 0.190769 0.553249
O O20 0.669950 0.000000 0.689362
O O21 0.294185 0.000000 0.643459
#
# Coordination Sequence:
#
# PCOD8061785 Si02
#       8
#     4   4   4   4   4   4   4   4
#     4  11  23  38  55  77 107 141 181 232 283 330
#     4  10  22  37  54  75 102 137 180 226 278 335
#     4   9  17  32  51  73 100 137 176 218 269 324
#     4   9  19  37  60  85 115 148 181 220 265 315
#     4  10  19  34  55  77 105 139 180 227 275 322
#     4   9  18  34  57  80 105 141 185 221 260 317
#     4  10  21  35  57  87 113 140 180 228 271 317
#     4   9  19  34  52  77 111 143 176 220 271 320
#
# _framework density 18.454747999999999
#
# number of rings (size 3 to 8) (size 9 to 14) (size 15 to 20)
#    0.000    2.375    1.250    0.750    1.750    5.750 
#    0.000    0.625    0.000    3.750    0.000    0.000 
#    0.000    0.000    0.000    0.000    0.000    0.000 
#
# Total GULP energy -396628.937467 kJ/mol
# GULP energy per Si atom -12394.654296 kJ/mol
# Density = 1.841274 g / cm^3
# Si number density = 18.454748 Si / 1000 Ang^3
#
#
#
# Elastic Constant Matrix: (Units=GPa)
#
#
# Indices 1 2 3 4 5 6 
#
# 1 83.7863 48.5444 63.1996 0.0000 -3.9442 0.0000
# 2 48.5444 90.2042 48.3931 0.0000 -10.9072 0.0000
# 3 63.1996 48.3931 124.6140 0.0000 1.7656 0.0000
# 4 0.0000 0.0000 0.0000 24.0325 0.0000 -4.5921
# 5 -3.9442 -10.9072 1.7656 0.0000 33.5982 0.0000
# 6 0.0000 0.0000 0.0000 -4.5921 0.0000 21.2950
#
#
#
# Elastic Compliance Matrix: (Units=1/GPa)
#
#
# Indices 1 2 3 4 5 6 
#
# 1 0.022915 -0.007591 -0.008684 0.000000 0.000682 0.000000
# 2 -0.007591 0.017350 -0.002957 0.000000 0.004897 0.000000
# 3 -0.008684 -0.002957 0.013615 0.000000 -0.002695 0.000000
# 4 0.000000 0.000000 0.000000 0.043399 0.000000 0.009359
# 5 0.000682 0.004897 -0.002695 0.000000 0.031575 0.000000
# 6 0.000000 0.000000 0.000000 0.009359 0.000000 0.048977
#
#
# Mechanical properties :
#
#
# Convention : Reuss Voigt Hill
#
# Bulk Modulus (GPa) = 64.86392 68.76431 66.81412
# Shear Modulus (GPa) = 22.58014 25.01631 23.79823
#
# Velocity S-wave (km/s) = 3.50171 3.68577 3.59492
# Velocity P-wave (km/s) = 7.18145 7.44682 7.31534
#
# Compressibility (1/GPa) = 0.01541689
#
# Stress axis : x y z
#
# Youngs Moduli (GPa) = 43.63885 57.63785 73.44682
#
# Poissons Ratio (x) = 0.43754 0.63778
# Poissons Ratio (y) = 0.33127 0.21719
# Poissons Ratio (z) = 0.37894 0.17044
#
# Static dielectric constant tensor:
#      x y z
#    x 3.259480 0.000000 0.076520 
#    y 0.000000 3.281670 0.000000 
#    z 0.076520 0.000000 3.491550 
# 
# 
# High freq. dielectric constant tensor:
#      x y z
#    x 1.702420 0.000000 0.000540 
#    y 0.000000 1.707700 0.000000 
#    z 0.000540 0.000000 1.718100 
# 
# From -- ./inp_files/36039.got.cif
#   From: 2010.06.25/outbox.cif.g09.slc.cpg/sg10_19_cif.got.tgz:36039.got - 2010.06.27 22:07:45.
