data_PCOD8061342
_publ_section_title
;
Structure prediction by ZEFSAII (Michael W. Deem and Ramdas Pophale) SiO2 
 PCOD8061342
Probable space group: P 2/M
;
_chemical_formula_sum "Si O2"
_cell_formula_units_Z 26
_cell_length_a 12.164519
_cell_length_b 13.649111
_cell_length_c 18.824405
_cell_angle_alpha 90.000000
_cell_angle_beta 27.378994
_cell_angle_gamma 90.000000
_cell_volume 1437.340511
_symmetry_space_group_name_H-M "P 2/M"
_symmetry_group_IT_number 10
_symmetry_cell_setting 'monoclinic'
loop_
_space_group_symop_operation_xyz
x,y,z
-x,y,-z
-x,-y,-z
x,-y,z
loop_
_atom_site_type_symbol
_atom_site_label
_atom_site_fract_x
_atom_site_fract_y
_atom_site_fract_z
Si Si1 0.582067 0.889938 0.027459
Si Si2 0.916321 0.111147 0.317956
Si Si3 0.500000 0.242840 0.500000
Si Si4 0.391843 0.746425 0.250049
Si Si5 0.069757 0.257038 0.567495
Si Si6 0.422133 0.392323 0.431864
Si Si7 0.754442 0.608074 0.108599
O O1 0.868312 0.889296 0.861796
O O2 0.477125 0.000000 0.089631
O O3 0.500000 0.839299 0.000000
O O4 0.490101 0.840042 0.151937
O O5 0.715960 0.172777 0.393909
O O6 0.986456 0.160974 0.352975
O O7 0.831262 0.000000 0.382422
O O8 0.568778 0.316546 0.396710
O O9 0.277696 0.774517 0.391893
O O10 0.621279 0.674215 0.125719
O O11 0.172246 0.702163 0.330017
O O12 0.162733 0.345866 0.563320
O O13 0.385023 0.500000 0.488586
O O14 0.565915 0.406095 0.278249
O O15 0.813834 0.500000 0.041906
O O16 0.000000 0.654720 0.000000
#
# Coordination Sequence:
#
# PCOD8061342 Si02
#       7
#     4   4   2   4   4   4   4
#     4  10  20  34  53  77 103 135 167 206 257 305
#     4  10  20  35  52  74 106 136 170 210 252 302
#     4  10  20  32  54  78  98 136 174 204 252 300
#     4  10  19  33  55  75 103 132 172 211 250 297
#     4   9  19  33  51  79  99 134 173 210 252 295
#     4   9  18  33  51  75 104 131 167 211 249 299
#     4   9  19  34  52  74 100 132 168 204 253 306
#
# _framework density 18.088963
#
# number of rings (size 3 to 8) (size 9 to 14) (size 15 to 20)
#    0.000    2.462    1.538    0.462    2.154    1.231 
#    0.000    4.615    0.000    0.923    0.000    0.000 
#    0.000    0.000    0.000    0.000    0.000    0.000 
#
# Total GULP energy -322158.125009 kJ/mol
# GULP energy per Si atom -12390.697116 kJ/mol
# Density = 1.804779 g / cm^3
# Si number density = 18.088963 Si / 1000 Ang^3
#
#
#
# Elastic Constant Matrix: (Units=GPa)
#
#
# Indices 1 2 3 4 5 6 
#
# 1 101.2820 54.1808 23.3876 0.0000 -17.7551 0.0000
# 2 54.1808 113.6462 32.4469 0.0000 -8.7879 0.0000
# 3 23.3876 32.4469 53.4240 0.0000 -7.8641 0.0000
# 4 0.0000 0.0000 0.0000 20.2875 0.0000 7.0719
# 5 -17.7551 -8.7879 -7.8641 0.0000 28.3502 0.0000
# 6 0.0000 0.0000 0.0000 7.0719 0.0000 16.9261
#
#
#
# Elastic Compliance Matrix: (Units=1/GPa)
#
#
# Indices 1 2 3 4 5 6 
#
# 1 0.014673 -0.005952 -0.001801 0.000000 0.006845 0.000000
# 2 -0.005952 0.013127 -0.005543 0.000000 -0.001196 0.000000
# 3 -0.001801 -0.005543 0.023410 0.000000 0.003648 0.000000
# 4 0.000000 0.000000 0.000000 0.057694 0.000000 -0.024105
# 5 0.006845 -0.001196 0.003648 0.000000 0.040201 0.000000
# 6 0.000000 0.000000 0.000000 -0.024105 0.000000 0.069152
#
#
# Mechanical properties :
#
#
# Convention : Reuss Voigt Hill
#
# Bulk Modulus (GPa) = 40.62047 54.26475 47.44261
# Shear Modulus (GPa) = 19.75849 23.66855 21.71352
#
# Velocity S-wave (km/s) = 3.30857 3.62118 3.46840
# Velocity P-wave (km/s) = 6.09100 6.89549 6.50569
#
# Compressibility (1/GPa) = 0.02461813
#
# Stress axis : x y z
#
# Youngs Moduli (GPa) = 68.15120 76.17937 42.71658
#
# Poissons Ratio (x) = 0.45342 0.07694
# Poissons Ratio (y) = 0.40563 0.23678
# Poissons Ratio (z) = 0.12275 0.42227
#
# Static dielectric constant tensor:
#      x y z
#    x 3.482370 0.000000 -0.125560 
#    y 0.000000 3.560850 0.000000 
#    z -0.125560 0.000000 3.254750 
# 
# 
# High freq. dielectric constant tensor:
#      x y z
#    x 1.702870 0.000000 -0.011630 
#    y 0.000000 1.691500 0.000000 
#    z -0.011630 0.000000 1.691670 
# 
# From -- ./inp_files/76831.got.cif
#   From: 2010.06.25/outbox.cif.g09.slc.cpg/sg10_39_cif.got.tgz:76831.got - 2010.06.27 22:07:45.
