data_PCOD8061850
_publ_section_title
;
Structure prediction by ZEFSAII (Michael W. Deem and Ramdas Pophale) SiO2 
 PCOD8061850
Probable space group: P 2/M
;
_chemical_formula_sum "Si O2"
_cell_formula_units_Z 20
_cell_length_a 5.086556
_cell_length_b 23.319732
_cell_length_c 9.889331
_cell_angle_alpha 90.000000
_cell_angle_beta 123.416904
_cell_angle_gamma 90.000000
_cell_volume 979.122713
_symmetry_space_group_name_H-M "P 2/M"
_symmetry_group_IT_number 10
_symmetry_cell_setting 'monoclinic'
loop_
_space_group_symop_operation_xyz
x,y,z
-x,y,-z
-x,-y,-z
x,-y,z
loop_
_atom_site_type_symbol
_atom_site_label
_atom_site_fract_x
_atom_site_fract_y
_atom_site_fract_z
Si Si1 0.370431 0.935794 0.105446
Si Si2 0.240802 0.667132 0.309380
Si Si3 0.858734 0.435967 0.107472
Si Si4 0.252046 0.274080 0.684348
Si Si5 0.355508 0.150371 0.608396
O O1 0.456309 0.897420 0.257872
O O2 0.509629 0.000000 0.165012
O O3 0.500000 0.910278 0.000000
O O4 0.000000 0.937920 0.000000
O O5 0.500000 0.670164 0.500000
O O6 0.437177 0.685151 0.230966
O O7 0.082346 0.604623 0.260583
O O8 0.953034 0.713731 0.239054
O O9 0.866835 0.500000 0.173763
O O10 0.500000 0.413388 0.000000
O O11 0.000000 0.436753 0.000000
O O12 0.363151 0.208902 0.696884
O O13 0.000000 0.292718 0.500000
O O14 0.500000 0.160268 0.500000
O O15 0.000000 0.128035 0.500000
#
# Coordination Sequence:
#
# PCOD8061850 Si02
#       5
#     4   4   4   4   4
#     4  10  22  40  58  80 116 154 185 229 288 333
#     4  10  19  34  56  78 103 139 179 216 262 325
#     4  10  21  37  54  75 107 141 174 221 277 322
#     4   9  18  33  53  79 110 139 170 221 279 317
#     4  11  21  36  60  86 112 146 191 233 273 332
#
# _framework density 20.426449000000002
#
# number of rings (size 3 to 8) (size 9 to 14) (size 15 to 20)
#    0.000    2.000    0.000    5.400    0.000    1.200 
#    0.000    6.000    0.000    7.200    0.000    0.000 
#    0.000    0.000    0.000    0.000    0.000    0.000 
#
# Total GULP energy -247819.139446 kJ/mol
# GULP energy per Si atom -12390.956972 kJ/mol
# Density = 2.037996 g / cm^3
# Si number density = 20.426449 Si / 1000 Ang^3
#
#
#
# Elastic Constant Matrix: (Units=GPa)
#
#
# Indices 1 2 3 4 5 6 
#
# 1 131.7314 41.2004 31.0044 0.0000 20.2981 0.0000
# 2 41.2004 121.5768 51.4696 0.0000 12.0353 0.0000
# 3 31.0044 51.4696 46.7307 0.0000 13.7856 0.0000
# 4 0.0000 0.0000 0.0000 27.9143 0.0000 7.6583
# 5 20.2981 12.0353 13.7856 0.0000 29.4337 0.0000
# 6 0.0000 0.0000 0.0000 7.6583 0.0000 34.9516
#
#
#
# Elastic Compliance Matrix: (Units=1/GPa)
#
#
# Indices 1 2 3 4 5 6 
#
# 1 0.009510 -0.001244 -0.003661 0.000000 -0.004335 0.000000
# 2 -0.001244 0.015667 -0.017166 0.000000 0.002491 0.000000
# 3 -0.003661 -0.017166 0.046319 0.000000 -0.012150 0.000000
# 4 0.000000 0.000000 0.000000 0.038115 0.000000 -0.008352
# 5 -0.004335 0.002491 -0.012150 0.000000 0.041636 0.000000
# 6 0.000000 0.000000 0.000000 -0.008352 0.000000 0.030441
#
#
# Mechanical properties :
#
#
# Convention : Reuss Voigt Hill
#
# Bulk Modulus (GPa) = 36.55584 60.82086 48.68835
# Shear Modulus (GPa) = 21.28139 30.21755 25.74947
#
# Velocity S-wave (km/s) = 3.23128 3.85038 3.55434
# Velocity P-wave (km/s) = 5.64418 7.04326 6.38217
#
# Compressibility (1/GPa) = 0.02735541
#
# Stress axis : x y z
#
# Youngs Moduli (GPa) = 105.15506 63.82737 21.58955
#
# Poissons Ratio (x) = 0.07939 0.07903
# Poissons Ratio (y) = 0.13080 0.37060
# Poissons Ratio (z) = 0.38493 1.09564
#
# Static dielectric constant tensor:
#      x y z
#    x 4.304100 0.000000 0.260900 
#    y 0.000000 3.792190 0.000000 
#    z 0.260900 0.000000 3.194660 
# 
# 
# High freq. dielectric constant tensor:
#      x y z
#    x 1.828520 0.000000 0.024540 
#    y 0.000000 1.795640 0.000000 
#    z 0.024540 0.000000 1.760090 
# 
# From -- ./inp_files/40062.got.cif
#   From: 2010.06.25/outbox.cif.g09.slc.cpg/sg10_21_cif.got.tgz:40062.got - 2010.06.27 22:07:45.
