data_PCOD8061583
_publ_section_title
;
Structure prediction by ZEFSAII (Michael W. Deem and Ramdas Pophale) SiO2 
 PCOD8061583
Probable space group: P 2/M
;
_chemical_formula_sum "Si O2"
_cell_formula_units_Z 28
_cell_length_a 8.770858
_cell_length_b 9.317938
_cell_length_c 24.380753
_cell_angle_alpha 90.000000
_cell_angle_beta 39.877259
_cell_angle_gamma 90.000000
_cell_volume 1277.513008
_symmetry_space_group_name_H-M "P 2/M"
_symmetry_group_IT_number 10
_symmetry_cell_setting 'monoclinic'
loop_
_space_group_symop_operation_xyz
x,y,z
-x,y,-z
-x,-y,-z
x,-y,z
loop_
_atom_site_type_symbol
_atom_site_label
_atom_site_fract_x
_atom_site_fract_y
_atom_site_fract_z
Si Si1 0.523794 0.159742 0.791293
Si Si2 0.097827 0.343147 0.148927
Si Si3 0.949826 0.668108 0.652467
Si Si4 0.192966 0.171938 0.685958
Si Si5 0.494939 0.843276 0.078640
Si Si6 0.997178 0.268756 0.061389
Si Si7 0.395354 0.658297 0.468056
O O1 0.683672 0.273858 0.713040
O O2 0.598530 0.178335 0.833924
O O3 0.244705 0.183742 0.861491
O O4 0.582399 0.000000 0.754028
O O5 0.097304 0.500000 0.177824
O O6 0.363048 0.275569 0.078084
O O7 0.028811 0.373401 0.104403
O O8 0.914172 0.233777 0.228063
O O9 0.942488 0.500000 0.670337
O O10 0.050031 0.761619 0.674876
O O11 0.113857 0.693025 0.553080
O O12 0.469342 0.223003 0.605874
O O13 0.179908 0.000000 0.689131
O O14 0.417238 0.000000 0.078616
O O15 0.780161 0.838993 0.998509
O O16 0.000000 0.346102 0.000000
O O17 0.500000 0.655782 0.500000
O O18 0.429794 0.500000 0.431753
#
# Coordination Sequence:
#
# PCOD8061583 Si02
#       7
#     4   4   4   4   4   4   4
#     4  10  20  36  60  89 121 160 202 245 293 353
#     4  12  25  40  61  88 120 158 199 249 305 358
#     4  10  19  33  56  87 124 162 196 238 292 351
#     4  11  21  34  56  87 120 155 198 247 297 347
#     4  10  21  39  63  89 118 154 197 248 302 356
#     4  10  24  43  62  87 117 156 200 253 301 360
#     4   8  16  31  52  82 121 159 193 235 291 350
#
# _framework density 21.917584999999999
#
# number of rings (size 3 to 8) (size 9 to 14) (size 15 to 20)
#    0.000    1.857    1.429    3.857    0.000    9.714 
#    0.000    2.857    0.000    0.857    0.000    5.000 
#    0.000    0.000    0.000    0.000    0.000    0.000 
#
# Total GULP energy -346935.615996 kJ/mol
# GULP energy per Si atom -12390.557714 kJ/mol
# Density = 2.186770 g / cm^3
# Si number density = 21.917585 Si / 1000 Ang^3
#
#
#
# Elastic Constant Matrix: (Units=GPa)
#
#
# Indices 1 2 3 4 5 6 
#
# 1 75.0139 40.0092 38.3886 0.0000 -4.9646 0.0000
# 2 40.0092 183.0448 81.3335 0.0000 -14.8587 0.0000
# 3 38.3886 81.3335 157.8523 0.0000 -31.0353 0.0000
# 4 0.0000 0.0000 0.0000 -24.7616 0.0000 5.1868
# 5 -4.9646 -14.8587 -31.0353 0.0000 23.7619 0.0000
# 6 0.0000 0.0000 0.0000 5.1868 0.0000 12.0996
#
#
#
# Elastic Compliance Matrix: (Units=1/GPa)
#
#
# Indices 1 2 3 4 5 6 
#
# 1 0.016014 -0.002278 -0.003153 0.000000 -0.002196 0.000000
# 2 -0.002278 0.007413 -0.003294 0.000000 -0.000142 0.000000
# 3 -0.003153 -0.003294 0.011120 0.000000 0.011805 0.000000
# 4 0.000000 0.000000 0.000000 -0.037057 0.000000 0.015886
# 5 -0.002196 -0.000142 0.011805 0.000000 0.056955 0.000000
# 6 0.000000 0.000000 0.000000 0.015886 0.000000 0.075838
#
#
# Mechanical properties :
#
#
# Convention : Reuss Voigt Hill
#
# Bulk Modulus (GPa) = 58.48399 81.70817 70.09608
# Shear Modulus (GPa) = 32.58836 19.29862 25.94349
#
# Velocity S-wave (km/s) = 3.86016 2.97056 3.44420
# Velocity P-wave (km/s) = 6.82710 7.00901 6.91866
#
# Compressibility (1/GPa) = 0.01709870
#
# Stress axis : x y z
#
# Youngs Moduli (GPa) = 62.44657 134.90030 89.92995
#
# Poissons Ratio (x) = 0.30726 0.28352
# Poissons Ratio (y) = 0.14223 0.29619
# Poissons Ratio (z) = 0.19687 0.44430
#
# Static dielectric constant tensor:
#      x y z
#    x 3.667840 0.000000 -0.150240 
#    y 0.000000 3.787660 0.000000 
#    z -0.150240 0.000000 4.469150 
# 
# 
# High freq. dielectric constant tensor:
#      x y z
#    x 1.821770 0.000000 -0.015210 
#    y 0.000000 1.852830 0.000000 
#    z -0.015210 0.000000 1.879400 
# 
# From -- ./inp_files/91957.got.cif
#   From: 2010.06.25/outbox.cif.g09.slc.cpg/sg10_46_cif.got.tgz:91957.got - 2010.06.27 22:07:45.
