data_PCOD8061953
_publ_section_title
;
Structure prediction by ZEFSAII (Michael W. Deem and Ramdas Pophale) SiO2 
 PCOD8061953
Probable space group: P 2/M
;
_chemical_formula_sum "Si O2"
_cell_formula_units_Z 32
_cell_length_a 14.548257
_cell_length_b 8.411427
_cell_length_c 23.564505
_cell_angle_alpha 90.000000
_cell_angle_beta 32.143754
_cell_angle_gamma 90.000000
_cell_volume 1534.219865
_symmetry_space_group_name_H-M "P 2/M"
_symmetry_group_IT_number 10
_symmetry_cell_setting 'monoclinic'
loop_
_space_group_symop_operation_xyz
x,y,z
-x,y,-z
-x,-y,-z
x,-y,z
loop_
_atom_site_type_symbol
_atom_site_label
_atom_site_fract_x
_atom_site_fract_y
_atom_site_fract_z
Si Si1 0.009804 0.812483 0.673359
Si Si2 0.693127 0.316127 0.909430
Si Si3 0.757493 0.815671 0.995635
Si Si4 0.382332 0.812353 0.510476
Si Si5 0.577983 0.813194 0.294120
Si Si6 0.092244 0.810133 0.395573
Si Si7 0.462843 0.812299 0.232363
Si Si8 0.050867 0.683821 0.910730
O O1 0.835128 0.773251 0.797764
O O2 0.996382 0.745481 0.615818
O O3 0.184012 0.745048 0.613229
O O4 0.028597 0.000000 0.660191
O O5 0.700472 0.500000 0.889001
O O6 0.738166 0.292385 0.951013
O O7 0.500000 0.247107 0.000000
O O8 0.948928 0.792362 0.919428
O O9 0.726377 0.000000 0.996548
O O10 0.624599 0.747596 0.112018
O O11 0.500000 0.738331 0.500000
O O12 0.464939 0.765869 0.407289
O O13 0.376401 0.000000 0.522074
O O14 0.473749 0.760918 0.292390
O O15 0.749878 0.710349 0.206241
O O16 0.623350 0.000000 0.269555
O O17 0.288443 0.745570 0.295366
O O18 0.000000 0.742286 0.500000
O O19 0.087254 0.000000 0.398916
O O20 0.464014 0.000000 0.228205
O O21 0.002197 0.500000 0.927829
O O22 0.000000 0.742750 0.000000
#
# Coordination Sequence:
#
# PCOD8061953 Si02
#       8
#     4   4   4   4   4   4   4   4
#     4  10  20  36  60  88 117 154 201 249 296 353
#     4  11  25  43  61  85 122 164 200 243 302 362
#     4  11  22  37  60  87 115 149 199 250 296 351
#     4   9  19  34  54  84 117 149 193 248 300 347
#     4  10  19  34  57  81 113 153 197 243 293 348
#     4   9  16  28  51  83 116 144 179 233 295 344
#     4   9  17  29  49  80 110 140 182 235 287 340
#     4  11  23  38  56  84 123 160 196 241 297 358
#
# _framework density 20.857506999999998
#
# number of rings (size 3 to 8) (size 9 to 14) (size 15 to 20)
#    0.000    2.000    1.250    2.625    1.750    5.500 
#    0.000    0.625    0.000    1.125    0.000    0.000 
#    0.000    0.000    0.000    0.000    0.000    0.000 
#
# Total GULP energy -396764.344674 kJ/mol
# GULP energy per Si atom -12398.885771 kJ/mol
# Density = 2.081003 g / cm^3
# Si number density = 20.857507 Si / 1000 Ang^3
#
#
#
# Elastic Constant Matrix: (Units=GPa)
#
#
# Indices 1 2 3 4 5 6 
#
# 1 173.9090 11.2298 74.2776 0.0000 -6.1372 0.0000
# 2 11.2298 16.6930 7.0852 0.0000 -2.4969 0.0000
# 3 74.2776 7.0852 131.2862 0.0000 -9.0846 0.0000
# 4 0.0000 0.0000 0.0000 6.9417 0.0000 -10.5283
# 5 -6.1372 -2.4969 -9.0846 0.0000 44.2205 0.0000
# 6 0.0000 0.0000 0.0000 -10.5283 0.0000 7.6185
#
#
#
# Elastic Compliance Matrix: (Units=1/GPa)
#
#
# Indices 1 2 3 4 5 6 
#
# 1 0.007771 -0.003438 -0.004210 0.000000 0.000020 0.000000
# 2 -0.003438 0.063180 -0.001269 0.000000 0.002830 0.000000
# 3 -0.004210 -0.001269 0.010166 0.000000 0.001433 0.000000
# 4 0.000000 0.000000 0.000000 -0.131441 0.000000 -0.181645
# 5 0.000020 0.002830 0.001433 0.000000 0.023071 0.000000
# 6 0.000000 0.000000 0.000000 -0.181645 0.000000 -0.119764
#
#
# Mechanical properties :
#
#
# Convention : Reuss Voigt Hill
#
# Bulk Modulus (GPa) = 15.80170 56.34149 36.07160
# Shear Modulus (GPa) = -46.25793 27.04249 -9.60772
#
# Velocity S-wave (km/s) = -4.71447 3.60465 -2.14857
# Velocity P-wave (km/s) = 4.69494 6.66302 3.34316
#
# Compressibility (1/GPa) = 0.06328431
#
# Stress axis : x y z
#
# Youngs Moduli (GPa) = 128.68774 15.82780 98.36522
#
# Poissons Ratio (x) = 0.05441 0.41407
# Poissons Ratio (y) = 0.44242 0.12481
# Poissons Ratio (z) = 0.54172 0.02008
#
# Static dielectric constant tensor:
#      x y z
#    x 4.134040 0.000000 -0.120100 
#    y 0.000000 3.193720 0.000000 
#    z -0.120100 0.000000 3.962300 
# 
# 
# High freq. dielectric constant tensor:
#      x y z
#    x 1.833440 0.000000 -0.004510 
#    y 0.000000 1.765140 0.000000 
#    z -0.004510 0.000000 1.825910 
# 
# From -- ./inp_files/89477.got.cif
#   From: 2010.06.25/outbox.cif.g09.slc.cpg/sg10_45_cif.got.tgz:89477.got - 2010.06.27 22:07:45.
