data_PCOD8061937
_publ_section_title
;
Structure prediction by ZEFSAII (Michael W. Deem and Ramdas Pophale) SiO2 
 PCOD8061937
Probable space group: P 2/M
;
_chemical_formula_sum "Si O2"
_cell_formula_units_Z 24
_cell_length_a 18.335333
_cell_length_b 8.648118
_cell_length_c 11.747691
_cell_angle_alpha 90.000000
_cell_angle_beta 43.434281
_cell_angle_gamma 90.000000
_cell_volume 1280.706436
_symmetry_space_group_name_H-M "P 2/M"
_symmetry_group_IT_number 10
_symmetry_cell_setting 'monoclinic'
loop_
_space_group_symop_operation_xyz
x,y,z
-x,y,-z
-x,-y,-z
x,-y,z
loop_
_atom_site_type_symbol
_atom_site_label
_atom_site_fract_x
_atom_site_fract_y
_atom_site_fract_z
Si Si1 0.564254 0.326390 0.666541
Si Si2 0.862625 0.817547 0.740429
Si Si3 0.920400 0.317946 0.441538
Si Si4 0.314485 0.674587 0.685365
Si Si5 0.775536 0.818310 0.421282
Si Si6 0.346586 0.180731 0.890930
O O1 0.573239 0.500000 0.705029
O O2 0.577458 0.326903 0.513220
O O3 0.661206 0.224796 0.608906
O O4 0.450094 0.259474 0.828162
O O5 0.859414 0.769543 0.612280
O O6 0.956483 0.729373 0.699541
O O7 0.881515 0.000000 0.729612
O O8 0.753225 0.765037 0.921918
O O9 0.909891 0.500000 0.471518
O O10 0.869683 0.266885 0.380341
O O11 0.280796 0.500000 0.756108
O O12 0.223028 0.754418 0.710520
O O13 0.330011 0.774291 0.779478
O O14 0.794398 0.000000 0.402487
O O15 0.364526 0.000000 0.877639
#
# Coordination Sequence:
#
# PCOD8061937 Si02
#       6
#     4   4   4   4   4   4
#     4   9  19  33  52  80 111 145 178 215 262 313
#     4  10  22  38  57  81 107 139 178 222 267 311
#     4  11  21  38  60  81 103 136 181 221 268 320
#     4   9  19  33  52  80 111 145 178 215 262 313
#     4  10  19  34  57  80 106 142 178 218 265 316
#     4  11  21  33  53  82 112 142 179 219 262 314
#
# _framework density 18.739657999999999
#
# number of rings (size 3 to 8) (size 9 to 14) (size 15 to 20)
#    1.000    1.000    0.000    6.000    0.000    4.667 
#    0.000    1.667    0.000   10.000    0.000    0.000 
#    0.000    0.000    0.000    0.000    0.000    0.000 
#
# Total GULP energy -297494.092049 kJ/mol
# GULP energy per Si atom -12395.587169 kJ/mol
# Density = 1.869701 g / cm^3
# Si number density = 18.739658 Si / 1000 Ang^3
#
#
#
# Elastic Constant Matrix: (Units=GPa)
#
#
# Indices 1 2 3 4 5 6 
#
# 1 38.9705 3.8553 -18.3039 0.0000 -2.9266 0.0000
# 2 3.8553 73.2552 18.1745 0.0000 -10.5578 0.0000
# 3 -18.3039 18.1745 38.8240 0.0000 -8.2712 0.0000
# 4 0.0000 0.0000 0.0000 20.5791 0.0000 -0.4348
# 5 -2.9266 -10.5578 -8.2712 0.0000 8.6676 0.0000
# 6 0.0000 0.0000 0.0000 -0.4348 0.0000 34.4187
#
#
#
# Elastic Compliance Matrix: (Units=1/GPa)
#
#
# Indices 1 2 3 4 5 6 
#
# 1 0.043453 -0.004336 0.030773 0.000000 0.038756 0.000000
# 2 -0.004336 0.017593 -0.007564 0.000000 0.012747 0.000000
# 3 0.030773 -0.007564 0.055299 0.000000 0.053947 0.000000
# 4 0.000000 0.000000 0.000000 0.048606 0.000000 0.000614
# 5 0.038756 0.012747 0.053947 0.000000 0.195464 0.000000
# 6 0.000000 0.000000 0.000000 0.000614 0.000000 0.029062
#
#
# Mechanical properties :
#
#
# Convention : Reuss Voigt Hill
#
# Bulk Modulus (GPa) = 6.48967 17.61130 12.05048
# Shear Modulus (GPa) = 12.40400 22.55466 17.47933
#
# Velocity S-wave (km/s) = 2.57556 3.47303 3.05740
# Velocity P-wave (km/s) = 3.50931 5.04984 4.34834
#
# Compressibility (1/GPa) = 0.15409101
#
# Stress axis : x y z
#
# Youngs Moduli (GPa) = 23.01315 56.84090 18.08344
#
# Poissons Ratio (x) = 0.24646 -0.55648
# Poissons Ratio (y) = 0.09978 0.13679
# Poissons Ratio (z) = -0.70818 0.42996
#
# Static dielectric constant tensor:
#      x y z
#    x 3.304770 0.000000 -0.095570 
#    y 0.000000 3.491410 0.000000 
#    z -0.095570 0.000000 3.249010 
# 
# 
# High freq. dielectric constant tensor:
#      x y z
#    x 1.722410 0.000000 -0.008600 
#    y 0.000000 1.746220 0.000000 
#    z -0.008600 0.000000 1.696400 
# 
# From -- ./inp_files/52620.got.cif
#   From: 2010.06.25/outbox.cif.g09.slc.cpg/sg10_27_cif.got.tgz:52620.got - 2010.06.27 22:07:45.
