data_PCOD8061616
_publ_section_title
;
Structure prediction by ZEFSAII (Michael W. Deem and Ramdas Pophale) SiO2 
 PCOD8061616
Probable space group: P 2/M
;
_chemical_formula_sum "Si O2"
_cell_formula_units_Z 32
_cell_length_a 20.086687
_cell_length_b 8.796133
_cell_length_c 12.153143
_cell_angle_alpha 90.000000
_cell_angle_beta 125.923550
_cell_angle_gamma 90.000000
_cell_volume 1738.868658
_symmetry_space_group_name_H-M "P 2/M"
_symmetry_group_IT_number 10
_symmetry_cell_setting 'monoclinic'
loop_
_space_group_symop_operation_xyz
x,y,z
-x,y,-z
-x,-y,-z
x,-y,z
loop_
_atom_site_type_symbol
_atom_site_label
_atom_site_fract_x
_atom_site_fract_y
_atom_site_fract_z
Si Si1 0.297486 0.679439 0.147155
Si Si2 0.209710 0.174838 0.860572
Si Si3 0.621616 0.679653 0.381758
Si Si4 0.238086 0.321147 0.318351
Si Si5 0.873854 0.677110 0.602881
Si Si6 0.473358 0.820057 0.353275
Si Si7 0.263258 0.824122 0.671018
Si Si8 0.039171 0.324891 0.655043
O O1 0.312102 0.500000 0.167201
O O2 0.243341 0.740430 0.198867
O O3 0.384334 0.761467 0.234349
O O4 0.248560 0.719165 0.990485
O O5 0.260651 0.203715 0.798838
O O6 0.114649 0.215933 0.752529
O O7 0.215259 0.000000 0.902441
O O8 0.610370 0.500000 0.369827
O O9 0.683889 0.738148 0.536643
O O10 0.534436 0.756882 0.319562
O O11 0.658480 0.732954 0.300520
O O12 0.242594 0.500000 0.318081
O O13 0.154579 0.271202 0.301518
O O14 0.852905 0.500000 0.563493
O O15 0.822895 0.767444 0.462105
O O16 0.970590 0.707223 0.682348
O O17 0.500000 0.759843 0.500000
O O18 0.473955 0.000000 0.350195
O O19 0.273955 0.000000 0.652128
O O20 0.068440 0.500000 0.685674
O O21 0.000000 0.283947 0.500000
#
# Coordination Sequence:
#
# PCOD8061616 Si02
#       8
#     4   4   4   4   4   4   4   4
#     4  11  22  38  59  81 111 150 194 234 276 333
#     4  11  24  39  55  79 116 154 188 229 287 346
#     4  10  19  34  58  85 113 143 186 234 275 326
#     4   8  16  31  53  81 109 141 180 227 278 322
#     4   9  17  32  55  83 112 141 181 233 282 330
#     4  11  22  36  57  87 120 149 183 228 279 333
#     4  10  20  34  53  80 113 147 183 227 285 341
#     4  10  19  33  57  86 112 142 190 238 277 331
#
# _framework density 18.40277
#
# number of rings (size 3 to 8) (size 9 to 14) (size 15 to 20)
#    0.000    2.000    2.500    2.625    0.000    2.750 
#    0.000    1.875    0.000    7.500    0.000    0.000 
#    0.000    0.000    0.000    0.000    0.000    0.000 
#
# Total GULP energy -396779.902120 kJ/mol
# GULP energy per Si atom -12399.371941 kJ/mol
# Density = 1.836088 g / cm^3
# Si number density = 18.402770 Si / 1000 Ang^3
#
#
#
# Elastic Constant Matrix: (Units=GPa)
#
#
# Indices 1 2 3 4 5 6 
#
# 1 136.2035 38.4989 44.6592 0.0000 -6.3668 0.0000
# 2 38.4989 62.3046 23.2756 0.0000 -5.0412 0.0000
# 3 44.6592 23.2756 68.4561 0.0000 -7.1028 0.0000
# 4 0.0000 0.0000 0.0000 24.5614 0.0000 1.5037
# 5 -6.3668 -5.0412 -7.1028 0.0000 23.8542 0.0000
# 6 0.0000 0.0000 0.0000 1.5037 0.0000 27.6794
#
#
#
# Elastic Compliance Matrix: (Units=1/GPa)
#
#
# Indices 1 2 3 4 5 6 
#
# 1 0.010303 -0.004403 -0.005196 0.000000 0.000272 0.000000
# 2 -0.004403 0.020369 -0.003847 0.000000 0.001984 0.000000
# 3 -0.005196 -0.003847 0.019686 0.000000 0.003662 0.000000
# 4 0.000000 0.000000 0.000000 0.040850 0.000000 -0.002219
# 5 0.000272 0.001984 0.003662 0.000000 0.043503 0.000000
# 6 0.000000 0.000000 0.000000 -0.002219 0.000000 0.036248
#
#
# Mechanical properties :
#
#
# Convention : Reuss Voigt Hill
#
# Bulk Modulus (GPa) = 42.61747 53.31463 47.96605
# Shear Modulus (GPa) = 24.31034 25.92105 25.11569
#
# Velocity S-wave (km/s) = 3.63852 3.75712 3.69830
# Velocity P-wave (km/s) = 6.39220 6.91774 6.66016
#
# Compressibility (1/GPa) = 0.02346456
#
# Stress axis : x y z
#
# Youngs Moduli (GPa) = 97.05911 49.09485 50.79837
#
# Poissons Ratio (x) = 0.21618 0.26395
# Poissons Ratio (y) = 0.42737 0.19543
# Poissons Ratio (z) = 0.50433 0.18887
#
# Static dielectric constant tensor:
#      x y z
#    x 3.790210 0.000000 -0.231200 
#    y 0.000000 3.307750 0.000000 
#    z -0.231200 0.000000 3.206680 
# 
# 
# High freq. dielectric constant tensor:
#      x y z
#    x 1.734020 0.000000 -0.009300 
#    y 0.000000 1.710090 0.000000 
#    z -0.009300 0.000000 1.680580 
# 
# From -- ./inp_files/55364.got.cif
#   From: 2010.06.25/outbox.cif.g09.slc.cpg/sg10_28_cif.got.tgz:55364.got - 2010.06.27 22:07:45.
