data_PCOD8061403
_publ_section_title
;
Structure prediction by ZEFSAII (Michael W. Deem and Ramdas Pophale) SiO2 
 PCOD8061403
Probable space group: P 2/M
;
_chemical_formula_sum "Si O2"
_cell_formula_units_Z 32
_cell_length_a 21.030962
_cell_length_b 8.908792
_cell_length_c 26.119369
_cell_angle_alpha 90.000000
_cell_angle_beta 159.645688
_cell_angle_gamma 90.000000
_cell_volume 1702.161883
_symmetry_space_group_name_H-M "P 2/M"
_symmetry_group_IT_number 10
_symmetry_cell_setting 'monoclinic'
loop_
_space_group_symop_operation_xyz
x,y,z
-x,y,-z
-x,-y,-z
x,-y,z
loop_
_atom_site_type_symbol
_atom_site_label
_atom_site_fract_x
_atom_site_fract_y
_atom_site_fract_z
Si Si1 0.210675 0.675314 0.161941
Si Si2 0.982699 0.169924 0.154214
Si Si3 0.297661 0.822432 0.974268
Si Si4 0.701654 0.822825 0.141579
Si Si5 0.585887 0.678259 0.262815
Si Si6 0.348754 0.172029 0.168827
Si Si7 0.028874 0.176438 0.462160
Si Si8 0.700033 0.322818 0.659169
O O1 0.252301 0.500000 0.185744
O O2 0.335714 0.764007 0.216060
O O3 0.256357 0.737474 0.252002
O O4 0.000000 0.713163 0.000000
O O5 0.164258 0.264677 0.282168
O O6 0.043316 0.000000 0.209118
O O7 0.876330 0.231040 0.123899
O O8 0.852038 0.186325 0.006739
O O9 0.481633 0.744064 0.134198
O O10 0.331155 0.000000 0.006045
O O11 0.251018 0.777169 0.880953
O O12 0.855418 0.763343 0.297558
O O13 0.692066 0.000000 0.140995
O O14 0.500000 0.754126 0.000000
O O15 0.580929 0.500000 0.256019
O O16 0.491770 0.732039 0.244097
O O17 0.793313 0.734545 0.421586
O O18 0.415565 0.000000 0.220109
O O19 0.000000 0.211747 0.500000
O O20 0.059293 0.000000 0.475709
O O21 0.500000 0.258395 0.500000
O O22 0.709930 0.500000 0.663827
#
# Coordination Sequence:
#
# PCOD8061403 Si02
#       8
#     4   4   4   4   4   4   4   4
#     4  10  19  33  55  80 106 139 181 225 272 326
#     4   9  18  32  52  76 104 136 175 227 274 320
#     4   9  18  35  57  82 110 141 184 232 276 328
#     4   9  17  32  58  87 112 143 185 229 271 320
#     4  11  22  36  56  82 115 150 185 227 278 332
#     4  10  20  35  57  83 108 139 184 233 276 323
#     4  10  20  36  60  87 116 150 186 227 275 326
#     4  10  21  36  52  73 105 143 178 219 270 330
#
# _framework density 18.799623
#
# number of rings (size 3 to 8) (size 9 to 14) (size 15 to 20)
#    0.000    2.250    1.250    3.000    0.000    5.250 
#    2.250    0.625    0.000    1.500    0.000    0.000 
#    0.000    0.000    0.000    0.000    0.000    0.000 
#
# Total GULP energy -396730.097751 kJ/mol
# GULP energy per Si atom -12397.815555 kJ/mol
# Density = 1.875683 g / cm^3
# Si number density = 18.799623 Si / 1000 Ang^3
#
#
#
# Elastic Constant Matrix: (Units=GPa)
#
#
# Indices 1 2 3 4 5 6 
#
# 1 132.7768 36.9759 97.6012 0.0000 4.0197 0.0000
# 2 36.9759 60.4416 51.8661 0.0000 8.2441 0.0000
# 3 97.6012 51.8661 391.7258 0.0000 70.6626 0.0000
# 4 0.0000 0.0000 0.0000 26.7287 0.0000 3.1148
# 5 4.0197 8.2441 70.6626 0.0000 49.7307 0.0000
# 6 0.0000 0.0000 0.0000 3.1148 0.0000 14.2727
#
#
#
# Elastic Compliance Matrix: (Units=1/GPa)
#
#
# Indices 1 2 3 4 5 6 
#
# 1 0.010750 -0.004747 -0.002736 0.000000 0.003806 0.000000
# 2 -0.004747 0.020774 -0.001366 0.000000 -0.001119 0.000000
# 3 -0.002736 -0.001366 0.004484 0.000000 -0.005924 0.000000
# 4 0.000000 0.000000 0.000000 0.038389 0.000000 -0.008378
# 5 0.003806 -0.001119 -0.005924 0.000000 0.028403 0.000000
# 6 0.000000 0.000000 0.000000 -0.008378 0.000000 0.071892
#
#
# Mechanical properties :
#
#
# Convention : Reuss Voigt Hill
#
# Bulk Modulus (GPa) = 54.61928 106.42563 80.52246
# Shear Modulus (GPa) = 25.18970 44.71316 34.95143
#
# Velocity S-wave (km/s) = 3.66444 4.88218 4.31647
# Velocity P-wave (km/s) = 6.85716 9.40821 8.23210
#
# Compressibility (1/GPa) = 0.01830855
#
# Stress axis : x y z
#
# Youngs Moduli (GPa) = 93.02582 48.13758 223.01450
#
# Poissons Ratio (x) = 0.22852 0.61026
# Poissons Ratio (y) = 0.44162 0.30459
# Poissons Ratio (z) = 0.25456 0.06575
#
# Static dielectric constant tensor:
#      x y z
#    x 3.575300 0.000000 -0.021220 
#    y 0.000000 3.189010 0.000000 
#    z -0.021220 0.000000 3.485590 
# 
# 
# High freq. dielectric constant tensor:
#      x y z
#    x 1.741590 0.000000 0.006650 
#    y 0.000000 1.706540 0.000000 
#    z 0.006650 0.000000 1.723670 
# 
# From -- ./inp_files/93736.got.cif
#   From: 2010.06.25/outbox.cif.g09.slc.cpg/sg10_47_cif.got.tgz:93736.got - 2010.06.27 22:07:45.
