data_PCOD8061092
_publ_section_title
;
Structure prediction by ZEFSAII (Michael W. Deem and Ramdas Pophale) SiO2 
 PCOD8061092
Probable space group: P 2/M
;
_chemical_formula_sum "Si O2"
_cell_formula_units_Z 32
_cell_length_a 14.049869
_cell_length_b 9.623126
_cell_length_c 20.087060
_cell_angle_alpha 90.000000
_cell_angle_beta 38.884788
_cell_angle_gamma 90.000000
_cell_volume 1704.888501
_symmetry_space_group_name_H-M "P 2/M"
_symmetry_group_IT_number 10
_symmetry_cell_setting 'monoclinic'
loop_
_space_group_symop_operation_xyz
x,y,z
-x,y,-z
-x,-y,-z
x,-y,z
loop_
_atom_site_type_symbol
_atom_site_label
_atom_site_fract_x
_atom_site_fract_y
_atom_site_fract_z
Si Si1 0.637984 0.843628 0.388070
Si Si2 0.827588 0.840725 0.937967
Si Si3 0.063968 0.837986 0.702188
Si Si4 0.239462 0.660330 0.344034
Si Si5 0.036333 0.349763 0.906018
Si Si6 0.690190 0.844417 0.215901
Si Si7 0.472462 0.839877 0.829508
Si Si8 0.064494 0.660880 0.569652
O O1 0.500000 0.762688 0.500000
O O2 0.805790 0.784872 0.316519
O O3 0.587942 0.845346 0.337847
O O4 0.645438 0.000000 0.411791
O O5 0.899134 0.807095 0.826341
O O6 0.896758 0.736824 0.953607
O O7 0.869008 0.000000 0.934656
O O8 0.645064 0.819886 0.044391
O O9 0.084547 0.753885 0.623457
O O10 0.075219 0.000000 0.678434
O O11 0.287993 0.500000 0.315666
O O12 0.378369 0.749930 0.240194
O O13 0.191426 0.701758 0.445487
O O14 0.100506 0.688768 0.370665
O O15 0.058787 0.500000 0.856621
O O16 0.183830 0.257393 0.825216
O O17 0.000000 0.387594 0.000000
O O18 0.602886 0.788684 0.198907
O O19 0.753992 0.000000 0.166034
O O20 0.521596 0.000000 0.796496
O O21 0.082393 0.500000 0.579621
#
# Coordination Sequence:
#
# PCOD8061092 Si02
#       8
#     4   4   4   4   4   4   4   4
#     4   9  18  31  49  76 110 144 180 220 263 316
#     4  10  20  36  53  75 110 151 186 220 272 330
#     4  10  20  34  57  83 109 145 185 226 272 320
#     4   9  20  40  62  81 108 141 175 219 278 337
#     4  11  21  31  47  73 104 140 186 231 261 300
#     4  10  19  33  52  73 104 148 184 217 266 322
#     4  10  21  33  55  85 110 140 186 233 271 316
#     4   9  20  40  62  82 106 142 178 217 275 338
#
# _framework density 18.769553999999999
#
# number of rings (size 3 to 8) (size 9 to 14) (size 15 to 20)
#    0.000    2.250    2.500    1.125    1.750    3.000 
#    0.000    1.875    0.000    4.500    0.000    0.000 
#    0.000    0.000    0.000    0.000    0.000    0.000 
#
# Total GULP energy -396435.559134 kJ/mol
# GULP energy per Si atom -12388.611223 kJ/mol
# Density = 1.872683 g / cm^3
# Si number density = 18.769554 Si / 1000 Ang^3
#
#
#
# Elastic Constant Matrix: (Units=GPa)
#
#
# Indices 1 2 3 4 5 6 
#
# 1 45.3036 14.5411 23.2594 0.0000 2.7093 0.0000
# 2 14.5411 60.3361 21.0831 0.0000 -9.2628 0.0000
# 3 23.2594 21.0831 106.7876 0.0000 -9.0937 0.0000
# 4 0.0000 0.0000 0.0000 140.0717 0.0000 11.6608
# 5 2.7093 -9.2628 -9.0937 0.0000 31.0481 0.0000
# 6 0.0000 0.0000 0.0000 11.6608 0.0000 30.1679
#
#
#
# Elastic Compliance Matrix: (Units=1/GPa)
#
#
# Indices 1 2 3 4 5 6 
#
# 1 0.026852 -0.005489 -0.005235 0.000000 -0.005514 0.000000
# 2 -0.005489 0.019527 -0.002177 0.000000 0.005667 0.000000
# 3 -0.005235 -0.002177 0.011197 0.000000 0.003087 0.000000
# 4 0.000000 0.000000 0.000000 0.007377 0.000000 -0.002851
# 5 -0.005514 0.005667 0.003087 0.000000 0.035284 0.000000
# 6 0.000000 0.000000 0.000000 -0.002851 0.000000 0.034250
#
#
# Mechanical properties :
#
#
# Convention : Reuss Voigt Hill
#
# Bulk Modulus (GPa) = 31.47053 36.68827 34.07940
# Shear Modulus (GPa) = 29.26022 50.49380 39.87701
#
# Velocity S-wave (km/s) = 3.95260 5.19234 4.61429
# Velocity P-wave (km/s) = 6.13465 7.45227 6.82533
#
# Compressibility (1/GPa) = 0.03177576
#
# Stress axis : x y z
#
# Youngs Moduli (GPa) = 37.24074 51.21009 89.30777
#
# Poissons Ratio (x) = 0.28108 0.46749
# Poissons Ratio (y) = 0.20441 0.19444
# Poissons Ratio (z) = 0.19494 0.11149
#
# Static dielectric constant tensor:
#      x y z
#    x 2.597030 0.000000 -0.460340 
#    y 0.000000 3.384540 0.000000 
#    z -0.460340 0.000000 3.268760 
# 
# 
# High freq. dielectric constant tensor:
#      x y z
#    x 1.700350 0.000000 0.003070 
#    y 0.000000 1.716240 0.000000 
#    z 0.003070 0.000000 1.738930 
# 
# From -- ./inp_files/69994.got.cif
#   From: 2010.06.25/outbox.cif.g09.slc.cpg/sg10_35_cif.got.tgz:69994.got - 2010.06.27 22:07:45.
