data_PCOD8061219
_publ_section_title
;
Structure prediction by ZEFSAII (Michael W. Deem and Ramdas Pophale) SiO2 
 PCOD8061219
Probable space group: P 2/M
;
_chemical_formula_sum "Si O2"
_cell_formula_units_Z 28
_cell_length_a 14.639545
_cell_length_b 9.031702
_cell_length_c 12.572930
_cell_angle_alpha 90.000000
_cell_angle_beta 58.505364
_cell_angle_gamma 90.000000
_cell_volume 1417.504270
_symmetry_space_group_name_H-M "P 2/M"
_symmetry_group_IT_number 10
_symmetry_cell_setting 'monoclinic'
loop_
_space_group_symop_operation_xyz
x,y,z
-x,y,-z
-x,-y,-z
x,-y,z
loop_
_atom_site_type_symbol
_atom_site_label
_atom_site_fract_x
_atom_site_fract_y
_atom_site_fract_z
Si Si1 0.945913 0.830972 0.253430
Si Si2 0.669206 0.330844 0.613163
Si Si3 0.684337 0.826084 0.152138
Si Si4 0.903415 0.669853 0.978113
Si Si5 0.293343 0.827813 0.627105
Si Si6 0.509826 0.676152 0.116447
Si Si7 0.092007 0.661830 0.528518
O O1 0.830740 0.783098 0.274888
O O2 0.934471 0.804012 0.385238
O O3 0.044576 0.725564 0.162833
O O4 0.974017 0.000000 0.209779
O O5 0.638116 0.500000 0.612349
O O6 0.656081 0.255535 0.504830
O O7 0.589675 0.265073 0.751460
O O8 0.788206 0.311791 0.590064
O O9 0.645976 0.792236 0.297886
O O10 0.615794 0.740926 0.106103
O O11 0.678165 0.000000 0.133153
O O12 0.805747 0.773663 0.067308
O O13 0.865869 0.500000 0.992879
O O14 0.000000 0.695218 0.000000
O O15 0.300148 0.000000 0.594560
O O16 0.517849 0.500000 0.111834
O O17 0.500000 0.732806 0.000000
O O18 0.094390 0.500000 0.586569
O O19 0.000000 0.654765 0.500000
#
# Coordination Sequence:
#
# PCOD8061219 Si02
#       7
#     4   4   4   4   4   4   4
#     4  10  19  33  53  79 116 155 189 233 290 348
#     4   9  19  36  59  83 111 151 193 241 296 347
#     4  11  23  39  60  87 119 156 199 245 298 356
#     4  11  22  35  56  86 119 155 192 232 286 352
#     4   9  19  35  56  84 117 149 183 235 297 353
#     4  10  23  43  62  83 116 157 202 251 298 347
#     4   9  18  33  54  82 114 149 195 244 290 346
#
# _framework density 19.753028
#
# number of rings (size 3 to 8) (size 9 to 14) (size 15 to 20)
#    0.000    2.143    1.429    1.286    0.000    5.143 
#    0.000    5.714    0.000    0.000    0.000    0.000 
#    0.000    0.000    0.000    0.000    0.000    0.000 
#
# Total GULP energy -346942.766059 kJ/mol
# GULP energy per Si atom -12390.813074 kJ/mol
# Density = 1.970807 g / cm^3
# Si number density = 19.753028 Si / 1000 Ang^3
#
#
#
# Elastic Constant Matrix: (Units=GPa)
#
#
# Indices 1 2 3 4 5 6 
#
# 1 82.7644 33.7920 53.0741 0.0000 13.9468 0.0000
# 2 33.7920 26.6666 31.0292 0.0000 3.3285 0.0000
# 3 53.0741 31.0292 128.6387 0.0000 0.5426 0.0000
# 4 0.0000 0.0000 0.0000 24.5903 0.0000 -0.9426
# 5 13.9468 3.3285 0.5426 0.0000 26.7453 0.0000
# 6 0.0000 0.0000 0.0000 -0.9426 0.0000 26.4428
#
#
#
# Elastic Compliance Matrix: (Units=1/GPa)
#
#
# Indices 1 2 3 4 5 6 
#
# 1 0.029489 -0.030351 -0.004797 0.000000 -0.011503 0.000000
# 2 -0.030351 0.084431 -0.007867 0.000000 0.005479 0.000000
# 3 -0.004797 -0.007867 0.011637 0.000000 0.003245 0.000000
# 4 0.000000 0.000000 0.000000 0.040722 0.000000 0.001452
# 5 -0.011503 0.005479 0.003245 0.000000 0.042641 0.000000
# 6 0.000000 0.000000 0.000000 0.001452 0.000000 0.037869
#
#
# Mechanical properties :
#
#
# Convention : Reuss Voigt Hill
#
# Bulk Modulus (GPa) = 25.29902 52.65115 38.97509
# Shear Modulus (GPa) = 14.45112 23.56730 19.00921
#
# Velocity S-wave (km/s) = 2.70773 3.45787 3.10553
# Velocity P-wave (km/s) = 4.75512 6.53109 5.71254
#
# Compressibility (1/GPa) = 0.03952722
#
# Stress axis : x y z
#
# Youngs Moduli (GPa) = 33.91066 11.84402 85.93458
#
# Poissons Ratio (x) = 0.35948 0.41224
# Poissons Ratio (y) = 1.02923 0.67601
# Poissons Ratio (z) = 0.16268 0.09317
#
# Static dielectric constant tensor:
#      x y z
#    x 3.606370 0.000000 -0.030630 
#    y 0.000000 3.695770 0.000000 
#    z -0.030630 0.000000 3.741540 
# 
# 
# High freq. dielectric constant tensor:
#      x y z
#    x 1.760420 0.000000 -0.005050 
#    y 0.000000 1.766500 0.000000 
#    z -0.005050 0.000000 1.768540 
# 
# From -- ./inp_files/49629.got.cif
#   From: 2010.06.25/outbox.cif.g09.slc.cpg/sg10_25_cif.got.tgz:49629.got - 2010.06.27 22:07:45.
