data_PCOD8061392
_publ_section_title
;
Structure prediction by ZEFSAII (Michael W. Deem and Ramdas Pophale) SiO2 
 PCOD8061392
Probable space group: P 2/M
;
_chemical_formula_sum "Si O2"
_cell_formula_units_Z 32
_cell_length_a 10.027802
_cell_length_b 13.564535
_cell_length_c 29.253048
_cell_angle_alpha 90.000000
_cell_angle_beta 28.361109
_cell_angle_gamma 90.000000
_cell_volume 1890.166638
_symmetry_space_group_name_H-M "P 2/M"
_symmetry_group_IT_number 10
_symmetry_cell_setting 'monoclinic'
loop_
_space_group_symop_operation_xyz
x,y,z
-x,y,-z
-x,-y,-z
x,-y,z
loop_
_atom_site_type_symbol
_atom_site_label
_atom_site_fract_x
_atom_site_fract_y
_atom_site_fract_z
Si Si1 0.539611 0.887950 0.639870
Si Si2 0.809575 0.298593 0.262836
Si Si3 0.748781 0.383244 0.045788
Si Si4 0.991912 0.887951 0.577130
Si Si5 0.755518 0.385799 0.541863
Si Si6 0.798869 0.716818 0.432000
Si Si7 0.191188 0.611617 0.073588
Si Si8 0.878153 0.383374 0.745455
O O1 0.274302 0.816446 0.713570
O O2 0.698670 0.867115 0.639743
O O3 0.752150 0.867675 0.534448
O O4 0.428934 0.000000 0.671916
O O5 0.534637 0.366810 0.344615
O O6 0.988244 0.320121 0.164074
O O7 0.985733 0.321180 0.254949
O O8 0.770714 0.500000 0.036760
O O9 0.449337 0.354102 0.157641
O O10 0.790581 0.341546 0.982289
O O11 0.000000 0.337687 0.000000
O O12 0.028645 0.817263 0.610004
O O13 0.998926 0.000000 0.592767
O O14 0.809672 0.500000 0.518235
O O15 0.748169 0.338064 0.494594
O O16 0.000000 0.339669 0.500000
O O17 0.500000 0.742945 0.500000
O O18 0.980772 0.646252 0.344733
O O19 0.072178 0.500000 0.109616
O O20 0.500000 0.612011 0.000000
O O21 0.921762 0.500000 0.741283
#
# Coordination Sequence:
#
# PCOD8061392 Si02
#       8
#     4   4   4   4   4   4   4   4
#     4   9  18  34  56  79 105 138 179 232 280 320
#     4  12  20  33  57  80 105 142 186 223 270 328
#     4   9  19  35  52  74 104 136 177 227 269 309
#     4   9  18  35  55  75 105 143 183 228 276 316
#     4  11  23  35  48  74 113 149 183 219 255 316
#     4  12  22  33  51  78 110 150 181 217 262 326
#     4  10  19  33  55  80 104 137 181 227 270 316
#     4  11  22  35  52  76 111 151 183 217 267 323
#
# _framework density 16.929722999999999
#
# number of rings (size 3 to 8) (size 9 to 14) (size 15 to 20)
#    0.000    1.625    3.750    3.000    0.000    2.750 
#    0.000    3.125    0.000    0.375    0.000    0.000 
#    0.000    3.500    0.000    0.000    0.000    0.000 
#
# Total GULP energy -396811.128587 kJ/mol
# GULP energy per Si atom -12400.347768 kJ/mol
# Density = 1.689119 g / cm^3
# Si number density = 16.929723 Si / 1000 Ang^3
#
#
#
# Elastic Constant Matrix: (Units=GPa)
#
#
# Indices 1 2 3 4 5 6 
#
# 1 110.4522 41.4010 36.8161 0.0000 -7.4914 0.0000
# 2 41.4010 91.6766 35.2570 0.0000 -4.8664 0.0000
# 3 36.8161 35.2570 89.1843 0.0000 -2.9997 0.0000
# 4 0.0000 0.0000 0.0000 17.3384 0.0000 -7.3372
# 5 -7.4914 -4.8664 -2.9997 0.0000 28.9203 0.0000
# 6 0.0000 0.0000 0.0000 -7.3372 0.0000 28.4608
#
#
#
# Elastic Compliance Matrix: (Units=1/GPa)
#
#
# Indices 1 2 3 4 5 6 
#
# 1 0.011749 -0.003961 -0.003215 0.000000 0.002043 0.000000
# 2 -0.003961 0.014277 -0.003977 0.000000 0.000964 0.000000
# 3 -0.003215 -0.003977 0.014111 0.000000 -0.000038 0.000000
# 4 0.000000 0.000000 0.000000 0.064738 0.000000 0.016689
# 5 0.002043 0.000964 -0.000038 0.000000 0.035265 0.000000
# 6 0.000000 0.000000 0.000000 0.016689 0.000000 0.039439
#
#
# Mechanical properties :
#
#
# Convention : Reuss Voigt Hill
#
# Bulk Modulus (GPa) = 56.08204 57.58459 56.83331
# Shear Modulus (GPa) = 24.05837 26.79983 25.42910
#
# Velocity S-wave (km/s) = 3.77380 3.98302 3.87982
# Velocity P-wave (km/s) = 7.22406 7.43238 7.32896
#
# Compressibility (1/GPa) = 0.01783102
#
# Stress axis : x y z
#
# Youngs Moduli (GPa) = 85.11641 70.04260 70.86703
#
# Poissons Ratio (x) = 0.27741 0.22787
# Poissons Ratio (y) = 0.33711 0.28182
# Poissons Ratio (z) = 0.27369 0.27854
#
# Static dielectric constant tensor:
#      x y z
#    x 3.365420 0.000000 -0.090260 
#    y 0.000000 3.124750 0.000000 
#    z -0.090260 0.000000 3.091780 
# 
# 
# High freq. dielectric constant tensor:
#      x y z
#    x 1.662490 0.000000 -0.004520 
#    y 0.000000 1.633320 0.000000 
#    z -0.004520 0.000000 1.639890 
# 
# From -- ./inp_files/61537.got.cif
#   From: 2010.06.25/outbox.cif.g09.slc.cpg/sg10_31_cif.got.tgz:61537.got - 2010.06.27 22:07:45.
