data_PCOD8061847
_publ_section_title
;
Structure prediction by ZEFSAII (Michael W. Deem and Ramdas Pophale) SiO2 
 PCOD8061847
Probable space group: P 2/M
;
_chemical_formula_sum "Si O2"
_cell_formula_units_Z 28
_cell_length_a 10.024630
_cell_length_b 8.982973
_cell_length_c 29.242080
_cell_angle_alpha 90.000000
_cell_angle_beta 145.050032
_cell_angle_gamma 90.000000
_cell_volume 1508.502033
_symmetry_space_group_name_H-M "P 2/M"
_symmetry_group_IT_number 10
_symmetry_cell_setting 'monoclinic'
loop_
_space_group_symop_operation_xyz
x,y,z
-x,y,-z
-x,-y,-z
x,-y,z
loop_
_atom_site_type_symbol
_atom_site_label
_atom_site_fract_x
_atom_site_fract_y
_atom_site_fract_z
Si Si1 0.878740 0.672550 0.070862
Si Si2 0.322312 0.678005 0.680808
Si Si3 0.654588 0.325603 0.852341
Si Si4 0.127503 0.335979 0.487389
Si Si5 0.469198 0.175644 0.090972
Si Si6 0.922418 0.325496 0.189155
Si Si7 0.438399 0.322038 0.342880
O O1 0.814968 0.500000 0.046812
O O2 0.909732 0.714398 0.132256
O O3 0.114072 0.713063 0.110577
O O4 0.665332 0.767919 0.991613
O O5 0.314782 0.500000 0.675950
O O6 0.431489 0.727591 0.759777
O O7 0.487275 0.737725 0.686311
O O8 0.056384 0.742478 0.599476
O O9 0.641267 0.500000 0.859985
O O10 0.662232 0.235124 0.901234
O O11 0.178577 0.500000 0.482156
O O12 0.380069 0.257475 0.567378
O O13 0.000000 0.347940 0.500000
O O14 0.732301 0.235537 0.164293
O O15 0.471032 0.000000 0.092183
O O16 0.882450 0.500000 0.186058
O O17 0.174380 0.273038 0.279075
O O18 0.456147 0.500000 0.347424
#
# Coordination Sequence:
#
# PCOD8061847 Si02
#       7
#     4   4   4   4   4   4   4
#     4  10  20  36  58  79  97 123 166 214 255 298
#     4   8  12  22  43  74 105 129 155 193 244 296
#     4  10  19  34  56  78 101 130 167 207 247 296
#     4   7  10  16  34  69 109 132 144 182 245 298
#     4  12  26  38  48  69 102 137 172 208 252 300
#     4  10  19  34  56  78 101 130 167 207 247 296
#     4   8  12  22  43  74 105 129 155 193 244 296
#
# _framework density 18.561461999999999
#
# number of rings (size 3 to 8) (size 9 to 14) (size 15 to 20)
#    0.000    2.714    1.429    3.857    0.000    4.571 
#    0.000    0.000    0.000    0.857    0.000    7.000 
#    0.000    3.429    0.000    0.000    0.000    0.000 
#
# Total GULP energy -346935.316318 kJ/mol
# GULP energy per Si atom -12390.547011 kJ/mol
# Density = 1.851922 g / cm^3
# Si number density = 18.561462 Si / 1000 Ang^3
#
#
#
# Elastic Constant Matrix: (Units=GPa)
#
#
# Indices 1 2 3 4 5 6 
#
# 1 51.9454 18.7166 7.4654 0.0000 12.3734 0.0000
# 2 18.7166 38.6808 18.8466 0.0000 7.6878 0.0000
# 3 7.4654 18.8466 109.5354 0.0000 24.6934 0.0000
# 4 0.0000 0.0000 0.0000 -0.2160 0.0000 0.1494
# 5 12.3734 7.6878 24.6934 0.0000 21.1956 0.0000
# 6 0.0000 0.0000 0.0000 0.1494 0.0000 -0.5312
#
#
#
# Elastic Compliance Matrix: (Units=1/GPa)
#
#
# Indices 1 2 3 4 5 6 
#
# 1 0.026619 -0.011574 0.003708 0.000000 -0.015661 0.000000
# 2 -0.011574 0.033867 -0.005143 0.000000 0.000465 0.000000
# 3 0.003708 -0.005143 0.013330 0.000000 -0.015829 0.000000
# 4 0.000000 0.000000 0.000000 -5.746729 0.000000 -1.616365
# 5 -0.015661 0.000465 -0.015829 0.000000 0.074594 0.000000
# 6 0.000000 0.000000 0.000000 -1.616365 0.000000 -2.337004
#
#
# Mechanical properties :
#
#
# Convention : Reuss Voigt Hill
#
# Bulk Modulus (GPa) = 20.92189 32.24654 26.58422
# Shear Modulus (GPa) = -0.63344 14.43186 6.89921
#
# Velocity S-wave (km/s) = -0.58482 2.79142 1.93003
# Velocity P-wave (km/s) = 3.29244 5.27257 4.39546
#
# Compressibility (1/GPa) = 0.04779683
#
# Stress axis : x y z
#
# Youngs Moduli (GPa) = 37.56741 29.52768 75.01822
#
# Poissons Ratio (x) = 0.34176 -0.27815
# Poissons Ratio (y) = 0.43481 0.38582
# Poissons Ratio (z) = -0.13929 0.15186
#
# Static dielectric constant tensor:
#      x y z
#    x 3.167760 0.000000 0.181320 
#    y 0.000000 2.819520 0.000000 
#    z 0.181320 0.000000 4.068930 
# 
# 
# High freq. dielectric constant tensor:
#      x y z
#    x 1.690440 0.000000 0.013890 
#    y 0.000000 1.652830 0.000000 
#    z 0.013890 0.000000 1.747570 
# 
# From -- ./inp_files/92063.got.cif
#   From: 2010.06.25/outbox.cif.g09.slc.cpg/sg10_47_cif.got.tgz:92063.got - 2010.06.27 22:07:45.
