data_PCOD8061067
_publ_section_title
;
Structure prediction by ZEFSAII (Michael W. Deem and Ramdas Pophale) SiO2 
 PCOD8061067
Probable space group: P 2/M
;
_chemical_formula_sum "Si O2"
_cell_formula_units_Z 32
_cell_length_a 26.996933
_cell_length_b 8.512119
_cell_length_c 19.046656
_cell_angle_alpha 90.000000
_cell_angle_beta 155.723574
_cell_angle_gamma 90.000000
_cell_volume 1799.533267
_symmetry_space_group_name_H-M "P 2/M"
_symmetry_group_IT_number 10
_symmetry_cell_setting 'monoclinic'
loop_
_space_group_symop_operation_xyz
x,y,z
-x,y,-z
-x,-y,-z
x,-y,z
loop_
_atom_site_type_symbol
_atom_site_label
_atom_site_fract_x
_atom_site_fract_y
_atom_site_fract_z
Si Si1 0.332880 0.818256 0.902671
Si Si2 0.979846 0.314717 0.142395
Si Si3 0.417701 0.315539 0.736818
Si Si4 0.254878 0.681725 0.658611
Si Si5 0.888347 0.682174 0.307259
Si Si6 0.866394 0.326416 0.856820
Si Si7 0.780168 0.182711 0.612405
Si Si8 0.005270 0.181351 0.690776
O O1 0.319650 0.714208 0.815812
O O2 0.225468 0.785411 0.817952
O O3 0.333151 0.000000 0.881839
O O4 0.455843 0.772904 0.099855
O O5 0.977183 0.500000 0.152370
O O6 0.945607 0.223909 0.168768
O O7 0.114484 0.272501 0.292377
O O8 0.880348 0.264870 0.955094
O O9 0.439175 0.500000 0.757003
O O10 0.346588 0.272734 0.715793
O O11 0.346038 0.251130 0.577027
O O12 0.216524 0.500000 0.604929
O O13 0.136429 0.785995 0.497913
O O14 0.856875 0.500000 0.277015
O O15 0.920436 0.715104 0.268231
O O16 0.000000 0.732791 0.500000
O O17 0.807180 0.500000 0.778926
O O18 0.787801 0.210976 0.706539
O O19 0.000000 0.338083 0.000000
O O20 0.790951 0.000000 0.609773
O O21 0.029009 0.000000 0.705433
#
# Coordination Sequence:
#
# PCOD8061067 Si02
#       8
#     4   4   4   4   4   4   4   4
#     4  12  25  39  57  80 108 137 180 233 276 314
#     4  10  19  33  51  74 107 145 181 216 262 325
#     4  11  23  38  56  76 108 148 187 220 262 327
#     4  11  22  37  56  77 106 146 185 218 264 325
#     4  11  23  40  61  78 102 141 184 222 269 328
#     4   8  16  30  48  70 102 143 180 212 257 320
#     4  11  20  30  49  77 109 141 178 222 269 314
#     4  12  23  34  55  83 110 139 178 228 276 314
#
# _framework density 17.782388999999998
#
# number of rings (size 3 to 8) (size 9 to 14) (size 15 to 20)
#    0.000    1.250    2.500    6.000    0.000    6.250 
#    0.000    0.000    0.000    0.000    0.000    0.875 
#    0.000    7.000    0.000    0.000    0.000    0.000 
#
# Total GULP energy -396923.878060 kJ/mol
# GULP energy per Si atom -12403.871189 kJ/mol
# Density = 1.774192 g / cm^3
# Si number density = 17.782389 Si / 1000 Ang^3
#
#
#
# Elastic Constant Matrix: (Units=GPa)
#
#
# Indices 1 2 3 4 5 6 
#
# 1 77.5329 20.7383 56.6761 0.0000 -16.8677 0.0000
# 2 20.7383 65.7594 21.1844 0.0000 2.1056 0.0000
# 3 56.6761 21.1844 84.6342 0.0000 -9.4465 0.0000
# 4 0.0000 0.0000 0.0000 25.9416 0.0000 -1.7718
# 5 -16.8677 2.1056 -9.4465 0.0000 28.3367 0.0000
# 6 0.0000 0.0000 0.0000 -1.7718 0.0000 23.0704
#
#
#
# Elastic Compliance Matrix: (Units=1/GPa)
#
#
# Indices 1 2 3 4 5 6 
#
# 1 0.029105 -0.004035 -0.017152 0.000000 0.011907 0.000000
# 2 -0.004035 0.017303 -0.002120 0.000000 -0.004394 0.000000
# 3 -0.017152 -0.002120 0.023588 0.000000 -0.002189 0.000000
# 4 0.000000 0.000000 0.000000 0.038751 0.000000 0.002976
# 5 0.011907 -0.004394 -0.002189 0.000000 0.041975 0.000000
# 6 0.000000 0.000000 0.000000 0.002976 0.000000 0.043574
#
#
# Mechanical properties :
#
#
# Convention : Reuss Voigt Hill
#
# Bulk Modulus (GPa) = 42.76464 47.23601 45.00032
# Shear Modulus (GPa) = 20.10438 24.09157 22.09798
#
# Velocity S-wave (km/s) = 3.36605 3.68475 3.52900
# Velocity P-wave (km/s) = 6.26164 6.68762 6.47813
#
# Compressibility (1/GPa) = 0.02338381
#
# Stress axis : x y z
#
# Youngs Moduli (GPa) = 34.35821 57.79389 42.39533
#
# Poissons Ratio (x) = 0.23318 0.72715
# Poissons Ratio (y) = 0.13862 0.08986
# Poissons Ratio (z) = 0.58930 0.12250
#
# Static dielectric constant tensor:
#      x y z
#    x 3.408530 0.000000 -0.379600 
#    y 0.000000 3.367900 0.000000 
#    z -0.379600 0.000000 3.315560 
# 
# 
# High freq. dielectric constant tensor:
#      x y z
#    x 1.672450 0.000000 -0.026450 
#    y 0.000000 1.700030 0.000000 
#    z -0.026450 0.000000 1.670440 
# 
# From -- ./inp_files/87200.got.cif
#   From: 2010.06.25/outbox.cif.g09.slc.cpg/sg10_44_cif.got.tgz:87200.got - 2010.06.27 22:07:45.
