data_PCOD8061672
_publ_section_title
;
Structure prediction by ZEFSAII (Michael W. Deem and Ramdas Pophale) SiO2 
 PCOD8061672
Probable space group: P 2/M
;
_chemical_formula_sum "Si O2"
_cell_formula_units_Z 24
_cell_length_a 14.293243
_cell_length_b 13.952852
_cell_length_c 14.048451
_cell_angle_alpha 90.000000
_cell_angle_beta 150.210306
_cell_angle_gamma 90.000000
_cell_volume 1391.936457
_symmetry_space_group_name_H-M "P 2/M"
_symmetry_group_IT_number 10
_symmetry_cell_setting 'monoclinic'
loop_
_space_group_symop_operation_xyz
x,y,z
-x,y,-z
-x,-y,-z
x,-y,z
loop_
_atom_site_type_symbol
_atom_site_label
_atom_site_fract_x
_atom_site_fract_y
_atom_site_fract_z
Si Si1 0.751500 0.000000 0.637615
Si Si2 0.081790 0.607345 0.467862
Si Si3 0.825149 0.251934 0.127683
Si Si4 0.652394 0.000000 0.767063
Si Si5 0.049444 0.152847 0.935449
Si Si6 0.426869 0.275965 0.836930
Si Si7 0.803241 0.891237 0.274237
O O1 0.878662 0.094001 0.736924
O O2 0.673479 0.000000 0.673824
O O3 0.572264 0.000000 0.406675
O O4 0.115153 0.500000 0.458367
O O5 0.278646 0.662641 0.646641
O O6 0.000000 0.605617 0.500000
O O7 0.931889 0.659135 0.268690
O O8 0.915774 0.242638 0.102593
O O9 0.843964 0.155675 0.207445
O O10 0.602577 0.270354 0.920545
O O11 0.756239 0.906519 0.898704
O O12 0.000000 0.184076 0.000000
O O13 0.344674 0.171560 0.794766
O O14 0.500000 0.326127 0.000000
O O15 0.000000 0.892068 0.500000
O O16 0.726115 0.000000 0.194327
#
# Coordination Sequence:
#
# PCOD8061672 Si02
#       7
#     2   4   4   2   4   4   4
#     4   8  15  31  52  67 101 137 179 220 263 286
#     4  11  21  37  57  79 105 130 165 217 273 319
#     4  11  21  34  54  77 104 139 179 207 260 312
#     4   8  15  31  48  73  97 137 179 224 255 292
#     4   9  19  33  49  75 107 137 179 223 252 297
#     4  10  19  35  51  77 107 134 170 214 250 310
#     4  10  19  34  50  71 109 147 175 203 242 301
#
# _framework density 17.242166999999998
#
# number of rings (size 3 to 8) (size 9 to 14) (size 15 to 20)
#    0.000    2.167    5.000    1.000    2.333    5.333 
#    0.000    0.000    0.000    0.500    0.000    1.167 
#    0.000    0.000    0.000    0.000    0.000    0.000 
#
# Total GULP energy -297411.411077 kJ/mol
# GULP energy per Si atom -12392.142128 kJ/mol
# Density = 1.720292 g / cm^3
# Si number density = 17.242167 Si / 1000 Ang^3
#
#
#
# Elastic Constant Matrix: (Units=GPa)
#
#
# Indices 1 2 3 4 5 6 
#
# 1 87.8307 43.4720 31.8898 0.0000 7.4611 0.0000
# 2 43.4720 114.1727 48.9236 0.0000 2.3964 0.0000
# 3 31.8898 48.9236 105.8000 0.0000 22.3358 0.0000
# 4 0.0000 0.0000 0.0000 10.3525 0.0000 -6.3557
# 5 7.4611 2.3964 22.3358 0.0000 20.9106 0.0000
# 6 0.0000 0.0000 0.0000 -6.3557 0.0000 17.7708
#
#
#
# Elastic Compliance Matrix: (Units=1/GPa)
#
#
# Indices 1 2 3 4 5 6 
#
# 1 0.014591 -0.004840 -0.001520 0.000000 -0.003027 0.000000
# 2 -0.004840 0.013013 -0.005950 0.000000 0.006591 0.000000
# 3 -0.001520 -0.005950 0.016014 0.000000 -0.015881 0.000000
# 4 0.000000 0.000000 0.000000 0.123771 0.000000 0.044266
# 5 -0.003027 0.006591 -0.015881 0.000000 0.065111 0.000000
# 6 0.000000 0.000000 0.000000 0.044266 0.000000 0.072104
#
#
# Mechanical properties :
#
#
# Convention : Reuss Voigt Hill
#
# Bulk Modulus (GPa) = 52.64236 61.81937 57.23087
# Shear Modulus (GPa) = 14.90061 22.04131 18.47096
#
# Velocity S-wave (km/s) = 2.94291 3.57926 3.27657
# Velocity P-wave (km/s) = 6.49192 7.28100 6.89775
#
# Compressibility (1/GPa) = 0.01899611
#
# Stress axis : x y z
#
# Youngs Moduli (GPa) = 68.53771 76.84696 62.44465
#
# Poissons Ratio (x) = 0.37197 0.09495
# Poissons Ratio (y) = 0.33175 0.37154
# Poissons Ratio (z) = 0.10421 0.45723
#
# Static dielectric constant tensor:
#      x y z
#    x 2.962730 0.000000 0.320910 
#    y 0.000000 3.279920 0.000000 
#    z 0.320910 0.000000 3.987480 
# 
# 
# High freq. dielectric constant tensor:
#      x y z
#    x 1.637300 0.000000 0.017030 
#    y 0.000000 1.634290 0.000000 
#    z 0.017030 0.000000 1.685010 
# 
# From -- ./inp_files/67523.got.cif
#   From: 2010.06.25/outbox.cif.g09.slc.cpg/sg10_34_cif.got.tgz:67523.got - 2010.06.27 22:07:45.
