data_PCOD8061740
_publ_section_title
;
Structure prediction by ZEFSAII (Michael W. Deem and Ramdas Pophale) SiO2 
 PCOD8061740
Probable space group: P 2/M
;
_chemical_formula_sum "Si O2"
_cell_formula_units_Z 32
_cell_length_a 15.111504
_cell_length_b 9.056499
_cell_length_c 23.953502
_cell_angle_alpha 90.000000
_cell_angle_beta 150.115366
_cell_angle_gamma 90.000000
_cell_volume 1633.386332
_symmetry_space_group_name_H-M "P 2/M"
_symmetry_group_IT_number 10
_symmetry_cell_setting 'monoclinic'
loop_
_space_group_symop_operation_xyz
x,y,z
-x,y,-z
-x,-y,-z
x,-y,z
loop_
_atom_site_type_symbol
_atom_site_label
_atom_site_fract_x
_atom_site_fract_y
_atom_site_fract_z
Si Si1 0.951595 0.174233 0.226473
Si Si2 0.682413 0.827153 0.626878
Si Si3 0.919355 0.175593 0.333240
Si Si4 0.597888 0.175920 0.232288
Si Si5 0.605783 0.673146 0.696307
Si Si6 0.223055 0.176034 0.981034
Si Si7 0.081469 0.161860 0.103495
Si Si8 0.702991 0.825046 0.413459
O O1 0.909178 0.241338 0.264523
O O2 0.154390 0.217058 0.323505
O O3 0.931735 0.000000 0.218502
O O4 0.816778 0.232413 0.104284
O O5 0.500000 0.775499 0.500000
O O6 0.699135 0.733301 0.691690
O O7 0.682665 0.000000 0.640662
O O8 0.750895 0.236992 0.275025
O O9 0.096489 0.225380 0.463191
O O10 0.915608 0.000000 0.328473
O O11 0.410219 0.239199 0.106796
O O12 0.642264 0.231952 0.319142
O O13 0.597322 0.000000 0.231996
O O14 0.577299 0.500000 0.679934
O O15 0.756313 0.726254 0.821914
O O16 0.418779 0.749974 0.606267
O O17 0.230924 0.000000 0.986929
O O18 0.062582 0.231062 0.932505
O O19 0.146475 0.000000 0.161923
O O20 0.000000 0.131501 0.000000
O O21 0.681887 0.000000 0.407109
#
# Coordination Sequence:
#
# PCOD8061740 Si02
#       8
#     4   4   4   4   4   4   4   4
#     4   9  16  27  45  72 106 137 169 212 265 325
#     4  10  19  34  56  78 105 144 187 225 265 324
#     4   9  17  29  49  78 106 134 171 220 275 319
#     4   9  17  29  49  78 106 134 171 220 275 319
#     4  12  24  35  51  79 113 145 180 225 275 326
#     4   9  16  27  45  72 106 137 169 212 265 325
#     4  10  19  34  56  78 105 144 187 225 265 324
#     4  10  19  34  54  76 106 141 181 222 263 323
#
# _framework density 19.591201000000002
#
# number of rings (size 3 to 8) (size 9 to 14) (size 15 to 20)
#    0.000    2.250    1.250    3.000    0.000    6.500 
#    0.000    2.500    0.000    1.500    0.000    0.000 
#    0.000    1.000    0.000    0.000    0.000    0.000 
#
# Total GULP energy -396600.355354 kJ/mol
# GULP energy per Si atom -12393.761105 kJ/mol
# Density = 1.954661 g / cm^3
# Si number density = 19.591201 Si / 1000 Ang^3
#
#
#
# Elastic Constant Matrix: (Units=GPa)
#
#
# Indices 1 2 3 4 5 6 
#
# 1 106.9455 16.9871 39.7476 0.0000 2.3715 0.0000
# 2 16.9871 31.2698 13.1087 0.0000 7.1878 0.0000
# 3 39.7476 13.1087 124.2440 0.0000 5.7281 0.0000
# 4 0.0000 0.0000 0.0000 3.3440 0.0000 4.0266
# 5 2.3715 7.1878 5.7281 0.0000 39.1541 0.0000
# 6 0.0000 0.0000 0.0000 4.0266 0.0000 16.9271
#
#
#
# Elastic Compliance Matrix: (Units=1/GPa)
#
#
# Indices 1 2 3 4 5 6 
#
# 1 0.011285 -0.004982 -0.003116 0.000000 0.000687 0.000000
# 2 -0.004982 0.036955 -0.002020 0.000000 -0.006187 0.000000
# 3 -0.003116 -0.002020 0.009296 0.000000 -0.000800 0.000000
# 4 0.000000 0.000000 0.000000 0.419079 0.000000 -0.099689
# 5 0.000687 -0.006187 -0.000800 0.000000 0.026751 0.000000
# 6 0.000000 0.000000 0.000000 -0.099689 0.000000 0.082791
#
#
# Mechanical properties :
#
#
# Convention : Reuss Voigt Hill
#
# Bulk Modulus (GPa) = 26.81025 44.68293 35.74659
# Shear Modulus (GPa) = 8.07981 24.72610 16.40296
#
# Velocity S-wave (km/s) = 2.03302 3.55646 2.89669
# Velocity P-wave (km/s) = 4.38468 6.30252 5.42896
#
# Compressibility (1/GPa) = 0.03729917
#
# Stress axis : x y z
#
# Youngs Moduli (GPa) = 88.61449 27.05986 107.57737
#
# Poissons Ratio (x) = 0.13481 0.33524
# Poissons Ratio (y) = 0.44147 0.21731
# Poissons Ratio (z) = 0.27614 0.05466
#
# Static dielectric constant tensor:
#      x y z
#    x 3.825660 0.000000 -0.017030 
#    y 0.000000 2.837540 0.000000 
#    z -0.017030 0.000000 4.164200 
# 
# 
# High freq. dielectric constant tensor:
#      x y z
#    x 1.771460 0.000000 -0.004190 
#    y 0.000000 1.680840 0.000000 
#    z -0.004190 0.000000 1.782420 
# 
# From -- ./inp_files/71525.got.cif
#   From: 2010.06.25/outbox.cif.g09.slc.cpg/sg10_36_cif.got.tgz:71525.got - 2010.06.27 22:07:45.
