data_PCOD8061038
_publ_section_title
;
Structure prediction by ZEFSAII (Michael W. Deem and Ramdas Pophale) SiO2 
 PCOD8061038
Probable space group: P 2/M
;
_chemical_formula_sum "Si O2"
_cell_formula_units_Z 24
_cell_length_a 14.207615
_cell_length_b 13.199846
_cell_length_c 16.156923
_cell_angle_alpha 90.000000
_cell_angle_beta 26.660428
_cell_angle_gamma 90.000000
_cell_volume 1359.585685
_symmetry_space_group_name_H-M "P 2/M"
_symmetry_group_IT_number 10
_symmetry_cell_setting 'monoclinic'
loop_
_space_group_symop_operation_xyz
x,y,z
-x,y,-z
-x,-y,-z
x,-y,z
loop_
_atom_site_type_symbol
_atom_site_label
_atom_site_fract_x
_atom_site_fract_y
_atom_site_fract_z
Si Si1 0.642002 0.617146 0.266786
Si Si2 0.419445 0.611995 0.155990
Si Si3 0.807657 0.616515 0.313708
Si Si4 0.335085 0.884718 0.022512
Si Si5 0.783182 0.184192 0.709440
Si Si6 0.237002 0.705060 0.997754
O O1 0.692443 0.500000 0.207276
O O2 0.759693 0.651517 0.257652
O O3 0.393748 0.633237 0.470705
O O4 0.721398 0.688198 0.131466
O O5 0.328619 0.500000 0.249674
O O6 0.242756 0.699115 0.300618
O O7 0.500000 0.613065 0.000000
O O8 0.610992 0.635330 0.066843
O O9 0.874208 0.500000 0.259774
O O10 0.995677 0.679214 0.206542
O O11 0.217904 0.827160 0.190314
O O12 0.270295 0.823766 0.991239
O O13 0.257577 0.000000 0.076961
O O14 0.587412 0.883022 0.832324
O O15 0.000000 0.142770 0.500000
#
# Coordination Sequence:
#
# PCOD8061038 Si02
#       6
#     4   4   4   4   4   4
#     4   9  18  32  51  80 108 131 167 205 245 302
#     4  10  19  33  48  73 113 146 169 197 236 297
#     4   9  18  32  52  78 108 135 162 205 250 298
#     4  10  22  38  51  73 100 125 172 231 265 300
#     4  10  19  36  57  74  95 134 177 215 260 300
#     4  11  19  32  53  74  99 140 172 207 251 305
#
# _framework density 17.652436999999999
#
# number of rings (size 3 to 8) (size 9 to 14) (size 15 to 20)
#    0.000    2.167    3.333    4.000    0.000    5.667 
#    0.000    0.000    0.000    2.000    0.000    2.333 
#    0.000    0.000    0.000    0.000    0.000    0.000 
#
# Total GULP energy -297527.162347 kJ/mol
# GULP energy per Si atom -12396.965098 kJ/mol
# Density = 1.761226 g / cm^3
# Si number density = 17.652437 Si / 1000 Ang^3
#
#
#
# Elastic Constant Matrix: (Units=GPa)
#
#
# Indices 1 2 3 4 5 6 
#
# 1 45.2626 26.2434 20.1820 0.0000 -5.3202 0.0000
# 2 26.2434 104.5686 20.3082 0.0000 -1.9663 0.0000
# 3 20.1820 20.3082 93.1609 0.0000 -5.9267 0.0000
# 4 0.0000 0.0000 0.0000 11.8618 0.0000 0.1043
# 5 -5.3202 -1.9663 -5.9267 0.0000 15.7423 0.0000
# 6 0.0000 0.0000 0.0000 0.1043 0.0000 23.2750
#
#
#
# Elastic Compliance Matrix: (Units=1/GPa)
#
#
# Indices 1 2 3 4 5 6 
#
# 1 0.028457 -0.006159 -0.004364 0.000000 0.007205 0.000000
# 2 -0.006159 0.011322 -0.001205 0.000000 -0.001121 0.000000
# 3 -0.004364 -0.001205 0.012129 0.000000 0.002941 0.000000
# 4 0.000000 0.000000 0.000000 0.084308 0.000000 -0.000378
# 5 0.007205 -0.001121 0.002941 0.000000 0.066925 0.000000
# 6 0.000000 0.000000 0.000000 -0.000378 0.000000 0.042966
#
#
# Mechanical properties :
#
#
# Convention : Reuss Voigt Hill
#
# Bulk Modulus (GPa) = 35.14647 41.82880 38.48763
# Shear Modulus (GPa) = 17.91813 21.92639 19.92226
#
# Velocity S-wave (km/s) = 3.18944 3.52819 3.36309
# Velocity P-wave (km/s) = 5.78938 6.35175 6.07707
#
# Compressibility (1/GPa) = 0.02845236
#
# Stress axis : x y z
#
# Youngs Moduli (GPa) = 35.14095 88.32572 82.44504
#
# Poissons Ratio (x) = 0.54398 0.35978
# Poissons Ratio (y) = 0.21643 0.09936
# Poissons Ratio (z) = 0.15335 0.10644
#
# Static dielectric constant tensor:
#      x y z
#    x 3.268070 0.000000 -0.048550 
#    y 0.000000 3.216540 0.000000 
#    z -0.048550 0.000000 3.177360 
# 
# 
# High freq. dielectric constant tensor:
#      x y z
#    x 1.676830 0.000000 -0.001090 
#    y 0.000000 1.657650 0.000000 
#    z -0.001090 0.000000 1.678440 
# 
# From -- ./inp_files/65026.got.cif
#   From: 2010.06.25/outbox.cif.g09.slc.cpg/sg10_33_cif.got.tgz:65026.got - 2010.06.27 22:07:45.
