data_PCOD8061773
_publ_section_title
;
Structure prediction by ZEFSAII (Michael W. Deem and Ramdas Pophale) SiO2 
 PCOD8061773
Probable space group: P 2/M
;
_chemical_formula_sum "Si O2"
_cell_formula_units_Z 28
_cell_length_a 9.539665
_cell_length_b 9.141416
_cell_length_c 26.950146
_cell_angle_alpha 90.000000
_cell_angle_beta 39.100756
_cell_angle_gamma 90.000000
_cell_volume 1482.248236
_symmetry_space_group_name_H-M "P 2/M"
_symmetry_group_IT_number 10
_symmetry_cell_setting 'monoclinic'
loop_
_space_group_symop_operation_xyz
x,y,z
-x,y,-z
-x,-y,-z
x,-y,z
loop_
_atom_site_type_symbol
_atom_site_label
_atom_site_fract_x
_atom_site_fract_y
_atom_site_fract_z
Si Si1 0.309181 0.171591 0.197785
Si Si2 0.219658 0.668289 0.321161
Si Si3 0.525679 0.330982 0.434734
Si Si4 0.112998 0.835584 0.521680
Si Si5 0.712863 0.331816 0.212158
Si Si6 0.797662 0.827924 0.088934
Si Si7 0.928677 0.670278 0.255036
O O1 0.215280 0.229310 0.275018
O O2 0.569866 0.214168 0.122736
O O3 0.164349 0.246577 0.194394
O O4 0.273798 0.000000 0.204080
O O5 0.183619 0.500000 0.314971
O O6 0.447802 0.689324 0.288662
O O7 0.014919 0.718787 0.410000
O O8 0.500000 0.294312 0.500000
O O9 0.465751 0.500000 0.440567
O O10 0.362429 0.225554 0.448862
O O11 0.772158 0.297059 0.345909
O O12 0.000000 0.839707 0.500000
O O13 0.113096 0.000000 0.544287
O O14 0.774240 0.500000 0.186356
O O15 0.814638 0.243617 0.138281
O O16 0.812768 0.273498 0.236366
O O17 0.812481 0.000000 0.093459
O O18 0.000000 0.769434 0.000000
O O19 0.981427 0.500000 0.236725
#
# Coordination Sequence:
#
# PCOD8061773 Si02
#       7
#     4   4   4   4   4   4   4
#     4  10  20  34  55  81 106 135 171 210 257 312
#     4  10  19  34  55  75  99 135 178 220 262 312
#     4  10  21  36  54  75 101 140 185 224 266 314
#     4  11  23  35  49  74 105 135 173 223 272 314
#     4   9  19  34  54  80 107 139 178 218 261 310
#     4   9  19  37  59  82 108 137 171 212 258 313
#     4  10  20  35  53  77 110 142 177 220 263 313
#
# _framework density 18.890224
#
# number of rings (size 3 to 8) (size 9 to 14) (size 15 to 20)
#    0.000    2.143    0.000    3.000    0.000    6.286 
#    0.000    0.714    0.000    4.286    0.000    0.000 
#    0.000    0.000    0.000    0.000    0.000    0.000 
#
# Total GULP energy -347208.664033 kJ/mol
# GULP energy per Si atom -12400.309430 kJ/mol
# Density = 1.884723 g / cm^3
# Si number density = 18.890224 Si / 1000 Ang^3
#
#
#
# Elastic Constant Matrix: (Units=GPa)
#
#
# Indices 1 2 3 4 5 6 
#
# 1 114.1991 46.5529 32.8951 0.0000 -12.5804 0.0000
# 2 46.5529 57.5427 35.9632 0.0000 -8.0576 0.0000
# 3 32.8951 35.9632 96.1515 0.0000 -8.9419 0.0000
# 4 0.0000 0.0000 0.0000 23.1938 0.0000 7.4820
# 5 -12.5804 -8.0576 -8.9419 0.0000 21.5561 0.0000
# 6 0.0000 0.0000 0.0000 7.4820 0.0000 8.8369
#
#
#
# Elastic Compliance Matrix: (Units=1/GPa)
#
#
# Indices 1 2 3 4 5 6 
#
# 1 0.013397 -0.009992 -0.000485 0.000000 0.003883 0.000000
# 2 -0.009992 0.030697 -0.007841 0.000000 0.002391 0.000000
# 3 -0.000485 -0.007841 0.013730 0.000000 0.002481 0.000000
# 4 0.000000 0.000000 0.000000 0.059316 0.000000 -0.050221
# 5 0.003883 0.002391 0.002481 0.000000 0.050579 0.000000
# 6 0.000000 0.000000 0.000000 -0.050221 0.000000 0.155683
#
#
# Mechanical properties :
#
#
# Convention : Reuss Voigt Hill
#
# Bulk Modulus (GPa) = 47.19543 55.41284 51.30414
# Shear Modulus (GPa) = 13.62026 20.88283 17.25154
#
# Velocity S-wave (km/s) = 2.68810 3.32849 3.02529
# Velocity P-wave (km/s) = 5.88836 6.64602 6.27863
#
# Compressibility (1/GPa) = 0.02118849
#
# Stress axis : x y z
#
# Youngs Moduli (GPa) = 74.64267 32.57663 72.83486
#
# Poissons Ratio (x) = 0.32549 0.03534
# Poissons Ratio (y) = 0.74580 0.57109
# Poissons Ratio (z) = 0.03622 0.25543
#
# Static dielectric constant tensor:
#      x y z
#    x 3.651090 0.000000 -0.035890 
#    y 0.000000 3.489630 0.000000 
#    z -0.035890 0.000000 3.681710 
# 
# 
# High freq. dielectric constant tensor:
#      x y z
#    x 1.739390 0.000000 -0.011010 
#    y 0.000000 1.734980 0.000000 
#    z -0.011010 0.000000 1.717340 
# 
# From -- ./inp_files/36783.got.cif
#   From: 2010.06.25/outbox.cif.g09.slc.cpg/sg10_19_cif.got.tgz:36783.got - 2010.06.27 22:07:45.
