data_PCOD8061032
_publ_section_title
;
Structure prediction by ZEFSAII (Michael W. Deem and Ramdas Pophale) SiO2 
 PCOD8061032
Probable space group: P 2/M
;
_chemical_formula_sum "Si O2"
_cell_formula_units_Z 30
_cell_length_a 11.539386
_cell_length_b 18.969653
_cell_length_c 14.381083
_cell_angle_alpha 90.000000
_cell_angle_beta 31.347976
_cell_angle_gamma 90.000000
_cell_volume 1637.693962
_symmetry_space_group_name_H-M "P 2/M"
_symmetry_group_IT_number 10
_symmetry_cell_setting 'monoclinic'
loop_
_space_group_symop_operation_xyz
x,y,z
-x,y,-z
-x,-y,-z
x,-y,z
loop_
_atom_site_type_symbol
_atom_site_label
_atom_site_fract_x
_atom_site_fract_y
_atom_site_fract_z
Si Si1 0.195156 0.836575 0.439638
Si Si2 0.827182 0.714223 0.972572
Si Si3 0.042175 0.421072 0.863782
Si Si4 0.394993 0.837234 0.972309
Si Si5 0.843616 0.170964 0.187489
Si Si6 0.472707 0.741358 0.362283
Si Si7 0.954425 0.917824 0.282654
Si Si8 0.500000 0.635198 0.500000
O O1 0.422062 0.856762 0.230480
O O2 0.246467 0.766875 0.465922
O O3 0.000000 0.820391 0.500000
O O4 0.125193 0.898088 0.558661
O O5 0.907747 0.635165 0.891111
O O6 0.043061 0.754623 0.863746
O O7 0.720704 0.760669 0.962724
O O8 0.639081 0.702952 0.178577
O O9 0.962227 0.500000 0.892983
O O10 0.305306 0.415498 0.667600
O O11 0.000000 0.403090 0.000000
O O12 0.500000 0.834447 0.000000
O O13 0.213401 0.898770 0.092162
O O14 0.597012 0.189113 0.319264
O O15 0.816399 0.121047 0.295740
O O16 0.000000 0.135161 0.000000
O O17 0.398800 0.685743 0.489810
O O18 0.919086 0.000000 0.293579
#
# Coordination Sequence:
#
# PCOD8061032 Si02
#       8
#     4   4   4   4   4   4   4   2
#     4  11  23  39  56  83 114 143 188 236 282 330
#     4   9  17  35  56  80 108 143 180 227 278 315
#     4  11  21  33  48  79 122 150 177 219 272 332
#     4  10  21  39  61  83 105 140 195 238 270 327
#     4   9  17  36  60  81 109 143 188 235 281 330
#     4  10  19  32  59  82 105 143 187 233 274 319
#     4  11  24  39  58  84 113 148 181 228 294 343
#     4  12  19  30  54  84 111 150 190 216 273 330
#
# _framework density 18.318441
#
# number of rings (size 3 to 8) (size 9 to 14) (size 15 to 20)
#    0.000    1.733    4.000    2.200    1.867    1.333 
#    0.000    1.333    0.000    0.400    0.000    0.000 
#    0.000    5.333    0.000    0.000    0.000    0.000 
#
# Total GULP energy -371899.091604 kJ/mol
# GULP energy per Si atom -12396.636387 kJ/mol
# Density = 1.827675 g / cm^3
# Si number density = 18.318441 Si / 1000 Ang^3
#
#
#
# Elastic Constant Matrix: (Units=GPa)
#
#
# Indices 1 2 3 4 5 6 
#
# 1 81.9470 26.9391 14.7827 0.0000 -2.2780 0.0000
# 2 26.9391 104.1960 27.4351 0.0000 -3.0631 0.0000
# 3 14.7827 27.4351 85.6626 0.0000 -0.0132 0.0000
# 4 0.0000 0.0000 0.0000 76.1027 0.0000 -27.7140
# 5 -2.2780 -3.0631 -0.0132 0.0000 26.8950 0.0000
# 6 0.0000 0.0000 0.0000 -27.7140 0.0000 25.9421
#
#
#
# Elastic Compliance Matrix: (Units=1/GPa)
#
#
# Indices 1 2 3 4 5 6 
#
# 1 0.013489 -0.003114 -0.001330 0.000000 0.000787 0.000000
# 2 -0.003114 0.011238 -0.003062 0.000000 0.001015 0.000000
# 3 -0.001330 -0.003062 0.012884 0.000000 -0.000455 0.000000
# 4 0.000000 0.000000 0.000000 0.021507 0.000000 0.022976
# 5 0.000787 0.001015 -0.000455 0.000000 0.037364 0.000000
# 6 0.000000 0.000000 0.000000 0.022976 0.000000 0.063093
#
#
# Mechanical properties :
#
#
# Convention : Reuss Voigt Hill
#
# Bulk Modulus (GPa) = 44.25034 45.56883 44.90958
# Shear Modulus (GPa) = 27.45449 39.29787 33.37618
#
# Velocity S-wave (km/s) = 3.87555 4.63672 4.27312
# Velocity P-wave (km/s) = 6.65095 7.32090 6.99395
#
# Compressibility (1/GPa) = 0.02259870
#
# Stress axis : x y z
#
# Youngs Moduli (GPa) = 74.13705 88.98070 77.61687
#
# Poissons Ratio (x) = 0.27708 0.10325
# Poissons Ratio (y) = 0.23086 0.23765
# Poissons Ratio (z) = 0.09862 0.27244
#
# Static dielectric constant tensor:
#      x y z
#    x 3.384820 0.000000 0.090720 
#    y 0.000000 3.097100 0.000000 
#    z 0.090720 0.000000 3.690490 
# 
# 
# High freq. dielectric constant tensor:
#      x y z
#    x 1.694290 0.000000 0.006900 
#    y 0.000000 1.677910 0.000000 
#    z 0.006900 0.000000 1.732750 
# 
# From -- ./inp_files/65338.got.cif
#   From: 2010.06.25/outbox.cif.g09.slc.cpg/sg10_33_cif.got.tgz:65338.got - 2010.06.27 22:07:45.
