data_PCOD8061150
_publ_section_title
;
Structure prediction by ZEFSAII (Michael W. Deem and Ramdas Pophale) SiO2 
 PCOD8061150
Probable space group: P 2/M
;
_chemical_formula_sum "Si O2"
_cell_formula_units_Z 24
_cell_length_a 18.989939
_cell_length_b 8.994088
_cell_length_c 9.191205
_cell_angle_alpha 90.000000
_cell_angle_beta 57.614142
_cell_angle_gamma 90.000000
_cell_volume 1325.660504
_symmetry_space_group_name_H-M "P 2/M"
_symmetry_group_IT_number 10
_symmetry_cell_setting 'monoclinic'
loop_
_space_group_symop_operation_xyz
x,y,z
-x,y,-z
-x,-y,-z
x,-y,z
loop_
_atom_site_type_symbol
_atom_site_label
_atom_site_fract_x
_atom_site_fract_y
_atom_site_fract_z
Si Si1 0.169207 0.327432 0.149529
Si Si2 0.482075 0.675210 0.856985
Si Si3 0.666990 0.175426 0.144758
Si Si4 0.085514 0.832536 0.492763
Si Si5 0.587894 0.336424 0.482246
Si Si6 0.999868 0.327985 0.165460
O O1 0.192161 0.500000 0.138630
O O2 0.152723 0.264072 0.329479
O O3 0.090397 0.301101 0.133122
O O4 0.243914 0.238830 0.995017
O O5 0.462596 0.500000 0.867464
O O6 0.401790 0.762045 0.888982
O O7 0.565605 0.714964 0.671388
O O8 0.500000 0.727486 0.000000
O O9 0.647897 0.221534 0.333241
O O10 0.668356 0.000000 0.132261
O O11 0.000000 0.830577 0.500000
O O12 0.070624 0.761689 0.667917
O O13 0.119288 0.000000 0.474216
O O14 0.500000 0.346263 0.500000
O O15 0.630469 0.500000 0.434345
O O16 0.974431 0.500000 0.200648
O O17 0.000000 0.269333 0.000000
#
# Coordination Sequence:
#
# PCOD8061150 Si02
#       6
#     4   4   4   4   4   4
#     4  10  19  33  53  73  97 130 167 204 243 291
#     4   9  18  34  55  76  98 128 166 204 243 291
#     4  11  21  32  49  74 103 131 163 203 246 291
#     4   9  17  30  49  73 100 129 162 200 245 296
#     4   8  15  30  51  72  95 126 164 200 238 290
#     4   9  18  33  53  76  99 127 166 207 245 290
#
# _framework density 18.104182000000002
#
# number of rings (size 3 to 8) (size 9 to 14) (size 15 to 20)
#    0.000    2.667    0.000    3.500    0.000    6.333 
#    0.000    1.667    0.000    4.000    0.000    0.000 
#    0.000    0.000    0.000    0.000    0.000    0.000 
#
# Total GULP energy -297547.797141 kJ/mol
# GULP energy per Si atom -12397.824881 kJ/mol
# Density = 1.806298 g / cm^3
# Si number density = 18.104182 Si / 1000 Ang^3
#
#
#
# Elastic Constant Matrix: (Units=GPa)
#
#
# Indices 1 2 3 4 5 6 
#
# 1 35.0071 33.9129 46.5364 0.0000 8.2902 0.0000
# 2 33.9129 113.1654 67.9157 0.0000 1.3998 0.0000
# 3 46.5364 67.9157 168.8130 0.0000 17.9413 0.0000
# 4 0.0000 0.0000 0.0000 18.2137 0.0000 -8.0243
# 5 8.2902 1.3998 17.9413 0.0000 30.0769 0.0000
# 6 0.0000 0.0000 0.0000 -8.0243 0.0000 16.7014
#
#
#
# Elastic Compliance Matrix: (Units=1/GPa)
#
#
# Indices 1 2 3 4 5 6 
#
# 1 0.053187 -0.009980 -0.009757 0.000000 -0.008376 0.000000
# 2 -0.009980 0.013687 -0.003182 0.000000 0.004012 0.000000
# 3 -0.009757 -0.003182 0.010241 0.000000 -0.003272 0.000000
# 4 0.000000 0.000000 0.000000 0.069646 0.000000 0.033462
# 5 -0.008376 0.004012 -0.003272 0.000000 0.037322 0.000000
# 6 0.000000 0.000000 0.000000 0.033462 0.000000 0.075952
#
#
# Mechanical properties :
#
#
# Convention : Reuss Voigt Hill
#
# Bulk Modulus (GPa) = 31.97066 68.19060 50.08063
# Shear Modulus (GPa) = 15.80786 24.23978 20.02382
#
# Velocity S-wave (km/s) = 2.95813 3.66307 3.32932
# Velocity P-wave (km/s) = 5.41895 7.45911 6.51933
#
# Compressibility (1/GPa) = 0.03127868
#
# Stress axis : x y z
#
# Youngs Moduli (GPa) = 18.80151 73.06072 97.64522
#
# Poissons Ratio (x) = 0.72913 0.95271
# Poissons Ratio (y) = 0.18763 0.31069
# Poissons Ratio (z) = 0.18344 0.23247
#
# Static dielectric constant tensor:
#      x y z
#    x 2.976120 0.000000 0.202570 
#    y 0.000000 3.385290 0.000000 
#    z 0.202570 0.000000 3.942140 
# 
# 
# High freq. dielectric constant tensor:
#      x y z
#    x 1.655330 0.000000 0.004430 
#    y 0.000000 1.701920 0.000000 
#    z 0.004430 0.000000 1.721850 
# 
# From -- ./inp_files/33752.got.cif
#   From: 2010.06.25/outbox.cif.g09.slc.cpg/sg10_17_cif.got.tgz:33752.got - 2010.06.27 22:07:45.
