data_PCOD8061487
_publ_section_title
;
Structure prediction by ZEFSAII (Michael W. Deem and Ramdas Pophale) SiO2 
 PCOD8061487
Probable space group: P 2/M
;
_chemical_formula_sum "Si O2"
_cell_formula_units_Z 28
_cell_length_a 18.231492
_cell_length_b 8.593598
_cell_length_c 15.277617
_cell_angle_alpha 90.000000
_cell_angle_beta 143.646606
_cell_angle_gamma 90.000000
_cell_volume 1418.844037
_symmetry_space_group_name_H-M "P 2/M"
_symmetry_group_IT_number 10
_symmetry_cell_setting 'monoclinic'
loop_
_space_group_symop_operation_xyz
x,y,z
-x,y,-z
-x,-y,-z
x,-y,z
loop_
_atom_site_type_symbol
_atom_site_label
_atom_site_fract_x
_atom_site_fract_y
_atom_site_fract_z
Si Si1 0.667454 0.183169 0.725517
Si Si2 0.406522 0.816478 0.535766
Si Si3 0.971966 0.181281 0.699828
Si Si4 0.370123 0.182943 0.840209
Si Si5 0.067124 0.185532 0.977008
Si Si6 0.715083 0.320171 0.414543
Si Si7 0.886950 0.181035 0.333832
O O1 0.648509 0.244486 0.608870
O O2 0.552592 0.224424 0.677787
O O3 0.677699 0.000000 0.726228
O O4 0.792976 0.251651 0.887201
O O5 0.340073 0.715776 0.544255
O O6 0.382734 0.000000 0.527682
O O7 0.858499 0.275085 0.550638
O O8 0.003823 0.247144 0.827137
O O9 0.087458 0.207023 0.744961
O O10 0.935600 0.000000 0.669830
O O11 0.360731 0.220808 0.728817
O O12 0.247795 0.254484 0.771611
O O13 0.373856 0.000000 0.859238
O O14 0.500000 0.255583 0.000000
O O15 0.065446 0.000000 0.973968
O O16 0.000000 0.248269 0.000000
O O17 0.700680 0.500000 0.377897
O O18 0.000000 0.254372 0.500000
O O19 0.880191 0.000000 0.351569
#
# Coordination Sequence:
#
# PCOD8061487 Si02
#       7
#     4   4   4   4   4   4   4
#     4   8  15  29  51  82 110 135 175 229 277 318
#     4   9  17  32  56  79 105 141 181 223 269 324
#     4  10  19  33  56  78 102 143 186 225 270 320
#     4  10  21  38  61  86 109 136 176 227 279 330
#     4   9  16  26  47  82 115 136 167 220 274 318
#     4  12  24  36  52  77 110 143 181 222 269 328
#     4   9  16  31  56  83 109 134 174 226 271 319
#
# _framework density 19.734373999999999
#
# number of rings (size 3 to 8) (size 9 to 14) (size 15 to 20)
#    0.000    2.429    1.429    3.000    0.000    3.714 
#    0.000    7.143    0.000    6.429    0.000    0.000 
#    0.000    0.000    0.000    0.000    0.000    0.000 
#
# Total GULP energy -347081.075534 kJ/mol
# GULP energy per Si atom -12395.752698 kJ/mol
# Density = 1.968946 g / cm^3
# Si number density = 19.734374 Si / 1000 Ang^3
#
#
#
# Elastic Constant Matrix: (Units=GPa)
#
#
# Indices 1 2 3 4 5 6 
#
# 1 108.2641 14.9095 43.0147 0.0000 7.2158 0.0000
# 2 14.9095 13.9186 12.0726 0.0000 4.6203 0.0000
# 3 43.0147 12.0726 136.2623 0.0000 13.3484 0.0000
# 4 0.0000 0.0000 0.0000 3.5670 0.0000 -0.2086
# 5 7.2158 4.6203 13.3484 0.0000 37.3322 0.0000
# 6 0.0000 0.0000 0.0000 -0.2086 0.0000 6.6322
#
#
#
# Elastic Compliance Matrix: (Units=1/GPa)
#
#
# Indices 1 2 3 4 5 6 
#
# 1 0.011751 -0.010147 -0.002809 0.000000 -0.000011 0.000000
# 2 -0.010147 0.088628 -0.003903 0.000000 -0.007612 0.000000
# 3 -0.002809 -0.003903 0.008778 0.000000 -0.002113 0.000000
# 4 0.000000 0.000000 0.000000 0.280868 0.000000 0.008834
# 5 -0.000011 -0.007612 -0.002113 0.000000 0.028486 0.000000
# 6 0.000000 0.000000 0.000000 0.008834 0.000000 0.151058
#
#
# Mechanical properties :
#
#
# Convention : Reuss Voigt Hill
#
# Bulk Modulus (GPa) = 13.25595 44.27095 28.76345
# Shear Modulus (GPa) = 7.95627 22.06949 15.01288
#
# Velocity S-wave (km/s) = 2.01008 3.34777 2.76116
# Velocity P-wave (km/s) = 3.48124 6.11764 4.97717
#
# Compressibility (1/GPa) = 0.07543784
#
# Stress axis : x y z
#
# Youngs Moduli (GPa) = 85.09893 11.28306 113.91529
#
# Poissons Ratio (x) = 0.11449 0.32004
# Poissons Ratio (y) = 0.86351 0.44466
# Poissons Ratio (z) = 0.23908 0.04404
#
# Static dielectric constant tensor:
#      x y z
#    x 3.754660 0.000000 0.229660 
#    y 0.000000 2.952810 0.000000 
#    z 0.229660 0.000000 4.020950 
# 
# 
# High freq. dielectric constant tensor:
#      x y z
#    x 1.782660 0.000000 0.005160 
#    y 0.000000 1.702290 0.000000 
#    z 0.005160 0.000000 1.772960 
# 
# From -- ./inp_files/68718.got.cif
#   From: 2010.06.25/outbox.cif.g09.slc.cpg/sg10_35_cif.got.tgz:68718.got - 2010.06.27 22:07:45.
