data_PCOD8061245
_publ_section_title
;
Structure prediction by ZEFSAII (Michael W. Deem and Ramdas Pophale) SiO2 
 PCOD8061245
Probable space group: P 2/M
;
_chemical_formula_sum "Si O2"
_cell_formula_units_Z 32
_cell_length_a 17.391431
_cell_length_b 8.912203
_cell_length_c 28.660799
_cell_angle_alpha 90.000000
_cell_angle_beta 22.867562
_cell_angle_gamma 90.000000
_cell_volume 1726.291428
_symmetry_space_group_name_H-M "P 2/M"
_symmetry_group_IT_number 10
_symmetry_cell_setting 'monoclinic'
loop_
_space_group_symop_operation_xyz
x,y,z
-x,y,-z
-x,-y,-z
x,-y,z
loop_
_atom_site_type_symbol
_atom_site_label
_atom_site_fract_x
_atom_site_fract_y
_atom_site_fract_z
Si Si1 0.048387 0.323532 0.779199
Si Si2 0.621634 0.823487 0.668300
Si Si3 0.192568 0.328507 0.598376
Si Si4 0.071464 0.327951 0.565420
Si Si5 0.674709 0.322668 0.735393
Si Si6 0.429436 0.167470 0.592262
Si Si7 0.270668 0.821856 0.981379
Si Si8 0.179827 0.176614 0.929291
O O1 0.023362 0.500000 0.799289
O O2 0.075410 0.274698 0.710022
O O3 0.234054 0.268411 0.706309
O O4 0.853160 0.241490 0.906330
O O5 0.748408 0.774591 0.552956
O O6 0.707370 0.736244 0.664915
O O7 0.391613 0.779614 0.788307
O O8 0.641401 0.000000 0.666645
O O9 0.257705 0.500000 0.569550
O O10 0.052537 0.307652 0.631845
O O11 0.393025 0.235852 0.476661
O O12 0.118319 0.500000 0.526092
O O13 0.866304 0.275607 0.657861
O O14 0.641234 0.500000 0.753574
O O15 0.490372 0.243143 0.863139
O O16 0.500000 0.165454 0.500000
O O17 0.381058 0.000000 0.637446
O O18 0.174803 0.767534 0.985800
O O19 0.281803 0.000000 0.977887
O O20 0.151828 0.000000 0.944535
O O21 0.000000 0.251112 0.000000
#
# Coordination Sequence:
#
# PCOD8061245 Si02
#       8
#     4   4   4   4   4   4   4   4
#     4  10  19  33  54  76 102 140 178 212 256 310
#     4  10  20  33  53  80 106 135 170 209 258 315
#     4   9  19  35  52  74 105 137 174 219 261 305
#     4  10  21  36  54  76 102 134 173 219 266 310
#     4  10  20  36  56  75  99 134 174 215 262 315
#     4   9  17  30  49  73 101 133 169 209 253 302
#     4  10  20  34  54  78 103 133 172 218 262 308
#     4   8  16  32  51  73 103 134 163 199 245 297
#
# _framework density 18.536847999999999
#
# number of rings (size 3 to 8) (size 9 to 14) (size 15 to 20)
#    0.000    2.500    0.000    3.000    0.000    6.000 
#    0.000    1.875    0.000   16.500    0.000    0.000 
#    0.000    0.000    0.000    0.000    0.000    0.000 
#
# Total GULP energy -396798.456102 kJ/mol
# GULP energy per Si atom -12399.951753 kJ/mol
# Density = 1.849466 g / cm^3
# Si number density = 18.536848 Si / 1000 Ang^3
#
#
#
# Elastic Constant Matrix: (Units=GPa)
#
#
# Indices 1 2 3 4 5 6 
#
# 1 107.8278 31.3241 59.0998 0.0000 -15.6950 0.0000
# 2 31.3241 73.9610 44.3927 0.0000 -3.2608 0.0000
# 3 59.0998 44.3927 124.0542 0.0000 -1.3483 0.0000
# 4 0.0000 0.0000 0.0000 34.4042 0.0000 -0.1839
# 5 -15.6950 -3.2608 -1.3483 0.0000 24.5189 0.0000
# 6 0.0000 0.0000 0.0000 -0.1839 0.0000 20.5612
#
#
#
# Elastic Compliance Matrix: (Units=1/GPa)
#
#
# Indices 1 2 3 4 5 6 
#
# 1 0.014454 -0.002119 -0.006034 0.000000 0.008639 0.000000
# 2 -0.002119 0.017624 -0.005289 0.000000 0.000696 0.000000
# 3 -0.006034 -0.005289 0.012786 0.000000 -0.003863 0.000000
# 4 0.000000 0.000000 0.000000 0.029068 0.000000 0.000260
# 5 0.008639 0.000696 -0.003863 0.000000 0.046195 0.000000
# 6 0.000000 0.000000 0.000000 0.000260 0.000000 0.048638
#
#
# Mechanical properties :
#
#
# Convention : Reuss Voigt Hill
#
# Bulk Modulus (GPa) = 55.61941 63.94181 59.78061
# Shear Modulus (GPa) = 24.79638 27.29863 26.04750
#
# Velocity S-wave (km/s) = 3.66140 3.84170 3.75263
# Velocity P-wave (km/s) = 6.92419 7.36529 7.14814
#
# Compressibility (1/GPa) = 0.01797934
#
# Stress axis : x y z
#
# Youngs Moduli (GPa) = 69.18411 56.74174 78.20846
#
# Poissons Ratio (x) = 0.12025 0.47189
# Poissons Ratio (y) = 0.14662 0.41368
# Poissons Ratio (z) = 0.41744 0.30013
#
# Static dielectric constant tensor:
#      x y z
#    x 3.426390 0.000000 -0.091110 
#    y 0.000000 3.386540 0.000000 
#    z -0.091110 0.000000 3.381690 
# 
# 
# High freq. dielectric constant tensor:
#      x y z
#    x 1.708930 0.000000 -0.004620 
#    y 0.000000 1.716150 0.000000 
#    z -0.004620 0.000000 1.715510 
# 
# From -- ./inp_files/89581.got.cif
#   From: 2010.06.25/outbox.cif.g09.slc.cpg/sg10_45_cif.got.tgz:89581.got - 2010.06.27 22:07:45.
