data_PCOD8061436
_publ_section_title
;
Structure prediction by ZEFSAII (Michael W. Deem and Ramdas Pophale) SiO2 
 PCOD8061436
Probable space group: P 2/M
;
_chemical_formula_sum "Si O2"
_cell_formula_units_Z 32
_cell_length_a 14.388946
_cell_length_b 9.305305
_cell_length_c 12.382978
_cell_angle_alpha 90.000000
_cell_angle_beta 95.328598
_cell_angle_gamma 90.000000
_cell_volume 1650.835550
_symmetry_space_group_name_H-M "P 2/M"
_symmetry_group_IT_number 10
_symmetry_cell_setting 'monoclinic'
loop_
_space_group_symop_operation_xyz
x,y,z
-x,y,-z
-x,-y,-z
x,-y,z
loop_
_atom_site_type_symbol
_atom_site_label
_atom_site_fract_x
_atom_site_fract_y
_atom_site_fract_z
Si Si1 0.248029 0.165247 0.370462
Si Si2 0.895401 0.663262 0.999739
Si Si3 0.263721 0.834497 0.121474
Si Si4 0.390498 0.664957 0.976901
Si Si5 0.883471 0.663214 0.247915
Si Si6 0.601678 0.329535 0.473893
Si Si7 0.679919 0.670074 0.258516
Si Si8 0.963591 0.169122 0.613200
O O1 0.277494 0.183799 0.250056
O O2 0.318464 0.260776 0.445503
O O3 0.142557 0.220770 0.380441
O O4 0.256289 0.000000 0.408372
O O5 0.886887 0.500000 0.955584
O O6 0.862184 0.673780 0.118903
O O7 0.835121 0.766785 0.919216
O O8 0.000000 0.719539 0.000000
O O9 0.263980 0.000000 0.086702
O O10 0.346730 0.753803 0.069758
O O11 0.356529 0.500000 0.984006
O O12 0.360114 0.732893 0.858201
O O13 0.500000 0.677227 0.000000
O O14 0.906799 0.500000 0.284148
O O15 0.787148 0.718468 0.292302
O O16 0.970754 0.759822 0.289893
O O17 0.500000 0.275042 0.500000
O O18 0.610437 0.500000 0.486708
O O19 0.616490 0.278404 0.351741
O O20 0.676441 0.500000 0.248256
O O21 0.000000 0.218214 0.500000
O O22 0.971852 0.000000 0.630285
#
# Coordination Sequence:
#
# PCOD8061436 Si02
#       8
#     4   4   4   4   4   4   4   4
#     4  10  23  41  57  81 120 158 190 234 289 341
#     4  10  20  35  56  83 114 151 195 238 282 339
#     4  11  23  38  57  84 122 159 193 238 288 348
#     4  10  21  38  64  88 113 153 193 240 299 349
#     4  10  19  33  55  81 112 145 180 230 286 336
#     4  10  22  38  61  89 113 143 190 243 287 339
#     4   9  18  36  57  85 119 143 180 240 292 338
#     4  10  21  37  57  81 111 149 196 239 278 336
#
# _framework density 19.384122999999999
#
# number of rings (size 3 to 8) (size 9 to 14) (size 15 to 20)
#    0.000    2.000    1.250    1.875    1.750    3.000 
#    0.000    0.625    0.000    0.000    0.000    0.000 
#    0.000    0.000    0.000    0.000    0.000    0.000 
#
# Total GULP energy -396865.758100 kJ/mol
# GULP energy per Si atom -12402.054941 kJ/mol
# Density = 1.934000 g / cm^3
# Si number density = 19.384123 Si / 1000 Ang^3
#
#
#
# Elastic Constant Matrix: (Units=GPa)
#
#
# Indices 1 2 3 4 5 6 
#
# 1 122.9196 35.0804 50.2985 0.0000 -9.7323 0.0000
# 2 35.0804 56.1090 34.3118 0.0000 1.9493 0.0000
# 3 50.2985 34.3118 90.0739 0.0000 -6.7051 0.0000
# 4 0.0000 0.0000 0.0000 21.8387 0.0000 -7.1532
# 5 -9.7323 1.9493 -6.7051 0.0000 38.8554 0.0000
# 6 0.0000 0.0000 0.0000 -7.1532 0.0000 3.0689
#
#
#
# Elastic Compliance Matrix: (Units=1/GPa)
#
#
# Indices 1 2 3 4 5 6 
#
# 1 0.011442 -0.004474 -0.004513 0.000000 0.002312 0.000000
# 2 -0.004474 0.025274 -0.007402 0.000000 -0.003666 0.000000
# 3 -0.004513 -0.007402 0.016598 0.000000 0.002105 0.000000
# 4 0.000000 0.000000 0.000000 0.193595 0.000000 0.451249
# 5 0.002312 -0.003666 0.002105 0.000000 0.026863 0.000000
# 6 0.000000 0.000000 0.000000 0.451249 0.000000 1.377664
#
#
# Mechanical properties :
#
#
# Convention : Reuss Voigt Hill
#
# Bulk Modulus (GPa) = 48.69528 56.49820 52.59674
# Shear Modulus (GPa) = 2.95673 22.71338 12.83505
#
# Velocity S-wave (km/s) = 1.23638 3.42680 2.57600
# Velocity P-wave (km/s) = 5.21670 6.69830 6.00338
#
# Compressibility (1/GPa) = 0.02053587
#
# Stress axis : x y z
#
# Youngs Moduli (GPa) = 87.39696 39.56693 60.24695
#
# Poissons Ratio (x) = 0.17704 0.27189
# Poissons Ratio (y) = 0.39104 0.44594
# Poissons Ratio (z) = 0.39441 0.29287
#
# Static dielectric constant tensor:
#      x y z
#    x 3.649570 0.000000 -0.202610 
#    y 0.000000 3.346190 0.000000 
#    z -0.202610 0.000000 3.650120 
# 
# 
# High freq. dielectric constant tensor:
#      x y z
#    x 1.769400 0.000000 -0.007860 
#    y 0.000000 1.730830 0.000000 
#    z -0.007860 0.000000 1.761640 
# 
# From -- ./inp_files/49884.got.cif
#   From: 2010.06.25/outbox.cif.g09.slc.cpg/sg10_25_cif.got.tgz:49884.got - 2010.06.27 22:07:45.
