data_PCOD8061476
_publ_section_title
;
Structure prediction by ZEFSAII (Michael W. Deem and Ramdas Pophale) SiO2 
 PCOD8061476
Probable space group: P 2/M
;
_chemical_formula_sum "Si O2"
_cell_formula_units_Z 32
_cell_length_a 14.315497
_cell_length_b 9.039558
_cell_length_c 23.998175
_cell_angle_alpha 90.000000
_cell_angle_beta 33.050597
_cell_angle_gamma 90.000000
_cell_volume 1693.677051
_symmetry_space_group_name_H-M "P 2/M"
_symmetry_group_IT_number 10
_symmetry_cell_setting 'monoclinic'
loop_
_space_group_symop_operation_xyz
x,y,z
-x,y,-z
-x,-y,-z
x,-y,z
loop_
_atom_site_type_symbol
_atom_site_label
_atom_site_fract_x
_atom_site_fract_y
_atom_site_fract_z
Si Si1 0.175514 0.175844 0.386648
Si Si2 0.175514 0.175844 0.937839
Si Si3 0.300444 0.169544 0.993785
Si Si4 0.499999 0.176126 0.707855
Si Si5 0.769530 0.325221 0.365235
Si Si6 0.499999 0.674989 0.589678
Si Si7 0.153433 0.675437 0.173284
Si Si8 0.300446 0.169544 0.205770
O O1 0.332965 0.238244 0.344058
O O2 0.194903 0.224915 0.312595
O O3 0.000000 0.241212 0.500000
O O4 0.176548 0.000000 0.389152
O O5 0.332965 0.238245 0.822978
O O6 0.176547 0.000000 0.934300
O O7 0.194900 0.224914 0.992504
O O8 0.000000 0.241213 0.000000
O O9 0.252775 0.270902 0.069345
O O10 0.255883 0.000000 0.030775
O O11 0.499999 0.185925 0.879853
O O12 0.499997 0.236009 0.646034
O O13 0.499999 0.000000 0.706461
O O14 0.777804 0.500000 0.361098
O O15 0.668231 0.274710 0.360623
O O16 0.668229 0.274710 0.471147
O O17 0.960613 0.258232 0.269694
O O18 0.499999 0.500000 0.600863
O O19 0.152223 0.500000 0.173889
O O20 0.252776 0.729098 0.177880
O O21 0.255884 0.000000 0.213342
#
# Coordination Sequence:
#
# PCOD8061476 Si02
#       8
#     4   4   4   4   4   4   4   4
#     4   9  18  33  54  79 109 141 171 210 263 314
#     4   9  18  33  54  79 109 141 171 210 263 314
#     4  10  20  37  57  77 104 141 180 212 253 320
#     4  10  19  33  55  85 109 132 172 222 265 308
#     4   8  18  37  55  73 103 144 179 208 256 325
#     4   9  18  36  58  74 101 145 179 206 258 323
#     4  11  23  36  54  80 107 134 174 227 271 303
#     4  10  20  37  57  77 104 141 180 212 253 320
#
# _framework density 18.893802999999998
#
# number of rings (size 3 to 8) (size 9 to 14) (size 15 to 20)
#    0.000    2.500    1.250    1.500    3.500    2.000 
#    0.000    3.750    0.000    1.500    0.000    0.000 
#    0.000    0.000    0.000    0.000    0.000    0.000 
#
# Total GULP energy -396783.229689 kJ/mol
# GULP energy per Si atom -12399.475928 kJ/mol
# Density = 1.885080 g / cm^3
# Si number density = 18.893803 Si / 1000 Ang^3
#
#
#
# Elastic Constant Matrix: (Units=GPa)
#
#
# Indices 1 2 3 4 5 6 
#
# 1 143.6333 29.4213 74.1851 0.0000 11.1157 0.0000
# 2 29.4213 32.6351 26.6818 0.0000 3.2915 0.0000
# 3 74.1851 26.6818 130.1675 0.0000 5.0570 0.0000
# 4 0.0000 0.0000 0.0000 10.4629 0.0000 -7.4124
# 5 11.1157 3.2915 5.0570 0.0000 37.3760 0.0000
# 6 0.0000 0.0000 0.0000 -7.4124 0.0000 4.2925
#
#
#
# Elastic Compliance Matrix: (Units=1/GPa)
#
#
# Indices 1 2 3 4 5 6 
#
# 1 0.010803 -0.005482 -0.004953 0.000000 -0.002060 0.000000
# 2 -0.005482 0.039779 -0.004983 0.000000 -0.001199 0.000000
# 3 -0.004953 -0.004983 0.011513 0.000000 0.000354 0.000000
# 4 0.000000 0.000000 0.000000 -0.427860 0.000000 -0.738849
# 5 -0.002060 -0.001199 0.000354 0.000000 0.027425 0.000000
# 6 0.000000 0.000000 0.000000 -0.738849 0.000000 -1.042912
#
#
# Mechanical properties :
#
#
# Convention : Reuss Voigt Hill
#
# Bulk Modulus (GPa) = 31.99119 63.00138 47.49629
# Shear Modulus (GPa) = -3.73135 22.16946 9.21905
#
# Velocity S-wave (km/s) = -1.40684 3.42917 2.21133
# Velocity P-wave (km/s) = 3.78549 7.00688 5.63144
#
# Compressibility (1/GPa) = 0.03125861
#
# Stress axis : x y z
#
# Youngs Moduli (GPa) = 92.57066 25.13910 86.85904
#
# Poissons Ratio (x) = 0.13780 0.43021
# Poissons Ratio (y) = 0.50743 0.43284
# Poissons Ratio (z) = 0.45850 0.12527
#
# Static dielectric constant tensor:
#      x y z
#    x 3.639480 0.000000 -0.221830 
#    y 0.000000 2.986730 0.000000 
#    z -0.221830 0.000000 3.824120 
# 
# 
# High freq. dielectric constant tensor:
#      x y z
#    x 1.747750 0.000000 0.000290 
#    y 0.000000 1.686960 0.000000 
#    z 0.000290 0.000000 1.747510 
# 
# From -- ./inp_files/89578.got.cif
#   From: 2010.06.25/outbox.cif.g09.slc.cpg/sg10_45_cif.got.tgz:89578.got - 2010.06.27 22:07:45.
