data_PCOD8061677
_publ_section_title
;
Structure prediction by ZEFSAII (Michael W. Deem and Ramdas Pophale) SiO2 
 PCOD8061677
Probable space group: P 2/M
;
_chemical_formula_sum "Si O2"
_cell_formula_units_Z 26
_cell_length_a 16.470116
_cell_length_b 18.772239
_cell_length_c 16.857703
_cell_angle_alpha 90.000000
_cell_angle_beta 17.265834
_cell_angle_gamma 90.000000
_cell_volume 1546.974157
_symmetry_space_group_name_H-M "P 2/M"
_symmetry_group_IT_number 10
_symmetry_cell_setting 'monoclinic'
loop_
_space_group_symop_operation_xyz
x,y,z
-x,y,-z
-x,-y,-z
x,-y,z
loop_
_atom_site_type_symbol
_atom_site_label
_atom_site_fract_x
_atom_site_fract_y
_atom_site_fract_z
Si Si1 0.280199 0.712447 0.382235
Si Si2 0.706499 0.154319 0.734587
Si Si3 0.695334 0.654299 0.884178
Si Si4 0.314821 0.633274 0.501434
Si Si5 0.293183 0.000000 0.263206
Si Si6 0.866110 0.415972 0.039786
Si Si7 0.678945 0.500000 0.930834
Si Si8 0.747148 0.500000 0.543750
O O1 0.337944 0.792500 0.298180
O O2 0.274070 0.704545 0.484449
O O3 0.997555 0.686873 0.605184
O O4 0.537374 0.664271 0.114589
O O5 0.000000 0.163932 0.500000
O O6 0.667718 0.075900 0.728398
O O7 0.500000 0.167113 0.000000
O O8 0.719372 0.570604 0.840031
O O9 0.500000 0.691994 0.000000
O O10 0.360502 0.569869 0.397735
O O11 0.052781 0.621487 0.800068
O O12 0.586240 0.630028 0.302554
O O13 0.000000 0.000000 0.500000
O O14 0.500000 0.000000 0.000000
O O15 0.820923 0.500000 0.063511
O O16 0.000000 0.406831 0.000000
O O17 0.923938 0.500000 0.766212
O O18 0.380770 0.500000 0.249103
#
# Coordination Sequence:
#
# PCOD8061677 Si02
#       8
#     4   4   4   4   2   4   2   2
#     4  12  23  33  49  69  93 126 156 194 246 285
#     4  10  19  34  51  72  98 126 163 199 231 278
#     4  12  23  34  45  62  88 123 166 208 239 265
#     4  12  21  34  51  67  92 118 150 193 241 294
#     4   8  16  30  52  72  92 124 157 194 237 272
#     4  11  22  35  53  72  88 113 152 199 243 286
#     4  12  21  36  44  60  83 120 168 208 235 272
#     4  12  20  34  50  64  86 116 156 202 246 286
#
# _framework density 16.807003000000002
#
# number of rings (size 3 to 8) (size 9 to 14) (size 15 to 20)
#    0.000    0.769    4.615    5.308    0.000    1.231 
#    0.000    2.308    0.000    0.000    0.000    0.000 
#    0.000    0.000    0.000    4.154    0.000    0.000 
#
# Total GULP energy -322150.818622 kJ/mol
# GULP energy per Si atom -12390.416101 kJ/mol
# Density = 1.676875 g / cm^3
# Si number density = 16.807003 Si / 1000 Ang^3
#
#
#
# Elastic Constant Matrix: (Units=GPa)
#
#
# Indices 1 2 3 4 5 6 
#
# 1 60.2795 29.9534 7.0296 0.0000 -3.7512 0.0000
# 2 29.9534 108.1303 20.4033 0.0000 3.4596 0.0000
# 3 7.0296 20.4033 82.6655 0.0000 -10.4049 0.0000
# 4 0.0000 0.0000 0.0000 20.6203 0.0000 6.5327
# 5 -3.7512 3.4596 -10.4049 0.0000 26.7298 0.0000
# 6 0.0000 0.0000 0.0000 6.5327 0.0000 17.4592
#
#
#
# Elastic Compliance Matrix: (Units=1/GPa)
#
#
# Indices 1 2 3 4 5 6 
#
# 1 0.019553 -0.005558 0.000152 0.000000 0.003523 0.000000
# 2 -0.005558 0.011416 -0.002765 0.000000 -0.003334 0.000000
# 3 0.000152 -0.002765 0.013474 0.000000 0.005624 0.000000
# 4 0.000000 0.000000 0.000000 0.055018 0.000000 -0.020586
# 5 0.003523 -0.003334 0.005624 0.000000 0.040527 0.000000
# 6 0.000000 0.000000 0.000000 -0.020586 0.000000 0.064979
#
#
# Mechanical properties :
#
#
# Convention : Reuss Voigt Hill
#
# Bulk Modulus (GPa) = 35.58357 40.64977 38.11667
# Shear Modulus (GPa) = 21.67563 25.87445 23.77504
#
# Velocity S-wave (km/s) = 3.59511 3.92791 3.76519
# Velocity P-wave (km/s) = 6.20088 6.69403 6.45217
#
# Compressibility (1/GPa) = 0.02810286
#
# Stress axis : x y z
#
# Youngs Moduli (GPa) = 51.14426 87.59633 74.21560
#
# Poissons Ratio (x) = 0.48684 -0.01131
# Poissons Ratio (y) = 0.28425 0.20518
# Poissons Ratio (z) = -0.00780 0.24217
#
# Static dielectric constant tensor:
#      x y z
#    x 3.012940 0.000000 -0.105900 
#    y 0.000000 3.441750 0.000000 
#    z -0.105900 0.000000 3.312080 
# 
# 
# High freq. dielectric constant tensor:
#      x y z
#    x 1.612740 0.000000 -0.010880 
#    y 0.000000 1.616630 0.000000 
#    z -0.010880 0.000000 1.677730 
# 
# From -- ./inp_files/67815.got.cif
#   From: 2010.06.25/outbox.cif.g09.slc.cpg/sg10_34_cif.got.tgz:67815.got - 2010.06.27 22:07:45.
