data_PCOD8061056
_publ_section_title
;
Structure prediction by ZEFSAII (Michael W. Deem and Ramdas Pophale) SiO2 
 PCOD8061056
Probable space group: P 2/M
;
_chemical_formula_sum "Si O2"
_cell_formula_units_Z 28
_cell_length_a 12.212100
_cell_length_b 8.860373
_cell_length_c 16.326029
_cell_angle_alpha 90.000000
_cell_angle_beta 65.316825
_cell_angle_gamma 90.000000
_cell_volume 1605.130682
_symmetry_space_group_name_H-M "P 2/M"
_symmetry_group_IT_number 10
_symmetry_cell_setting 'monoclinic'
loop_
_space_group_symop_operation_xyz
x,y,z
-x,y,-z
-x,-y,-z
x,-y,z
loop_
_atom_site_type_symbol
_atom_site_label
_atom_site_fract_x
_atom_site_fract_y
_atom_site_fract_z
Si Si1 0.415384 0.823795 0.283346
Si Si2 0.977133 0.178672 0.791621
Si Si3 0.523775 0.675189 0.400529
Si Si4 0.783449 0.329160 0.759261
Si Si5 0.223995 0.328763 0.058276
Si Si6 0.667406 0.822727 0.127072
Si Si7 0.221221 0.675805 0.755867
O O1 0.435692 0.769822 0.369693
O O2 0.298763 0.742283 0.284444
O O3 0.530805 0.779938 0.192517
O O4 0.390518 0.000000 0.290363
O O5 0.908524 0.235102 0.730217
O O6 0.908268 0.250134 0.892561
O O7 0.113103 0.236740 0.746049
O O8 0.973960 0.000000 0.798367
O O9 0.500000 0.729752 0.500000
O O10 0.492293 0.500000 0.398613
O O11 0.662221 0.708307 0.335819
O O12 0.814994 0.500000 0.723909
O O13 0.716007 0.326191 0.869345
O O14 0.208860 0.500000 0.030981
O O15 0.309304 0.234278 0.971812
O O16 0.759532 0.739289 0.158925
O O17 0.690255 0.000000 0.126624
O O18 0.190365 0.500000 0.771160
#
# Coordination Sequence:
#
# PCOD8061056 Si02
#       7
#     4   4   4   4   4   4   4
#     4  10  20  33  52  77 105 135 166 206 255 302
#     4  10  19  33  51  72 100 134 172 210 252 297
#     4   9  19  36  58  82 105 131 163 200 247 302
#     4   9  19  34  51  72  99 135 176 211 247 295
#     4   9  19  33  48  71  99 134 177 215 250 290
#     4  10  20  32  47  72 103 135 173 213 255 296
#     4  10  19  33  53  75 102 133 167 207 250 300
#
# _framework density 17.444063
#
# number of rings (size 3 to 8) (size 9 to 14) (size 15 to 20)
#    0.857    1.571    0.000    3.000    0.000    3.714 
#    0.000    5.714    0.000    0.857    0.000    6.000 
#    0.000    0.000    0.000    0.000    0.000    0.000 
#
# Total GULP energy -347113.203549 kJ/mol
# GULP energy per Si atom -12396.900127 kJ/mol
# Density = 1.740436 g / cm^3
# Si number density = 17.444063 Si / 1000 Ang^3
#
#
#
# Elastic Constant Matrix: (Units=GPa)
#
#
# Indices 1 2 3 4 5 6 
#
# 1 92.3622 40.8500 13.6955 0.0000 17.5772 0.0000
# 2 40.8500 98.5111 16.6730 0.0000 7.8338 0.0000
# 3 13.6955 16.6730 58.3289 0.0000 11.3293 0.0000
# 4 0.0000 0.0000 0.0000 21.3644 0.0000 2.0744
# 5 17.5772 7.8338 11.3293 0.0000 12.6090 0.0000
# 6 0.0000 0.0000 0.0000 2.0744 0.0000 33.3573
#
#
#
# Elastic Compliance Matrix: (Units=1/GPa)
#
#
# Indices 1 2 3 4 5 6 
#
# 1 0.017323 -0.005732 0.001902 0.000000 -0.022296 0.000000
# 2 -0.005732 0.012800 -0.002811 0.000000 0.002564 0.000000
# 3 0.001902 -0.002811 0.021414 0.000000 -0.020145 0.000000
# 4 0.000000 0.000000 0.000000 0.047091 0.000000 -0.002929
# 5 -0.022296 0.002564 -0.020145 0.000000 0.126897 0.000000
# 6 0.000000 0.000000 0.000000 -0.002929 0.000000 0.030161
#
#
# Mechanical properties :
#
#
# Convention : Reuss Voigt Hill
#
# Bulk Modulus (GPa) = 26.14087 43.51546 34.82817
# Shear Modulus (GPa) = 17.74805 25.33171 21.53988
#
# Velocity S-wave (km/s) = 3.19317 3.81487 3.51778
# Velocity P-wave (km/s) = 5.34913 6.66364 6.04224
#
# Compressibility (1/GPa) = 0.03825427
#
# Stress axis : x y z
#
# Youngs Moduli (GPa) = 57.72538 78.12473 46.69853
#
# Poissons Ratio (x) = 0.44784 -0.08881
# Poissons Ratio (y) = 0.33090 0.13127
# Poissons Ratio (z) = -0.10978 0.21960
#
# Static dielectric constant tensor:
#      x y z
#    x 3.087110 0.000000 0.039140 
#    y 0.000000 3.313980 0.000000 
#    z 0.039140 0.000000 3.008200 
# 
# 
# High freq. dielectric constant tensor:
#      x y z
#    x 1.664650 0.000000 0.006540 
#    y 0.000000 1.691280 0.000000 
#    z 0.006540 0.000000 1.642840 
# 
# From -- ./inp_files/63391.got.cif
#   From: 2010.06.25/outbox.cif.g09.slc.cpg/sg10_32_cif.got.tgz:63391.got - 2010.06.27 22:07:45.
