data_PCOD8061268
_publ_section_title
;
Structure prediction by ZEFSAII (Michael W. Deem and Ramdas Pophale) SiO2 
 PCOD8061268
Probable space group: P 2/M
;
_chemical_formula_sum "Si O2"
_cell_formula_units_Z 30
_cell_length_a 8.360472
_cell_length_b 14.816572
_cell_length_c 22.497551
_cell_angle_alpha 90.000000
_cell_angle_beta 32.626560
_cell_angle_gamma 90.000000
_cell_volume 1502.562176
_symmetry_space_group_name_H-M "P 2/M"
_symmetry_group_IT_number 10
_symmetry_cell_setting 'monoclinic'
loop_
_space_group_symop_operation_xyz
x,y,z
-x,y,-z
-x,-y,-z
x,-y,z
loop_
_atom_site_type_symbol
_atom_site_label
_atom_site_fract_x
_atom_site_fract_y
_atom_site_fract_z
Si Si1 0.049097 0.097636 0.415546
Si Si2 0.086359 0.290799 0.541921
Si Si3 0.324035 0.602801 0.651544
Si Si4 0.731210 0.901369 0.201866
Si Si5 0.962409 0.268038 0.841579
Si Si6 0.000000 0.848461 0.000000
Si Si7 0.211519 0.399057 0.269528
Si Si8 0.572492 0.717600 0.073759
O O1 0.390561 0.119885 0.295026
O O2 0.000000 0.085944 0.500000
O O3 0.867336 0.186227 0.450547
O O4 0.957749 0.000000 0.414245
O O5 0.381748 0.346726 0.461918
O O6 0.000000 0.293127 0.500000
O O7 0.817814 0.335570 0.663452
O O8 0.398834 0.500000 0.646781
O O9 0.185934 0.654083 0.751224
O O10 0.099930 0.604455 0.667041
O O11 0.862076 0.824855 0.203551
O O12 0.762222 0.000000 0.223160
O O13 0.912726 0.908172 0.083619
O O14 0.718962 0.243589 0.867858
O O15 0.815931 0.307591 0.947592
O O16 0.290418 0.789761 0.924377
O O17 0.285588 0.500000 0.267368
O O18 0.478882 0.368461 0.142472
#
# Coordination Sequence:
#
# PCOD8061268 Si02
#       8
#     4   4   4   4   4   2   4   4
#     4   9  18  32  52  77 103 134 170 208 255 308
#     4  11  21  34  54  80 108 137 171 219 263 305
#     4  10  21  36  55  77 104 140 178 216 262 315
#     4  10  19  33  54  78 105 139 177 214 258 310
#     4   9  18  35  54  77 104 136 178 222 260 303
#     4  10  19  34  51  76 108 140 173 212 263 314
#     4  10  21  37  55  76 105 142 179 214 261 315
#     4   9  19  34  54  75 105 141 175 216 263 311
#
# _framework density 19.965896999999998
#
# number of rings (size 3 to 8) (size 9 to 14) (size 15 to 20)
#    0.000    2.267    0.000    3.400    0.000    3.733 
#    0.000    9.000    0.000    4.800    0.000    0.000 
#    0.000    0.000    0.000    0.000    0.000    0.000 
#
# Total GULP energy -371843.304230 kJ/mol
# GULP energy per Si atom -12394.776808 kJ/mol
# Density = 1.992045 g / cm^3
# Si number density = 19.965897 Si / 1000 Ang^3
#
#
#
# Elastic Constant Matrix: (Units=GPa)
#
#
# Indices 1 2 3 4 5 6 
#
# 1 40.6882 38.6739 13.6609 0.0000 6.0015 0.0000
# 2 38.6739 187.9725 58.8073 0.0000 2.4140 0.0000
# 3 13.6609 58.8073 88.9785 0.0000 2.5096 0.0000
# 4 0.0000 0.0000 0.0000 34.5241 0.0000 -3.4820
# 5 6.0015 2.4140 2.5096 0.0000 25.3927 0.0000
# 6 0.0000 0.0000 0.0000 -3.4820 0.0000 26.2196
#
#
#
# Elastic Compliance Matrix: (Units=1/GPa)
#
#
# Indices 1 2 3 4 5 6 
#
# 1 0.031729 -0.006274 -0.000532 0.000000 -0.006850 0.000000
# 2 -0.006274 0.007948 -0.004322 0.000000 0.001154 0.000000
# 3 -0.000532 -0.004322 0.014202 0.000000 -0.000867 0.000000
# 4 0.000000 0.000000 0.000000 0.029358 0.000000 0.003899
# 5 -0.006850 0.001154 -0.000867 0.000000 0.040976 0.000000
# 6 0.000000 0.000000 0.000000 0.003899 0.000000 0.038657
#
#
# Mechanical properties :
#
#
# Convention : Reuss Voigt Hill
#
# Bulk Modulus (GPa) = 31.62255 59.99150 45.80703
# Shear Modulus (GPa) = 25.55353 30.99375 28.27364
#
# Velocity S-wave (km/s) = 3.58139 3.94424 3.76719
# Velocity P-wave (km/s) = 5.74234 7.13127 6.47416
#
# Compressibility (1/GPa) = 0.03162300
#
# Stress axis : x y z
#
# Youngs Moduli (GPa) = 31.51676 125.81584 70.41502
#
# Poissons Ratio (x) = 0.78933 0.03745
# Poissons Ratio (y) = 0.19773 0.30436
# Poissons Ratio (z) = 0.01676 0.54383
#
# Static dielectric constant tensor:
#      x y z
#    x 3.339140 0.000000 0.100510 
#    y 0.000000 3.905980 0.000000 
#    z 0.100510 0.000000 3.462570 
# 
# 
# High freq. dielectric constant tensor:
#      x y z
#    x 1.744850 0.000000 0.007880 
#    y 0.000000 1.783770 0.000000 
#    z 0.007880 0.000000 1.797110 
# 
# From -- ./inp_files/88205.got.cif
#   From: 2010.06.25/outbox.cif.g09.slc.cpg/sg10_45_cif.got.tgz:88205.got - 2010.06.27 22:07:45.
