data_PCOD8061429
_publ_section_title
;
Structure prediction by ZEFSAII (Michael W. Deem and Ramdas Pophale) SiO2 
 PCOD8061429
Probable space group: P 2/M
;
_chemical_formula_sum "Si O2"
_cell_formula_units_Z 32
_cell_length_a 20.116162
_cell_length_b 8.921447
_cell_length_c 25.993975
_cell_angle_alpha 90.000000
_cell_angle_beta 158.722584
_cell_angle_gamma 90.000000
_cell_volume 1692.859425
_symmetry_space_group_name_H-M "P 2/M"
_symmetry_group_IT_number 10
_symmetry_cell_setting 'monoclinic'
loop_
_space_group_symop_operation_xyz
x,y,z
-x,y,-z
-x,-y,-z
x,-y,z
loop_
_atom_site_type_symbol
_atom_site_label
_atom_site_fract_x
_atom_site_fract_y
_atom_site_fract_z
Si Si1 0.701045 0.326266 0.664226
Si Si2 0.902885 0.321892 0.311492
Si Si3 0.210029 0.674053 0.155345
Si Si4 0.291418 0.322568 0.632357
Si Si5 0.794719 0.678218 0.120619
Si Si6 0.042465 0.177132 0.860090
Si Si7 0.360129 0.176875 0.165953
Si Si8 0.382756 0.322462 0.812133
O O1 0.500000 0.282838 0.500000
O O2 0.746369 0.500000 0.686518
O O3 0.712540 0.289103 0.732710
O O4 0.844075 0.226677 0.736255
O O5 0.897076 0.500000 0.310527
O O6 0.868415 0.266815 0.228824
O O7 0.745442 0.255255 0.235326
O O8 0.099691 0.263014 0.471880
O O9 0.231304 0.500000 0.156422
O O10 0.326652 0.770993 0.199821
O O11 0.000000 0.724929 0.000000
O O12 0.312400 0.500000 0.641800
O O13 0.450400 0.246310 0.715028
O O14 0.300800 0.272551 0.698440
O O15 0.802678 0.500000 0.120690
O O16 0.923638 0.749999 0.170751
O O17 0.588277 0.740304 0.965752
O O18 0.047663 0.000000 0.858294
O O19 0.196354 0.234887 0.011097
O O20 0.375038 0.000000 0.174896
O O21 0.388321 0.500000 0.821133
#
# Coordination Sequence:
#
# PCOD8061429 Si02
#       8
#     4   4   4   4   4   4   4   4
#     4  10  22  40  62  88 115 141 174 220 272 323
#     4   9  18  31  51  83 115 138 175 233 283 321
#     4  10  20  36  61  87 109 138 178 222 265 317
#     4  10  19  33  55  81 109 143 182 226 275 325
#     4  10  19  33  56  82 109 144 184 226 272 324
#     4  11  23  38  57  80 111 148 184 224 267 320
#     4  11  23  37  56  81 111 146 185 228 268 316
#     4   9  16  29  53  82 109 141 181 226 276 326
#
# _framework density 18.902927999999999
#
# number of rings (size 3 to 8) (size 9 to 14) (size 15 to 20)
#    0.000    2.000    2.500    1.500    0.000    6.000 
#    0.000    5.625    0.000    4.500    0.000    0.000 
#    0.000    0.000    0.000    0.000    0.000    0.000 
#
# Total GULP energy -396914.914706 kJ/mol
# GULP energy per Si atom -12403.591085 kJ/mol
# Density = 1.885990 g / cm^3
# Si number density = 18.902928 Si / 1000 Ang^3
#
#
#
# Elastic Constant Matrix: (Units=GPa)
#
#
# Indices 1 2 3 4 5 6 
#
# 1 157.4677 36.5962 71.7256 0.0000 -1.9283 0.0000
# 2 36.5962 29.7059 29.0968 0.0000 -1.2702 0.0000
# 3 71.7256 29.0968 139.2016 0.0000 -10.5022 0.0000
# 4 0.0000 0.0000 0.0000 13.6467 0.0000 -8.0163
# 5 -1.9283 -1.2702 -10.5022 0.0000 34.0343 0.0000
# 6 0.0000 0.0000 0.0000 -8.0163 0.0000 -10.5463
#
#
#
# Elastic Compliance Matrix: (Units=1/GPa)
#
#
# Indices 1 2 3 4 5 6 
#
# 1 0.009946 -0.009064 -0.003290 0.000000 -0.000790 0.000000
# 2 -0.009064 0.050637 -0.005949 0.000000 -0.000459 0.000000
# 3 -0.003290 -0.005949 0.010332 0.000000 0.002780 0.000000
# 4 0.000000 0.000000 0.000000 0.050659 0.000000 -0.038506
# 5 -0.000790 -0.000459 0.002780 0.000000 0.030178 0.000000
# 6 0.000000 0.000000 0.000000 -0.038506 0.000000 -0.065551
#
#
# Mechanical properties :
#
#
# Convention : Reuss Voigt Hill
#
# Bulk Modulus (GPa) = 29.14619 66.80139 47.97379
# Shear Modulus (GPa) = 37.24597 20.02403 28.63500
#
# Velocity S-wave (km/s) = 4.44371 3.25823 3.89632
# Velocity P-wave (km/s) = 6.46383 7.04064 6.75839
#
# Compressibility (1/GPa) = 0.03430980
#
# Stress axis : x y z
#
# Youngs Moduli (GPa) = 100.54438 19.74831 96.78668
#
# Poissons Ratio (x) = 0.17901 0.31839
# Poissons Ratio (y) = 0.91138 0.57575
# Poissons Ratio (z) = 0.33075 0.11747
#
# Static dielectric constant tensor:
#      x y z
#    x 3.622120 0.000000 -0.082590 
#    y 0.000000 3.086500 0.000000 
#    z -0.082590 0.000000 3.625760 
# 
# 
# High freq. dielectric constant tensor:
#      x y z
#    x 1.750160 0.000000 -0.000040 
#    y 0.000000 1.697740 0.000000 
#    z -0.000040 0.000000 1.742340 
# 
# From -- ./inp_files/93633.got.cif
#   From: 2010.06.25/outbox.cif.g09.slc.cpg/sg10_47_cif.got.tgz:93633.got - 2010.06.27 22:07:45.
