data_PCOD8061683
_publ_section_title
;
Structure prediction by ZEFSAII (Michael W. Deem and Ramdas Pophale) SiO2 
 PCOD8061683
Probable space group: P 2/M
;
_chemical_formula_sum "Si O2"
_cell_formula_units_Z 32
_cell_length_a 11.950480
_cell_length_b 8.926623
_cell_length_c 18.869999
_cell_angle_alpha 90.000000
_cell_angle_beta 70.640594
_cell_angle_gamma 90.000000
_cell_volume 1899.183286
_symmetry_space_group_name_H-M "P 2/M"
_symmetry_group_IT_number 10
_symmetry_cell_setting 'monoclinic'
loop_
_space_group_symop_operation_xyz
x,y,z
-x,y,-z
-x,-y,-z
x,-y,z
loop_
_atom_site_type_symbol
_atom_site_label
_atom_site_fract_x
_atom_site_fract_y
_atom_site_fract_z
Si Si1 0.232166 0.827307 0.696047
Si Si2 0.584982 0.330206 0.422262
Si Si3 0.577461 0.669584 0.267699
Si Si4 0.250963 0.323874 0.134159
Si Si5 0.320639 0.325558 0.962024
Si Si6 0.531376 0.822878 0.841144
Si Si7 0.904863 0.331664 0.081732
Si Si8 0.007679 0.171743 0.191088
O O1 0.290922 0.762019 0.611027
O O2 0.289986 0.739742 0.751779
O O3 0.090193 0.804756 0.726115
O O4 0.266811 0.000000 0.696125
O O5 0.500000 0.257896 0.500000
O O6 0.617044 0.500000 0.437334
O O7 0.518815 0.326165 0.359123
O O8 0.588970 0.500000 0.236306
O O9 0.498865 0.764907 0.230792
O O10 0.266777 0.500000 0.141472
O O11 0.339195 0.237592 0.167276
O O12 0.118086 0.278360 0.183730
O O13 0.273102 0.274563 0.048486
O O14 0.353344 0.500000 0.956531
O O15 0.438796 0.234530 0.919252
O O16 0.223344 0.288930 0.922932
O O17 0.532403 0.000000 0.840880
O O18 0.903209 0.500000 0.114355
O O19 0.942099 0.211146 0.131877
O O20 0.000000 0.325735 0.000000
O O21 0.050345 0.000000 0.178564
#
# Coordination Sequence:
#
# PCOD8061683 Si02
#       8
#     4   4   4   4   4   4   4   4
#     4   9  18  31  49  77 108 136 162 197 247 299
#     4   8  16  31  52  80 110 137 166 200 239 292
#     4   9  18  33  53  76 104 137 169 202 243 294
#     4  11  23  39  55  69  91 131 180 220 259 306
#     4  10  21  37  55  72  93 128 174 219 261 310
#     4  12  24  36  51  73 101 130 169 217 262 307
#     4  10  19  34  52  71  94 127 169 210 256 306
#     4  11  22  34  48  72 103 131 165 210 257 303
#
# _framework density 16.849347999999999
#
# number of rings (size 3 to 8) (size 9 to 14) (size 15 to 20)
#    0.750    1.250    1.250    3.375    0.000    7.500 
#    0.000    0.000    0.000    0.000    0.000    0.875 
#    0.000    7.000    0.000    0.000    0.000    0.000 
#
# Total GULP energy -396668.581951 kJ/mol
# GULP energy per Si atom -12395.893186 kJ/mol
# Density = 1.681100 g / cm^3
# Si number density = 16.849348 Si / 1000 Ang^3
#
#
#
# Elastic Constant Matrix: (Units=GPa)
#
#
# Indices 1 2 3 4 5 6 
#
# 1 89.3507 42.5809 32.3179 0.0000 -15.2505 0.0000
# 2 42.5809 90.7222 35.4437 0.0000 -8.2783 0.0000
# 3 32.3179 35.4437 77.9037 0.0000 -16.7832 0.0000
# 4 0.0000 0.0000 0.0000 16.9256 0.0000 -5.1244
# 5 -15.2505 -8.2783 -16.7832 0.0000 15.6381 0.0000
# 6 0.0000 0.0000 0.0000 -5.1244 0.0000 28.3763
#
#
#
# Elastic Compliance Matrix: (Units=1/GPa)
#
#
# Indices 1 2 3 4 5 6 
#
# 1 0.016629 -0.006118 -0.001715 0.000000 0.011137 0.000000
# 2 -0.006118 0.015663 -0.005316 0.000000 -0.003381 0.000000
# 3 -0.001715 -0.005316 0.019511 0.000000 0.016453 0.000000
# 4 0.000000 0.000000 0.000000 0.062499 0.000000 0.011286
# 5 0.011137 -0.003381 0.016453 0.000000 0.090674 0.000000
# 6 0.000000 0.000000 0.000000 0.011286 0.000000 0.037279
#
#
# Mechanical properties :
#
#
# Convention : Reuss Voigt Hill
#
# Bulk Modulus (GPa) = 39.21159 53.18462 46.19811
# Shear Modulus (GPa) = 18.04683 22.03028 20.03856
#
# Velocity S-wave (km/s) = 3.27627 3.61984 3.45233
# Velocity P-wave (km/s) = 6.13468 7.00745 6.58554
#
# Compressibility (1/GPa) = 0.02550266
#
# Stress axis : x y z
#
# Youngs Moduli (GPa) = 60.13587 63.84528 51.25260
#
# Poissons Ratio (x) = 0.39063 0.08792
# Poissons Ratio (y) = 0.36794 0.27247
# Poissons Ratio (z) = 0.10316 0.33942
#
# Static dielectric constant tensor:
#      x y z
#    x 3.067680 0.000000 -0.121320 
#    y 0.000000 3.181060 0.000000 
#    z -0.121320 0.000000 3.063690 
# 
# 
# High freq. dielectric constant tensor:
#      x y z
#    x 1.630840 0.000000 -0.015810 
#    y 0.000000 1.658120 0.000000 
#    z -0.015810 0.000000 1.629080 
# 
# From -- ./inp_files/83370.got.cif
#   From: 2010.06.25/outbox.cif.g09.slc.cpg/sg10_42_cif.got.tgz:83370.got - 2010.06.27 22:07:45.
