data_PCOD8061586
_publ_section_title
;
Structure prediction by ZEFSAII (Michael W. Deem and Ramdas Pophale) SiO2 
 PCOD8061586
Probable space group: P 2/M
;
_chemical_formula_sum "Si O2"
_cell_formula_units_Z 32
_cell_length_a 23.016375
_cell_length_b 9.488784
_cell_length_c 13.841874
_cell_angle_alpha 90.000000
_cell_angle_beta 31.918714
_cell_angle_gamma 90.000000
_cell_volume 1598.322821
_symmetry_space_group_name_H-M "P 2/M"
_symmetry_group_IT_number 10
_symmetry_cell_setting 'monoclinic'
loop_
_space_group_symop_operation_xyz
x,y,z
-x,y,-z
-x,-y,-z
x,-y,z
loop_
_atom_site_type_symbol
_atom_site_label
_atom_site_fract_x
_atom_site_fract_y
_atom_site_fract_z
Si Si1 0.266176 0.840590 0.165379
Si Si2 0.040280 0.160045 0.182699
Si Si3 0.687990 0.668107 0.513208
Si Si4 0.611616 0.746753 0.297505
Si Si5 0.810478 0.343286 0.899229
Si Si6 0.788182 0.836281 0.540735
Si Si7 0.224353 0.156988 0.774653
Si Si8 0.514803 0.847318 0.243942
O O1 0.207789 0.734331 0.175556
O O2 0.238030 0.793362 0.312974
O O3 0.224095 0.000000 0.205359
O O4 0.396902 0.831229 0.966078
O O5 0.088709 0.264169 0.193471
O O6 0.914613 0.197205 0.338744
O O7 0.052053 0.000000 0.204767
O O8 0.107166 0.180109 0.989649
O O9 0.693217 0.500000 0.510500
O O10 0.713750 0.735639 0.580159
O O11 0.772258 0.726596 0.314176
O O12 0.567732 0.717283 0.648771
O O13 0.500000 0.674014 0.500000
O O14 0.673754 0.830784 0.294592
O O15 0.574384 0.850394 0.264172
O O16 0.701489 0.643767 0.121461
O O17 0.849700 0.500000 0.820443
O O18 0.759571 0.000000 0.561623
O O19 0.230701 0.000000 0.720777
O O20 0.455239 0.000000 0.317230
#
# Coordination Sequence:
#
# PCOD8061586 Si02
#       8
#     4   4   4   4   4   4   4   4
#     4   9  20  39  63  88 113 147 192 242 285 333
#     4   9  20  39  63  88 113 147 192 242 285 333
#     4  12  26  39  54  83 119 154 192 234 289 348
#     4  10  19  33  56  89 116 150 192 228 275 328
#     4  10  21  35  55  87 125 157 182 224 285 349
#     4  10  22  43  66  83 105 146 202 250 287 328
#     4  10  20  37  60  87 117 150 190 234 284 338
#     4  10  20  37  60  87 117 150 190 234 284 338
#
# _framework density 20.020987999999999
#
# number of rings (size 3 to 8) (size 9 to 14) (size 15 to 20)
#    0.000    2.000    1.250    1.875    0.000   10.250 
#    0.000    7.500    0.000    0.000    0.000    0.000 
#    0.000    0.000    0.000    0.000    0.000    0.000 
#
# Total GULP energy -396673.028410 kJ/mol
# GULP energy per Si atom -12396.032138 kJ/mol
# Density = 1.997542 g / cm^3
# Si number density = 20.020988 Si / 1000 Ang^3
#
#
#
# Elastic Constant Matrix: (Units=GPa)
#
#
# Indices 1 2 3 4 5 6 
#
# 1 69.2772 49.8874 12.2652 0.0000 11.0454 0.0000
# 2 49.8874 139.0380 11.9584 0.0000 10.5801 0.0000
# 3 12.2652 11.9584 64.3370 0.0000 10.8469 0.0000
# 4 0.0000 0.0000 0.0000 15.4818 0.0000 -3.4382
# 5 11.0454 10.5801 10.8469 0.0000 21.9779 0.0000
# 6 0.0000 0.0000 0.0000 -3.4382 0.0000 -4.6236
#
#
#
# Elastic Compliance Matrix: (Units=1/GPa)
#
#
# Indices 1 2 3 4 5 6 
#
# 1 0.020602 -0.006775 -0.001606 0.000000 -0.006300 0.000000
# 2 -0.006775 0.009737 -0.000329 0.000000 -0.001120 0.000000
# 3 -0.001606 -0.000329 0.017177 0.000000 -0.007512 0.000000
# 4 0.000000 0.000000 0.000000 0.055437 0.000000 -0.041224
# 5 -0.006300 -0.001120 -0.007512 0.000000 0.052913 0.000000
# 6 0.000000 0.000000 0.000000 -0.041224 0.000000 -0.185628
#
#
# Mechanical properties :
#
#
# Convention : Reuss Voigt Hill
#
# Bulk Modulus (GPa) = 33.22791 46.76381 39.99586
# Shear Modulus (GPa) = -2164.26624 19.80329 -1072.23148
#
# Velocity S-wave (km/s) = -32.91421 3.14845 -23.16714
# Velocity P-wave (km/s) = 37.78661 6.05187 26.37426
#
# Compressibility (1/GPa) = 0.03009519
#
# Stress axis : x y z
#
# Youngs Moduli (GPa) = 48.53893 102.70564 58.21721
#
# Poissons Ratio (x) = 0.69578 0.09351
# Poissons Ratio (y) = 0.32883 0.01918
# Poissons Ratio (z) = 0.07796 0.03384
#
# Static dielectric constant tensor:
#      x y z
#    x 3.467080 0.000000 0.085260 
#    y 0.000000 3.394160 0.000000 
#    z 0.085260 0.000000 3.798660 
# 
# 
# High freq. dielectric constant tensor:
#      x y z
#    x 1.771700 0.000000 0.006180 
#    y 0.000000 1.763730 0.000000 
#    z 0.006180 0.000000 1.787770 
# 
# From -- ./inp_files/71531.got.cif
#   From: 2010.06.25/outbox.cif.g09.slc.cpg/sg10_36_cif.got.tgz:71531.got - 2010.06.27 22:07:45.
