data_PCOD8061612
_publ_section_title
;
Structure prediction by ZEFSAII (Michael W. Deem and Ramdas Pophale) SiO2 
 PCOD8061612
Probable space group: P 2/M
;
_chemical_formula_sum "Si O2"
_cell_formula_units_Z 32
_cell_length_a 27.545062
_cell_length_b 9.019816
_cell_length_c 21.283592
_cell_angle_alpha 90.000000
_cell_angle_beta 18.858335
_cell_angle_gamma 90.000000
_cell_volume 1709.216761
_symmetry_space_group_name_H-M "P 2/M"
_symmetry_group_IT_number 10
_symmetry_cell_setting 'monoclinic'
loop_
_space_group_symop_operation_xyz
x,y,z
-x,y,-z
-x,-y,-z
x,-y,z
loop_
_atom_site_type_symbol
_atom_site_label
_atom_site_fract_x
_atom_site_fract_y
_atom_site_fract_z
Si Si1 0.714057 0.169843 0.850345
Si Si2 0.588883 0.169221 0.199691
Si Si3 0.676141 0.673524 0.539226
Si Si4 0.164991 0.325714 0.781322
Si Si5 0.433569 0.171341 0.516946
Si Si6 0.808806 0.325273 0.609906
Si Si7 0.635899 0.828139 0.712581
Si Si8 0.884431 0.830063 0.769622
O O1 0.770890 0.278143 0.726867
O O2 0.811358 0.207463 0.792174
O O3 0.738428 0.000000 0.798983
O O4 0.541022 0.198998 0.078143
O O5 0.489171 0.279152 0.280462
O O6 0.559014 0.195982 0.309762
O O7 0.548316 0.000000 0.229401
O O8 0.763282 0.200990 0.972734
O O9 0.676586 0.500000 0.552708
O O10 0.795596 0.717545 0.338826
O O11 0.720244 0.758419 0.549017
O O12 0.176277 0.500000 0.777274
O O13 0.280219 0.253746 0.688631
O O14 0.000000 0.265395 0.000000
O O15 0.500000 0.237703 0.500000
O O16 0.392609 0.000000 0.575445
O O17 0.795262 0.500000 0.619899
O O18 0.688963 0.250723 0.710756
O O19 0.976410 0.275877 0.386750
O O20 0.677713 0.000000 0.665549
O O21 0.939443 0.000000 0.703758
#
# Coordination Sequence:
#
# PCOD8061612 Si02
#       8
#     4   4   4   4   4   4   4   4
#     4  10  21  39  63  84 104 141 191 229 272 337
#     4   9  17  34  58  81 109 148 191 227 269 327
#     4  10  19  33  57  85 113 144 185 233 276 321
#     4   9  19  36  56  80 114 152 186 221 268 331
#     4   9  18  33  55  84 116 143 181 235 276 314
#     4  12  26  39  53  83 119 147 179 229 287 328
#     4  11  22  40  62  83 109 147 189 228 275 333
#     4  10  20  38  60  81 108 148 192 229 270 331
#
# _framework density 18.722026
#
# number of rings (size 3 to 8) (size 9 to 14) (size 15 to 20)
#    0.000    2.000    1.250    2.625    0.000    6.000 
#    2.250    0.000    0.000    0.000    0.000    0.000 
#    0.000    0.000    0.000    0.000    0.000    0.000 
#
# Total GULP energy -396913.046250 kJ/mol
# GULP energy per Si atom -12403.532695 kJ/mol
# Density = 1.867941 g / cm^3
# Si number density = 18.722026 Si / 1000 Ang^3
#
#
#
# Elastic Constant Matrix: (Units=GPa)
#
#
# Indices 1 2 3 4 5 6 
#
# 1 73.2969 27.6886 27.4856 0.0000 8.7867 0.0000
# 2 27.6886 78.9757 38.6275 0.0000 1.6854 0.0000
# 3 27.4856 38.6275 92.9260 0.0000 10.6350 0.0000
# 4 0.0000 0.0000 0.0000 25.1183 0.0000 1.0119
# 5 8.7867 1.6854 10.6350 0.0000 24.2335 0.0000
# 6 0.0000 0.0000 0.0000 1.0119 0.0000 27.1147
#
#
#
# Elastic Compliance Matrix: (Units=1/GPa)
#
#
# Indices 1 2 3 4 5 6 
#
# 1 0.016891 -0.004570 -0.002561 0.000000 -0.004683 0.000000
# 2 -0.004570 0.017212 -0.006165 0.000000 0.003166 0.000000
# 3 -0.002561 -0.006165 0.014663 0.000000 -0.005078 0.000000
# 4 0.000000 0.000000 0.000000 0.039872 0.000000 -0.001488
# 5 -0.004683 0.003166 -0.005078 0.000000 0.044971 0.000000
# 6 0.000000 0.000000 0.000000 -0.001488 0.000000 0.036936
#
#
# Mechanical properties :
#
#
# Convention : Reuss Voigt Hill
#
# Bulk Modulus (GPa) = 45.09688 48.08910 46.59299
# Shear Modulus (GPa) = 24.44662 25.38641 24.91652
#
# Velocity S-wave (km/s) = 3.61746 3.68634 3.65206
# Velocity P-wave (km/s) = 6.44887 6.62272 6.53637
#
# Compressibility (1/GPa) = 0.02217449
#
# Stress axis : x y z
#
# Youngs Moduli (GPa) = 59.20349 58.09828 68.20078
#
# Poissons Ratio (x) = 0.26548 0.17463
# Poissons Ratio (y) = 0.27053 0.42049
# Poissons Ratio (z) = 0.15160 0.35820
#
# Static dielectric constant tensor:
#      x y z
#    x 3.455670 0.000000 0.152740 
#    y 0.000000 3.398450 0.000000 
#    z 0.152740 0.000000 3.521520 
# 
# 
# High freq. dielectric constant tensor:
#      x y z
#    x 1.726480 0.000000 0.010810 
#    y 0.000000 1.723110 0.000000 
#    z 0.010810 0.000000 1.727480 
# 
# From -- ./inp_files/86796.got.cif
#   From: 2010.06.25/outbox.cif.g09.slc.cpg/sg10_44_cif.got.tgz:86796.got - 2010.06.27 22:07:45.
