data_PCOD8061964
_publ_section_title
;
Structure prediction by ZEFSAII (Michael W. Deem and Ramdas Pophale) SiO2 
 PCOD8061964
Probable space group: P 2/M
;
_chemical_formula_sum "Si O2"
_cell_formula_units_Z 32
_cell_length_a 20.548247
_cell_length_b 8.791431
_cell_length_c 25.181344
_cell_angle_alpha 90.000000
_cell_angle_beta 22.544113
_cell_angle_gamma 90.000000
_cell_volume 1744.051401
_symmetry_space_group_name_H-M "P 2/M"
_symmetry_group_IT_number 10
_symmetry_cell_setting 'monoclinic'
loop_
_space_group_symop_operation_xyz
x,y,z
-x,y,-z
-x,-y,-z
x,-y,z
loop_
_atom_site_type_symbol
_atom_site_label
_atom_site_fract_x
_atom_site_fract_y
_atom_site_fract_z
Si Si1 0.393382 0.179136 0.429151
Si Si2 0.999846 0.178918 0.843244
Si Si3 0.133061 0.822584 0.444730
Si Si4 0.514956 0.821528 0.145064
Si Si5 0.349419 0.679438 0.576216
Si Si6 0.166497 0.325055 0.132575
Si Si7 0.343135 0.821414 0.851650
Si Si8 0.894655 0.675237 0.422284
O O1 0.380063 0.268997 0.493416
O O2 0.568204 0.236200 0.269143
O O3 0.240038 0.218125 0.505575
O O4 0.392082 0.000000 0.442004
O O5 0.173403 0.255470 0.731436
O O6 0.944274 0.234515 0.827139
O O7 0.028065 0.000000 0.818388
O O8 0.855902 0.222367 0.995411
O O9 0.319243 0.781823 0.281299
O O10 0.087515 0.724827 0.530447
O O11 0.000000 0.777625 0.500000
O O12 0.123730 0.000000 0.467035
O O13 0.560209 0.756354 0.169473
O O14 0.551291 0.000000 0.113110
O O15 0.640926 0.738501 0.008566
O O16 0.500000 0.741306 0.500000
O O17 0.338969 0.500000 0.585579
O O18 0.169770 0.500000 0.112572
O O19 0.078012 0.303700 0.256357
O O20 0.368521 0.000000 0.834791
O O21 0.835372 0.500000 0.463467
#
# Coordination Sequence:
#
# PCOD8061964 Si02
#       8
#     4   4   4   4   4   4   4   4
#     4  11  20  35  60  85 110 142 186 234 277 325
#     4  10  19  34  57  82 109 143 183 226 277 330
#     4  10  21  38  59  82 111 148 190 235 280 329
#     4   9  17  33  54  79 110 142 183 228 276 330
#     4  11  24  40  55  78 116 153 185 227 277 332
#     4  10  20  33  52  81 113 143 181 228 278 328
#     4   8  16  31  53  83 110 134 174 230 277 319
#     4  11  22  35  54  83 116 145 183 230 279 335
#
# _framework density 18.348082999999999
#
# number of rings (size 3 to 8) (size 9 to 14) (size 15 to 20)
#    0.000    2.000    2.500    2.625    0.000    3.250 
#    0.000    3.125    0.000    7.500    0.000    0.000 
#    0.000    0.000    0.000    0.000    0.000    0.000 
#
# Total GULP energy -396763.478935 kJ/mol
# GULP energy per Si atom -12398.858717 kJ/mol
# Density = 1.830632 g / cm^3
# Si number density = 18.348083 Si / 1000 Ang^3
#
#
#
# Elastic Constant Matrix: (Units=GPa)
#
#
# Indices 1 2 3 4 5 6 
#
# 1 56.1746 8.2710 42.7505 0.0000 -13.2015 0.0000
# 2 8.2710 47.7010 31.6635 0.0000 -5.8704 0.0000
# 3 42.7505 31.6635 151.3389 0.0000 -7.7125 0.0000
# 4 0.0000 0.0000 0.0000 17.9205 0.0000 0.3624
# 5 -13.2015 -5.8704 -7.7125 0.0000 28.7745 0.0000
# 6 0.0000 0.0000 0.0000 0.3624 0.0000 23.3159
#
#
#
# Elastic Compliance Matrix: (Units=1/GPa)
#
#
# Indices 1 2 3 4 5 6 
#
# 1 0.025199 0.001450 -0.006912 0.000000 0.010004 0.000000
# 2 0.001450 0.024813 -0.005383 0.000000 0.004285 0.000000
# 3 -0.006912 -0.005383 0.009600 0.000000 -0.001696 0.000000
# 4 0.000000 0.000000 0.000000 0.055820 0.000000 -0.000868
# 5 0.010004 0.004285 -0.001696 0.000000 0.039762 0.000000
# 6 0.000000 0.000000 0.000000 -0.000868 0.000000 0.042903
#
#
# Mechanical properties :
#
#
# Convention : Reuss Voigt Hill
#
# Bulk Modulus (GPa) = 26.36935 46.73161 36.55048
# Shear Modulus (GPa) = 21.51214 25.50414 23.50814
#
# Velocity S-wave (km/s) = 3.42781 3.73234 3.58331
# Velocity P-wave (km/s) = 5.48356 6.64067 6.08966
#
# Compressibility (1/GPa) = 0.03792281
#
# Stress axis : x y z
#
# Youngs Moduli (GPa) = 39.68348 40.30193 104.16797
#
# Poissons Ratio (x) = -0.05843 0.71999
# Poissons Ratio (y) = -0.05754 0.56069
# Poissons Ratio (z) = 0.27429 0.21693
#
# Static dielectric constant tensor:
#      x y z
#    x 3.209550 0.000000 0.110470 
#    y 0.000000 3.332390 0.000000 
#    z 0.110470 0.000000 3.830790 
# 
# 
# High freq. dielectric constant tensor:
#      x y z
#    x 1.676320 0.000000 0.009460 
#    y 0.000000 1.708920 0.000000 
#    z 0.009460 0.000000 1.731570 
# 
# From -- ./inp_files/93579.got.cif
#   From: 2010.06.25/outbox.cif.g09.slc.cpg/sg10_47_cif.got.tgz:93579.got - 2010.06.27 22:07:45.
