data_PCOD8061495
_publ_section_title
;
Structure prediction by ZEFSAII (Michael W. Deem and Ramdas Pophale) SiO2 
 PCOD8061495
Probable space group: P 2/M
;
_chemical_formula_sum "Si O2"
_cell_formula_units_Z 32
_cell_length_a 9.294288
_cell_length_b 9.021036
_cell_length_c 22.696979
_cell_angle_alpha 90.000000
_cell_angle_beta 113.621854
_cell_angle_gamma 90.000000
_cell_volume 1743.554817
_symmetry_space_group_name_H-M "P 2/M"
_symmetry_group_IT_number 10
_symmetry_cell_setting 'monoclinic'
loop_
_space_group_symop_operation_xyz
x,y,z
-x,y,-z
-x,-y,-z
x,-y,z
loop_
_atom_site_type_symbol
_atom_site_label
_atom_site_fract_x
_atom_site_fract_y
_atom_site_fract_z
Si Si1 0.653312 0.332681 0.065058
Si Si2 0.816325 0.169267 0.362640
Si Si3 0.173491 0.831898 0.405653
Si Si4 0.614048 0.667648 0.642154
Si Si5 0.466606 0.826610 0.129131
Si Si6 0.466205 0.326878 0.740925
Si Si7 0.273676 0.671024 0.538258
Si Si8 0.166218 0.172841 0.001394
O O1 0.700667 0.500000 0.089740
O O2 0.613896 0.241914 0.117712
O O3 0.500000 0.329247 0.000000
O O4 0.797747 0.258509 0.053556
O O5 0.704658 0.261101 0.301081
O O6 0.822326 0.235702 0.429348
O O7 0.988945 0.180385 0.364086
O O8 0.757374 0.000000 0.356454
O O9 0.254057 0.780654 0.358267
O O10 0.230815 0.725140 0.466662
O O11 0.222178 0.000000 0.428840
O O12 0.674589 0.500000 0.644332
O O13 0.581024 0.702364 0.704921
O O14 0.458301 0.692890 0.578125
O O15 0.455881 0.753028 0.191038
O O16 0.301052 0.792391 0.070944
O O17 0.497897 0.000000 0.140307
O O18 0.445565 0.500000 0.750475
O O19 0.225549 0.500000 0.537615
O O20 0.159879 0.000000 0.984852
O O21 0.000000 0.228453 0.000000
#
# Coordination Sequence:
#
# PCOD8061495 Si02
#       8
#     4   4   4   4   4   4   4   4
#     4   9  17  30  50  77 107 138 173 211 248 290
#     4  10  21  36  52  74 103 132 168 214 259 305
#     4  11  22  33  50  77 104 131 166 211 261 311
#     4   9  20  36  52  72 100 134 171 212 256 306
#     4  10  19  33  56  80 103 137 176 212 253 301
#     4  10  21  38  57  76  99 132 175 215 255 306
#     4  10  20  34  53  76 101 133 171 209 256 313
#     4   9  18  33  53  80 113 144 173 209 254 301
#
# _framework density 18.353308999999999
#
# number of rings (size 3 to 8) (size 9 to 14) (size 15 to 20)
#    0.000    2.250    0.000    3.750    0.000   10.250 
#    0.000    1.250    0.000    4.500    0.000    0.000 
#    0.000    0.000    0.000    0.000    0.000    0.000 
#
# Total GULP energy -396903.563886 kJ/mol
# GULP energy per Si atom -12403.236371 kJ/mol
# Density = 1.831154 g / cm^3
# Si number density = 18.353309 Si / 1000 Ang^3
#
#
#
# Elastic Constant Matrix: (Units=GPa)
#
#
# Indices 1 2 3 4 5 6 
#
# 1 120.0986 61.1481 36.4318 0.0000 -11.7469 0.0000
# 2 61.1481 115.5456 45.9582 0.0000 -6.0119 0.0000
# 3 36.4318 45.9582 80.1642 0.0000 -12.1731 0.0000
# 4 0.0000 0.0000 0.0000 26.9685 0.0000 -10.4083
# 5 -11.7469 -6.0119 -12.1731 0.0000 11.6014 0.0000
# 6 0.0000 0.0000 0.0000 -10.4083 0.0000 29.8795
#
#
#
# Elastic Compliance Matrix: (Units=1/GPa)
#
#
# Indices 1 2 3 4 5 6 
#
# 1 0.012372 -0.005676 -0.001086 0.000000 0.008446 0.000000
# 2 -0.005676 0.013827 -0.006105 0.000000 -0.004988 0.000000
# 3 -0.001086 -0.006105 0.018819 0.000000 0.015483 0.000000
# 4 0.000000 0.000000 0.000000 0.042840 0.000000 0.014923
# 5 0.008446 -0.004988 0.015483 0.000000 0.108410 0.000000
# 6 0.000000 0.000000 0.000000 0.014923 0.000000 0.038666
#
#
# Mechanical properties :
#
#
# Convention : Reuss Voigt Hill
#
# Bulk Modulus (GPa) = 51.85559 66.98717 59.42138
# Shear Modulus (GPa) = 18.71985 25.17457 21.94721
#
# Velocity S-wave (km/s) = 3.19716 3.70762 3.46181
# Velocity P-wave (km/s) = 6.47646 7.40989 6.95884
#
# Compressibility (1/GPa) = 0.01928432
#
# Stress axis : x y z
#
# Youngs Moduli (GPa) = 80.82773 72.32169 53.13766
#
# Poissons Ratio (x) = 0.41050 0.05771
# Poissons Ratio (y) = 0.45878 0.32440
# Poissons Ratio (z) = 0.08778 0.44152
#
# Static dielectric constant tensor:
#      x y z
#    x 3.382520 0.000000 -0.132120 
#    y 0.000000 3.547870 0.000000 
#    z -0.132120 0.000000 3.153570 
# 
# 
# High freq. dielectric constant tensor:
#      x y z
#    x 1.709080 0.000000 -0.014050 
#    y 0.000000 1.726510 0.000000 
#    z -0.014050 0.000000 1.689970 
# 
# From -- ./inp_files/91737.got.cif
#   From: 2010.06.25/outbox.cif.g09.slc.cpg/sg10_46_cif.got.tgz:91737.got - 2010.06.27 22:07:45.
