data_PCOD8061522
_publ_section_title
;
Structure prediction by ZEFSAII (Michael W. Deem and Ramdas Pophale) SiO2 
 PCOD8061522
Probable space group: P 2/M
;
_chemical_formula_sum "Si O2"
_cell_formula_units_Z 28
_cell_length_a 26.569593
_cell_length_b 9.006841
_cell_length_c 9.485312
_cell_angle_alpha 90.000000
_cell_angle_beta 42.011610
_cell_angle_gamma 90.000000
_cell_volume 1519.209370
_symmetry_space_group_name_H-M "P 2/M"
_symmetry_group_IT_number 10
_symmetry_cell_setting 'monoclinic'
loop_
_space_group_symop_operation_xyz
x,y,z
-x,y,-z
-x,-y,-z
x,-y,z
loop_
_atom_site_type_symbol
_atom_site_label
_atom_site_fract_x
_atom_site_fract_y
_atom_site_fract_z
Si Si1 0.432253 0.663415 0.243594
Si Si2 0.803441 0.832369 0.610219
Si Si3 0.738229 0.824205 0.037621
Si Si4 0.432624 0.825390 0.532198
Si Si5 0.192735 0.672784 0.846877
Si Si6 0.914821 0.675408 0.173825
Si Si7 0.699707 0.165845 0.571050
O O1 0.394925 0.500000 0.346899
O O2 0.453110 0.733932 0.350538
O O3 0.385555 0.783542 0.250812
O O4 0.500000 0.636364 0.000000
O O5 0.871205 0.741341 0.398948
O O6 0.730458 0.829087 0.663862
O O7 0.832831 0.000000 0.569913
O O8 0.773422 0.762537 0.818388
O O9 0.650867 0.774228 0.239099
O O10 0.796916 0.762469 0.030758
O O11 0.741871 0.000000 0.031891
O O12 0.500000 0.787949 0.500000
O O13 0.430947 0.000000 0.501728
O O14 0.188590 0.500000 0.891558
O O15 0.120447 0.724575 0.903915
O O16 0.264121 0.710071 0.603594
O O17 0.910079 0.500000 0.199789
O O18 0.000000 0.733962 0.000000
O O19 0.709391 0.000000 0.486200
#
# Coordination Sequence:
#
# PCOD8061522 Si02
#       7
#     4   4   4   4   4   4   4
#     4  11  24  38  52  76 109 141 180 230 279 326
#     4   9  20  35  55  83 112 141 180 225 270 321
#     4  10  20  36  55  80 113 145 182 228 270 322
#     4  10  22  38  58  80 106 146 190 230 275 323
#     4  10  19  33  56  82 108 141 178 218 269 324
#     4   9  19  37  59  83 112 144 181 223 266 321
#     4  10  19  34  56  78 101 137 182 226 269 319
#
# _framework density 18.430641000000001
#
# number of rings (size 3 to 8) (size 9 to 14) (size 15 to 20)
#    0.000    2.143    1.429    1.286    2.000    3.429 
#    0.000    0.714    0.000    4.286    0.000    0.000 
#    0.000    0.000    0.000    0.000    0.000    0.000 
#
# Total GULP energy -346970.700177 kJ/mol
# GULP energy per Si atom -12391.810721 kJ/mol
# Density = 1.838869 g / cm^3
# Si number density = 18.430641 Si / 1000 Ang^3
#
#
#
# Elastic Constant Matrix: (Units=GPa)
#
#
# Indices 1 2 3 4 5 6 
#
# 1 120.8770 45.3608 77.3477 0.0000 0.8596 0.0000
# 2 45.3608 43.4546 35.2529 0.0000 1.1708 0.0000
# 3 77.3477 35.2529 112.6870 0.0000 11.0466 0.0000
# 4 0.0000 0.0000 0.0000 23.1978 0.0000 -0.7237
# 5 0.8596 1.1708 11.0466 0.0000 31.1198 0.0000
# 6 0.0000 0.0000 0.0000 -0.7237 0.0000 26.2112
#
#
#
# Elastic Compliance Matrix: (Units=1/GPa)
#
#
# Indices 1 2 3 4 5 6 
#
# 1 0.018848 -0.012069 -0.009485 0.000000 0.003300 0.000000
# 2 -0.012069 0.038733 -0.003858 0.000000 0.000245 0.000000
# 3 -0.009485 -0.003858 0.017148 0.000000 -0.005680 0.000000
# 4 0.000000 0.000000 0.000000 0.043145 0.000000 0.001191
# 5 0.003300 0.000245 -0.005680 0.000000 0.034050 0.000000
# 6 0.000000 0.000000 0.000000 0.001191 0.000000 0.038185
#
#
# Mechanical properties :
#
#
# Convention : Reuss Voigt Hill
#
# Bulk Modulus (GPa) = 41.82876 65.88238 53.85557
# Shear Modulus (GPa) = 20.08849 24.04291 22.06570
#
# Velocity S-wave (km/s) = 3.30502 3.61572 3.46385
# Velocity P-wave (km/s) = 6.10809 7.29760 6.72918
#
# Compressibility (1/GPa) = 0.02390699
#
# Stress axis : x y z
#
# Youngs Moduli (GPa) = 53.05738 25.81753 58.31556
#
# Poissons Ratio (x) = 0.31158 0.55311
# Poissons Ratio (y) = 0.64033 0.22496
# Poissons Ratio (z) = 0.50324 0.09959
#
# Static dielectric constant tensor:
#      x y z
#    x 3.713740 0.000000 0.002900 
#    y 0.000000 3.395960 0.000000 
#    z 0.002900 0.000000 3.286850 
# 
# 
# High freq. dielectric constant tensor:
#      x y z
#    x 1.720140 0.000000 0.005870 
#    y 0.000000 1.715970 0.000000 
#    z 0.005870 0.000000 1.700010 
# 
# From -- ./inp_files/37044.got.cif
#   From: 2010.06.25/outbox.cif.g09.slc.cpg/sg10_19_cif.got.tgz:37044.got - 2010.06.27 22:07:45.
