data_PCOD8061319
_publ_section_title
;
Structure prediction by ZEFSAII (Michael W. Deem and Ramdas Pophale) SiO2 
 PCOD8061319
Probable space group: P 2/M
;
_chemical_formula_sum "Si O2"
_cell_formula_units_Z 32
_cell_length_a 9.320893
_cell_length_b 19.663064
_cell_length_c 12.644965
_cell_angle_alpha 90.000000
_cell_angle_beta 131.332945
_cell_angle_gamma 90.000000
_cell_volume 1740.201312
_symmetry_space_group_name_H-M "P 2/M"
_symmetry_group_IT_number 10
_symmetry_cell_setting 'monoclinic'
loop_
_space_group_symop_operation_xyz
x,y,z
-x,y,-z
-x,-y,-z
x,-y,z
loop_
_atom_site_type_symbol
_atom_site_label
_atom_site_fract_x
_atom_site_fract_y
_atom_site_fract_z
Si Si1 0.493042 0.576073 0.876659
Si Si2 0.947237 0.574825 0.363340
Si Si3 0.451047 0.667274 0.297815
Si Si4 0.822056 0.077512 0.196854
Si Si5 0.185186 0.824267 0.380950
Si Si6 0.439862 0.076727 0.128902
Si Si7 0.202646 0.669040 0.377122
Si Si8 0.544861 0.822598 0.685791
O O1 0.589281 0.500000 0.920762
O O2 0.580556 0.623863 0.825781
O O3 0.275350 0.567859 0.745286
O O4 0.500000 0.606975 0.000000
O O5 0.042835 0.500000 0.401830
O O6 0.021563 0.620141 0.302695
O O7 0.000000 0.610340 0.500000
O O8 0.277996 0.655004 0.295608
O O9 0.642666 0.650062 0.456911
O O10 0.450958 0.746391 0.266319
O O11 0.650354 0.097990 0.191440
O O12 0.999869 0.128112 0.297804
O O13 0.891695 0.000000 0.251390
O O14 0.730529 0.083482 0.037248
O O15 0.125614 0.745389 0.355659
O O16 0.327852 0.841219 0.547029
O O17 0.306417 0.834542 0.334939
O O18 0.378121 0.126728 0.189913
O O19 0.449310 0.000000 0.175949
#
# Coordination Sequence:
#
# PCOD8061319 Si02
#       8
#     4   4   4   4   4   4   4   4
#     4  10  21  37  54  76 110 144 174 216 269 319
#     4  10  19  33  54  81 107 134 177 224 261 307
#     4   9  18  35  55  78 107 141 178 218 265 315
#     4   9  19  36  54  75 105 137 173 216 261 310
#     4   9  19  35  53  76 106 138 170 216 266 308
#     4   9  19  36  54  74 104 138 173 216 259 307
#     4   9  18  34  56  79 107 138 177 225 264 307
#     4   9  19  35  53  76 106 136 174 217 259 310
#
# _framework density 18.388677999999999
#
# number of rings (size 3 to 8) (size 9 to 14) (size 15 to 20)
#    0.000    2.750    1.250    2.250    0.000    3.500 
#    4.500    5.625    0.000    2.250    0.000    0.000 
#    0.000    0.000    0.000    0.000    0.000    0.000 
#
# Total GULP energy -396498.076038 kJ/mol
# GULP energy per Si atom -12390.564876 kJ/mol
# Density = 1.834682 g / cm^3
# Si number density = 18.388678 Si / 1000 Ang^3
#
#
#
# Elastic Constant Matrix: (Units=GPa)
#
#
# Indices 1 2 3 4 5 6 
#
# 1 52.7371 41.4439 22.7543 0.0000 -3.0424 0.0000
# 2 41.4439 79.3126 29.0097 0.0000 -10.3830 0.0000
# 3 22.7543 29.0097 56.6231 0.0000 -16.0933 0.0000
# 4 0.0000 0.0000 0.0000 21.5751 0.0000 -7.0583
# 5 -3.0424 -10.3830 -16.0933 0.0000 33.9022 0.0000
# 6 0.0000 0.0000 0.0000 -7.0583 0.0000 36.5624
#
#
#
# Elastic Compliance Matrix: (Units=1/GPa)
#
#
# Indices 1 2 3 4 5 6 
#
# 1 0.034292 -0.016020 -0.007043 0.000000 -0.005172 0.000000
# 2 -0.016020 0.023037 -0.004356 0.000000 0.003550 0.000000
# 3 -0.007043 -0.004356 0.025620 0.000000 0.010196 0.000000
# 4 0.000000 0.000000 0.000000 0.049474 0.000000 0.009551
# 5 -0.005172 0.003550 0.010196 0.000000 0.034960 0.000000
# 6 0.000000 0.000000 0.000000 0.009551 0.000000 0.029194
#
#
# Mechanical properties :
#
#
# Convention : Reuss Voigt Hill
#
# Bulk Modulus (GPa) = 35.57211 41.67650 38.62430
# Shear Modulus (GPa) = 19.17280 24.77226 21.97253
#
# Velocity S-wave (km/s) = 3.23250 3.67433 3.46047
# Velocity P-wave (km/s) = 5.77223 6.38078 6.08412
#
# Compressibility (1/GPa) = 0.02811191
#
# Stress axis : x y z
#
# Youngs Moduli (GPa) = 29.16161 43.40772 39.03129
#
# Poissons Ratio (x) = 0.69538 0.27489
# Poissons Ratio (y) = 0.46716 0.17002
# Poissons Ratio (z) = 0.20538 0.18909
#
# Static dielectric constant tensor:
#      x y z
#    x 3.222960 0.000000 0.027460 
#    y 0.000000 3.477450 0.000000 
#    z 0.027460 0.000000 3.055160 
# 
# 
# High freq. dielectric constant tensor:
#      x y z
#    x 1.707820 0.000000 -0.006630 
#    y 0.000000 1.712680 0.000000 
#    z -0.006630 0.000000 1.700690 
# 
# From -- ./inp_files/43643.got.cif
#   From: 2010.06.25/outbox.cif.g09.slc.cpg/sg10_22_cif.got.tgz:43643.got - 2010.06.27 22:07:45.
