data_PCOD8061351
_publ_section_title
;
Structure prediction by ZEFSAII (Michael W. Deem and Ramdas Pophale) SiO2 
 PCOD8061351
Probable space group: P 2/M
;
_chemical_formula_sum "Si O2"
_cell_formula_units_Z 32
_cell_length_a 19.733252
_cell_length_b 9.235602
_cell_length_c 25.942866
_cell_angle_alpha 90.000000
_cell_angle_beta 159.241155
_cell_angle_gamma 90.000000
_cell_volume 1675.787353
_symmetry_space_group_name_H-M "P 2/M"
_symmetry_group_IT_number 10
_symmetry_cell_setting 'monoclinic'
loop_
_space_group_symop_operation_xyz
x,y,z
-x,y,-z
-x,-y,-z
x,-y,z
loop_
_atom_site_type_symbol
_atom_site_label
_atom_site_fract_x
_atom_site_fract_y
_atom_site_fract_z
Si Si1 0.963675 0.166059 0.352462
Si Si2 0.643688 0.171358 0.718016
Si Si3 0.367259 0.171320 0.949134
Si Si4 0.099334 0.667518 0.180342
Si Si5 0.295450 0.667696 0.634168
Si Si6 0.675000 0.165977 0.242044
Si Si7 0.323523 0.664975 0.153603
Si Si8 0.329867 0.840382 0.419670
O O1 0.852506 0.214650 0.220286
O O2 0.824059 0.187466 0.301800
O O3 0.150137 0.264445 0.489484
O O4 0.030262 0.000000 0.395916
O O5 0.806237 0.248414 0.799959
O O6 0.658834 0.225750 0.786688
O O7 0.430047 0.208516 0.544566
O O8 0.681206 0.000000 0.742254
O O9 0.383862 0.000000 0.955266
O O10 0.500000 0.244265 0.000000
O O11 0.459449 0.214327 0.070041
O O12 0.157851 0.500000 0.218257
O O13 0.169411 0.728863 0.285647
O O14 0.872941 0.690512 0.016499
O O15 0.249583 0.500000 0.605927
O O16 0.260106 0.736443 0.664665
O O17 0.509997 0.699037 0.768466
O O18 0.674893 0.000000 0.260681
O O19 0.336689 0.500000 0.183657
O O20 0.500000 0.847476 0.500000
O O21 0.236169 0.000000 0.358753
#
# Coordination Sequence:
#
# PCOD8061351 Si02
#       8
#     4   4   4   4   4   4   4   4
#     4   9  17  32  55  79 101 127 164 208 250 297
#     4  10  20  34  55  81 104 127 160 206 256 300
#     4   7  12  26  50  77 100 122 155 203 251 293
#     4  10  19  33  55  78 100 132 171 205 243 295
#     4  11  23  36  48  68 103 140 171 206 247 291
#     4   9  17  32  55  79 100 127 165 206 250 300
#     4  10  23  39  50  67 100 139 175 208 243 291
#     4   8  16  31  50  77 108 128 153 202 254 296
#
# _framework density 19.095502
#
# number of rings (size 3 to 8) (size 9 to 14) (size 15 to 20)
#    0.000    2.750    0.000    4.125    0.000    8.250 
#    0.000    1.875    0.000    8.250    0.000    0.000 
#    0.000    0.000    0.000    0.000    0.000    0.000 
#
# Total GULP energy -396569.053543 kJ/mol
# GULP energy per Si atom -12392.782923 kJ/mol
# Density = 1.905204 g / cm^3
# Si number density = 19.095502 Si / 1000 Ang^3
#
#
#
# Elastic Constant Matrix: (Units=GPa)
#
#
# Indices 1 2 3 4 5 6 
#
# 1 17.0095 20.9826 22.2884 0.0000 3.4067 0.0000
# 2 20.9826 92.7912 59.7650 0.0000 1.5399 0.0000
# 3 22.2884 59.7650 131.3293 0.0000 -12.6218 0.0000
# 4 0.0000 0.0000 0.0000 23.1604 0.0000 -1.1631
# 5 3.4067 1.5399 -12.6218 0.0000 16.1146 0.0000
# 6 0.0000 0.0000 0.0000 -1.1631 0.0000 9.9008
#
#
#
# Elastic Compliance Matrix: (Units=1/GPa)
#
#
# Indices 1 2 3 4 5 6 
#
# 1 0.099051 -0.012977 -0.013840 0.000000 -0.030540 0.000000
# 2 -0.012977 0.017821 -0.006280 0.000000 -0.003878 0.000000
# 3 -0.013840 -0.006280 0.014231 0.000000 0.014673 0.000000
# 4 0.000000 0.000000 0.000000 0.043433 0.000000 0.005102
# 5 -0.030540 -0.003878 0.014673 0.000000 0.080375 0.000000
# 6 0.000000 0.000000 0.000000 0.005102 0.000000 0.101601
#
#
# Mechanical properties :
#
#
# Convention : Reuss Voigt Hill
#
# Bulk Modulus (GPa) = 15.40632 49.68909 32.54771
# Shear Modulus (GPa) = 11.25258 19.04143 15.14700
#
# Velocity S-wave (km/s) = 2.43014 3.16122 2.81948
# Velocity P-wave (km/s) = 3.99495 6.27712 5.26127
#
# Compressibility (1/GPa) = 0.06490842
#
# Stress axis : x y z
#
# Youngs Moduli (GPa) = 10.09585 56.11466 70.26756
#
# Poissons Ratio (x) = 0.72822 0.97248
# Poissons Ratio (y) = 0.13102 0.44129
# Poissons Ratio (z) = 0.13972 0.35241
#
# Static dielectric constant tensor:
#      x y z
#    x 3.136170 0.000000 -0.305190 
#    y 0.000000 3.392420 0.000000 
#    z -0.305190 0.000000 3.998120 
# 
# 
# High freq. dielectric constant tensor:
#      x y z
#    x 1.703060 0.000000 -0.019590 
#    y 0.000000 1.728350 0.000000 
#    z -0.019590 0.000000 1.761890 
# 
# From -- ./inp_files/93742.got.cif
#   From: 2010.06.25/outbox.cif.g09.slc.cpg/sg10_47_cif.got.tgz:93742.got - 2010.06.27 22:07:45.
