data_PCOD8061389
_publ_section_title
;
Structure prediction by ZEFSAII (Michael W. Deem and Ramdas Pophale) SiO2 
 PCOD8061389
Probable space group: P 2/M
;
_chemical_formula_sum "Si O2"
_cell_formula_units_Z 32
_cell_length_a 28.285056
_cell_length_b 9.017099
_cell_length_c 21.309362
_cell_angle_alpha 90.000000
_cell_angle_beta 162.170859
_cell_angle_gamma 90.000000
_cell_volume 1664.065713
_symmetry_space_group_name_H-M "P 2/M"
_symmetry_group_IT_number 10
_symmetry_cell_setting 'monoclinic'
loop_
_space_group_symop_operation_xyz
x,y,z
-x,y,-z
-x,-y,-z
x,-y,z
loop_
_atom_site_type_symbol
_atom_site_label
_atom_site_fract_x
_atom_site_fract_y
_atom_site_fract_z
Si Si1 0.622984 0.831661 0.776148
Si Si2 0.155566 0.165916 0.824974
Si Si3 0.431170 0.323298 0.847981
Si Si4 0.604078 0.329468 0.945073
Si Si5 0.874097 0.675185 0.018477
Si Si6 0.378762 0.671867 0.543953
Si Si7 0.055113 0.828775 0.140244
Si Si8 0.915724 0.326316 0.598325
O O1 0.462616 0.750372 0.590826
O O2 0.587795 0.000000 0.710162
O O3 0.730781 0.829356 0.972694
O O4 0.708276 0.743464 0.828097
O O5 0.999665 0.251559 0.645296
O O6 0.111742 0.000000 0.750388
O O7 0.238986 0.242218 0.871505
O O8 0.429427 0.500000 0.844749
O O9 0.535768 0.263622 0.923224
O O10 0.257783 0.263827 0.618992
O O11 0.500000 0.261815 0.000000
O O12 0.650199 0.500000 0.010712
O O13 0.477529 0.308709 0.731385
O O14 0.855114 0.500000 0.985473
O O15 0.926417 0.750041 0.020165
O O16 0.002260 0.714200 0.232690
O O17 0.353833 0.500000 0.495622
O O18 0.216907 0.747634 0.353723
O O19 0.072192 0.000000 0.181697
O O20 0.000000 0.812009 0.000000
O O21 0.920930 0.500000 0.592434
#
# Coordination Sequence:
#
# PCOD8061389 Si02
#       8
#     4   4   4   4   4   4   4   4
#     4   9  17  31  52  79 108 133 163 207 256 305
#     4   9  17  29  48  75 102 130 165 204 248 299
#     4   9  17  30  49  73 100 131 170 212 250 293
#     4   9  17  31  52  77 102 129 164 208 254 296
#     4  10  19  33  55  80 104 132 169 212 256 302
#     4  10  19  33  55  80 104 132 169 212 256 302
#     4  11  24  39  53  73 104 139 172 208 252 301
#     4   9  17  31  52  77 102 129 164 208 254 296
#
# _framework density 19.23001
#
# number of rings (size 3 to 8) (size 9 to 14) (size 15 to 20)
#    0.000    2.500    0.000    2.625    0.000    7.000 
#    0.000    1.875    0.000    9.000    0.000    0.000 
#    0.000    0.000    0.000    0.000    0.000    0.000 
#
# Total GULP energy -396843.181959 kJ/mol
# GULP energy per Si atom -12401.349436 kJ/mol
# Density = 1.918624 g / cm^3
# Si number density = 19.230010 Si / 1000 Ang^3
#
#
#
# Elastic Constant Matrix: (Units=GPa)
#
#
# Indices 1 2 3 4 5 6 
#
# 1 141.3716 64.2878 42.5218 0.0000 40.1664 0.0000
# 2 64.2878 105.2415 24.9265 0.0000 14.3660 0.0000
# 3 42.5218 24.9265 23.4476 0.0000 16.5376 0.0000
# 4 0.0000 0.0000 0.0000 20.0933 0.0000 6.6949
# 5 40.1664 14.3660 16.5376 0.0000 30.3965 0.0000
# 6 0.0000 0.0000 0.0000 6.6949 0.0000 18.2614
#
#
#
# Elastic Compliance Matrix: (Units=1/GPa)
#
#
# Indices 1 2 3 4 5 6 
#
# 1 0.018803 -0.005009 -0.020964 0.000000 -0.011074 0.000000
# 2 -0.005009 0.014124 -0.009559 0.000000 0.005145 0.000000
# 3 -0.020964 -0.009559 0.110508 0.000000 -0.027904 0.000000
# 4 0.000000 0.000000 0.000000 0.056693 0.000000 -0.020784
# 5 -0.011074 0.005145 -0.027904 0.000000 0.060281 0.000000
# 6 0.000000 0.000000 0.000000 -0.020784 0.000000 0.062380
#
#
# Mechanical properties :
#
#
# Convention : Reuss Voigt Hill
#
# Bulk Modulus (GPa) = 13.81771 59.28143 36.54957
# Shear Modulus (GPa) = 11.96240 22.97190 17.46715
#
# Velocity S-wave (km/s) = 2.49684 3.46003 3.01712
# Velocity P-wave (km/s) = 3.93870 6.84521 5.58436
#
# Compressibility (1/GPa) = 0.07237089
#
# Stress axis : x y z
#
# Youngs Moduli (GPa) = 53.18238 70.80329 9.04915
#
# Poissons Ratio (x) = 0.35467 0.18970
# Poissons Ratio (y) = 0.26640 0.08650
# Poissons Ratio (z) = 1.11490 0.67680
#
# Static dielectric constant tensor:
#      x y z
#    x 3.595290 0.000000 0.274140 
#    y 0.000000 3.518270 0.000000 
#    z 0.274140 0.000000 3.385910 
# 
# 
# High freq. dielectric constant tensor:
#      x y z
#    x 1.749320 0.000000 0.027330 
#    y 0.000000 1.741880 0.000000 
#    z 0.027330 0.000000 1.729220 
# 
# From -- ./inp_files/26092.got.cif
#   From: 2010.06.25/outbox.cif.g09.slc.cpg/sg10_14_cif.got.tgz:26092.got - 2010.06.27 22:07:45.
