data_PCOD8061172
_publ_section_title
;
Structure prediction by ZEFSAII (Michael W. Deem and Ramdas Pophale) SiO2 
 PCOD8061172
Probable space group: P 2/M
;
_chemical_formula_sum "Si O2"
_cell_formula_units_Z 32
_cell_length_a 10.280163
_cell_length_b 19.927233
_cell_length_c 15.958127
_cell_angle_alpha 90.000000
_cell_angle_beta 35.318467
_cell_angle_gamma 90.000000
_cell_volume 1889.937290
_symmetry_space_group_name_H-M "P 2/M"
_symmetry_group_IT_number 10
_symmetry_cell_setting 'monoclinic'
loop_
_space_group_symop_operation_xyz
x,y,z
-x,y,-z
-x,-y,-z
x,-y,z
loop_
_atom_site_type_symbol
_atom_site_label
_atom_site_fract_x
_atom_site_fract_y
_atom_site_fract_z
Si Si1 0.863601 0.678257 0.325510
Si Si2 0.135346 0.829616 0.670934
Si Si3 0.362211 0.575167 0.327881
Si Si4 0.248896 0.077847 0.897859
Si Si5 0.570520 0.321675 0.329357
Si Si6 0.548262 0.170479 0.339524
Si Si7 0.927356 0.424793 0.672842
Si Si8 0.263844 0.077863 0.082977
O O1 0.960110 0.753746 0.274747
O O2 0.646745 0.675298 0.498080
O O3 0.788231 0.658159 0.270759
O O4 0.053495 0.626923 0.259573
O O5 0.274657 0.847586 0.680961
O O6 0.295097 0.837888 0.506369
O O7 0.928162 0.879950 0.769479
O O8 0.464199 0.500000 0.274874
O O9 0.550341 0.627319 0.261713
O O10 0.284721 0.594874 0.274482
O O11 0.149686 0.577829 0.500369
O O12 0.426903 0.120130 0.750821
O O13 0.300392 0.000000 0.854900
O O14 0.278320 0.097999 0.978509
O O15 0.000000 0.097439 0.000000
O O16 0.593687 0.246015 0.282918
O O17 0.895203 0.500000 0.725808
O O18 0.201866 0.000000 0.126623
O O19 0.500000 0.096048 0.000000
#
# Coordination Sequence:
#
# PCOD8061172 Si02
#       8
#     4   4   4   4   4   4   4   4
#     4   8  14  24  38  57  84 117 151 187 228 275
#     4   9  17  31  50  72  99 129 159 197 244 286
#     4   8  13  21  33  51  80 117 151 184 226 274
#     4  10  19  33  53  75  96 123 162 201 236 281
#     4   8  14  24  37  57  87 117 145 187 237 273
#     4   9  17  30  50  75  99 123 160 205 240 279
#     4   8  13  21  33  51  79 116 154 187 221 268
#     4  10  21  37  53  70  98 131 158 193 244 291
#
# _framework density 16.931778999999999
#
# number of rings (size 3 to 8) (size 9 to 14) (size 15 to 20)
#    0.000    3.250    1.250    2.250    0.000    1.000 
#    2.250    4.375    0.000    2.250    0.000    0.000 
#    0.000    2.000    0.000    0.125    0.000    0.500 
#
# Total GULP energy -396657.771295 kJ/mol
# GULP energy per Si atom -12395.555353 kJ/mol
# Density = 1.689324 g / cm^3
# Si number density = 16.931779 Si / 1000 Ang^3
#
#
#
# Elastic Constant Matrix: (Units=GPa)
#
#
# Indices 1 2 3 4 5 6 
#
# 1 119.4847 72.7477 38.3441 0.0000 -2.4769 0.0000
# 2 72.7477 105.0559 43.3271 0.0000 -2.2904 0.0000
# 3 38.3441 43.3271 43.3983 0.0000 -0.7719 0.0000
# 4 0.0000 0.0000 0.0000 1.9239 0.0000 -0.8096
# 5 -2.4769 -2.2904 -0.7719 0.0000 12.8893 0.0000
# 6 0.0000 0.0000 0.0000 -0.8096 0.0000 23.0757
#
#
#
# Elastic Compliance Matrix: (Units=1/GPa)
#
#
# Indices 1 2 3 4 5 6 
#
# 1 0.015080 -0.008383 -0.004935 0.000000 0.001113 0.000000
# 2 -0.008383 0.020888 -0.013424 0.000000 0.001297 0.000000
# 3 -0.004935 -0.013424 0.040789 0.000000 -0.000891 0.000000
# 4 0.000000 0.000000 0.000000 0.527553 0.000000 0.018508
# 5 0.001113 0.001297 -0.000891 0.000000 0.077974 0.000000
# 6 0.000000 0.000000 0.000000 0.018508 0.000000 0.043985
#
#
# Mechanical properties :
#
#
# Convention : Reuss Voigt Hill
#
# Bulk Modulus (GPa) = 42.96801 64.08630 53.52716
# Shear Modulus (GPa) = 6.34912 15.14581 10.74746
#
# Velocity S-wave (km/s) = 1.93855 2.99410 2.52216
# Velocity P-wave (km/s) = 5.51750 7.06291 6.33749
#
# Compressibility (1/GPa) = 0.02327313
#
# Stress axis : x y z
#
# Youngs Moduli (GPa) = 66.31398 47.87359 24.51637
#
# Poissons Ratio (x) = 0.40131 0.12098
# Poissons Ratio (y) = 0.55590 0.32912
# Poissons Ratio (z) = 0.32724 0.64268
#
# Static dielectric constant tensor:
#      x y z
#    x 3.391320 0.000000 0.005460 
#    y 0.000000 3.318490 0.000000 
#    z 0.005460 0.000000 2.636480 
# 
# 
# High freq. dielectric constant tensor:
#      x y z
#    x 1.650550 0.000000 0.001670 
#    y 0.000000 1.657420 0.000000 
#    z 0.001670 0.000000 1.597370 
# 
# From -- ./inp_files/77112.got.cif
#   From: 2010.06.25/outbox.cif.g09.slc.cpg/sg10_39_cif.got.tgz:77112.got - 2010.06.27 22:07:45.
