data_PCOD8061484
_publ_section_title
;
Structure prediction by ZEFSAII (Michael W. Deem and Ramdas Pophale) SiO2 
 PCOD8061484
Probable space group: P 2/M
;
_chemical_formula_sum "Si O2"
_cell_formula_units_Z 28
_cell_length_a 12.076874
_cell_length_b 9.819115
_cell_length_c 13.919744
_cell_angle_alpha 90.000000
_cell_angle_beta 115.709650
_cell_angle_gamma 90.000000
_cell_volume 1487.252934
_symmetry_space_group_name_H-M "P 2/M"
_symmetry_group_IT_number 10
_symmetry_cell_setting 'monoclinic'
loop_
_space_group_symop_operation_xyz
x,y,z
-x,y,-z
-x,-y,-z
x,-y,z
loop_
_atom_site_type_symbol
_atom_site_label
_atom_site_fract_x
_atom_site_fract_y
_atom_site_fract_z
Si Si1 0.368646 0.338976 0.500000
Si Si2 0.940614 0.248571 0.381228
Si Si3 0.616930 0.849473 0.109862
Si Si4 0.836777 0.849203 0.659361
Si Si5 0.829106 0.349815 0.158216
Si Si6 0.007074 0.150529 0.890142
Si Si7 0.677414 0.150797 0.340640
O O1 0.500000 0.314899 0.500000
O O2 0.340377 0.500000 0.500000
O O3 0.262550 0.268453 0.396906
O O4 0.365645 0.268453 0.603094
O O5 0.893750 0.360650 0.287492
O O6 0.821698 0.159901 0.366204
O O7 0.000000 0.314868 0.500000
O O8 0.044507 0.159897 0.366208
O O9 0.702235 0.727520 0.111516
O O10 0.590853 0.833913 0.214101
O O11 0.675554 0.000000 0.114757
O O12 0.500000 0.832313 0.000000
O O13 0.876759 0.833906 0.785899
O O14 0.779464 0.000000 0.620888
O O15 0.805155 0.500000 0.110310
O O16 0.909263 0.272472 0.111506
O O17 0.060799 0.000000 0.885250
O O18 0.000000 0.167698 0.000000
O O19 0.658579 0.000000 0.379117
#
# Coordination Sequence:
#
# PCOD8061484 Si02
#       7
#     4   4   4   4   4   4   4
#     4  11  25  42  55  74 114 159 190 229 280 333
#     4  10  19  33  55  89 120 145 172 224 286 341
#     4   9  19  38  60  82 111 146 185 231 283 331
#     4  10  20  36  61  89 111 142 187 235 280 333
#     4  10  21  34  52  84 118 148 184 225 275 331
#     4   9  19  38  60  82 111 146 185 231 283 331
#     4  10  20  36  61  89 111 142 187 235 280 333
#
# _framework density 18.826657000000001
#
# number of rings (size 3 to 8) (size 9 to 14) (size 15 to 20)
#    0.000    2.143    1.429    1.286    0.000   10.571 
#    2.571    0.000    0.000    0.000    0.000    0.000 
#    0.000    0.000    0.000    0.000    0.000    0.000 
#
# Total GULP energy -346900.513049 kJ/mol
# GULP energy per Si atom -12389.304037 kJ/mol
# Density = 1.878381 g / cm^3
# Si number density = 18.826657 Si / 1000 Ang^3
#
#
#
# Elastic Constant Matrix: (Units=GPa)
#
#
# Indices 1 2 3 4 5 6 
#
# 1 89.2254 68.5953 51.8890 0.0000 0.7422 0.0000
# 2 68.5953 183.7511 61.6712 0.0000 0.3987 0.0000
# 3 51.8890 61.6712 155.9328 0.0000 -4.6986 0.0000
# 4 0.0000 0.0000 0.0000 19.2378 0.0000 0.1003
# 5 0.7422 0.3987 -4.6986 0.0000 12.6703 0.0000
# 6 0.0000 0.0000 0.0000 0.1003 0.0000 20.9532
#
#
#
# Elastic Compliance Matrix: (Units=1/GPa)
#
#
# Indices 1 2 3 4 5 6 
#
# 1 0.017469 -0.005237 -0.003810 0.000000 -0.002271 0.000000
# 2 -0.005237 0.007861 -0.001380 0.000000 -0.000452 0.000000
# 3 -0.003810 -0.001380 0.008328 0.000000 0.003355 0.000000
# 4 0.000000 0.000000 0.000000 0.051982 0.000000 -0.000249
# 5 -0.002271 -0.000452 0.003355 0.000000 0.080316 0.000000
# 6 0.000000 0.000000 0.000000 -0.000249 0.000000 0.047727
#
#
# Mechanical properties :
#
#
# Convention : Reuss Voigt Hill
#
# Bulk Modulus (GPa) = 78.10703 88.13558 83.12130
# Shear Modulus (GPa) = 20.93756 27.02253 23.98004
#
# Velocity S-wave (km/s) = 3.33847 3.79269 3.57280
# Velocity P-wave (km/s) = 7.51252 8.12990 7.82730
#
# Compressibility (1/GPa) = 0.01280294
#
# Stress axis : x y z
#
# Youngs Moduli (GPa) = 57.24536 127.20284 120.08095
#
# Poissons Ratio (x) = 0.66622 0.45751
# Poissons Ratio (y) = 0.29982 0.16571
# Poissons Ratio (z) = 0.21810 0.17554
#
# Static dielectric constant tensor:
#      x y z
#    x 3.206400 0.000000 -0.029260 
#    y 0.000000 3.414850 0.000000 
#    z -0.029260 0.000000 3.700960 
# 
# 
# High freq. dielectric constant tensor:
#      x y z
#    x 1.702180 0.000000 -0.002540 
#    y 0.000000 1.731680 0.000000 
#    z -0.002540 0.000000 1.745070 
# 
# From -- ./inp_files/63930.got.cif
#   From: 2010.06.25/outbox.cif.g09.slc.cpg/sg10_32_cif.got.tgz:63930.got - 2010.06.27 22:07:45.
