data_PCOD8061665
_publ_section_title
;
Structure prediction by ZEFSAII (Michael W. Deem and Ramdas Pophale) SiO2 
 PCOD8061665
Probable space group: P 2/M
;
_chemical_formula_sum "Si O2"
_cell_formula_units_Z 20
_cell_length_a 10.210819
_cell_length_b 7.648749
_cell_length_c 28.978603
_cell_angle_alpha 90.000000
_cell_angle_beta 26.243218
_cell_angle_gamma 90.000000
_cell_volume 1000.760162
_symmetry_space_group_name_H-M "P 2/M"
_symmetry_group_IT_number 10
_symmetry_cell_setting 'monoclinic'
loop_
_space_group_symop_operation_xyz
x,y,z
-x,y,-z
-x,-y,-z
x,-y,z
loop_
_atom_site_type_symbol
_atom_site_label
_atom_site_fract_x
_atom_site_fract_y
_atom_site_fract_z
Si Si1 0.666431 0.000000 0.087821
Si Si2 0.757551 0.204802 0.452787
Si Si3 0.313435 0.794889 0.419863
Si Si4 0.594159 0.303663 0.772430
Si Si5 0.771772 0.000000 0.948291
Si Si6 0.232163 0.696853 0.797032
O O1 0.499829 0.173725 0.157311
O O2 0.648757 0.000000 0.038708
O O3 0.000000 0.000000 0.000000
O O4 0.500000 0.267175 0.500000
O O5 0.656096 0.254263 0.536247
O O6 0.054811 0.304957 0.345627
O O7 0.822609 0.000000 0.427724
O O8 0.576466 0.699218 0.310043
O O9 0.000000 0.725584 0.500000
O O10 0.344078 0.000000 0.401009
O O11 0.495582 0.500000 0.817174
O O12 0.436991 0.241963 0.774937
O O13 0.957473 0.174113 0.879792
O O14 0.500000 0.000000 0.000000
O O15 0.112902 0.500000 0.842180
#
# Coordination Sequence:
#
# PCOD8061665 Si02
#       6
#     2   4   4   4   2   4
#     4  12  24  44  72  90 123 166 213 275 318 371
#     4  10  21  37  60  93 134 172 206 251 309 372
#     4  10  19  33  63  93 125 169 208 247 301 375
#     4  11  23  40  68  99 126 165 218 261 310 378
#     4  12  28  48  68  93 127 164 208 271 335 373
#     4  11  23  41  68  98 127 164 215 262 312 382
#
# _framework density 19.98481
#
# number of rings (size 3 to 8) (size 9 to 14) (size 15 to 20)
#    0.000    1.200    6.000    0.000    0.000    4.800 
#    0.000    2.000    0.000    0.000    0.000    0.000 
#    0.000    0.000    0.000    0.000    0.000    0.000 
#
# Total GULP energy -248119.734128 kJ/mol
# GULP energy per Si atom -12405.986706 kJ/mol
# Density = 1.993932 g / cm^3
# Si number density = 19.984810 Si / 1000 Ang^3
#
#
#
# Elastic Constant Matrix: (Units=GPa)
#
#
# Indices 1 2 3 4 5 6 
#
# 1 164.6989 45.5453 67.5990 0.0000 -3.1876 0.0000
# 2 45.5453 107.0680 60.1120 0.0000 -0.8987 0.0000
# 3 67.5990 60.1120 127.8424 0.0000 7.2995 0.0000
# 4 0.0000 0.0000 0.0000 -40.7811 0.0000 -16.9080
# 5 -3.1876 -0.8987 7.2995 0.0000 39.9436 0.0000
# 6 0.0000 0.0000 0.0000 -16.9080 0.0000 11.9469
#
#
#
# Elastic Compliance Matrix: (Units=1/GPa)
#
#
# Indices 1 2 3 4 5 6 
#
# 1 0.007965 -0.001321 -0.003664 0.000000 0.001275 0.000000
# 2 -0.001321 0.012986 -0.005475 0.000000 0.001187 0.000000
# 3 -0.003664 -0.005475 0.012488 0.000000 -0.002698 0.000000
# 4 0.000000 0.000000 0.000000 -0.015453 0.000000 -0.021871
# 5 0.001275 0.001187 -0.002698 0.000000 0.025657 0.000000
# 6 0.000000 0.000000 0.000000 -0.021871 0.000000 0.052751
#
#
# Mechanical properties :
#
#
# Convention : Reuss Voigt Hill
#
# Bulk Modulus (GPa) = 79.87543 82.90244 81.38894
# Shear Modulus (GPa) = 41.15712 17.31207 29.23460
#
# Velocity S-wave (km/s) = 4.54301 2.94643 3.82886
# Velocity P-wave (km/s) = 8.22030 7.29027 7.76921
#
# Compressibility (1/GPa) = 0.01251949
#
# Stress axis : x y z
#
# Youngs Moduli (GPa) = 125.54468 77.00754 80.07753
#
# Poissons Ratio (x) = 0.10171 0.29337
# Poissons Ratio (y) = 0.16581 0.43845
# Poissons Ratio (z) = 0.45995 0.42165
#
# Static dielectric constant tensor:
#      x y z
#    x 3.615480 0.000000 0.080950 
#    y 0.000000 3.634940 0.000000 
#    z 0.080950 0.000000 3.550150 
# 
# 
# High freq. dielectric constant tensor:
#      x y z
#    x 1.772310 0.000000 0.006840 
#    y 0.000000 1.785770 0.000000 
#    z 0.006840 0.000000 1.779520 
# 
# From -- ./inp_files/87797.got.cif
#   From: 2010.06.25/outbox.cif.g09.slc.cpg/sg10_44_cif.got.tgz:87797.got - 2010.06.27 22:07:45.
