data_PCOD8061970
_publ_section_title
;
Structure prediction by ZEFSAII (Michael W. Deem and Ramdas Pophale) SiO2 
 PCOD8061970
Probable space group: P 2/M
;
_chemical_formula_sum "Si O2"
_cell_formula_units_Z 30
_cell_length_a 8.580251
_cell_length_b 14.581394
_cell_length_c 13.619040
_cell_angle_alpha 90.000000
_cell_angle_beta 66.971807
_cell_angle_gamma 90.000000
_cell_volume 1568.125596
_symmetry_space_group_name_H-M "P 2/M"
_symmetry_group_IT_number 10
_symmetry_cell_setting 'monoclinic'
loop_
_space_group_symop_operation_xyz
x,y,z
-x,y,-z
-x,-y,-z
x,-y,z
loop_
_atom_site_type_symbol
_atom_site_label
_atom_site_fract_x
_atom_site_fract_y
_atom_site_fract_z
Si Si1 0.497939 0.394287 0.712004
Si Si2 0.857145 0.758371 0.857089
Si Si3 0.000000 0.848070 0.000000
Si Si4 0.579860 0.893419 0.875706
Si Si5 0.182251 0.393697 0.505148
Si Si6 0.626665 0.401284 0.882063
Si Si7 0.778387 0.727817 0.315914
Si Si8 0.296281 0.101988 0.786721
O O1 0.446407 0.500000 0.725504
O O2 0.666684 0.377500 0.607770
O O3 0.534828 0.355817 0.811392
O O4 0.331690 0.342771 0.718244
O O5 0.749662 0.832955 0.821106
O O6 0.773956 0.660440 0.885351
O O7 0.874734 0.788134 0.965293
O O8 0.030390 0.735984 0.762445
O O9 0.121366 0.902797 0.894065
O O10 0.450881 0.870403 0.819977
O O11 0.632327 0.000000 0.862906
O O12 0.500000 0.865530 0.000000
O O13 0.189334 0.500000 0.544081
O O14 0.218968 0.312711 0.574716
O O15 0.000000 0.376573 0.500000
O O16 0.703061 0.500000 0.830304
O O17 0.500000 0.417179 0.000000
O O18 0.704588 0.829867 0.307948
O O19 0.324051 0.000000 0.737303
#
# Coordination Sequence:
#
# PCOD8061970 Si02
#       8
#     4   4   2   4   4   4   4   4
#     4  10  21  39  63  88 115 153 199 247 297 348
#     4  11  22  33  52  79 119 155 194 241 290 349
#     4  10  21  32  51  82 110 156 195 246 295 334
#     4  10  19  34  57  82 109 156 208 254 298 344
#     4  10  21  40  67  93 116 148 199 258 301 341
#     4  10  22  37  55  79 117 163 196 229 283 356
#     4  11  23  35  56  91 120 152 190 249 308 349
#     4  10  21  36  55  82 118 154 196 243 296 353
#
# _framework density 19.131121
#
# number of rings (size 3 to 8) (size 9 to 14) (size 15 to 20)
#    0.000    1.733    1.333    3.000    3.733    5.333 
#    0.000    0.333    0.000    2.000    0.000    0.000 
#    0.000    0.000    0.000    0.000    0.000    0.000 
#
# Total GULP energy -371673.566009 kJ/mol
# GULP energy per Si atom -12389.118867 kJ/mol
# Density = 1.908758 g / cm^3
# Si number density = 19.131121 Si / 1000 Ang^3
#
#
#
# Elastic Constant Matrix: (Units=GPa)
#
#
# Indices 1 2 3 4 5 6 
#
# 1 130.6013 69.4604 34.1715 0.0000 5.5529 0.0000
# 2 69.4604 112.2297 45.6491 0.0000 13.1129 0.0000
# 3 34.1715 45.6491 82.8754 0.0000 12.2274 0.0000
# 4 0.0000 0.0000 0.0000 60.1243 0.0000 8.5357
# 5 5.5529 13.1129 12.2274 0.0000 33.7073 0.0000
# 6 0.0000 0.0000 0.0000 8.5357 0.0000 34.0427
#
#
#
# Elastic Compliance Matrix: (Units=1/GPa)
#
#
# Indices 1 2 3 4 5 6 
#
# 1 0.011529 -0.006789 -0.001187 0.000000 0.001173 0.000000
# 2 -0.006789 0.015652 -0.005376 0.000000 -0.003020 0.000000
# 3 -0.001187 -0.005376 0.016038 0.000000 -0.003531 0.000000
# 4 0.000000 0.000000 0.000000 0.017246 0.000000 -0.004324
# 5 0.001173 -0.003020 -0.003531 0.000000 0.031930 0.000000
# 6 0.000000 0.000000 0.000000 -0.004324 0.000000 0.030459
#
#
# Mechanical properties :
#
#
# Convention : Reuss Voigt Hill
#
# Bulk Modulus (GPa) = 60.55672 69.36316 64.95994
# Shear Modulus (GPa) = 32.24494 37.33655 34.79075
#
# Velocity S-wave (km/s) = 4.10990 4.42250 4.26906
# Velocity P-wave (km/s) = 7.36505 7.90022 7.63732
#
# Compressibility (1/GPa) = 0.01651344
#
# Stress axis : x y z
#
# Youngs Moduli (GPa) = 86.74141 63.88924 62.35208
#
# Poissons Ratio (x) = 0.43377 0.07400
# Poissons Ratio (y) = 0.58893 0.33523
# Poissons Ratio (z) = 0.10294 0.34349
#
# Static dielectric constant tensor:
#      x y z
#    x 3.805220 0.000000 0.356710 
#    y 0.000000 4.078160 0.000000 
#    z 0.356710 0.000000 3.550860 
# 
# 
# High freq. dielectric constant tensor:
#      x y z
#    x 1.761910 0.000000 0.007920 
#    y 0.000000 1.750360 0.000000 
#    z 0.007920 0.000000 1.715510 
# 
# From -- ./inp_files/42928.got.cif
#   From: 2010.06.25/outbox.cif.g09.slc.cpg/sg10_22_cif.got.tgz:42928.got - 2010.06.27 22:07:45.
