data_PCOD8061421
_publ_section_title
;
Structure prediction by ZEFSAII (Michael W. Deem and Ramdas Pophale) SiO2 
 PCOD8061421
Probable space group: P 2/M
;
_chemical_formula_sum "Si O2"
_cell_formula_units_Z 18
_cell_length_a 8.341824
_cell_length_b 20.190994
_cell_length_c 9.717384
_cell_angle_alpha 90.000000
_cell_angle_beta 31.225982
_cell_angle_gamma 90.000000
_cell_volume 848.487624
_symmetry_space_group_name_H-M "P 2/M"
_symmetry_group_IT_number 10
_symmetry_cell_setting 'monoclinic'
loop_
_space_group_symop_operation_xyz
x,y,z
-x,y,-z
-x,-y,-z
x,-y,z
loop_
_atom_site_type_symbol
_atom_site_label
_atom_site_fract_x
_atom_site_fract_y
_atom_site_fract_z
Si Si1 0.195638 0.073239 0.494180
Si Si2 0.101573 0.294324 0.079807
Si Si3 0.642793 0.500000 0.741982
Si Si4 0.272913 0.639231 0.408453
Si Si5 0.300364 0.846690 0.009873
O O1 0.473353 0.126485 0.275829
O O2 0.000000 0.069270 0.500000
O O3 0.324118 0.000000 0.437103
O O4 0.957603 0.096729 0.784710
O O5 0.457855 0.313137 0.840769
O O6 0.097658 0.217009 0.117698
O O7 0.000000 0.308443 0.000000
O O8 0.863545 0.337650 0.345398
O O9 0.568258 0.565763 0.707079
O O10 0.000000 0.500000 0.500000
O O11 0.500000 0.500000 0.000000
O O12 0.000000 0.643687 0.500000
O O13 0.500000 0.831974 0.000000
#
# Coordination Sequence:
#
# PCOD8061421 Si02
#       5
#     4   4   2   4   4
#     4   9  17  30  52  82 110 138 186 249 298 339
#     4  12  25  40  58  88 127 162 198 246 301 350
#     4  10  20  38  65  96 119 148 197 252 297 344
#     4  11  22  41  66  90 117 156 203 246 292 356
#     4  10  19  33  55  80 109 151 196 237 288 352
#
# _framework density 21.214216
#
# number of rings (size 3 to 8) (size 9 to 14) (size 15 to 20)
#    0.000    1.556    0.000    7.333    0.000    4.444 
#    0.000    3.333    0.000    4.000    0.000    0.000 
#    0.000    0.000    0.000    0.000    0.000    0.000 
#
# Total GULP energy -223105.224400 kJ/mol
# GULP energy per Si atom -12394.734689 kJ/mol
# Density = 2.116593 g / cm^3
# Si number density = 21.214216 Si / 1000 Ang^3
#
#
#
# Elastic Constant Matrix: (Units=GPa)
#
#
# Indices 1 2 3 4 5 6 
#
# 1 21.2023 35.4077 10.0588 0.0000 5.3410 0.0000
# 2 35.4077 142.9329 58.6269 0.0000 11.7594 0.0000
# 3 10.0588 58.6269 150.0498 0.0000 2.3671 0.0000
# 4 0.0000 0.0000 0.0000 23.9435 0.0000 2.0528
# 5 5.3410 11.7594 2.3671 0.0000 25.4421 0.0000
# 6 0.0000 0.0000 0.0000 2.0528 0.0000 -36.6516
#
#
#
# Elastic Compliance Matrix: (Units=1/GPa)
#
#
# Indices 1 2 3 4 5 6 
#
# 1 0.082998 -0.021049 0.002786 0.000000 -0.007954 0.000000
# 2 -0.021049 0.014003 -0.004034 0.000000 -0.001678 0.000000
# 3 0.002786 -0.004034 0.008045 0.000000 0.000531 0.000000
# 4 0.000000 0.000000 0.000000 0.041565 0.000000 0.002328
# 5 -0.007954 -0.001678 0.000531 0.000000 0.041701 0.000000
# 6 0.000000 0.000000 0.000000 0.002328 0.000000 -0.027154
#
#
# Mechanical properties :
#
#
# Convention : Reuss Voigt Hill
#
# Bulk Modulus (GPa) = 16.54176 58.04129 37.29153
# Shear Modulus (GPa) = 22.13327 16.55289 19.34308
#
# Velocity S-wave (km/s) = 3.23355 2.79637 3.02288
# Velocity P-wave (km/s) = 4.66429 6.15185 5.45898
#
# Compressibility (1/GPa) = 0.06045306
#
# Stress axis : x y z
#
# Youngs Moduli (GPa) = 12.04846 71.41257 124.29487
#
# Poissons Ratio (x) = 1.50314 -0.34624
# Poissons Ratio (y) = 0.25360 0.50137
# Poissons Ratio (z) = -0.03356 0.28806
#
# Static dielectric constant tensor:
#      x y z
#    x 3.383910 0.000000 -0.042090 
#    y 0.000000 6.384980 0.000000 
#    z -0.042090 0.000000 4.081760 
# 
# 
# High freq. dielectric constant tensor:
#      x y z
#    x 1.783120 0.000000 -0.008980 
#    y 0.000000 1.848290 0.000000 
#    z -0.008980 0.000000 1.851380 
# 
# From -- ./inp_files/7124.got.cif
#   From: 2010.06.25/outbox.cif.g09.slc.cpg/sg10_4_cif.got.tgz:7124.got - 2010.06.27 22:07:45.
