data_PCOD8061318
_publ_section_title
;
Structure prediction by ZEFSAII (Michael W. Deem and Ramdas Pophale) SiO2 
 PCOD8061318
Probable space group: P 2/M
;
_chemical_formula_sum "Si O2"
_cell_formula_units_Z 26
_cell_length_a 9.475084
_cell_length_b 11.644063
_cell_length_c 26.005779
_cell_angle_alpha 90.000000
_cell_angle_beta 28.103452
_cell_angle_gamma 90.000000
_cell_volume 1351.569384
_symmetry_space_group_name_H-M "P 2/M"
_symmetry_group_IT_number 10
_symmetry_cell_setting 'monoclinic'
loop_
_space_group_symop_operation_xyz
x,y,z
-x,y,-z
-x,-y,-z
x,-y,z
loop_
_atom_site_type_symbol
_atom_site_label
_atom_site_fract_x
_atom_site_fract_y
_atom_site_fract_z
Si Si1 0.727557 0.000000 0.745324
Si Si2 0.333811 0.752692 0.652859
Si Si3 0.677986 0.000000 0.389185
Si Si4 0.823114 0.630312 0.758857
Si Si5 0.484999 0.242849 0.294778
Si Si6 0.927430 0.369811 0.435169
Si Si7 0.759983 0.000000 0.622076
Si Si8 0.332310 0.226305 0.874517
O O1 0.904593 0.000000 0.633278
O O2 0.521722 0.889279 0.816735
O O3 0.968771 0.000000 0.712702
O O4 0.336528 0.717392 0.712150
O O5 0.600135 0.684441 0.539972
O O6 0.014483 0.709721 0.735277
O O7 0.390795 0.887481 0.622919
O O8 0.500000 0.000000 0.500000
O O9 0.810807 0.500000 0.783456
O O10 0.485587 0.679550 0.862614
O O11 0.968558 0.637790 0.656457
O O12 0.672534 0.271683 0.183002
O O13 0.155892 0.300745 0.398412
O O14 0.454769 0.107912 0.313033
O O15 0.914879 0.500000 0.459114
O O16 0.000000 0.000000 0.500000
O O17 0.000000 0.202372 0.000000
#
# Coordination Sequence:
#
# PCOD8061318 Si02
#       8
#     2   4   2   4   4   4   2   4
#     4  10  21  38  59  88 111 147 194 223 272 341
#     4  12  22  35  55  84 123 152 182 228 279 336
#     4  12  25  33  56  87 123 158 184 213 271 343
#     4  10  21  37  58  84 114 149 191 232 276 336
#     4  10  23  35  56  86 114 147 191 234 279 329
#     4  10  21  37  55  81 118 160 192 218 266 338
#     4  10  19  33  54  80 118 148 178 224 274 324
#     4  10  21  42  65  81 105 144 194 244 286 332
#
# _framework density 19.236896999999999
#
# number of rings (size 3 to 8) (size 9 to 14) (size 15 to 20)
#    0.000    1.538    1.538    3.923    6.462    3.385 
#    0.000    0.769    0.000    1.846    0.000    0.000 
#    0.000    0.000    0.000    0.000    0.000    0.000 
#
# Total GULP energy -322398.341235 kJ/mol
# GULP energy per Si atom -12399.936201 kJ/mol
# Density = 1.919311 g / cm^3
# Si number density = 19.236897 Si / 1000 Ang^3
#
#
#
# Elastic Constant Matrix: (Units=GPa)
#
#
# Indices 1 2 3 4 5 6 
#
# 1 100.9194 23.2375 26.0019 0.0000 -13.8300 0.0000
# 2 23.2375 102.9753 12.2737 0.0000 -11.0602 0.0000
# 3 26.0019 12.2737 85.6551 0.0000 -7.7368 0.0000
# 4 0.0000 0.0000 0.0000 5.6648 0.0000 0.1793
# 5 -13.8300 -11.0602 -7.7368 0.0000 16.0010 0.0000
# 6 0.0000 0.0000 0.0000 0.1793 0.0000 13.1920
#
#
#
# Elastic Compliance Matrix: (Units=1/GPa)
#
#
# Indices 1 2 3 4 5 6 
#
# 1 0.012066 -0.001534 -0.002715 0.000000 0.008055 0.000000
# 2 -0.001534 0.010750 -0.000547 0.000000 0.005840 0.000000
# 3 -0.002715 -0.000547 0.012894 0.000000 0.003510 0.000000
# 4 0.000000 0.000000 0.000000 0.176604 0.000000 -0.002401
# 5 0.008055 0.005840 0.003510 0.000000 0.075192 0.000000
# 6 0.000000 0.000000 0.000000 -0.002401 0.000000 0.075836
#
#
# Mechanical properties :
#
#
# Convention : Reuss Voigt Hill
#
# Bulk Modulus (GPa) = 38.28932 45.84175 42.06554
# Shear Modulus (GPa) = 13.10133 22.17402 17.63768
#
# Velocity S-wave (km/s) = 2.61253 3.39880 3.03127
# Velocity P-wave (km/s) = 5.38959 6.26772 5.84517
#
# Compressibility (1/GPa) = 0.02611694
#
# Stress axis : x y z
#
# Youngs Moduli (GPa) = 82.88035 93.02591 77.55298
#
# Poissons Ratio (x) = 0.14269 0.21058
# Poissons Ratio (y) = 0.12713 0.04244
# Poissons Ratio (z) = 0.22504 0.05090
#
# Static dielectric constant tensor:
#      x y z
#    x 3.688610 0.000000 -0.006830 
#    y 0.000000 7.018270 0.000000 
#    z -0.006830 0.000000 3.178600 
# 
# 
# High freq. dielectric constant tensor:
#      x y z
#    x 1.756980 0.000000 -0.007270 
#    y 0.000000 1.762700 0.000000 
#    z -0.007270 0.000000 1.709320 
# 
# From -- ./inp_files/92282.got.cif
#   From: 2010.06.25/outbox.cif.g09.slc.cpg/sg10_47_cif.got.tgz:92282.got - 2010.06.27 22:07:45.
