data_PCOD8061745
_publ_section_title
;
Structure prediction by ZEFSAII (Michael W. Deem and Ramdas Pophale) SiO2 
 PCOD8061745
Probable space group: P 2/M
;
_chemical_formula_sum "Si O2"
_cell_formula_units_Z 32
_cell_length_a 23.158715
_cell_length_b 9.302271
_cell_length_c 17.383437
_cell_angle_alpha 90.000000
_cell_angle_beta 25.497941
_cell_angle_gamma 90.000000
_cell_volume 1612.095337
_symmetry_space_group_name_H-M "P 2/M"
_symmetry_group_IT_number 10
_symmetry_cell_setting 'monoclinic'
loop_
_space_group_symop_operation_xyz
x,y,z
-x,y,-z
-x,-y,-z
x,-y,z
loop_
_atom_site_type_symbol
_atom_site_label
_atom_site_fract_x
_atom_site_fract_y
_atom_site_fract_z
Si Si1 0.210931 0.665909 0.056680
Si Si2 0.113928 0.664347 0.010139
Si Si3 0.619746 0.842892 0.650673
Si Si4 0.827035 0.664572 0.325677
Si Si5 0.663854 0.334636 0.366101
Si Si6 0.424284 0.829750 0.016127
Si Si7 0.857431 0.831002 0.709523
Si Si8 0.543501 0.159223 0.303821
O O1 0.242241 0.500000 0.039437
O O2 0.145966 0.744808 0.207041
O O3 0.108421 0.678300 0.108792
O O4 0.344424 0.743144 0.868831
O O5 0.121773 0.500000 0.972719
O O6 0.249848 0.732230 0.809273
O O7 0.976906 0.732913 0.141705
O O8 0.748136 0.740397 0.490637
O O9 0.506991 0.775259 0.842350
O O10 0.565924 0.862131 0.630045
O O11 0.663564 0.000000 0.629999
O O12 0.838146 0.500000 0.337953
O O13 0.758337 0.681856 0.326464
O O14 0.620062 0.500000 0.406474
O O15 0.527027 0.243003 0.540277
O O16 0.426203 0.000000 0.018989
O O17 0.500000 0.763966 0.000000
O O18 0.268010 0.781179 0.194134
O O19 0.000000 0.793867 0.500000
O O20 0.845073 0.000000 0.742926
O O21 0.595163 0.000000 0.267514
#
# Coordination Sequence:
#
# PCOD8061745 Si02
#       8
#     4   4   4   4   4   4   4   4
#     4  11  22  36  56  78 106 146 185 220 267 323
#     4   9  19  34  51  76 110 145 181 224 269 322
#     4   9  17  31  52  76 103 134 169 214 267 318
#     4   9  17  31  53  77 102 137 179 221 266 317
#     4   9  17  32  55  79 103 139 185 225 270 324
#     4   9  17  32  55  81 107 137 174 218 271 328
#     4  10  21  39  61  84 110 144 183 225 274 332
#     4  10  19  34  54  77 107 140 179 225 273 316
#
# _framework density 19.849943
#
# number of rings (size 3 to 8) (size 9 to 14) (size 15 to 20)
#    0.000    2.500    1.250    1.125    0.000    3.750 
#    0.000    6.875    0.000    4.500    0.000    0.000 
#    0.000    0.000    0.000    0.000    0.000    0.000 
#
# Total GULP energy -396579.272635 kJ/mol
# GULP energy per Si atom -12393.102270 kJ/mol
# Density = 1.980476 g / cm^3
# Si number density = 19.849943 Si / 1000 Ang^3
#
#
#
# Elastic Constant Matrix: (Units=GPa)
#
#
# Indices 1 2 3 4 5 6 
#
# 1 58.5670 23.0860 37.0043 0.0000 14.7163 0.0000
# 2 23.0860 73.3804 46.9619 0.0000 9.9708 0.0000
# 3 37.0043 46.9619 149.1689 0.0000 15.2053 0.0000
# 4 0.0000 0.0000 0.0000 29.5035 0.0000 5.5210
# 5 14.7163 9.9708 15.2053 0.0000 25.7922 0.0000
# 6 0.0000 0.0000 0.0000 5.5210 0.0000 15.3256
#
#
#
# Elastic Compliance Matrix: (Units=1/GPa)
#
#
# Indices 1 2 3 4 5 6 
#
# 1 0.023252 -0.003679 -0.003620 0.000000 -0.009711 0.000000
# 2 -0.003679 0.017977 -0.004524 0.000000 -0.002183 0.000000
# 3 -0.003620 -0.004524 0.009190 0.000000 -0.001603 0.000000
# 4 0.000000 0.000000 0.000000 0.036344 0.000000 -0.013093
# 5 -0.009711 -0.002183 -0.001603 0.000000 0.046101 0.000000
# 6 0.000000 0.000000 0.000000 -0.013093 0.000000 0.069967
#
#
# Mechanical properties :
#
#
# Convention : Reuss Voigt Hill
#
# Bulk Modulus (GPa) = 37.35278 55.02454 46.18866
# Shear Modulus (GPa) = 21.24024 25.72852 23.48438
#
# Velocity S-wave (km/s) = 3.27470 3.60412 3.44335
# Velocity P-wave (km/s) = 5.75818 6.71565 6.25526
#
# Compressibility (1/GPa) = 0.02677177
#
# Stress axis : x y z
#
# Youngs Moduli (GPa) = 43.00730 55.62575 108.81814
#
# Poissons Ratio (x) = 0.20465 0.39392
# Poissons Ratio (y) = 0.15822 0.49235
# Poissons Ratio (z) = 0.15569 0.25168
#
# Static dielectric constant tensor:
#      x y z
#    x 3.663980 0.000000 0.013410 
#    y 0.000000 3.591000 0.000000 
#    z 0.013410 0.000000 3.753780 
# 
# 
# High freq. dielectric constant tensor:
#      x y z
#    x 1.768330 0.000000 0.000330 
#    y 0.000000 1.742380 0.000000 
#    z 0.000330 0.000000 1.782260 
# 
# From -- ./inp_files/86838.got.cif
#   From: 2010.06.25/outbox.cif.g09.slc.cpg/sg10_44_cif.got.tgz:86838.got - 2010.06.27 22:07:45.
