data_PCOD8061170
_publ_section_title
;
Structure prediction by ZEFSAII (Michael W. Deem and Ramdas Pophale) SiO2 
 PCOD8061170
Probable space group: P 2/M
;
_chemical_formula_sum "Si O2"
_cell_formula_units_Z 32
_cell_length_a 8.047280
_cell_length_b 17.295763
_cell_length_c 22.873846
_cell_angle_alpha 90.000000
_cell_angle_beta 146.114706
_cell_angle_gamma 90.000000
_cell_volume 1774.998014
_symmetry_space_group_name_H-M "P 2/M"
_symmetry_group_IT_number 10
_symmetry_cell_setting 'monoclinic'
loop_
_space_group_symop_operation_xyz
x,y,z
-x,y,-z
-x,-y,-z
x,-y,z
loop_
_atom_site_type_symbol
_atom_site_label
_atom_site_fract_x
_atom_site_fract_y
_atom_site_fract_z
Si Si1 0.787622 0.411941 0.121405
Si Si2 0.636883 0.587960 0.212491
Si Si3 0.707861 0.778451 0.445712
Si Si4 0.174156 0.270973 0.219448
Si Si5 0.713107 0.735826 0.877718
Si Si6 0.824463 0.325126 0.589509
Si Si7 0.106483 0.793560 0.754652
Si Si8 0.656063 0.913641 0.607543
O O1 0.880422 0.500000 0.135872
O O2 0.723003 0.398299 0.170545
O O3 0.060264 0.358938 0.180599
O O4 0.500000 0.388212 0.000000
O O5 0.539491 0.500000 0.196305
O O6 0.362892 0.644360 0.147467
O O7 0.920679 0.609256 0.336403
O O8 0.499940 0.725901 0.343784
O O9 0.831300 0.728240 0.535023
O O10 0.531660 0.856922 0.406890
O O11 0.000000 0.809167 0.500000
O O12 0.213907 0.234455 0.166289
O O13 0.929999 0.221166 0.185911
O O14 0.437826 0.782099 0.826600
O O15 0.000000 0.751774 0.000000
O O16 0.500000 0.365251 0.500000
O O17 0.874889 0.268448 0.659385
O O18 0.993589 0.879218 0.703480
O O19 0.500000 0.915933 0.500000
O O20 0.671324 0.000000 0.638648
#
# Coordination Sequence:
#
# PCOD8061170 Si02
#       8
#     4   4   4   4   4   4   4   4
#     4  10  19  33  53  75 104 140 183 237 287 325
#     4  10  21  35  50  74 110 146 183 232 286 326
#     4  11  20  33  55  82 113 145 181 225 264 317
#     4  11  21  34  57  79 104 148 183 225 281 321
#     4  11  23  36  58  83 106 140 190 238 279 325
#     4  11  16  33  54  74 106 145 186 223 263 326
#     4  10  19  37  55  82 114 141 179 228 260 327
#     4  10  19  33  57  84 114 152 177 206 274 331
#
# _framework density 18.028189000000001
#
# number of rings (size 3 to 8) (size 9 to 14) (size 15 to 20)
#    0.000    1.500    6.250    2.250    0.000    1.250 
#    0.000    0.625    0.000    1.875    0.000    3.500 
#    0.000    0.000    0.000    0.000    0.000    0.000 
#
# Total GULP energy -396677.790846 kJ/mol
# GULP energy per Si atom -12396.180964 kJ/mol
# Density = 1.798716 g / cm^3
# Si number density = 18.028189 Si / 1000 Ang^3
#
#
#
# Elastic Constant Matrix: (Units=GPa)
#
#
# Indices 1 2 3 4 5 6 
#
# 1 111.5462 36.2295 51.1322 0.0000 1.3301 0.0000
# 2 36.2295 96.6574 50.2886 0.0000 7.1074 0.0000
# 3 51.1322 50.2886 119.7282 0.0000 5.6741 0.0000
# 4 0.0000 0.0000 0.0000 16.4595 0.0000 2.3272
# 5 1.3301 7.1074 5.6741 0.0000 26.3376 0.0000
# 6 0.0000 0.0000 0.0000 2.3272 0.0000 16.5866
#
#
#
# Elastic Compliance Matrix: (Units=1/GPa)
#
#
# Indices 1 2 3 4 5 6 
#
# 1 0.011538 -0.002310 -0.004000 0.000000 0.000902 0.000000
# 2 -0.002310 0.013853 -0.004709 0.000000 -0.002607 0.000000
# 3 -0.004000 -0.004709 0.012092 0.000000 -0.001132 0.000000
# 4 0.000000 0.000000 0.000000 0.061985 0.000000 -0.008697
# 5 0.000902 -0.002607 -0.001132 0.000000 0.038871 0.000000
# 6 0.000000 0.000000 0.000000 -0.008697 0.000000 0.061510
#
#
# Mechanical properties :
#
#
# Convention : Reuss Voigt Hill
#
# Bulk Modulus (GPa) = 64.74201 67.02581 65.88391
# Shear Modulus (GPa) = 22.02316 24.56218 23.29267
#
# Velocity S-wave (km/s) = 3.49892 3.69512 3.59836
# Velocity P-wave (km/s) = 7.23276 7.44743 7.34088
#
# Compressibility (1/GPa) = 0.01544592
#
# Stress axis : x y z
#
# Youngs Moduli (GPa) = 86.67019 72.18593 82.69985
#
# Poissons Ratio (x) = 0.16674 0.33080
# Poissons Ratio (y) = 0.20020 0.38940
# Poissons Ratio (z) = 0.34669 0.33989
#
# Static dielectric constant tensor:
#      x y z
#    x 3.379320 0.000000 -0.034490 
#    y 0.000000 3.323880 0.000000 
#    z -0.034490 0.000000 3.530660 
# 
# 
# High freq. dielectric constant tensor:
#      x y z
#    x 1.700290 0.000000 -0.001780 
#    y 0.000000 1.665090 0.000000 
#    z -0.001780 0.000000 1.702140 
# 
# From -- ./inp_files/85516.got.cif
#   From: 2010.06.25/outbox.cif.g09.slc.cpg/sg10_43_cif.got.tgz:85516.got - 2010.06.27 22:07:45.
