data_PCOD8061207
_publ_section_title
;
Structure prediction by ZEFSAII (Michael W. Deem and Ramdas Pophale) SiO2 
 PCOD8061207
Probable space group: P 2/M
;
_chemical_formula_sum "Si O2"
_cell_formula_units_Z 28
_cell_length_a 17.309738
_cell_length_b 14.430122
_cell_length_c 9.569667
_cell_angle_alpha 90.000000
_cell_angle_beta 136.531548
_cell_angle_gamma 90.000000
_cell_volume 1644.437597
_symmetry_space_group_name_H-M "P 2/M"
_symmetry_group_IT_number 10
_symmetry_cell_setting 'monoclinic'
loop_
_space_group_symop_operation_xyz
x,y,z
-x,y,-z
-x,-y,-z
x,-y,z
loop_
_atom_site_type_symbol
_atom_site_label
_atom_site_fract_x
_atom_site_fract_y
_atom_site_fract_z
Si Si1 0.193094 0.889545 0.898089
Si Si2 0.800901 0.205587 0.385838
Si Si3 0.172681 0.399302 0.669229
Si Si4 0.941130 0.600753 0.201406
Si Si5 0.981880 0.790381 0.137643
Si Si6 0.407337 0.898417 0.763133
Si Si7 0.445638 0.889522 0.288048
O O1 0.160308 0.845109 0.705820
O O2 0.109872 0.856966 0.911394
O O3 0.185853 0.000000 0.874564
O O4 0.318287 0.855072 0.101916
O O5 0.760038 0.311061 0.301065
O O6 0.902678 0.199004 0.627496
O O7 0.695067 0.160957 0.318928
O O8 0.230655 0.500000 0.714490
O O9 0.053409 0.396325 0.438120
O O10 0.159329 0.386819 0.818738
O O11 0.929533 0.500000 0.110315
O O12 0.937957 0.683812 0.085129
O O13 0.000000 0.819184 0.000000
O O14 0.470823 0.848276 0.718964
O O15 0.360140 0.000000 0.658510
O O16 0.500000 0.912329 0.000000
O O17 0.500000 0.850981 0.500000
O O18 0.446513 0.000000 0.280922
#
# Coordination Sequence:
#
# PCOD8061207 Si02
#       7
#     4   4   4   4   4   4   4
#     4  11  22  37  54  73 102 142 178 208 250 307
#     4  11  20  34  55  76 104 139 171 210 258 307
#     4   8  14  27  50  76  98 128 170 211 252 298
#     4   8  14  29  51  71  97 132 170 213 253 295
#     4  11  24  35  47  77 112 138 171 208 256 319
#     4  10  19  33  53  78  99 125 175 223 251 286
#     4   9  19  35  55  75  97 128 172 221 259 291
#
# _framework density 17.027099
#
# number of rings (size 3 to 8) (size 9 to 14) (size 15 to 20)
#    0.000    2.286    2.857    1.714    2.000    2.286 
#    0.000    0.000    0.000    0.429    0.000    0.000 
#    0.000    2.857    0.000    0.000    0.000    0.000 
#
# Total GULP energy -346956.511202 kJ/mol
# GULP energy per Si atom -12391.303972 kJ/mol
# Density = 1.698834 g / cm^3
# Si number density = 17.027099 Si / 1000 Ang^3
#
#
#
# Elastic Constant Matrix: (Units=GPa)
#
#
# Indices 1 2 3 4 5 6 
#
# 1 130.1259 55.4508 44.2020 0.0000 -7.3421 0.0000
# 2 55.4508 106.9992 33.6179 0.0000 5.1781 0.0000
# 3 44.2020 33.6179 73.5159 0.0000 -11.3206 0.0000
# 4 0.0000 0.0000 0.0000 9.2186 0.0000 -9.5408
# 5 -7.3421 5.1781 -11.3206 0.0000 29.1611 0.0000
# 6 0.0000 0.0000 0.0000 -9.5408 0.0000 12.3343
#
#
#
# Elastic Compliance Matrix: (Units=1/GPa)
#
#
# Indices 1 2 3 4 5 6 
#
# 1 0.011208 -0.004529 -0.004371 0.000000 0.001929 0.000000
# 2 -0.004529 0.013230 -0.004110 0.000000 -0.005085 0.000000
# 3 -0.004371 -0.004110 0.019201 0.000000 0.007083 0.000000
# 4 0.000000 0.000000 0.000000 0.543891 0.000000 0.420709
# 5 0.001929 -0.005085 0.007083 0.000000 0.038431 0.000000
# 6 0.000000 0.000000 0.000000 0.420709 0.000000 0.406500
#
#
# Mechanical properties :
#
#
# Convention : Reuss Voigt Hill
#
# Bulk Modulus (GPa) = 56.75486 64.13137 60.44312
# Shear Modulus (GPa) = 4.69768 21.96748 13.33258
#
# Velocity S-wave (km/s) = 1.66281 3.59576 2.80129
# Velocity P-wave (km/s) = 6.09024 7.41521 6.78515
#
# Compressibility (1/GPa) = 0.01761964
#
# Stress axis : x y z
#
# Youngs Moduli (GPa) = 89.21960 75.58471 52.08066
#
# Poissons Ratio (x) = 0.34229 0.22765
# Poissons Ratio (y) = 0.40403 0.21406
# Poissons Ratio (z) = 0.38999 0.31067
#
# Static dielectric constant tensor:
#      x y z
#    x 3.130150 0.000000 -0.115270 
#    y 0.000000 3.482570 0.000000 
#    z -0.115270 0.000000 3.006480 
# 
# 
# High freq. dielectric constant tensor:
#      x y z
#    x 1.651340 0.000000 -0.010880 
#    y 0.000000 1.651060 0.000000 
#    z -0.010880 0.000000 1.631350 
# 
# From -- ./inp_files/25040.got.cif
#   From: 2010.06.25/outbox.cif.g09.slc.cpg/sg10_13_cif.got.tgz:25040.got - 2010.06.27 22:07:45.
