data_PCOD8061034
_publ_section_title
;
Structure prediction by ZEFSAII (Michael W. Deem and Ramdas Pophale) SiO2 
 PCOD8061034
Probable space group: P 2/M
;
_chemical_formula_sum "Si O2"
_cell_formula_units_Z 26
_cell_length_a 7.971461
_cell_length_b 12.181550
_cell_length_c 24.575106
_cell_angle_alpha 90.000000
_cell_angle_beta 30.500149
_cell_angle_gamma 90.000000
_cell_volume 1211.174363
_symmetry_space_group_name_H-M "P 2/M"
_symmetry_group_IT_number 10
_symmetry_cell_setting 'monoclinic'
loop_
_space_group_symop_operation_xyz
x,y,z
-x,y,-z
-x,-y,-z
x,-y,z
loop_
_atom_site_type_symbol
_atom_site_label
_atom_site_fract_x
_atom_site_fract_y
_atom_site_fract_z
Si Si1 0.359786 0.302076 0.898995
Si Si2 0.371013 0.500000 0.303153
Si Si3 0.543908 0.878167 0.924655
Si Si4 0.305463 0.874788 0.698028
Si Si5 0.575732 0.500000 0.587681
Si Si6 0.157199 0.500000 0.244938
Si Si7 0.452971 0.257272 0.267220
Si Si8 0.795841 0.267757 0.502646
O O1 0.333249 0.214806 0.954683
O O2 0.639896 0.392688 0.829812
O O3 0.431128 0.227827 0.825416
O O4 0.000000 0.360042 0.000000
O O5 0.249954 0.500000 0.400390
O O6 0.111728 0.500000 0.324058
O O7 0.569966 0.385311 0.243479
O O8 0.916742 0.868757 0.798295
O O9 0.407971 0.000000 0.949401
O O10 0.500000 0.854184 0.000000
O O11 0.376346 0.818869 0.736152
O O12 0.481214 0.813017 0.597508
O O13 0.434122 0.000000 0.663634
O O14 0.687209 0.392991 0.523477
O O15 0.176440 0.500000 0.697557
O O16 0.050980 0.241876 0.382527
O O17 0.000000 0.252639 0.500000
#
# Coordination Sequence:
#
# PCOD8061034 Si02
#       8
#     4   2   4   4   2   2   4   4
#     4  11  23  42  62  84 121 154 194 251 307 359
#     4  10  19  37  58  86 124 153 206 255 285 346
#     4  10  22  41  63  87 114 150 207 258 291 351
#     4  10  20  35  56  86 121 154 194 244 296 357
#     4  12  18  37  66  84 121 170 207 242 302 355
#     4  10  25  39  59  95 127 159 198 250 306 368
#     4  10  21  36  59  85 120 157 193 253 296 351
#     4  10  19  32  59  88 118 159 203 246 290 356
#
# _framework density 21.46677
#
# number of rings (size 3 to 8) (size 9 to 14) (size 15 to 20)
#    0.000    1.692    3.077    2.769    0.000    3.692 
#    0.000   10.385    0.000    1.846    0.000    0.000 
#    0.000    0.000    0.000    0.000    0.000    0.000 
#
# Total GULP energy -322139.997607 kJ/mol
# GULP energy per Si atom -12389.999908 kJ/mol
# Density = 2.141791 g / cm^3
# Si number density = 21.466770 Si / 1000 Ang^3
#
#
#
# Elastic Constant Matrix: (Units=GPa)
#
#
# Indices 1 2 3 4 5 6 
#
# 1 39.2191 23.0665 14.7854 0.0000 8.2735 0.0000
# 2 23.0665 107.6755 12.3604 0.0000 9.7328 0.0000
# 3 14.7854 12.3604 104.1170 0.0000 3.7866 0.0000
# 4 0.0000 0.0000 0.0000 25.5091 0.0000 -2.4442
# 5 8.2735 9.7328 3.7866 0.0000 22.2841 0.0000
# 6 0.0000 0.0000 0.0000 -2.4442 0.0000 16.2208
#
#
#
# Elastic Compliance Matrix: (Units=1/GPa)
#
#
# Indices 1 2 3 4 5 6 
#
# 1 0.032024 -0.005655 -0.003556 0.000000 -0.008816 0.000000
# 2 -0.005655 0.010772 -0.000383 0.000000 -0.002540 0.000000
# 3 -0.003556 -0.000383 0.010164 0.000000 -0.000239 0.000000
# 4 0.000000 0.000000 0.000000 0.039776 0.000000 0.005993
# 5 -0.008816 -0.002540 -0.000239 0.000000 0.049298 0.000000
# 6 0.000000 0.000000 0.000000 0.005993 0.000000 0.062552
#
#
# Mechanical properties :
#
#
# Convention : Reuss Voigt Hill
#
# Bulk Modulus (GPa) = 29.61082 39.04846 34.32964
# Shear Modulus (GPa) = 21.27369 26.18943 23.73156
#
# Velocity S-wave (km/s) = 3.15144 3.49664 3.32852
# Velocity P-wave (km/s) = 5.20248 5.87636 5.54966
#
# Compressibility (1/GPa) = 0.03377143
#
# Stress axis : x y z
#
# Youngs Moduli (GPa) = 31.22650 92.83103 98.38905
#
# Poissons Ratio (x) = 0.52499 0.34984
# Poissons Ratio (y) = 0.17659 0.03772
# Poissons Ratio (z) = 0.11103 0.03559
#
# Static dielectric constant tensor:
#      x y z
#    x 3.607210 0.000000 0.066200 
#    y 0.000000 3.995100 0.000000 
#    z 0.066200 0.000000 4.314180 
# 
# 
# High freq. dielectric constant tensor:
#      x y z
#    x 1.811030 0.000000 0.004000 
#    y 0.000000 1.844870 0.000000 
#    z 0.004000 0.000000 1.853000 
# 
# From -- ./inp_files/92284.got.cif
#   From: 2010.06.25/outbox.cif.g09.slc.cpg/sg10_47_cif.got.tgz:92284.got - 2010.06.27 22:07:45.
