data_PCOD8061515
_publ_section_title
;
Structure prediction by ZEFSAII (Michael W. Deem and Ramdas Pophale) SiO2 
 PCOD8061515
Probable space group: P 2/M
;
_chemical_formula_sum "Si O2"
_cell_formula_units_Z 28
_cell_length_a 25.436431
_cell_length_b 8.891088
_cell_length_c 9.493473
_cell_angle_alpha 90.000000
_cell_angle_beta 139.137267
_cell_angle_gamma 90.000000
_cell_volume 1404.686149
_symmetry_space_group_name_H-M "P 2/M"
_symmetry_group_IT_number 10
_symmetry_cell_setting 'monoclinic'
loop_
_space_group_symop_operation_xyz
x,y,z
-x,y,-z
-x,-y,-z
x,-y,z
loop_
_atom_site_type_symbol
_atom_site_label
_atom_site_fract_x
_atom_site_fract_y
_atom_site_fract_z
Si Si1 0.001450 0.679258 0.663474
Si Si2 0.419789 0.330529 0.892660
Si Si3 0.151672 0.679180 0.147809
Si Si4 0.316305 0.679619 0.930228
Si Si5 0.588901 0.823093 0.638969
Si Si6 0.325301 0.669276 0.425471
Si Si7 0.149616 0.320913 0.463515
O O1 0.002159 0.500000 0.662169
O O2 0.000000 0.741406 0.500000
O O3 0.924653 0.739455 0.594205
O O4 0.079754 0.740489 0.904474
O O5 0.445603 0.500000 0.985575
O O6 0.383790 0.255094 0.959677
O O7 0.349071 0.331441 0.636503
O O8 0.500000 0.244639 0.000000
O O9 0.150859 0.500000 0.154197
O O10 0.234213 0.732059 0.239373
O O11 0.143862 0.742684 0.291854
O O12 0.316433 0.500000 0.936308
O O13 0.229629 0.738152 0.703801
O O14 0.339612 0.746954 0.127365
O O15 0.500000 0.762454 0.500000
O O16 0.611327 0.776051 0.525898
O O17 0.592328 0.000000 0.665361
O O18 0.329975 0.500000 0.372190
O O19 0.149189 0.500000 0.457444
#
# Coordination Sequence:
#
# PCOD8061515 Si02
#       7
#     4   4   4   4   4   4   4
#     4   9  17  25  39  69 111 150 175 202 252 314
#     4   9  16  28  49  78 106 128 163 219 271 313
#     4   9  16  28  46  73 108 141 172 213 265 315
#     4  10  19  33  56  82 105 135 178 223 267 314
#     4  11  25  41  53  72 107 146 180 217 267 325
#     4  10  19  33  56  82 105 135 178 223 267 314
#     4   9  16  28  46  73 108 141 172 213 265 315
#
# _framework density 19.933278999999999
#
# number of rings (size 3 to 8) (size 9 to 14) (size 15 to 20)
#    0.000    2.429    1.429    1.714    2.000    4.000 
#    0.000    0.714    0.000    2.571    0.000    2.000 
#    0.000    2.286    0.000    0.000    0.000    0.000 
#
# Total GULP energy -347086.173072 kJ/mol
# GULP energy per Si atom -12395.934753 kJ/mol
# Density = 1.988791 g / cm^3
# Si number density = 19.933279 Si / 1000 Ang^3
#
#
#
# Elastic Constant Matrix: (Units=GPa)
#
#
# Indices 1 2 3 4 5 6 
#
# 1 127.4374 15.7224 32.8436 0.0000 11.4351 0.0000
# 2 15.7224 16.5114 12.8458 0.0000 1.9961 0.0000
# 3 32.8436 12.8458 105.1435 0.0000 8.1639 0.0000
# 4 0.0000 0.0000 0.0000 3.7423 0.0000 2.1881
# 5 11.4351 1.9961 8.1639 0.0000 38.8657 0.0000
# 6 0.0000 0.0000 0.0000 2.1881 0.0000 7.9661
#
#
#
# Elastic Compliance Matrix: (Units=1/GPa)
#
#
# Indices 1 2 3 4 5 6 
#
# 1 0.009409 -0.007240 -0.001899 0.000000 -0.001998 0.000000
# 2 -0.007240 0.072614 -0.006593 0.000000 -0.000214 0.000000
# 3 -0.001899 -0.006593 0.011020 0.000000 -0.001417 0.000000
# 4 0.000000 0.000000 0.000000 0.318336 0.000000 -0.087437
# 5 -0.001998 -0.000214 -0.001417 0.000000 0.026626 0.000000
# 6 0.000000 0.000000 0.000000 -0.087437 0.000000 0.149548
#
#
# Mechanical properties :
#
#
# Convention : Reuss Voigt Hill
#
# Bulk Modulus (GPa) = 16.23989 41.32398 28.78194
# Shear Modulus (GPa) = 7.81806 22.62686 15.22246
#
# Velocity S-wave (km/s) = 1.98258 3.37282 2.76646
# Velocity P-wave (km/s) = 3.66137 5.99534 4.96738
#
# Compressibility (1/GPa) = 0.06157675
#
# Stress axis : x y z
#
# Youngs Moduli (GPa) = 106.28129 13.77150 90.74658
#
# Poissons Ratio (x) = 0.09971 0.17237
# Poissons Ratio (y) = 0.76949 0.59832
# Poissons Ratio (z) = 0.20187 0.09080
#
# Static dielectric constant tensor:
#      x y z
#    x 3.855550 0.000000 0.112400 
#    y 0.000000 2.818040 0.000000 
#    z 0.112400 0.000000 3.767220 
# 
# 
# High freq. dielectric constant tensor:
#      x y z
#    x 1.795860 0.000000 0.004040 
#    y 0.000000 1.689350 0.000000 
#    z 0.004040 0.000000 1.790400 
# 
# From -- ./inp_files/37342.got.cif
#   From: 2010.06.25/outbox.cif.g09.slc.cpg/sg10_19_cif.got.tgz:37342.got - 2010.06.27 22:07:45.
