data_PCOD8061578
_publ_section_title
;
Structure prediction by ZEFSAII (Michael W. Deem and Ramdas Pophale) SiO2 
 PCOD8061578
Probable space group: P 2/M
;
_chemical_formula_sum "Si O2"
_cell_formula_units_Z 28
_cell_length_a 20.397274
_cell_length_b 8.923064
_cell_length_c 14.634097
_cell_angle_alpha 90.000000
_cell_angle_beta 147.701631
_cell_angle_gamma 90.000000
_cell_volume 1423.181317
_symmetry_space_group_name_H-M "P 2/M"
_symmetry_group_IT_number 10
_symmetry_cell_setting 'monoclinic'
loop_
_space_group_symop_operation_xyz
x,y,z
-x,y,-z
-x,-y,-z
x,-y,z
loop_
_atom_site_type_symbol
_atom_site_label
_atom_site_fract_x
_atom_site_fract_y
_atom_site_fract_z
Si Si1 0.856352 0.174954 0.321572
Si Si2 0.736525 0.327238 0.644494
Si Si3 0.562343 0.822925 0.300612
Si Si4 0.227211 0.823749 0.584140
Si Si5 0.803841 0.329448 0.923648
Si Si6 0.940541 0.823332 0.775596
Si Si7 0.306746 0.674642 0.015096
O O1 0.789821 0.241365 0.334136
O O2 0.000000 0.203921 0.500000
O O3 0.827767 0.000000 0.272421
O O4 0.808010 0.266729 0.178243
O O5 0.732895 0.500000 0.610657
O O6 0.622965 0.243815 0.463375
O O7 0.722431 0.308082 0.736877
O O8 0.867685 0.257786 0.771270
O O9 0.642602 0.776569 0.306286
O O10 0.427713 0.760456 0.125400
O O11 0.557883 0.000000 0.306995
O O12 0.117788 0.768462 0.389057
O O13 0.216272 0.000000 0.580332
O O14 0.852979 0.500000 0.988688
O O15 0.717584 0.289807 0.907398
O O16 0.917900 0.217966 0.055917
O O17 0.924353 0.000000 0.770440
O O18 0.325850 0.500000 0.020135
#
# Coordination Sequence:
#
# PCOD8061578 Si02
#       7
#     4   4   4   4   4   4   4
#     4  10  20  37  61  86 111 142 179 220 273 334
#     4  10  20  36  57  80 110 148 185 223 275 334
#     4  10  21  39  59  81 109 143 187 232 275 325
#     4   8  17  34  56  81 110 143 177 220 275 330
#     4  10  22  37  53  76 111 153 187 222 277 336
#     4  10  19  33  56  86 115 143 182 230 274 322
#     4  11  24  40  56  79 112 147 186 231 276 325
#
# _framework density 19.674230999999999
#
# number of rings (size 3 to 8) (size 9 to 14) (size 15 to 20)
#    0.000    2.143    0.000    3.857    0.000    6.571 
#    0.000   10.000    0.000    0.000    0.000    0.000 
#    0.000    0.000    0.000    0.000    0.000    0.000 
#
# Total GULP energy -347254.545526 kJ/mol
# GULP energy per Si atom -12401.948055 kJ/mol
# Density = 1.962945 g / cm^3
# Si number density = 19.674231 Si / 1000 Ang^3
#
#
#
# Elastic Constant Matrix: (Units=GPa)
#
#
# Indices 1 2 3 4 5 6 
#
# 1 122.1868 43.3854 46.8387 0.0000 -15.4027 0.0000
# 2 43.3854 86.9599 43.8665 0.0000 -0.7908 0.0000
# 3 46.8387 43.8665 81.6256 0.0000 5.0698 0.0000
# 4 0.0000 0.0000 0.0000 33.9685 0.0000 -0.2487
# 5 -15.4027 -0.7908 5.0698 0.0000 30.9398 0.0000
# 6 0.0000 0.0000 0.0000 -0.2487 0.0000 23.7535
#
#
#
# Elastic Compliance Matrix: (Units=1/GPa)
#
#
# Indices 1 2 3 4 5 6 
#
# 1 0.012463 -0.003188 -0.005878 0.000000 0.007086 0.000000
# 2 -0.003188 0.016693 -0.007142 0.000000 0.000010 0.000000
# 3 -0.005878 -0.007142 0.019858 0.000000 -0.006363 0.000000
# 4 0.000000 0.000000 0.000000 0.029441 0.000000 0.000308
# 5 0.007086 0.000010 -0.006363 0.000000 0.036891 0.000000
# 6 0.000000 0.000000 0.000000 0.000308 0.000000 0.042102
#
#
# Mechanical properties :
#
#
# Convention : Reuss Voigt Hill
#
# Bulk Modulus (GPa) = 60.25433 62.10597 61.18015
# Shear Modulus (GPa) = 25.58880 28.17780 26.88330
#
# Velocity S-wave (km/s) = 3.61033 3.78857 3.70052
# Velocity P-wave (km/s) = 6.93338 7.12555 7.03012
#
# Compressibility (1/GPa) = 0.01659632
#
# Stress axis : x y z
#
# Youngs Moduli (GPa) = 80.23853 59.90487 50.35846
#
# Poissons Ratio (x) = 0.19099 0.29602
# Poissons Ratio (y) = 0.25582 0.35967
# Poissons Ratio (z) = 0.47166 0.42785
#
# Static dielectric constant tensor:
#      x y z
#    x 3.814720 0.000000 -0.139530 
#    y 0.000000 3.491390 0.000000 
#    z -0.139530 0.000000 3.470880 
# 
# 
# High freq. dielectric constant tensor:
#      x y z
#    x 1.773080 0.000000 -0.005980 
#    y 0.000000 1.758590 0.000000 
#    z -0.005980 0.000000 1.763680 
# 
# From -- ./inp_files/63641.got.cif
#   From: 2010.06.25/outbox.cif.g09.slc.cpg/sg10_32_cif.got.tgz:63641.got - 2010.06.27 22:07:45.
