data_PCOD8061997
_publ_section_title
;
Structure prediction by ZEFSAII (Michael W. Deem and Ramdas Pophale) SiO2 
 PCOD8061997
Probable space group: P 2/M
;
_chemical_formula_sum "Si O2"
_cell_formula_units_Z 28
_cell_length_a 29.833303
_cell_length_b 9.031135
_cell_length_c 10.180959
_cell_angle_alpha 90.000000
_cell_angle_beta 33.570620
_cell_angle_gamma 90.000000
_cell_volume 1516.804166
_symmetry_space_group_name_H-M "P 2/M"
_symmetry_group_IT_number 10
_symmetry_cell_setting 'monoclinic'
loop_
_space_group_symop_operation_xyz
x,y,z
-x,y,-z
-x,-y,-z
x,-y,z
loop_
_atom_site_type_symbol
_atom_site_label
_atom_site_fract_x
_atom_site_fract_y
_atom_site_fract_z
Si Si1 0.919253 0.324988 0.851208
Si Si2 0.097914 0.675455 0.403676
Si Si3 0.514185 0.169382 0.115398
Si Si4 0.240783 0.325795 0.629508
Si Si5 0.667423 0.674194 0.851657
Si Si6 0.256221 0.175406 0.089053
Si Si7 0.335116 0.830505 0.625461
O O1 0.922495 0.500000 0.837903
O O2 0.895377 0.270847 0.763709
O O3 0.009334 0.272158 0.673234
O O4 0.850969 0.266932 0.119472
O O5 0.110660 0.500000 0.387898
O O6 0.165769 0.759101 0.322339
O O7 0.431767 0.187785 0.399076
O O8 0.545903 0.000000 0.043859
O O9 0.500000 0.217132 0.000000
O O10 0.578616 0.278813 0.022145
O O11 0.244221 0.500000 0.641437
O O12 0.266565 0.281004 0.420093
O O13 0.303575 0.259817 0.578904
O O14 0.668147 0.500000 0.877375
O O15 0.688405 0.761099 0.931523
O O16 0.253453 0.000000 0.107682
O O17 0.296008 0.228928 0.855380
O O18 0.310682 0.000000 0.661496
#
# Coordination Sequence:
#
# PCOD8061997 Si02
#       7
#     4   4   4   4   4   4   4
#     4   8  15  29  54  85 110 138 177 224 273 319
#     4   9  16  31  56  82 110 142 179 223 271 323
#     4  10  20  37  60  82 109 143 179 223 275 326
#     4  10  19  34  57  84 110 140 181 227 271 319
#     4  11  24  38  56  82 112 146 184 225 273 325
#     4  11  23  38  55  79 114 150 183 222 272 326
#     4  10  21  36  57  83 108 142 184 222 269 327
#
# _framework density 18.459866000000002
#
# number of rings (size 3 to 8) (size 9 to 14) (size 15 to 20)
#    0.000    2.143    2.857    1.714    0.000    2.571 
#    0.000    5.714    0.000    4.286    0.000    0.000 
#    0.000    0.000    0.000    0.000    0.000    0.000 
#
# Total GULP energy -347190.997008 kJ/mol
# GULP energy per Si atom -12399.678465 kJ/mol
# Density = 1.841785 g / cm^3
# Si number density = 18.459866 Si / 1000 Ang^3
#
#
#
# Elastic Constant Matrix: (Units=GPa)
#
#
# Indices 1 2 3 4 5 6 
#
# 1 84.6441 33.5601 25.8570 0.0000 -6.8661 0.0000
# 2 33.5601 48.2025 27.1837 0.0000 1.3811 0.0000
# 3 25.8570 27.1837 91.0046 0.0000 -11.2275 0.0000
# 4 0.0000 0.0000 0.0000 3.4149 0.0000 24.6664
# 5 -6.8661 1.3811 -11.2275 0.0000 27.5980 0.0000
# 6 0.0000 0.0000 0.0000 24.6664 0.0000 -6.7595
#
#
#
# Elastic Compliance Matrix: (Units=1/GPa)
#
#
# Indices 1 2 3 4 5 6 
#
# 1 0.016984 -0.011474 -0.000849 0.000000 0.004454 0.000000
# 2 -0.011474 0.033244 -0.007609 0.000000 -0.007614 0.000000
# 3 -0.000849 -0.007609 0.014238 0.000000 0.005962 0.000000
# 4 0.000000 0.000000 0.000000 0.010704 0.000000 0.039059
# 5 0.004454 -0.007614 0.005962 0.000000 0.040149 0.000000
# 6 0.000000 0.000000 0.000000 0.039059 0.000000 -0.005408
#
#
# Mechanical properties :
#
#
# Convention : Reuss Voigt Hill
#
# Bulk Modulus (GPa) = 40.64733 44.11696 42.38215
# Shear Modulus (GPa) = 31.65052 14.00072 22.82562
#
# Velocity S-wave (km/s) = 4.14521 2.75697 3.52020
# Velocity P-wave (km/s) = 6.70653 5.83826 6.28740
#
# Compressibility (1/GPa) = 0.02460186
#
# Stress axis : x y z
#
# Youngs Moduli (GPa) = 58.87924 30.08102 70.23378
#
# Poissons Ratio (x) = 0.34514 0.05962
# Poissons Ratio (y) = 0.67556 0.53444
# Poissons Ratio (z) = 0.04998 0.22890
#
# Static dielectric constant tensor:
#      x y z
#    x 3.228650 0.000000 -0.117300 
#    y 0.000000 3.204340 0.000000 
#    z -0.117300 0.000000 3.843430 
# 
# 
# High freq. dielectric constant tensor:
#      x y z
#    x 1.702160 0.000000 -0.012570 
#    y 0.000000 1.699230 0.000000 
#    z -0.012570 0.000000 1.728360 
# 
# From -- ./inp_files/36961.got.cif
#   From: 2010.06.25/outbox.cif.g09.slc.cpg/sg10_19_cif.got.tgz:36961.got - 2010.06.27 22:07:45.
