data_PCOD8061475
_publ_section_title
;
Structure prediction by ZEFSAII (Michael W. Deem and Ramdas Pophale) SiO2 
 PCOD8061475
Probable space group: P 2/M
;
_chemical_formula_sum "Si O2"
_cell_formula_units_Z 28
_cell_length_a 19.697013
_cell_length_b 11.115923
_cell_length_c 17.550157
_cell_angle_alpha 90.000000
_cell_angle_beta 21.761524
_cell_angle_gamma 90.000000
_cell_volume 1424.627500
_symmetry_space_group_name_H-M "P 2/M"
_symmetry_group_IT_number 10
_symmetry_cell_setting 'monoclinic'
loop_
_space_group_symop_operation_xyz
x,y,z
-x,y,-z
-x,-y,-z
x,-y,z
loop_
_atom_site_type_symbol
_atom_site_label
_atom_site_fract_x
_atom_site_fract_y
_atom_site_fract_z
Si Si1 0.117856 0.361857 0.574603
Si Si2 0.544589 0.360374 0.871776
Si Si3 0.457232 0.257583 0.672172
Si Si4 0.139737 0.361912 0.917449
Si Si5 0.699538 0.640163 0.010475
Si Si6 0.991369 0.000000 0.099559
Si Si7 0.416415 0.000000 0.671444
Si Si8 0.845199 0.747478 0.310789
O O1 0.143257 0.500000 0.576498
O O2 0.241589 0.340176 0.370698
O O3 0.192805 0.267562 0.559843
O O4 0.909376 0.334429 0.770022
O O5 0.492330 0.500000 0.931701
O O6 0.500000 0.298820 0.000000
O O7 0.419721 0.305149 0.934354
O O8 0.336649 0.296303 0.723146
O O9 0.488036 0.115246 0.641629
O O10 0.667250 0.305983 0.450363
O O11 0.351893 0.296134 0.857285
O O12 0.180118 0.500000 0.857578
O O13 0.000000 0.303156 0.000000
O O14 0.019570 0.341768 0.118353
O O15 0.658272 0.500000 0.066311
O O16 0.890773 0.883182 0.238248
O O17 0.000000 0.000000 0.000000
O O18 0.199917 0.000000 0.906314
O O19 0.500000 0.000000 0.500000
#
# Coordination Sequence:
#
# PCOD8061475 Si02
#       8
#     4   4   4   4   4   2   2   4
#     4  10  19  33  55  84 117 156 196 239 293 351
#     4   9  18  32  52  83 121 156 193 240 295 354
#     4  12  24  39  61  86 114 153 203 246 297 353
#     4  11  25  41  58  83 117 155 195 244 301 357
#     4  10  19  34  57  83 117 157 195 239 293 352
#     4  12  24  44  62  85 118 153 194 257 310 350
#     4  12  26  42  64  87 113 154 201 251 311 355
#     4  12  23  38  62  85 116 154 200 248 297 353
#
# _framework density 19.654261000000002
#
# number of rings (size 3 to 8) (size 9 to 14) (size 15 to 20)
#    0.000    1.143    4.286    2.571    2.000    2.286 
#    0.000    4.286    0.000    0.000    0.000    2.000 
#    0.000    3.429    0.000    0.000    0.000    0.000 
#
# Total GULP energy -347027.807801 kJ/mol
# GULP energy per Si atom -12393.850279 kJ/mol
# Density = 1.960953 g / cm^3
# Si number density = 19.654261 Si / 1000 Ang^3
#
#
#
# Elastic Constant Matrix: (Units=GPa)
#
#
# Indices 1 2 3 4 5 6 
#
# 1 76.1175 27.2897 27.4571 0.0000 -4.1814 0.0000
# 2 27.2897 72.0027 29.8489 0.0000 7.1253 0.0000
# 3 27.4571 29.8489 113.1357 0.0000 -19.1099 0.0000
# 4 0.0000 0.0000 0.0000 17.9809 0.0000 -2.6629
# 5 -4.1814 7.1253 -19.1099 0.0000 41.1527 0.0000
# 6 0.0000 0.0000 0.0000 -2.6629 0.0000 10.6565
#
#
#
# Elastic Compliance Matrix: (Units=1/GPa)
#
#
# Indices 1 2 3 4 5 6 
#
# 1 0.015905 -0.005255 -0.002221 0.000000 0.001495 0.000000
# 2 -0.005255 0.018341 -0.004547 0.000000 -0.005821 0.000000
# 3 -0.002221 -0.004547 0.011581 0.000000 0.005939 0.000000
# 4 0.000000 0.000000 0.000000 0.057752 0.000000 0.014432
# 5 0.001495 -0.005821 0.005939 0.000000 0.028217 0.000000
# 6 0.000000 0.000000 0.000000 0.014432 0.000000 0.097446
#
#
# Mechanical properties :
#
#
# Convention : Reuss Voigt Hill
#
# Bulk Modulus (GPa) = 45.91242 47.82747 46.86994
# Shear Modulus (GPa) = 19.19026 25.73536 22.46281
#
# Velocity S-wave (km/s) = 3.12812 3.62249 3.38434
# Velocity P-wave (km/s) = 6.03801 6.47177 6.25865
#
# Compressibility (1/GPa) = 0.02178060
#
# Stress axis : x y z
#
# Youngs Moduli (GPa) = 62.87326 54.52232 86.35005
#
# Poissons Ratio (x) = 0.28653 0.19179
# Poissons Ratio (y) = 0.33042 0.39262
# Poissons Ratio (z) = 0.13964 0.24790
#
# Static dielectric constant tensor:
#      x y z
#    x 3.719420 0.000000 -0.154570 
#    y 0.000000 3.371130 0.000000 
#    z -0.154570 0.000000 3.814720 
# 
# 
# High freq. dielectric constant tensor:
#      x y z
#    x 1.756530 0.000000 -0.018770 
#    y 0.000000 1.724480 0.000000 
#    z -0.018770 0.000000 1.789360 
# 
# From -- ./inp_files/79536.got.cif
#   From: 2010.06.25/outbox.cif.g09.slc.cpg/sg10_40_cif.got.tgz:79536.got - 2010.06.27 22:07:45.
