data_PCOD8061826
_publ_section_title
;
Structure prediction by ZEFSAII (Michael W. Deem and Ramdas Pophale) SiO2 
 PCOD8061826
Probable space group: P 2/M
;
_chemical_formula_sum "Si O2"
_cell_formula_units_Z 32
_cell_length_a 9.346579
_cell_length_b 13.611247
_cell_length_c 14.755079
_cell_angle_alpha 90.000000
_cell_angle_beta 79.832810
_cell_angle_gamma 90.000000
_cell_volume 1847.643727
_symmetry_space_group_name_H-M "P 2/M"
_symmetry_group_IT_number 10
_symmetry_cell_setting 'monoclinic'
loop_
_space_group_symop_operation_xyz
x,y,z
-x,y,-z
-x,-y,-z
x,-y,z
loop_
_atom_site_type_symbol
_atom_site_label
_atom_site_fract_x
_atom_site_fract_y
_atom_site_fract_z
Si Si1 0.239018 0.111124 0.444826
Si Si2 0.043458 0.699605 0.738416
Si Si3 0.420724 0.702636 0.414538
Si Si4 0.082618 0.610975 0.077755
Si Si5 0.955232 0.111139 0.361735
Si Si6 0.111386 0.614956 0.413902
Si Si7 0.648752 0.383431 0.251344
Si Si8 0.618702 0.388724 0.049372
O O1 0.376407 0.182454 0.413964
O O2 0.111209 0.135631 0.388456
O O3 0.174555 0.125642 0.552245
O O4 0.295144 0.000000 0.425292
O O5 0.194686 0.640668 0.723415
O O6 0.954926 0.687851 0.840512
O O7 0.073810 0.814932 0.718020
O O8 0.932904 0.659649 0.676349
O O9 0.500000 0.678081 0.500000
O O10 0.274656 0.639165 0.424956
O O11 0.524824 0.674771 0.319575
O O12 0.032160 0.500000 0.110798
O O13 0.248727 0.613909 0.033904
O O14 0.000000 0.649198 0.000000
O O15 0.954267 0.000000 0.324512
O O16 0.093688 0.500000 0.408558
O O17 0.000000 0.659602 0.500000
O O18 0.622304 0.500000 0.262316
O O19 0.645410 0.344255 0.146937
O O20 0.568188 0.500000 0.074006
O O21 0.500000 0.332665 0.000000
#
# Coordination Sequence:
#
# PCOD8061826 Si02
#       8
#     4   4   4   4   4   4   4   4
#     4   9  18  36  58  80 107 140 183 236 286 325
#     4  12  21  35  60  82 107 144 194 232 277 331
#     4  12  24  36  52  77 112 150 186 223 271 330
#     4  10  19  34  55  82 109 140 187 233 270 318
#     4   9  18  34  59  85 108 135 178 240 291 327
#     4  11  23  36  51  75 109 149 189 222 262 331
#     4  11  23  37  52  78 116 153 183 224 275 324
#     4   9  19  34  52  75 107 142 180 227 275 319
#
# _framework density 17.319355000000002
#
# number of rings (size 3 to 8) (size 9 to 14) (size 15 to 20)
#    0.000    1.625    2.500    4.500    1.750    2.250 
#    0.000    0.625    0.000    0.375    0.000    0.000 
#    0.000    3.500    0.000    0.000    0.000    0.000 
#
# Total GULP energy -396694.451525 kJ/mol
# GULP energy per Si atom -12396.701610 kJ/mol
# Density = 1.727994 g / cm^3
# Si number density = 17.319355 Si / 1000 Ang^3
#
#
#
# Elastic Constant Matrix: (Units=GPa)
#
#
# Indices 1 2 3 4 5 6 
#
# 1 92.0563 32.1525 42.9720 0.0000 4.2407 0.0000
# 2 32.1525 86.9753 59.1981 0.0000 0.8515 0.0000
# 3 42.9720 59.1981 112.6626 0.0000 -5.7844 0.0000
# 4 0.0000 0.0000 0.0000 23.6302 0.0000 -0.4384
# 5 4.2407 0.8515 -5.7844 0.0000 26.1121 0.0000
# 6 0.0000 0.0000 0.0000 -0.4384 0.0000 30.0104
#
#
#
# Elastic Compliance Matrix: (Units=1/GPa)
#
#
# Indices 1 2 3 4 5 6 
#
# 1 0.013752 -0.002140 -0.004281 0.000000 -0.003112 0.000000
# 2 -0.002140 0.018421 -0.008979 0.000000 -0.002242 0.000000
# 3 -0.004281 -0.008979 0.015453 0.000000 0.004411 0.000000
# 4 0.000000 0.000000 0.000000 0.042330 0.000000 0.000618
# 5 -0.003112 -0.002242 0.004411 0.000000 0.039852 0.000000
# 6 0.000000 0.000000 0.000000 0.000618 0.000000 0.033331
#
#
# Mechanical properties :
#
#
# Convention : Reuss Voigt Hill
#
# Bulk Modulus (GPa) = 59.42276 62.25994 60.84135
# Shear Modulus (GPa) = 25.05678 26.44198 25.74938
#
# Velocity S-wave (km/s) = 3.80774 3.91158 3.86001
# Velocity P-wave (km/s) = 7.32915 7.51178 7.42102
#
# Compressibility (1/GPa) = 0.01682857
#
# Stress axis : x y z
#
# Youngs Moduli (GPa) = 72.71757 54.28440 64.71214
#
# Poissons Ratio (x) = 0.11615 0.27702
# Poissons Ratio (y) = 0.15559 0.58102
# Poissons Ratio (z) = 0.31129 0.48739
#
# Static dielectric constant tensor:
#      x y z
#    x 3.317140 0.000000 0.097120 
#    y 0.000000 3.184740 0.000000 
#    z 0.097120 0.000000 3.201040 
# 
# 
# High freq. dielectric constant tensor:
#      x y z
#    x 1.679160 0.000000 0.003100 
#    y 0.000000 1.646660 0.000000 
#    z 0.003100 0.000000 1.661130 
# 
# From -- ./inp_files/61531.got.cif
#   From: 2010.06.25/outbox.cif.g09.slc.cpg/sg10_31_cif.got.tgz:61531.got - 2010.06.27 22:07:45.
