data_PCOD8061886
_publ_section_title
;
Structure prediction by ZEFSAII (Michael W. Deem and Ramdas Pophale) SiO2 
 PCOD8061886
Probable space group: P 2/M
;
_chemical_formula_sum "Si O2"
_cell_formula_units_Z 28
_cell_length_a 28.226736
_cell_length_b 8.992533
_cell_length_c 8.126120
_cell_angle_alpha 90.000000
_cell_angle_beta 136.543210
_cell_angle_gamma 90.000000
_cell_volume 1418.707077
_symmetry_space_group_name_H-M "P 2/M"
_symmetry_group_IT_number 10
_symmetry_cell_setting 'monoclinic'
loop_
_space_group_symop_operation_xyz
x,y,z
-x,y,-z
-x,-y,-z
x,-y,z
loop_
_atom_site_type_symbol
_atom_site_label
_atom_site_fract_x
_atom_site_fract_y
_atom_site_fract_z
Si Si1 0.075761 0.325408 0.251791
Si Si2 0.662556 0.176963 0.726042
Si Si3 0.070363 0.675906 0.605395
Si Si4 0.421892 0.822852 0.805143
Si Si5 0.213707 0.675973 0.113816
Si Si6 0.204248 0.172569 0.421965
Si Si7 0.655543 0.827837 0.071139
O O1 0.090416 0.500000 0.272078
O O2 0.083072 0.264228 0.454487
O O3 0.131313 0.242070 0.282425
O O4 0.000000 0.284601 0.000000
O O5 0.613916 0.233420 0.454425
O O6 0.736623 0.255776 0.898828
O O7 0.672938 0.000000 0.747615
O O8 0.632437 0.227075 0.829983
O O9 0.061673 0.500000 0.574467
O O10 0.000000 0.746602 0.500000
O O11 0.134848 0.722274 0.878986
O O12 0.385769 0.754116 0.879011
O O13 0.418201 0.000000 0.797983
O O14 0.500000 0.764989 0.000000
O O15 0.222600 0.500000 0.141103
O O16 0.234975 0.748268 0.339155
O O17 0.262194 0.199730 0.706929
O O18 0.193895 0.000000 0.357611
O O19 0.638158 0.000000 0.040551
#
# Coordination Sequence:
#
# PCOD8061886 Si02
#       7
#     4   4   4   4   4   4   4
#     4  10  20  35  55  78 105 139 181 227 276 327
#     4  10  19  34  56  80 112 146 178 225 279 324
#     4   9  18  33  52  75 103 135 176 227 274 320
#     4   9  17  31  53  83 116 146 181 225 272 326
#     4  11  21  34  55  80 106 140 184 226 272 330
#     4  11  21  35  54  77 110 144 180 227 277 328
#     4   9  18  32  52  81 112 144 182 225 275 325
#
# _framework density 19.736279
#
# number of rings (size 3 to 8) (size 9 to 14) (size 15 to 20)
#    0.000    2.143    1.429    2.571    0.000    3.143 
#    0.000    4.286    0.000    3.429    0.000    1.000 
#    0.000    0.000    0.000    0.000    0.000    0.000 
#
# Total GULP energy -347097.735112 kJ/mol
# GULP energy per Si atom -12396.347683 kJ/mol
# Density = 1.969136 g / cm^3
# Si number density = 19.736279 Si / 1000 Ang^3
#
#
#
# Elastic Constant Matrix: (Units=GPa)
#
#
# Indices 1 2 3 4 5 6 
#
# 1 146.1524 29.4510 71.5790 0.0000 -9.0482 0.0000
# 2 29.4510 36.5677 31.4794 0.0000 2.4467 0.0000
# 3 71.5790 31.4794 108.7915 0.0000 -13.1033 0.0000
# 4 0.0000 0.0000 0.0000 14.7039 0.0000 -1.6739
# 5 -9.0482 2.4467 -13.1033 0.0000 38.6897 0.0000
# 6 0.0000 0.0000 0.0000 -1.6739 0.0000 17.3416
#
#
#
# Elastic Compliance Matrix: (Units=1/GPa)
#
#
# Indices 1 2 3 4 5 6 
#
# 1 0.010404 -0.003471 -0.005756 0.000000 0.000703 0.000000
# 2 -0.003471 0.039022 -0.009802 0.000000 -0.006599 0.000000
# 3 -0.005756 -0.009802 0.016397 0.000000 0.004827 0.000000
# 4 0.000000 0.000000 0.000000 0.068765 0.000000 0.006637
# 5 0.000703 -0.006599 0.004827 0.000000 0.028063 0.000000
# 6 0.000000 0.000000 0.000000 0.006637 0.000000 0.058305
#
#
# Mechanical properties :
#
#
# Convention : Reuss Voigt Hill
#
# Bulk Modulus (GPa) = 36.01818 61.83669 48.92744
# Shear Modulus (GPa) = 18.63786 24.74718 21.69252
#
# Velocity S-wave (km/s) = 3.07635 3.54488 3.31889
# Velocity P-wave (km/s) = 5.55949 6.93934 6.28738
#
# Compressibility (1/GPa) = 0.02776376
#
# Stress axis : x y z
#
# Youngs Moduli (GPa) = 96.11288 25.62664 60.98657
#
# Poissons Ratio (x) = 0.08895 0.35107
# Poissons Ratio (y) = 0.33362 0.59780
# Poissons Ratio (z) = 0.55327 0.25120
#
# Static dielectric constant tensor:
#      x y z
#    x 3.898170 0.000000 -0.154910 
#    y 0.000000 3.097640 0.000000 
#    z -0.154910 0.000000 3.708780 
# 
# 
# High freq. dielectric constant tensor:
#      x y z
#    x 1.782660 0.000000 -0.007980 
#    y 0.000000 1.716220 0.000000 
#    z -0.007980 0.000000 1.777010 
# 
# From -- ./inp_files/37907.got.cif
#   From: 2010.06.25/outbox.cif.g09.slc.cpg/sg10_19_cif.got.tgz:37907.got - 2010.06.27 22:07:45.
