data_PCOD8061848
_publ_section_title
;
Structure prediction by ZEFSAII (Michael W. Deem and Ramdas Pophale) SiO2 
 PCOD8061848
Probable space group: P 2/M
;
_chemical_formula_sum "Si O2"
_cell_formula_units_Z 32
_cell_length_a 10.585535
_cell_length_b 8.168736
_cell_length_c 21.108891
_cell_angle_alpha 90.000000
_cell_angle_beta 123.987191
_cell_angle_gamma 90.000000
_cell_volume 1513.466375
_symmetry_space_group_name_H-M "P 2/M"
_symmetry_group_IT_number 10
_symmetry_cell_setting 'monoclinic'
loop_
_space_group_symop_operation_xyz
x,y,z
-x,y,-z
-x,-y,-z
x,-y,z
loop_
_atom_site_type_symbol
_atom_site_label
_atom_site_fract_x
_atom_site_fract_y
_atom_site_fract_z
Si Si1 0.465829 0.805670 0.921086
Si Si2 0.780361 0.194046 0.962666
Si Si3 0.753693 0.195199 0.247050
Si Si4 0.943870 0.805618 0.885539
Si Si5 0.413817 0.810781 0.674880
Si Si6 0.158326 0.310281 0.515276
Si Si7 0.099718 0.194484 0.361793
Si Si8 0.737316 0.804947 0.718098
O O1 0.608344 0.746688 0.919323
O O2 0.318049 0.742874 0.840396
O O3 0.455168 0.000000 0.925234
O O4 0.500000 0.728668 0.000000
O O5 0.846587 0.267100 0.916643
O O6 0.789148 0.000000 0.961768
O O7 0.880745 0.248718 0.052637
O O8 0.655324 0.265727 0.279246
O O9 0.927684 0.257167 0.299401
O O10 0.749273 0.000000 0.248231
O O11 0.873070 0.736000 0.801031
O O12 0.931171 0.000000 0.879837
O O13 0.294318 0.790358 0.584785
O O14 0.575183 0.731856 0.697129
O O15 0.444088 0.000000 0.696191
O O16 0.181440 0.500000 0.537624
O O17 0.162142 0.280789 0.441691
O O18 0.000000 0.244766 0.500000
O O19 0.215991 0.251920 0.339268
O O20 0.099833 0.000000 0.370684
O O21 0.730232 0.000000 0.717469
#
# Coordination Sequence:
#
# PCOD8061848 Si02
#       8
#     4   4   4   4   4   4   4   4
#     4   9  16  22  32  56  93 133 168 203 243 287
#     4   8  13  20  31  50  81 127 171 201 236 288
#     4   9  17  28  45  68  97 137 178 208 245 298
#     4   8  13  22  36  54  84 128 170 200 236 289
#     4  10  19  34  56  78 102 135 171 209 252 301
#     4  11  23  39  58  79 102 129 166 209 256 309
#     4  10  20  34  53  78 105 135 170 209 253 303
#     4   9  18  29  46  72 102 134 169 209 248 295
#
# _framework density 21.143515000000001
#
# number of rings (size 3 to 8) (size 9 to 14) (size 15 to 20)
#    0.000    2.750    1.250    1.875    1.750    4.000 
#    0.000    3.125    0.000    0.000    0.000    0.000 
#    0.000    2.000    0.000    6.625    0.000    6.750 
#
# Total GULP energy -396471.490492 kJ/mol
# GULP energy per Si atom -12389.734078 kJ/mol
# Density = 2.109539 g / cm^3
# Si number density = 21.143515 Si / 1000 Ang^3
#
#
#
# Elastic Constant Matrix: (Units=GPa)
#
#
# Indices 1 2 3 4 5 6 
#
# 1 95.5614 3.5408 33.9034 0.0000 -6.5673 0.0000
# 2 3.5408 8.3038 -3.9665 0.0000 -1.2530 0.0000
# 3 33.9034 -3.9665 141.3052 0.0000 -9.2466 0.0000
# 4 0.0000 0.0000 0.0000 -2.4948 0.0000 -0.3419
# 5 -6.5673 -1.2530 -9.2466 0.0000 35.2456 0.0000
# 6 0.0000 0.0000 0.0000 -0.3419 0.0000 5.9317
#
#
#
# Elastic Compliance Matrix: (Units=1/GPa)
#
#
# Indices 1 2 3 4 5 6 
#
# 1 0.011820 -0.006258 -0.002932 0.000000 0.001211 0.000000
# 2 -0.006258 0.126369 0.005358 0.000000 0.004732 0.000000
# 3 -0.002932 0.005358 0.008046 0.000000 0.001755 0.000000
# 4 0.000000 0.000000 0.000000 -0.397686 0.000000 -0.022924
# 5 0.001211 0.004732 0.001755 0.000000 0.029227 0.000000
# 6 0.000000 0.000000 0.000000 -0.022924 0.000000 0.167266
#
#
# Mechanical properties :
#
#
# Convention : Reuss Voigt Hill
#
# Bulk Modulus (GPa) = 7.21657 34.68065 20.94861
# Shear Modulus (GPa) = -4525.51812 21.84932 -2251.83440
#
# Velocity S-wave (km/s) = -46.31444 3.21811 -32.67010
# Velocity P-wave (km/s) = 53.44732 5.49968 37.59235
#
# Compressibility (1/GPa) = 0.13857007
#
# Stress axis : x y z
#
# Youngs Moduli (GPa) = 84.60291 7.91335 124.28996
#
# Poissons Ratio (x) = 0.04952 0.36447
# Poissons Ratio (y) = 0.52946 -0.66600
# Poissons Ratio (z) = 0.24809 -0.04240
#
# Static dielectric constant tensor:
#      x y z
#    x 4.125740 0.000000 0.034790 
#    y 0.000000 2.992120 0.000000 
#    z 0.034790 0.000000 4.051040 
# 
# 
# High freq. dielectric constant tensor:
#      x y z
#    x 1.831820 0.000000 0.001710 
#    y 0.000000 1.746550 0.000000 
#    z 0.001710 0.000000 1.844710 
# 
# From -- ./inp_files/83638.got.cif
#   From: 2010.06.25/outbox.cif.g09.slc.cpg/sg10_42_cif.got.tgz:83638.got - 2010.06.27 22:07:45.
