data_PCOD8061966
_publ_section_title
;
Structure prediction by ZEFSAII (Michael W. Deem and Ramdas Pophale) SiO2 
 PCOD8061966
Probable space group: P 2/M
;
_chemical_formula_sum "Si O2"
_cell_formula_units_Z 32
_cell_length_a 12.652640
_cell_length_b 9.062072
_cell_length_c 31.088003
_cell_angle_alpha 90.000000
_cell_angle_beta 152.211809
_cell_angle_gamma 90.000000
_cell_volume 1661.796240
_symmetry_space_group_name_H-M "P 2/M"
_symmetry_group_IT_number 10
_symmetry_cell_setting 'monoclinic'
loop_
_space_group_symop_operation_xyz
x,y,z
-x,y,-z
-x,-y,-z
x,-y,z
loop_
_atom_site_type_symbol
_atom_site_label
_atom_site_fract_x
_atom_site_fract_y
_atom_site_fract_z
Si Si1 0.028749 0.829922 0.365503
Si Si2 0.946441 0.174886 0.723937
Si Si3 0.085596 0.167156 0.158553
Si Si4 0.352170 0.325894 0.717562
Si Si5 0.447116 0.169677 0.573526
Si Si6 0.234804 0.329389 0.898830
Si Si7 0.540534 0.325832 0.339082
Si Si8 0.194187 0.167333 0.100362
O O1 0.019146 0.775090 0.312974
O O2 0.284479 0.806657 0.474141
O O3 0.863135 0.734828 0.335308
O O4 0.954842 0.000000 0.342718
O O5 0.697384 0.225026 0.650219
O O6 0.140563 0.254342 0.821503
O O7 0.973562 0.000000 0.737941
O O8 0.292677 0.256833 0.252706
O O9 0.082727 0.171327 0.106703
O O10 0.861245 0.247097 0.093992
O O11 0.097403 0.000000 0.180489
O O12 0.359996 0.500000 0.724857
O O13 0.337877 0.278779 0.661866
O O14 0.579937 0.263724 0.821293
O O15 0.339178 0.261036 0.574991
O O16 0.452812 0.000000 0.589731
O O17 0.163526 0.500000 0.872756
O O18 0.500000 0.309027 0.000000
O O19 0.526315 0.500000 0.337333
O O20 0.256155 0.000000 0.109054
O O21 0.000000 0.234932 0.000000
#
# Coordination Sequence:
#
# PCOD8061966 Si02
#       8
#     4   4   4   4   4   4   4   4
#     4  10  22  39  59  85 119 155 191 239 293 346
#     4  10  21  39  62  86 114 150 195 243 289 341
#     4  10  19  34  57  82 109 144 187 235 284 337
#     4  10  22  38  55  81 118 156 193 235 287 344
#     4  10  20  36  61  89 114 148 194 240 291 346
#     4  11  24  39  56  83 118 153 189 233 288 343
#     4  10  20  35  57  83 114 150 188 235 285 336
#     4   9  19  36  59  85 111 144 190 240 288 342
#
# _framework density 19.256271000000002
#
# number of rings (size 3 to 8) (size 9 to 14) (size 15 to 20)
#    0.000    2.000    1.250    1.875    0.000    7.250 
#    0.000    6.250    0.000    2.250    0.000    0.000 
#    0.000    0.000    0.000    0.000    0.000    0.000 
#
# Total GULP energy -396802.989291 kJ/mol
# GULP energy per Si atom -12400.093415 kJ/mol
# Density = 1.921244 g / cm^3
# Si number density = 19.256271 Si / 1000 Ang^3
#
#
#
# Elastic Constant Matrix: (Units=GPa)
#
#
# Indices 1 2 3 4 5 6 
#
# 1 109.3760 44.3098 47.4361 0.0000 1.2791 0.0000
# 2 44.3098 63.7440 36.6292 0.0000 -2.8365 0.0000
# 3 47.4361 36.6292 97.3670 0.0000 -12.6737 0.0000
# 4 0.0000 0.0000 0.0000 20.4347 0.0000 4.2691
# 5 1.2791 -2.8365 -12.6737 0.0000 23.7876 0.0000
# 6 0.0000 0.0000 0.0000 4.2691 0.0000 29.6265
#
#
#
# Elastic Compliance Matrix: (Units=1/GPa)
#
#
# Indices 1 2 3 4 5 6 
#
# 1 0.014210 -0.007366 -0.004691 0.000000 -0.004142 0.000000
# 2 -0.007366 0.023901 -0.005351 0.000000 0.000395 0.000000
# 3 -0.004691 -0.005351 0.015600 0.000000 0.007926 0.000000
# 4 0.000000 0.000000 0.000000 0.050455 0.000000 -0.007271
# 5 -0.004142 0.000395 0.007926 0.000000 0.046531 0.000000
# 6 0.000000 0.000000 0.000000 -0.007271 0.000000 0.034801
#
#
# Mechanical properties :
#
#
# Convention : Reuss Voigt Hill
#
# Bulk Modulus (GPa) = 52.92556 58.58193 55.75374
# Shear Modulus (GPa) = 22.06400 24.24389 23.15395
#
# Velocity S-wave (km/s) = 3.38865 3.55211 3.47134
# Velocity P-wave (km/s) = 6.54638 6.87834 6.71441
#
# Compressibility (1/GPa) = 0.01889446
#
# Stress axis : x y z
#
# Youngs Moduli (GPa) = 70.37392 41.83961 64.10071
#
# Poissons Ratio (x) = 0.30821 0.30068
# Poissons Ratio (y) = 0.51840 0.34301
# Poissons Ratio (z) = 0.33011 0.22389
#
# Static dielectric constant tensor:
#      x y z
#    x 3.657320 0.000000 -0.184370 
#    y 0.000000 3.534850 0.000000 
#    z -0.184370 0.000000 3.533050 
# 
# 
# High freq. dielectric constant tensor:
#      x y z
#    x 1.756340 0.000000 -0.009420 
#    y 0.000000 1.747540 0.000000 
#    z -0.009420 0.000000 1.746790 
# 
# From -- ./inp_files/95041.got.cif
#   From: 2010.06.25/outbox.cif.g09.slc.cpg/sg10_48_cif.got.tgz:95041.got - 2010.06.27 22:07:45.
