data_PCOD8061144
_publ_section_title
;
Structure prediction by ZEFSAII (Michael W. Deem and Ramdas Pophale) SiO2 
 PCOD8061144
Probable space group: P 2/M
;
_chemical_formula_sum "Si O2"
_cell_formula_units_Z 32
_cell_length_a 11.614780
_cell_length_b 8.715370
_cell_length_c 21.134376
_cell_angle_alpha 90.000000
_cell_angle_beta 120.585914
_cell_angle_gamma 90.000000
_cell_volume 1841.714814
_symmetry_space_group_name_H-M "P 2/M"
_symmetry_group_IT_number 10
_symmetry_cell_setting 'monoclinic'
loop_
_space_group_symop_operation_xyz
x,y,z
-x,y,-z
-x,-y,-z
x,-y,z
loop_
_atom_site_type_symbol
_atom_site_label
_atom_site_fract_x
_atom_site_fract_y
_atom_site_fract_z
Si Si1 0.543080 0.828896 0.415276
Si Si2 0.130781 0.320207 0.280023
Si Si3 0.119053 0.181313 0.849245
Si Si4 0.363516 0.820971 0.117335
Si Si5 0.360358 0.816765 0.260414
Si Si6 0.112984 0.679174 0.981584
Si Si7 0.416436 0.821214 0.918577
Si Si8 0.717108 0.826907 0.571289
O O1 0.493513 0.752325 0.335144
O O2 0.666248 0.751936 0.489479
O O3 0.410838 0.833483 0.420133
O O4 0.593728 0.000000 0.415627
O O5 0.140069 0.500000 0.274384
O O6 0.224843 0.245422 0.253120
O O7 0.170860 0.275765 0.363298
O O8 0.980710 0.262629 0.227366
O O9 0.081252 0.224324 0.910232
O O10 0.266899 0.246942 0.874145
O O11 0.107176 0.000000 0.836925
O O12 0.370449 0.761687 0.191140
O O13 0.508175 0.791109 0.126433
O O14 0.324118 0.000000 0.102309
O O15 0.256422 0.722714 0.049426
O O16 0.357226 0.000000 0.265068
O O17 0.109790 0.500000 0.964103
O O18 0.000000 0.724657 0.000000
O O19 0.400721 0.000000 0.928987
O O20 0.500000 0.746130 0.000000
O O21 0.772510 0.000000 0.577171
#
# Coordination Sequence:
#
# PCOD8061144 Si02
#       8
#     4   4   4   4   4   4   4   4
#     4   7  11  22  42  67  93 122 156 194 224 266
#     4  11  21  31  44  68 103 129 155 195 236 275
#     4  11  21  35  54  69  89 122 160 196 236 284
#     4  10  19  33  53  73  92 121 158 194 233 282
#     4   9  17  30  49  72  98 128 161 189 229 284
#     4  11  23  35  47  68  99 127 152 188 233 277
#     4   9  17  33  54  74  91 111 151 206 245 271
#     4   8  13  25  44  64  91 127 162 188 226 276
#
# _framework density 17.375112000000001
#
# number of rings (size 3 to 8) (size 9 to 14) (size 15 to 20)
#    0.000    2.500    1.250    4.125    0.000    3.500 
#    0.000    6.875    0.000    0.000    0.000    0.875 
#    0.000    7.000    0.000    0.000    0.000    0.000 
#
# Total GULP energy -396519.457776 kJ/mol
# GULP energy per Si atom -12391.233055 kJ/mol
# Density = 1.733557 g / cm^3
# Si number density = 17.375112 Si / 1000 Ang^3
#
#
#
# Elastic Constant Matrix: (Units=GPa)
#
#
# Indices 1 2 3 4 5 6 
#
# 1 56.6879 9.3790 27.6098 0.0000 18.2311 0.0000
# 2 9.3790 33.8815 19.9503 0.0000 4.0879 0.0000
# 3 27.6098 19.9503 140.3993 0.0000 19.3860 0.0000
# 4 0.0000 0.0000 0.0000 6.9024 0.0000 -3.1997
# 5 18.2311 4.0879 19.3860 0.0000 15.5349 0.0000
# 6 0.0000 0.0000 0.0000 -3.1997 0.0000 6.7554
#
#
#
# Elastic Compliance Matrix: (Units=1/GPa)
#
#
# Indices 1 2 3 4 5 6 
#
# 1 0.028917 -0.003705 -0.000736 0.000000 -0.032043 0.000000
# 2 -0.003705 0.032828 -0.004040 0.000000 0.000751 0.000000
# 3 -0.000736 -0.004040 0.009152 0.000000 -0.009495 0.000000
# 4 0.000000 0.000000 0.000000 0.185636 0.000000 0.087928
# 5 -0.032043 0.000751 -0.009495 0.000000 0.113626 0.000000
# 6 0.000000 0.000000 0.000000 0.087928 0.000000 0.189678
#
#
# Mechanical properties :
#
#
# Convention : Reuss Voigt Hill
#
# Bulk Modulus (GPa) = 18.54064 38.31632 28.42848
# Shear Modulus (GPa) = 8.40649 17.44051 12.92350
#
# Velocity S-wave (km/s) = 2.20199 3.17166 2.73022
# Velocity P-wave (km/s) = 4.14234 5.95927 5.13185
#
# Compressibility (1/GPa) = 0.05393558
#
# Stress axis : x y z
#
# Youngs Moduli (GPa) = 34.58184 30.46138 109.26248
#
# Poissons Ratio (x) = 0.11287 0.08038
# Poissons Ratio (y) = 0.12814 0.44141
# Poissons Ratio (z) = 0.02544 0.12306
#
# Static dielectric constant tensor:
#      x y z
#    x 3.012830 0.000000 -0.038550 
#    y 0.000000 2.978540 0.000000 
#    z -0.038550 0.000000 3.910850 
# 
# 
# High freq. dielectric constant tensor:
#      x y z
#    x 1.627870 0.000000 0.003240 
#    y 0.000000 1.643380 0.000000 
#    z 0.003240 0.000000 1.691280 
# 
# From -- ./inp_files/88558.got.cif
#   From: 2010.06.25/outbox.cif.g09.slc.cpg/sg10_45_cif.got.tgz:88558.got - 2010.06.27 22:07:45.
