data_PCOD8061638
_publ_section_title
;
Structure prediction by ZEFSAII (Michael W. Deem and Ramdas Pophale) SiO2 
 PCOD8061638
Probable space group: P 2/M
;
_chemical_formula_sum "Si O2"
_cell_formula_units_Z 28
_cell_length_a 12.064694
_cell_length_b 12.086268
_cell_length_c 19.869792
_cell_angle_alpha 90.000000
_cell_angle_beta 150.421233
_cell_angle_gamma 90.000000
_cell_volume 1430.191712
_symmetry_space_group_name_H-M "P 2/M"
_symmetry_group_IT_number 10
_symmetry_cell_setting 'monoclinic'
loop_
_space_group_symop_operation_xyz
x,y,z
-x,y,-z
-x,-y,-z
x,-y,z
loop_
_atom_site_type_symbol
_atom_site_label
_atom_site_fract_x
_atom_site_fract_y
_atom_site_fract_z
Si Si1 0.245211 0.124778 0.375034
Si Si2 0.050054 0.275040 0.385459
Si Si3 0.523660 0.770740 0.302251
Si Si4 0.113644 0.125284 0.156874
Si Si5 0.182597 0.500000 0.777201
Si Si6 0.832478 0.332487 0.964832
Si Si7 0.691709 0.500000 0.001244
Si Si8 0.797157 0.880760 0.341765
O O1 0.500000 0.165497 0.500000
O O2 0.119183 0.209154 0.356194
O O3 0.104979 0.127541 0.232532
O O4 0.245792 0.000000 0.405925
O O5 0.260952 0.281393 0.547275
O O6 0.965337 0.395845 0.322215
O O7 0.840439 0.211399 0.308174
O O8 0.364620 0.835862 0.269853
O O9 0.398264 0.670438 0.198815
O O10 0.581118 0.854242 0.272192
O O11 0.067294 0.000000 0.106457
O O12 0.925912 0.208163 0.028459
O O13 0.421107 0.500000 0.864092
O O14 0.208857 0.500000 0.871519
O O15 0.789036 0.394805 0.011972
O O16 0.000000 0.392795 0.000000
O O17 0.000000 0.886789 0.500000
O O18 0.762698 0.000000 0.287993
#
# Coordination Sequence:
#
# PCOD8061638 Si02
#       8
#     4   4   4   4   2   4   2   4
#     4  10  19  33  58  84 115 156 188 232 289 344
#     4  11  21  38  56  86 119 148 197 242 288 347
#     4  10  20  34  56  86 122 150 184 238 293 347
#     4  10  20  35  57  89 122 155 194 232 284 349
#     4  11  26  41  65  84 108 155 198 249 292 334
#     4  10  22  38  61  85 112 154 194 237 290 346
#     4  11  23  47  64  79 109 152 205 244 290 344
#     4   9  18  31  52  81 114 152 185 225 282 345
#
# _framework density 19.577795999999999
#
# number of rings (size 3 to 8) (size 9 to 14) (size 15 to 20)
#    0.000    1.857    1.429    2.786    0.000    4.857 
#    0.000    5.000    0.000    0.000    0.000    9.000 
#    0.000    0.000    0.000    0.000    0.000    0.000 
#
# Total GULP energy -347048.860863 kJ/mol
# GULP energy per Si atom -12394.602174 kJ/mol
# Density = 1.953324 g / cm^3
# Si number density = 19.577796 Si / 1000 Ang^3
#
#
#
# Elastic Constant Matrix: (Units=GPa)
#
#
# Indices 1 2 3 4 5 6 
#
# 1 130.3156 72.0549 42.5421 0.0000 4.5202 0.0000
# 2 72.0549 148.7560 50.0957 0.0000 2.6706 0.0000
# 3 42.5421 50.0957 88.7962 0.0000 0.0571 0.0000
# 4 0.0000 0.0000 0.0000 17.2038 0.0000 -9.4232
# 5 4.5202 2.6706 0.0571 0.0000 26.8017 0.0000
# 6 0.0000 0.0000 0.0000 -9.4232 0.0000 39.3389
#
#
#
# Elastic Compliance Matrix: (Units=1/GPa)
#
#
# Indices 1 2 3 4 5 6 
#
# 1 0.011071 -0.004384 -0.002830 0.000000 -0.001424 0.000000
# 2 -0.004384 0.010053 -0.003571 0.000000 -0.000255 0.000000
# 3 -0.002830 -0.003571 0.014632 0.000000 0.000802 0.000000
# 4 0.000000 0.000000 0.000000 0.066905 0.000000 0.016026
# 5 -0.001424 -0.000255 0.000802 0.000000 0.037575 0.000000
# 6 0.000000 0.000000 0.000000 0.016026 0.000000 0.029259
#
#
# Mechanical properties :
#
#
# Convention : Reuss Voigt Hill
#
# Bulk Modulus (GPa) = 70.49270 77.47257 73.98264
# Shear Modulus (GPa) = 25.53715 30.21390 27.87552
#
# Velocity S-wave (km/s) = 3.61556 3.93271 3.77747
# Velocity P-wave (km/s) = 7.31535 7.76397 7.54299
#
# Compressibility (1/GPa) = 0.01418587
#
# Stress axis : x y z
#
# Youngs Moduli (GPa) = 90.32667 99.47128 68.34487
#
# Poissons Ratio (x) = 0.43608 0.19340
# Poissons Ratio (y) = 0.39599 0.24407
# Poissons Ratio (z) = 0.25561 0.35522
#
# Static dielectric constant tensor:
#      x y z
#    x 4.035530 0.000000 0.379180 
#    y 0.000000 3.509410 0.000000 
#    z 0.379180 0.000000 3.805660 
# 
# 
# High freq. dielectric constant tensor:
#      x y z
#    x 1.777690 0.000000 0.001410 
#    y 0.000000 1.755510 0.000000 
#    z 0.001410 0.000000 1.753910 
# 
# From -- ./inp_files/84012.got.cif
#   From: 2010.06.25/outbox.cif.g09.slc.cpg/sg10_43_cif.got.tgz:84012.got - 2010.06.27 22:07:45.
