data_PCOD8061228
_publ_section_title
;
Structure prediction by ZEFSAII (Michael W. Deem and Ramdas Pophale) SiO2 
 PCOD8061228
Probable space group: P 2/M
;
_chemical_formula_sum "Si O2"
_cell_formula_units_Z 30
_cell_length_a 14.882554
_cell_length_b 12.218962
_cell_length_c 11.528838
_cell_angle_alpha 90.000000
_cell_angle_beta 129.576698
_cell_angle_gamma 90.000000
_cell_volume 1615.933493
_symmetry_space_group_name_H-M "P 2/M"
_symmetry_group_IT_number 10
_symmetry_cell_setting 'monoclinic'
loop_
_space_group_symop_operation_xyz
x,y,z
-x,y,-z
-x,-y,-z
x,-y,z
loop_
_atom_site_type_symbol
_atom_site_label
_atom_site_fract_x
_atom_site_fract_y
_atom_site_fract_z
Si Si1 0.628839 0.874354 0.565643
Si Si2 0.000000 0.223509 0.000000
Si Si3 0.255808 0.739572 0.539807
Si Si4 0.780440 0.875778 0.916341
Si Si5 0.806228 0.283011 0.136277
Si Si6 0.050158 0.372755 0.246408
Si Si7 0.863512 0.118654 0.383518
Si Si8 0.623054 0.374843 0.146692
O O1 0.500000 0.844856 0.500000
O O2 0.664613 0.788103 0.496666
O O3 0.709535 0.855880 0.742158
O O4 0.636958 0.000000 0.527128
O O5 0.084031 0.142515 0.999785
O O6 0.068935 0.301580 0.146040
O O7 0.160945 0.650034 0.420044
O O8 0.181967 0.839341 0.530602
O O9 0.338545 0.689072 0.706351
O O10 0.762668 0.000000 0.948965
O O11 0.745516 0.782460 0.980318
O O12 0.827537 0.194077 0.250207
O O13 0.715387 0.368521 0.116501
O O14 0.926089 0.344165 0.203217
O O15 0.049905 0.500000 0.213592
O O16 0.000000 0.110261 0.500000
O O17 0.807627 0.000000 0.315563
O O18 0.607848 0.500000 0.170997
O O19 0.500000 0.326426 0.000000
#
# Coordination Sequence:
#
# PCOD8061228 Si02
#       8
#     4   2   4   4   4   4   4   4
#     4  10  22  39  60  84 114 151 193 235 280 338
#     4  10  20  36  52  84 116 152 182 226 280 336
#     4  11  21  38  60  84 114 150 189 236 287 341
#     4  10  20  35  58  85 115 147 185 226 279 342
#     4  10  21  36  57  84 115 149 184 230 282 339
#     4  11  21  35  56  83 113 148 188 234 284 337
#     4  10  19  33  53  83 118 146 178 223 279 345
#     4  10  23  41  61  82 109 149 195 240 285 331
#
# _framework density 18.56512
#
# number of rings (size 3 to 8) (size 9 to 14) (size 15 to 20)
#    0.000    1.733    2.667    2.000    1.867    0.000 
#    0.000    2.000    0.000    4.000    0.000    0.000 
#    0.000    0.000    0.000    0.000    0.000    0.000 
#
# Total GULP energy -371943.777071 kJ/mol
# GULP energy per Si atom -12398.125902 kJ/mol
# Density = 1.852287 g / cm^3
# Si number density = 18.565120 Si / 1000 Ang^3
#
#
#
# Elastic Constant Matrix: (Units=GPa)
#
#
# Indices 1 2 3 4 5 6 
#
# 1 82.5660 30.3131 30.2050 0.0000 -0.2243 0.0000
# 2 30.3131 83.6944 35.3310 0.0000 2.4769 0.0000
# 3 30.2050 35.3310 95.7596 0.0000 3.2730 0.0000
# 4 0.0000 0.0000 0.0000 19.7308 0.0000 -1.1815
# 5 -0.2243 2.4769 3.2730 0.0000 26.6937 0.0000
# 6 0.0000 0.0000 0.0000 -1.1815 0.0000 21.0826
#
#
#
# Elastic Compliance Matrix: (Units=1/GPa)
#
#
# Indices 1 2 3 4 5 6 
#
# 1 0.014762 -0.004021 -0.003203 0.000000 0.000890 0.000000
# 2 -0.004021 0.015260 -0.004331 0.000000 -0.000919 0.000000
# 3 -0.003203 -0.004331 0.013093 0.000000 -0.001230 0.000000
# 4 0.000000 0.000000 0.000000 0.050853 0.000000 0.002850
# 5 0.000890 -0.000919 -0.001230 0.000000 0.037706 0.000000
# 6 0.000000 0.000000 0.000000 0.002850 0.000000 0.047592
#
#
# Mechanical properties :
#
#
# Convention : Reuss Voigt Hill
#
# Bulk Modulus (GPa) = 49.98557 50.41312 50.19934
# Shear Modulus (GPa) = 23.91856 24.57950 24.24903
#
# Velocity S-wave (km/s) = 3.59327 3.64258 3.61801
# Velocity P-wave (km/s) = 6.64818 6.70111 6.67470
#
# Compressibility (1/GPa) = 0.02000577
#
# Stress axis : x y z
#
# Youngs Moduli (GPa) = 67.74183 65.53173 76.37649
#
# Poissons Ratio (x) = 0.26348 0.24465
# Poissons Ratio (y) = 0.27237 0.33075
# Poissons Ratio (z) = 0.21699 0.28379
#
# Static dielectric constant tensor:
#      x y z
#    x 5.120320 0.000000 1.882360 
#    y 0.000000 3.575510 0.000000 
#    z 1.882360 0.000000 5.802300 
# 
# 
# High freq. dielectric constant tensor:
#      x y z
#    x 1.717840 0.000000 -0.004790 
#    y 0.000000 1.722590 0.000000 
#    z -0.004790 0.000000 1.725230 
# 
# From -- ./inp_files/51096.got.cif
#   From: 2010.06.25/outbox.cif.g09.slc.cpg/sg10_26_cif.got.tgz:51096.got - 2010.06.27 22:07:45.
