data_PCOD8061841
_publ_section_title
;
Structure prediction by ZEFSAII (Michael W. Deem and Ramdas Pophale) SiO2 
 PCOD8061841
Probable space group: P 2/M
;
_chemical_formula_sum "Si O2"
_cell_formula_units_Z 30
_cell_length_a 9.126672
_cell_length_b 18.363239
_cell_length_c 10.996255
_cell_angle_alpha 90.000000
_cell_angle_beta 127.323835
_cell_angle_gamma 90.000000
_cell_volume 1465.529442
_symmetry_space_group_name_H-M "P 2/M"
_symmetry_group_IT_number 10
_symmetry_cell_setting 'monoclinic'
loop_
_space_group_symop_operation_xyz
x,y,z
-x,y,-z
-x,-y,-z
x,-y,z
loop_
_atom_site_type_symbol
_atom_site_label
_atom_site_fract_x
_atom_site_fract_y
_atom_site_fract_z
Si Si1 0.146081 0.215858 0.778256
Si Si2 0.000000 0.313703 0.500000
Si Si3 0.308452 0.645434 0.961727
Si Si4 0.199829 0.083181 0.658501
Si Si5 0.459148 0.916929 0.342663
Si Si6 0.935725 0.416938 0.673739
Si Si7 0.799444 0.648379 0.839604
Si Si8 0.149784 0.196056 0.178600
O O1 0.267054 0.266897 0.929959
O O2 0.238698 0.138368 0.790395
O O3 0.130382 0.262132 0.645684
O O4 0.950196 0.195297 0.740126
O O5 0.881344 0.365474 0.532147
O O6 0.146303 0.600190 0.816129
O O7 0.500000 0.623028 0.000000
O O8 0.330317 0.622106 0.115021
O O9 0.356341 0.098747 0.638942
O O10 0.000000 0.099672 0.500000
O O11 0.208331 0.000000 0.711037
O O12 0.500000 0.895401 0.500000
O O13 0.287264 0.868941 0.216496
O O14 0.395849 0.000000 0.296856
O O15 0.915288 0.500000 0.622563
O O16 0.801323 0.403567 0.722285
O O17 0.736845 0.728579 0.766877
O O18 0.000000 0.654045 0.000000
O O19 0.000000 0.189943 0.000000
#
# Coordination Sequence:
#
# PCOD8061841 Si02
#       8
#     4   2   4   4   4   4   4   4
#     4  11  20  34  59  82 117 156 194 247 301 352
#     4  10  19  34  55  90 114 142 204 236 289 368
#     4  10  21  35  56  85 117 150 196 247 293 361
#     4  10  21  37  57  84 118 157 202 249 299 358
#     4  10  23  39  57  87 121 157 205 253 305 368
#     4  10  20  36  60  84 115 152 189 243 299 360
#     4   9  17  36  55  83 110 148 197 238 287 360
#     4  11  20  38  61  85 118 158 203 257 301 356
#
# _framework density 20.470417000000001
#
# number of rings (size 3 to 8) (size 9 to 14) (size 15 to 20)
#    0.000    1.867    6.000    1.000    1.867    4.533 
#    0.000    0.000    0.000    2.000    0.000    4.667 
#    0.000    0.000    0.000    0.000    0.000    0.000 
#
# Total GULP energy -371786.934371 kJ/mol
# GULP energy per Si atom -12392.897812 kJ/mol
# Density = 2.042383 g / cm^3
# Si number density = 20.470417 Si / 1000 Ang^3
#
#
#
# Elastic Constant Matrix: (Units=GPa)
#
#
# Indices 1 2 3 4 5 6 
#
# 1 129.5266 34.1354 38.8055 0.0000 -21.0398 0.0000
# 2 34.1354 106.7754 29.1274 0.0000 -8.5077 0.0000
# 3 38.8055 29.1274 44.6958 0.0000 -17.4139 0.0000
# 4 0.0000 0.0000 0.0000 19.4922 0.0000 -9.0183
# 5 -21.0398 -8.5077 -17.4139 0.0000 33.0551 0.0000
# 6 0.0000 0.0000 0.0000 -9.0183 0.0000 20.6196
#
#
#
# Elastic Compliance Matrix: (Units=1/GPa)
#
#
# Indices 1 2 3 4 5 6 
#
# 1 0.010698 -0.001160 -0.007544 0.000000 0.002537 0.000000
# 2 -0.001160 0.011556 -0.007112 0.000000 -0.001511 0.000000
# 3 -0.007544 -0.007112 0.038974 0.000000 0.013899 0.000000
# 4 0.000000 0.000000 0.000000 0.064318 0.000000 0.028130
# 5 0.002537 -0.001511 0.013899 0.000000 0.038801 0.000000
# 6 0.000000 0.000000 0.000000 0.028130 0.000000 0.060801
#
#
# Mechanical properties :
#
#
# Convention : Reuss Voigt Hill
#
# Bulk Modulus (GPa) = 33.78956 53.90384 43.84670
# Shear Modulus (GPa) = 18.75145 26.56199 22.65672
#
# Velocity S-wave (km/s) = 3.02988 3.60610 3.33047
# Velocity P-wave (km/s) = 5.36494 6.61274 6.02125
#
# Compressibility (1/GPa) = 0.02959494
#
# Stress axis : x y z
#
# Youngs Moduli (GPa) = 93.47195 86.53410 25.65825
#
# Poissons Ratio (x) = 0.10039 0.19357
# Poissons Ratio (y) = 0.10844 0.18249
# Poissons Ratio (z) = 0.70517 0.61547
#
# Static dielectric constant tensor:
#      x y z
#    x 3.959030 0.000000 -0.433280 
#    y 0.000000 3.783350 0.000000 
#    z -0.433280 0.000000 3.471900 
# 
# 
# High freq. dielectric constant tensor:
#      x y z
#    x 1.800300 0.000000 -0.033970 
#    y 0.000000 1.802440 0.000000 
#    z -0.033970 0.000000 1.765660 
# 
# From -- ./inp_files/43421.got.cif
#   From: 2010.06.25/outbox.cif.g09.slc.cpg/sg10_22_cif.got.tgz:43421.got - 2010.06.27 22:07:45.
