data_PCOD8061728
_publ_section_title
;
Structure prediction by ZEFSAII (Michael W. Deem and Ramdas Pophale) SiO2 
 PCOD8061728
Probable space group: P 2/M
;
_chemical_formula_sum "Si O2"
_cell_formula_units_Z 32
_cell_length_a 21.735558
_cell_length_b 8.727488
_cell_length_c 11.739792
_cell_angle_alpha 90.000000
_cell_angle_beta 56.476257
_cell_angle_gamma 90.000000
_cell_volume 1856.555233
_symmetry_space_group_name_H-M "P 2/M"
_symmetry_group_IT_number 10
_symmetry_cell_setting 'monoclinic'
loop_
_space_group_symop_operation_xyz
x,y,z
-x,y,-z
-x,-y,-z
x,-y,z
loop_
_atom_site_type_symbol
_atom_site_label
_atom_site_fract_x
_atom_site_fract_y
_atom_site_fract_z
Si Si1 0.632252 0.818677 0.136043
Si Si2 0.232173 0.323591 0.405650
Si Si3 0.584158 0.319103 0.414498
Si Si4 0.930276 0.324730 0.455095
Si Si5 0.642502 0.179846 0.582330
Si Si6 0.767520 0.179950 0.842098
Si Si7 0.504485 0.181561 0.869301
Si Si8 0.070526 0.823889 0.303266
O O1 0.630826 0.743147 0.260920
O O2 0.562696 0.753919 0.136667
O O3 0.628323 0.000000 0.154913
O O4 0.705925 0.767723 0.994845
O O5 0.256547 0.500000 0.388768
O O6 0.146615 0.302808 0.533340
O O7 0.278603 0.223878 0.446813
O O8 0.243847 0.270140 0.263923
O O9 0.500000 0.253640 0.500000
O O10 0.582350 0.500000 0.411444
O O11 0.628335 0.266460 0.479847
O O12 0.937448 0.500000 0.488707
O O13 0.928910 0.210799 0.563063
O O14 0.004868 0.275403 0.308951
O O15 0.581165 0.233184 0.735636
O O16 0.638901 0.000000 0.562412
O O17 0.846312 0.217995 0.822212
O O18 0.761243 0.000000 0.819467
O O19 0.498094 0.000000 0.883108
O O20 0.500000 0.253409 0.000000
O O21 0.053021 0.000000 0.297476
#
# Coordination Sequence:
#
# PCOD8061728 Si02
#       8
#     4   4   4   4   4   4   4   4
#     4  10  19  34  54  73  97 128 169 208 242 290
#     4  10  20  32  47  71 105 137 165 202 248 297
#     4  11  23  38  54  72  98 126 161 210 257 295
#     4   9  16  26  41  63  94 134 169 194 232 289
#     4  11  21  34  54  74  95 127 169 208 247 292
#     4   9  18  31  49  74 103 134 166 204 246 292
#     4   9  17  29  48  73  97 123 157 196 236 283
#     4   9  15  24  41  67  97 128 163 201 240 280
#
# _framework density 17.236225000000001
#
# number of rings (size 3 to 8) (size 9 to 14) (size 15 to 20)
#    0.000    2.250    1.250    3.375    0.000    5.000 
#    0.000    0.000    0.000    1.875    0.000    0.875 
#    0.000    7.000    0.000    0.000    0.000    0.000 
#
# Total GULP energy -396645.311992 kJ/mol
# GULP energy per Si atom -12395.166000 kJ/mol
# Density = 1.719699 g / cm^3
# Si number density = 17.236225 Si / 1000 Ang^3
#
#
#
# Elastic Constant Matrix: (Units=GPa)
#
#
# Indices 1 2 3 4 5 6 
#
# 1 108.9932 18.4338 50.3005 0.0000 -17.1525 0.0000
# 2 18.4338 33.5331 14.0444 0.0000 -4.6987 0.0000
# 3 50.3005 14.0444 51.0712 0.0000 4.6605 0.0000
# 4 0.0000 0.0000 0.0000 13.7959 0.0000 -2.0465
# 5 -17.1525 -4.6987 4.6605 0.0000 29.3091 0.0000
# 6 0.0000 0.0000 0.0000 -2.0465 0.0000 26.5604
#
#
#
# Elastic Compliance Matrix: (Units=1/GPa)
#
#
# Indices 1 2 3 4 5 6 
#
# 1 0.023210 -0.000081 -0.024431 0.000000 0.017455 0.000000
# 2 -0.000081 0.035171 -0.010251 0.000000 0.007221 0.000000
# 3 -0.024431 -0.010251 0.048621 0.000000 -0.023672 0.000000
# 4 0.000000 0.000000 0.000000 0.073323 0.000000 0.005650
# 5 0.017455 0.007221 -0.023672 0.000000 0.049256 0.000000
# 6 0.000000 0.000000 0.000000 0.005650 0.000000 0.038085
#
#
# Mechanical properties :
#
#
# Convention : Reuss Voigt Hill
#
# Bulk Modulus (GPa) = 26.68263 39.90613 33.29438
# Shear Modulus (GPa) = 14.29857 21.32099 17.80978
#
# Velocity S-wave (km/s) = 2.88334 3.52090 3.21795
# Velocity P-wave (km/s) = 5.15743 6.30331 5.75894
#
# Compressibility (1/GPa) = 0.03747756
#
# Stress axis : x y z
#
# Youngs Moduli (GPa) = 43.08437 28.43247 20.56705
#
# Poissons Ratio (x) = 0.00231 0.50246
# Poissons Ratio (y) = 0.00350 0.21083
# Poissons Ratio (z) = 1.05257 0.29146
#
# Static dielectric constant tensor:
#      x y z
#    x 3.519730 0.000000 -0.436340 
#    y 0.000000 3.109820 0.000000 
#    z -0.436340 0.000000 3.200370 
# 
# 
# High freq. dielectric constant tensor:
#      x y z
#    x 1.668090 0.000000 -0.028230 
#    y 0.000000 1.662260 0.000000 
#    z -0.028230 0.000000 1.634240 
# 
# From -- ./inp_files/54847.got.cif
#   From: 2010.06.25/outbox.cif.g09.slc.cpg/sg10_28_cif.got.tgz:54847.got - 2010.06.27 22:07:45.
