data_PCOD8061567
_publ_section_title
;
Structure prediction by ZEFSAII (Michael W. Deem and Ramdas Pophale) SiO2 
 PCOD8061567
Probable space group: P 2/M
;
_chemical_formula_sum "Si O2"
_cell_formula_units_Z 32
_cell_length_a 11.834937
_cell_length_b 9.260322
_cell_length_c 29.073777
_cell_angle_alpha 90.000000
_cell_angle_beta 151.366331
_cell_angle_gamma 90.000000
_cell_volume 1526.923536
_symmetry_space_group_name_H-M "P 2/M"
_symmetry_group_IT_number 10
_symmetry_cell_setting 'monoclinic'
loop_
_space_group_symop_operation_xyz
x,y,z
-x,y,-z
-x,-y,-z
x,-y,z
loop_
_atom_site_type_symbol
_atom_site_label
_atom_site_fract_x
_atom_site_fract_y
_atom_site_fract_z
Si Si1 0.899801 0.160841 0.381787
Si Si2 0.565266 0.331077 0.793978
Si Si3 0.645429 0.659035 0.597560
Si Si4 0.596264 0.835131 0.413733
Si Si5 0.943318 0.164008 0.291806
Si Si6 0.311468 0.832332 0.970631
Si Si7 0.207102 0.163646 0.200159
Si Si8 0.475006 0.330196 0.115833
O O1 0.687995 0.271747 0.313517
O O2 0.003094 0.173318 0.367022
O O3 0.122969 0.188578 0.495545
O O4 0.796469 0.000000 0.353322
O O5 0.559901 0.500000 0.783878
O O6 0.775429 0.263943 0.838760
O O7 0.619040 0.293286 0.866490
O O8 0.500000 0.640314 0.500000
O O9 0.747316 0.500000 0.647461
O O10 0.471380 0.714878 0.574075
O O11 0.842152 0.780808 0.662073
O O12 0.439547 0.805243 0.313013
O O13 0.555823 0.000000 0.416827
O O14 0.736164 0.270776 0.204283
O O15 0.882754 0.000000 0.255378
O O16 0.036090 0.807838 0.857741
O O17 0.368437 0.000000 0.999583
O O18 0.500000 0.772599 0.000000
O O19 0.322255 0.748011 0.022575
O O20 0.204546 0.000000 0.181504
O O21 0.473491 0.500000 0.106143
#
# Coordination Sequence:
#
# PCOD8061567 Si02
#       8
#     4   4   4   4   4   4   4   4
#     4   9  18  34  57  85 117 154 201 247 294 351
#     4  10  22  40  63  90 123 158 200 250 303 367
#     4  11  22  33  50  81 122 164 204 252 304 359
#     4  10  21  37  57  84 117 162 210 251 300 358
#     4  10  19  33  56  84 116 156 203 250 296 356
#     4  10  23  43  65  93 124 158 200 248 307 368
#     4  10  23  42  63  88 121 158 204 257 305 359
#     4  10  22  40  63  92 121 156 199 249 312 366
#
# _framework density 20.957173000000001
#
# number of rings (size 3 to 8) (size 9 to 14) (size 15 to 20)
#    0.000    2.000    1.250    1.500    1.750    5.250 
#    0.000    5.000    0.000    0.000    0.000    0.000 
#    0.000    0.000    0.000    0.000    0.000    0.000 
#
# Total GULP energy -396679.187036 kJ/mol
# GULP energy per Si atom -12396.224595 kJ/mol
# Density = 2.090947 g / cm^3
# Si number density = 20.957173 Si / 1000 Ang^3
#
#
#
# Elastic Constant Matrix: (Units=GPa)
#
#
# Indices 1 2 3 4 5 6 
#
# 1 102.4037 55.8264 34.0613 0.0000 11.6863 0.0000
# 2 55.8264 90.8009 28.4913 0.0000 -2.3790 0.0000
# 3 34.0613 28.4913 89.5220 0.0000 -3.2373 0.0000
# 4 0.0000 0.0000 0.0000 25.9696 0.0000 3.1673
# 5 11.6863 -2.3790 -3.2373 0.0000 23.1618 0.0000
# 6 0.0000 0.0000 0.0000 3.1673 0.0000 52.2483
#
#
#
# Elastic Compliance Matrix: (Units=1/GPa)
#
#
# Indices 1 2 3 4 5 6 
#
# 1 0.017675 -0.009901 -0.003953 0.000000 -0.010487 0.000000
# 2 -0.009901 0.017793 -0.001657 0.000000 0.006592 0.000000
# 3 -0.003953 -0.001657 0.013335 0.000000 0.003688 0.000000
# 4 0.000000 0.000000 0.000000 0.038793 0.000000 -0.002352
# 5 -0.010487 0.006592 0.003688 0.000000 0.049658 0.000000
# 6 0.000000 0.000000 0.000000 -0.002352 0.000000 0.019282
#
#
# Mechanical properties :
#
#
# Convention : Reuss Voigt Hill
#
# Bulk Modulus (GPa) = 56.24194 57.72052 56.98123
# Shear Modulus (GPa) = 25.84158 31.23244 28.53701
#
# Velocity S-wave (km/s) = 3.51531 3.86463 3.69410
# Velocity P-wave (km/s) = 6.58570 6.89316 6.74118
#
# Compressibility (1/GPa) = 0.01778032
#
# Stress axis : x y z
#
# Youngs Moduli (GPa) = 56.57833 56.20094 74.98899
#
# Poissons Ratio (x) = 0.55645 0.29643
# Poissons Ratio (y) = 0.56019 0.12428
# Poissons Ratio (z) = 0.22365 0.09314
#
# Static dielectric constant tensor:
#      x y z
#    x 3.525630 0.000000 -0.008390 
#    y 0.000000 3.814750 0.000000 
#    z -0.008390 0.000000 3.816270 
# 
# 
# High freq. dielectric constant tensor:
#      x y z
#    x 1.812610 0.000000 0.007210 
#    y 0.000000 1.819700 0.000000 
#    z 0.007210 0.000000 1.816300 
# 
# From -- ./inp_files/95094.got.cif
#   From: 2010.06.25/outbox.cif.g09.slc.cpg/sg10_48_cif.got.tgz:95094.got - 2010.06.27 22:07:45.
