data_PCOD8061238
_publ_section_title
;
Structure prediction by ZEFSAII (Michael W. Deem and Ramdas Pophale) SiO2 
 PCOD8061238
Probable space group: P 2/M
;
_chemical_formula_sum "Si O2"
_cell_formula_units_Z 28
_cell_length_a 9.029037
_cell_length_b 8.715038
_cell_length_c 29.018069
_cell_angle_alpha 90.000000
_cell_angle_beta 38.947634
_cell_angle_gamma 90.000000
_cell_volume 1435.358574
_symmetry_space_group_name_H-M "P 2/M"
_symmetry_group_IT_number 10
_symmetry_cell_setting 'monoclinic'
loop_
_space_group_symop_operation_xyz
x,y,z
-x,y,-z
-x,-y,-z
x,-y,z
loop_
_atom_site_type_symbol
_atom_site_label
_atom_site_fract_x
_atom_site_fract_y
_atom_site_fract_z
Si Si1 0.805801 0.817594 0.644294
Si Si2 0.234701 0.182190 0.071064
Si Si3 0.474177 0.183102 0.643254
Si Si4 0.908881 0.680767 0.071782
Si Si5 0.669938 0.816947 0.498945
Si Si6 0.601212 0.182239 0.791088
Si Si7 0.050042 0.182386 0.213466
O O1 0.636682 0.753219 0.645146
O O2 0.709073 0.761399 0.716717
O O3 0.068139 0.752201 0.573118
O O4 0.812021 0.000000 0.641132
O O5 0.073985 0.244453 0.069653
O O6 0.140621 0.245646 0.142614
O O7 0.224483 0.000000 0.072269
O O8 0.500000 0.242207 0.000000
O O9 0.576279 0.245528 0.570415
O O10 0.210723 0.247740 0.713859
O O11 0.472538 0.000000 0.643840
O O12 0.919742 0.500000 0.074717
O O13 0.645599 0.737386 0.141978
O O14 0.000000 0.734845 0.000000
O O15 0.500000 0.753999 0.500000
O O16 0.671428 0.000000 0.498417
O O17 0.775805 0.240028 0.788794
O O18 0.565778 0.000000 0.800703
O O19 0.043375 0.000000 0.214722
#
# Coordination Sequence:
#
# PCOD8061238 Si02
#       7
#     4   4   4   4   4   4   4
#     4   9  16  25  40  64  93 128 167 206 250 298
#     4  10  20  35  56  80 104 132 169 210 251 298
#     4   9  15  23  36  58  94 133 165 202 250 302
#     4  11  24  39  54  75 104 135 167 205 250 300
#     4   9  15  22  33  54  90 133 169 201 246 302
#     4  10  19  33  54  76 100 131 168 210 254 300
#     4   9  17  29  47  73 101 130 167 211 255 299
#
# _framework density 19.50732
#
# number of rings (size 3 to 8) (size 9 to 14) (size 15 to 20)
#    0.000    2.429    0.000    3.429    0.000   10.000 
#    0.000    0.714    0.000    0.000    0.000    0.000 
#    0.000   14.286    0.000    0.000    0.000    0.143 
#
# Total GULP energy -347227.804986 kJ/mol
# GULP energy per Si atom -12400.993035 kJ/mol
# Density = 1.946292 g / cm^3
# Si number density = 19.507320 Si / 1000 Ang^3
#
#
#
# Elastic Constant Matrix: (Units=GPa)
#
#
# Indices 1 2 3 4 5 6 
#
# 1 283.4987 58.8223 171.2650 0.0000 -0.5528 0.0000
# 2 58.8223 39.1186 52.2868 0.0000 0.2802 0.0000
# 3 171.2650 52.2868 260.6226 0.0000 -1.1476 0.0000
# 4 0.0000 0.0000 0.0000 5.7738 0.0000 4.7008
# 5 -0.5528 0.2802 -1.1476 0.0000 48.9769 0.0000
# 6 0.0000 0.0000 0.0000 4.7008 0.0000 -3.9045
#
#
#
# Elastic Compliance Matrix: (Units=1/GPa)
#
#
# Indices 1 2 3 4 5 6 
#
# 1 0.006664 -0.005695 -0.003237 0.000000 0.000032 0.000000
# 2 -0.005695 0.039803 -0.004245 0.000000 -0.000391 0.000000
# 3 -0.003237 -0.004245 0.006816 0.000000 0.000147 0.000000
# 4 0.000000 0.000000 0.000000 0.087464 0.000000 0.105302
# 5 0.000032 -0.000391 0.000147 0.000000 0.020424 0.000000
# 6 0.000000 0.000000 0.000000 0.105302 0.000000 -0.129337
#
#
# Mechanical properties :
#
#
# Convention : Reuss Voigt Hill
#
# Bulk Modulus (GPa) = 37.13208 127.55422 82.34315
# Shear Modulus (GPa) = 74.44429 30.22695 52.33562
#
# Velocity S-wave (km/s) = 6.18426 3.94066 5.18526
# Velocity P-wave (km/s) = 8.37077 9.28628 8.84038
#
# Compressibility (1/GPa) = 0.02693089
#
# Stress axis : x y z
#
# Youngs Moduli (GPa) = 150.04989 25.12342 146.70999
#
# Poissons Ratio (x) = 0.14308 0.47486
# Poissons Ratio (y) = 0.85457 0.62273
# Poissons Ratio (z) = 0.48567 0.10664
#
# Static dielectric constant tensor:
#      x y z
#    x 3.959970 0.000000 -0.076870 
#    y 0.000000 2.834480 0.000000 
#    z -0.076870 0.000000 3.980770 
# 
# 
# High freq. dielectric constant tensor:
#      x y z
#    x 1.782160 0.000000 0.000040 
#    y 0.000000 1.685140 0.000000 
#    z 0.000040 0.000000 1.782750 
# 
# From -- ./inp_files/36992.got.cif
#   From: 2010.06.25/outbox.cif.g09.slc.cpg/sg10_19_cif.got.tgz:36992.got - 2010.06.27 22:07:45.
