data_PCOD8061853
_publ_section_title
;
Structure prediction by ZEFSAII (Michael W. Deem and Ramdas Pophale) SiO2 
 PCOD8061853
Probable space group: P 2/M
;
_chemical_formula_sum "Si O2"
_cell_formula_units_Z 32
_cell_length_a 12.026516
_cell_length_b 9.012707
_cell_length_c 31.497619
_cell_angle_alpha 90.000000
_cell_angle_beta 30.122813
_cell_angle_gamma 90.000000
_cell_volume 1713.370211
_symmetry_space_group_name_H-M "P 2/M"
_symmetry_group_IT_number 10
_symmetry_cell_setting 'monoclinic'
loop_
_space_group_symop_operation_xyz
x,y,z
-x,y,-z
-x,-y,-z
x,-y,z
loop_
_atom_site_type_symbol
_atom_site_label
_atom_site_fract_x
_atom_site_fract_y
_atom_site_fract_z
Si Si1 0.525849 0.327337 0.373502
Si Si2 0.192796 0.323195 0.252519
Si Si3 0.166451 0.324412 0.085762
Si Si4 0.654507 0.827191 0.716786
Si Si5 0.299136 0.673811 0.593589
Si Si6 0.288273 0.824326 0.771057
Si Si7 0.624851 0.675477 0.896464
Si Si8 0.922191 0.170740 0.478523
O O1 0.528410 0.500000 0.360805
O O2 0.676476 0.293633 0.364587
O O3 0.619930 0.235694 0.303448
O O4 0.278557 0.277940 0.467082
O O5 0.200446 0.500000 0.250091
O O6 0.348453 0.262222 0.238349
O O7 0.288562 0.259156 0.176551
O O8 0.940476 0.263437 0.341590
O O9 0.123686 0.500000 0.098367
O O10 0.218646 0.270536 0.116584
O O11 0.952256 0.240143 0.139177
O O12 0.370742 0.276458 0.988241
O O13 0.449021 0.773723 0.756054
O O14 0.879940 0.789094 0.618119
O O15 0.635996 0.000000 0.733173
O O16 0.500000 0.748089 0.500000
O O17 0.303101 0.500000 0.583322
O O18 0.280009 0.000000 0.770323
O O19 0.636421 0.500000 0.892277
O O20 0.000000 0.205968 0.500000
O O21 0.846804 0.000000 0.499307
#
# Coordination Sequence:
#
# PCOD8061853 Si02
#       8
#     4   4   4   4   4   4   4   4
#     4  11  21  33  55  83 106 134 179 226 265 317
#     4  10  19  34  56  78 105 142 180 215 263 320
#     4   9  17  34  60  85 107 134 174 219 264 321
#     4  10  22  38  53  71 104 147 183 217 265 317
#     4   9  18  32  50  77 112 139 164 213 271 311
#     4  11  22  37  53  75 109 144 174 217 275 319
#     4   8  16  33  58  85 111 138 168 215 276 322
#     4  10  19  36  54  70 102 147 181 218 270 312
#
# _framework density 18.676639999999999
#
# number of rings (size 3 to 8) (size 9 to 14) (size 15 to 20)
#    0.000    2.250    1.250    3.000    0.000    4.750 
#    0.000    5.625    0.000    7.125    0.000    0.000 
#    0.000    0.000    0.000    0.000    0.000    0.000 
#
# Total GULP energy -396804.254058 kJ/mol
# GULP energy per Si atom -12400.132939 kJ/mol
# Density = 1.863413 g / cm^3
# Si number density = 18.676640 Si / 1000 Ang^3
#
#
#
# Elastic Constant Matrix: (Units=GPa)
#
#
# Indices 1 2 3 4 5 6 
#
# 1 113.4134 37.6237 64.4180 0.0000 -6.2476 0.0000
# 2 37.6237 39.5845 27.5904 0.0000 -3.9709 0.0000
# 3 64.4180 27.5904 111.3038 0.0000 -1.8842 0.0000
# 4 0.0000 0.0000 0.0000 22.6896 0.0000 -0.7381
# 5 -6.2476 -3.9709 -1.8842 0.0000 35.5966 0.0000
# 6 0.0000 0.0000 0.0000 -0.7381 0.0000 2.2005
#
#
#
# Elastic Compliance Matrix: (Units=1/GPa)
#
#
# Indices 1 2 3 4 5 6 
#
# 1 0.016239 -0.010599 -0.006749 0.000000 0.001311 0.000000
# 2 -0.010599 0.037782 -0.003194 0.000000 0.002185 0.000000
# 3 -0.006749 -0.003194 0.013668 0.000000 -0.000817 0.000000
# 4 0.000000 0.000000 0.000000 0.044559 0.000000 0.014946
# 5 0.001311 0.002185 -0.000817 0.000000 0.028523 0.000000
# 6 0.000000 0.000000 0.000000 0.014946 0.000000 0.459445
#
#
# Mechanical properties :
#
#
# Convention : Reuss Voigt Hill
#
# Bulk Modulus (GPa) = 37.58702 58.17398 47.88050
# Shear Modulus (GPa) = 7.69030 21.07534 14.38282
#
# Velocity S-wave (km/s) = 2.03139 3.36286 2.77807
# Velocity P-wave (km/s) = 5.06665 6.80397 5.99854
#
# Compressibility (1/GPa) = 0.02660493
#
# Stress axis : x y z
#
# Youngs Moduli (GPa) = 61.58023 26.46750 73.16166
#
# Poissons Ratio (x) = 0.28053 0.49376
# Poissons Ratio (y) = 0.65270 0.23370
# Poissons Ratio (z) = 0.41560 0.08454
#
# Static dielectric constant tensor:
#      x y z
#    x 3.535140 0.000000 -0.005030 
#    y 0.000000 3.106710 0.000000 
#    z -0.005030 0.000000 3.629400 
# 
# 
# High freq. dielectric constant tensor:
#      x y z
#    x 1.729790 0.000000 -0.002980 
#    y 0.000000 1.694490 0.000000 
#    z -0.002980 0.000000 1.729340 
# 
# From -- ./inp_files/94992.got.cif
#   From: 2010.06.25/outbox.cif.g09.slc.cpg/sg10_48_cif.got.tgz:94992.got - 2010.06.27 22:07:45.
