data_PCOD8061531
_publ_section_title
;
Structure prediction by ZEFSAII (Michael W. Deem and Ramdas Pophale) SiO2 
 PCOD8061531
Probable space group: P 2/M
;
_chemical_formula_sum "Si O2"
_cell_formula_units_Z 28
_cell_length_a 28.155110
_cell_length_b 9.099234
_cell_length_c 9.661497
_cell_angle_alpha 90.000000
_cell_angle_beta 142.422972
_cell_angle_gamma 90.000000
_cell_volume 1509.431675
_symmetry_space_group_name_H-M "P 2/M"
_symmetry_group_IT_number 10
_symmetry_cell_setting 'monoclinic'
loop_
_space_group_symop_operation_xyz
x,y,z
-x,y,-z
-x,-y,-z
x,-y,z
loop_
_atom_site_type_symbol
_atom_site_label
_atom_site_fract_x
_atom_site_fract_y
_atom_site_fract_z
Si Si1 0.205886 0.327903 0.691602
Si Si2 0.381503 0.832644 0.385292
Si Si3 0.962706 0.338278 0.766271
Si Si4 0.506667 0.326449 0.853691
Si Si5 0.793452 0.166696 0.028907
Si Si6 0.049058 0.169423 0.740144
Si Si7 0.362565 0.173505 0.021000
O O1 0.224906 0.500000 0.721841
O O2 0.126327 0.280712 0.429987
O O3 0.193609 0.285599 0.822618
O O4 0.276998 0.236379 0.791146
O O5 0.430608 0.724116 0.594144
O O6 0.292735 0.816670 0.233499
O O7 0.387843 0.788393 0.237436
O O8 0.411608 0.000000 0.473666
O O9 0.959741 0.500000 0.690933
O O10 0.020934 0.238428 0.816030
O O11 0.000000 0.345139 0.000000
O O12 0.516424 0.500000 0.858876
O O13 0.580357 0.246356 0.957388
O O14 0.500000 0.282641 0.000000
O O15 0.802775 0.000000 0.110426
O O16 0.858405 0.197400 0.062547
O O17 0.000000 0.238787 0.500000
O O18 0.028600 0.000000 0.703244
O O19 0.361626 0.000000 0.996127
#
# Coordination Sequence:
#
# PCOD8061531 Si02
#       7
#     4   4   4   4   4   4   4
#     4  10  19  33  56  82 111 145 186 229 273 325
#     4   9  19  36  59  84 112 143 182 227 273 327
#     4  10  22  38  53  76 113 153 189 228 276 328
#     4  11  24  40  57  82 116 148 181 221 269 325
#     4   9  18  34  55  83 115 142 179 233 281 321
#     4  10  19  33  57  83 110 144 186 233 276 320
#     4  10  21  38  62  87 110 141 182 228 277 327
#
# _framework density 18.550027
#
# number of rings (size 3 to 8) (size 9 to 14) (size 15 to 20)
#    0.000    2.143    1.429    2.571    0.000    7.429 
#    2.571    0.000    0.000    0.000    0.000    0.000 
#    0.000    0.000    0.000    0.000    0.000    0.000 
#
# Total GULP energy -347144.703421 kJ/mol
# GULP energy per Si atom -12398.025122 kJ/mol
# Density = 1.850781 g / cm^3
# Si number density = 18.550027 Si / 1000 Ang^3
#
#
#
# Elastic Constant Matrix: (Units=GPa)
#
#
# Indices 1 2 3 4 5 6 
#
# 1 139.9500 64.0229 67.9396 0.0000 20.1573 0.0000
# 2 64.0229 81.6999 49.2828 0.0000 7.9135 0.0000
# 3 67.9396 49.2828 101.6897 0.0000 18.0354 0.0000
# 4 0.0000 0.0000 0.0000 18.7178 0.0000 -6.1697
# 5 20.1573 7.9135 18.0354 0.0000 27.8847 0.0000
# 6 0.0000 0.0000 0.0000 -6.1697 0.0000 -2.5147
#
#
#
# Elastic Compliance Matrix: (Units=1/GPa)
#
#
# Indices 1 2 3 4 5 6 
#
# 1 0.013357 -0.007250 -0.004589 0.000000 -0.004630 0.000000
# 2 -0.007250 0.021240 -0.005998 0.000000 0.003093 0.000000
# 3 -0.004589 -0.005998 0.016849 0.000000 -0.005878 0.000000
# 4 0.000000 0.000000 0.000000 0.029538 0.000000 -0.072469
# 5 -0.004630 0.003093 -0.005878 0.000000 0.042133 0.000000
# 6 0.000000 0.000000 0.000000 -0.072469 0.000000 -0.219860
#
#
# Mechanical properties :
#
#
# Convention : Reuss Voigt Hill
#
# Bulk Modulus (GPa) = 63.40679 76.20336 69.80508
# Shear Modulus (GPa) = -89.58917 18.29051 -35.64933
#
# Velocity S-wave (km/s) = -6.95707 3.14349 -4.38858
# Velocity P-wave (km/s) = 5.50261 7.37187 3.46884
#
# Compressibility (1/GPa) = 0.01577118
#
# Stress axis : x y z
#
# Youngs Moduli (GPa) = 74.86884 47.08033 59.34951
#
# Poissons Ratio (x) = 0.34135 0.27234
# Poissons Ratio (y) = 0.54282 0.35601
# Poissons Ratio (z) = 0.34356 0.28241
#
# Static dielectric constant tensor:
#      x y z
#    x 3.161770 0.000000 0.241170 
#    y 0.000000 3.493450 0.000000 
#    z 0.241170 0.000000 3.386030 
# 
# 
# High freq. dielectric constant tensor:
#      x y z
#    x 1.717480 0.000000 0.025180 
#    y 0.000000 1.722850 0.000000 
#    z 0.025180 0.000000 1.713060 
# 
# From -- ./inp_files/36962.got.cif
#   From: 2010.06.25/outbox.cif.g09.slc.cpg/sg10_19_cif.got.tgz:36962.got - 2010.06.27 22:07:45.
