data_PCOD8061795
_publ_section_title
;
Structure prediction by ZEFSAII (Michael W. Deem and Ramdas Pophale) SiO2 
 PCOD8061795
Probable space group: P 2/M
;
_chemical_formula_sum "Si O2"
_cell_formula_units_Z 24
_cell_length_a 9.332546
_cell_length_b 9.090516
_cell_length_c 29.785856
_cell_angle_alpha 90.000000
_cell_angle_beta 150.053656
_cell_angle_gamma 90.000000
_cell_volume 1261.431197
_symmetry_space_group_name_H-M "P 2/M"
_symmetry_group_IT_number 10
_symmetry_cell_setting 'monoclinic'
loop_
_space_group_symop_operation_xyz
x,y,z
-x,y,-z
-x,-y,-z
x,-y,z
loop_
_atom_site_type_symbol
_atom_site_label
_atom_site_fract_x
_atom_site_fract_y
_atom_site_fract_z
Si Si1 0.363980 0.825051 0.739334
Si Si2 0.798365 0.670202 0.557837
Si Si3 0.294965 0.825157 0.254866
Si Si4 0.349962 0.824585 0.914107
Si Si5 0.295994 0.838397 0.556188
Si Si6 0.675303 0.175035 0.914127
O O1 0.558787 0.765372 0.751091
O O2 0.505081 0.770320 0.824017
O O3 0.045740 0.760215 0.650091
O O4 0.338096 0.000000 0.730699
O O5 0.500000 0.705665 0.500000
O O6 0.881653 0.500000 0.582065
O O7 0.756272 0.718695 0.495609
O O8 0.472382 0.771909 0.346284
O O9 0.973964 0.762700 0.173063
O O10 0.293036 0.000000 0.251965
O O11 0.517984 0.763467 0.916054
O O12 0.349581 0.000000 0.912987
O O13 0.500000 0.766162 0.000000
O O14 0.000000 0.865383 0.500000
O O15 0.396696 0.000000 0.565032
O O16 0.682136 0.000000 0.917445
O O17 0.000000 0.236680 0.000000
#
# Coordination Sequence:
#
# PCOD8061795 Si02
#       6
#     4   4   4   4   4   4
#     4  10  19  34  55  78 107 141 179 223 269 317
#     4  11  25  40  53  75 110 147 185 225 272 325
#     4   9  17  29  47  74 105 135 170 217 264 311
#     4   9  16  26  42  69 106 141 169 207 262 317
#     4  10  19  35  57  81 107 137 179 224 271 322
#     4   9  17  28  46  76 110 142 173 211 264 320
#
# _framework density 19.026008000000001
#
# number of rings (size 3 to 8) (size 9 to 14) (size 15 to 20)
#    0.000    2.333    1.667    1.500    2.333    5.667 
#    0.000    0.000    0.000    0.500    0.000    0.000 
#    0.000    3.333    0.000    0.000    0.000    0.000 
#
# Total GULP energy -297561.307959 kJ/mol
# GULP energy per Si atom -12398.387832 kJ/mol
# Density = 1.898270 g / cm^3
# Si number density = 19.026008 Si / 1000 Ang^3
#
#
#
# Elastic Constant Matrix: (Units=GPa)
#
#
# Indices 1 2 3 4 5 6 
#
# 1 127.2740 26.4570 84.0993 0.0000 -2.0403 0.0000
# 2 26.4570 17.2705 27.3602 0.0000 5.2182 0.0000
# 3 84.0993 27.3602 197.1600 0.0000 -7.4878 0.0000
# 4 0.0000 0.0000 0.0000 6.3486 0.0000 4.0794
# 5 -2.0403 5.2182 -7.4878 0.0000 35.8831 0.0000
# 6 0.0000 0.0000 0.0000 4.0794 0.0000 12.8961
#
#
#
# Elastic Compliance Matrix: (Units=1/GPa)
#
#
# Indices 1 2 3 4 5 6 
#
# 1 0.013481 -0.015889 -0.003456 0.000000 0.002356 0.000000
# 2 -0.015889 0.099542 -0.007681 0.000000 -0.016982 0.000000
# 3 -0.003456 -0.007681 0.007708 0.000000 0.002529 0.000000
# 4 0.000000 0.000000 0.000000 0.197700 0.000000 -0.062539
# 5 0.002356 -0.016982 0.002529 0.000000 0.031000 0.000000
# 6 0.000000 0.000000 0.000000 -0.062539 0.000000 0.097326
#
#
# Mechanical properties :
#
#
# Convention : Reuss Voigt Hill
#
# Bulk Modulus (GPa) = 14.99716 68.61528 41.80622
# Shear Modulus (GPa) = 9.55957 24.61143 17.08550
#
# Velocity S-wave (km/s) = 2.24397 3.60052 2.99993
# Velocity P-wave (km/s) = 3.82275 7.30939 5.83269
#
# Compressibility (1/GPa) = 0.06667928
#
# Stress axis : x y z
#
# Youngs Moduli (GPa) = 74.17582 10.04601 129.73178
#
# Poissons Ratio (x) = 0.15962 0.44837
# Poissons Ratio (y) = 1.17858 0.99647
# Poissons Ratio (z) = 0.25636 0.07716
#
# Static dielectric constant tensor:
#      x y z
#    x 3.613890 0.000000 0.028540 
#    y 0.000000 2.852330 0.000000 
#    z 0.028540 0.000000 3.775210 
# 
# 
# High freq. dielectric constant tensor:
#      x y z
#    x 1.749400 0.000000 -0.000450 
#    y 0.000000 1.670560 0.000000 
#    z -0.000450 0.000000 1.759980 
# 
# From -- ./inp_files/33958.got.cif
#   From: 2010.06.25/outbox.cif.g09.slc.cpg/sg10_17_cif.got.tgz:33958.got - 2010.06.27 22:07:45.
