data_PCOD8061780
_publ_section_title
;
Structure prediction by ZEFSAII (Michael W. Deem and Ramdas Pophale) SiO2 
 PCOD8061780
Probable space group: P 2/M
;
_chemical_formula_sum "Si O2"
_cell_formula_units_Z 28
_cell_length_a 9.631315
_cell_length_b 8.810545
_cell_length_c 24.722137
_cell_angle_alpha 90.000000
_cell_angle_beta 136.273811
_cell_angle_gamma 90.000000
_cell_volume 1450.060555
_symmetry_space_group_name_H-M "P 2/M"
_symmetry_group_IT_number 10
_symmetry_cell_setting 'monoclinic'
loop_
_space_group_symop_operation_xyz
x,y,z
-x,y,-z
-x,-y,-z
x,-y,z
loop_
_atom_site_type_symbol
_atom_site_label
_atom_site_fract_x
_atom_site_fract_y
_atom_site_fract_z
Si Si1 0.058585 0.318713 0.738340
Si Si2 0.533459 0.330307 0.321843
Si Si3 0.273323 0.174725 0.426582
Si Si4 0.065800 0.669387 0.183048
Si Si5 0.570710 0.820420 0.220865
Si Si6 0.806567 0.826566 0.475810
Si Si7 0.856131 0.681116 0.910897
O O1 0.076613 0.500000 0.741331
O O2 0.249402 0.242317 0.764783
O O3 0.849225 0.272620 0.651096
O O4 0.052349 0.257299 0.799271
O O5 0.610604 0.500000 0.331575
O O6 0.297823 0.328113 0.263616
O O7 0.607165 0.225344 0.293220
O O8 0.617664 0.269797 0.402281
O O9 0.500000 0.235444 0.500000
O O10 0.156788 0.191156 0.450325
O O11 0.280530 0.000000 0.408827
O O12 0.982439 0.500000 0.153803
O O13 0.044640 0.745919 0.117347
O O14 0.361489 0.752797 0.140049
O O15 0.566455 0.000000 0.214659
O O16 0.000000 0.760807 0.500000
O O17 0.766059 0.000000 0.448341
O O18 0.827064 0.500000 0.898437
O O19 0.000000 0.729906 0.000000
#
# Coordination Sequence:
#
# PCOD8061780 Si02
#       7
#     4   4   4   4   4   4   4
#     4  11  21  35  55  78 108 144 185 229 270 317
#     4  10  19  34  55  77 101 133 180 228 269 320
#     4  10  21  35  50  72 106 145 183 224 274 328
#     4   8  17  33  54  81 107 133 170 217 265 313
#     4  11  22  36  55  80 112 146 180 220 269 324
#     4  10  20  32  46  67  98 135 174 220 271 318
#     4   9  18  37  64  89 112 139 175 218 263 317
#
# _framework density 19.309539000000001
#
# number of rings (size 3 to 8) (size 9 to 14) (size 15 to 20)
#    0.000    2.143    0.000    4.714    0.000    2.571 
#    0.000    7.143    0.000    4.286    0.000    0.000 
#    0.000    0.000    0.000    0.000    0.000    0.000 
#
# Total GULP energy -347070.638732 kJ/mol
# GULP energy per Si atom -12395.379955 kJ/mol
# Density = 1.926559 g / cm^3
# Si number density = 19.309539 Si / 1000 Ang^3
#
#
#
# Elastic Constant Matrix: (Units=GPa)
#
#
# Indices 1 2 3 4 5 6 
#
# 1 111.7901 26.6865 29.1848 0.0000 -3.5837 0.0000
# 2 26.6865 73.8636 31.7148 0.0000 -1.6755 0.0000
# 3 29.1848 31.7148 90.7925 0.0000 -14.7480 0.0000
# 4 0.0000 0.0000 0.0000 25.7485 0.0000 3.8285
# 5 -3.5837 -1.6755 -14.7480 0.0000 24.7130 0.0000
# 6 0.0000 0.0000 0.0000 3.8285 0.0000 17.5453
#
#
#
# Elastic Compliance Matrix: (Units=1/GPa)
#
#
# Indices 1 2 3 4 5 6 
#
# 1 0.010196 -0.002672 -0.002362 0.000000 -0.000112 0.000000
# 2 -0.002672 0.016766 -0.005399 0.000000 -0.002473 0.000000
# 3 -0.002362 -0.005399 0.014998 0.000000 0.008242 0.000000
# 4 0.000000 0.000000 0.000000 0.040140 0.000000 -0.008759
# 5 -0.000112 -0.002473 0.008242 0.000000 0.045199 0.000000
# 6 0.000000 0.000000 0.000000 -0.008759 0.000000 0.058906
#
#
# Mechanical properties :
#
#
# Convention : Reuss Voigt Hill
#
# Bulk Modulus (GPa) = 47.40889 50.17981 48.79435
# Shear Modulus (GPa) = 23.35306 26.19203 24.77254
#
# Velocity S-wave (km/s) = 3.48142 3.68697 3.58567
# Velocity P-wave (km/s) = 6.38481 6.64594 6.51668
#
# Compressibility (1/GPa) = 0.02109309
#
# Stress axis : x y z
#
# Youngs Moduli (GPa) = 98.07410 59.64418 66.67394
#
# Poissons Ratio (x) = 0.15937 0.15751
# Poissons Ratio (y) = 0.26206 0.36000
# Poissons Ratio (z) = 0.23170 0.32204
#
# Static dielectric constant tensor:
#      x y z
#    x 3.800490 0.000000 -0.157100 
#    y 0.000000 3.397500 0.000000 
#    z -0.157100 0.000000 3.438580 
# 
# 
# High freq. dielectric constant tensor:
#      x y z
#    x 1.764720 0.000000 -0.007510 
#    y 0.000000 1.733850 0.000000 
#    z -0.007510 0.000000 1.736810 
# 
# From -- ./inp_files/91981.got.cif
#   From: 2010.06.25/outbox.cif.g09.slc.cpg/sg10_46_cif.got.tgz:91981.got - 2010.06.27 22:07:45.
