data_PCOD8061781
_publ_section_title
;
Structure prediction by ZEFSAII (Michael W. Deem and Ramdas Pophale) SiO2 
 PCOD8061781
Probable space group: P 2/M
;
_chemical_formula_sum "Si O2"
_cell_formula_units_Z 28
_cell_length_a 10.210110
_cell_length_b 7.763764
_cell_length_c 27.737970
_cell_angle_alpha 90.000000
_cell_angle_beta 138.131776
_cell_angle_gamma 90.000000
_cell_volume 1467.494278
_symmetry_space_group_name_H-M "P 2/M"
_symmetry_group_IT_number 10
_symmetry_cell_setting 'monoclinic'
loop_
_space_group_symop_operation_xyz
x,y,z
-x,y,-z
-x,-y,-z
x,-y,z
loop_
_atom_site_type_symbol
_atom_site_label
_atom_site_fract_x
_atom_site_fract_y
_atom_site_fract_z
Si Si1 0.017240 0.804969 0.184976
Si Si2 0.669847 0.794261 0.579987
Si Si3 0.817566 0.500000 0.082551
Si Si4 0.705440 0.801034 0.182535
Si Si5 0.570206 0.800344 0.658211
Si Si6 0.158054 0.694793 0.581226
Si Si7 0.914590 0.196417 0.333103
Si Si8 0.501603 0.500000 0.922169
O O1 0.946708 0.672396 0.124693
O O2 0.899383 0.778887 0.202638
O O3 0.247575 0.769066 0.256178
O O4 0.984587 0.000000 0.157134
O O5 0.500000 0.717568 0.500000
O O6 0.632925 0.727883 0.623653
O O7 0.873666 0.714586 0.616016
O O8 0.670736 0.000000 0.578395
O O9 0.646150 0.500000 0.074156
O O10 0.724274 0.500000 0.003405
O O11 0.758307 0.733785 0.251032
O O12 0.531577 0.675145 0.117331
O O13 0.631310 0.000000 0.160869
O O14 0.378366 0.698519 0.622048
O O15 0.512572 0.000000 0.639796
O O16 0.093927 0.500000 0.573742
O O17 0.157378 0.792016 0.631917
O O18 0.000000 0.776634 0.500000
O O19 0.942083 0.000000 0.325668
#
# Coordination Sequence:
#
# PCOD8061781 Si02
#       8
#     4   4   2   4   4   4   4   2
#     4   9  17  31  52  79 109 141 180 225 268 321
#     4   9  16  28  51  79 101 126 172 227 274 324
#     4   9  18  30  48  79 114 147 177 209 265 331
#     4   9  17  31  52  79 109 141 180 225 268 321
#     4  10  19  34  55  77 101 138 182 224 275 326
#     4  11  25  39  49  71 109 146 183 230 278 324
#     4  10  19  34  55  77 101 138 182 224 275 326
#     4   9  18  30  48  79 114 147 177 209 265 331
#
# _framework density 19.080141999999999
#
# number of rings (size 3 to 8) (size 9 to 14) (size 15 to 20)
#    0.000    2.429    1.429    1.286    2.000    2.857 
#    0.000    3.571    0.000    2.571    0.000    2.000 
#    0.000    4.571    0.000    0.000    0.000    0.000 
#
# Total GULP energy -347099.910991 kJ/mol
# GULP energy per Si atom -12396.425393 kJ/mol
# Density = 1.903671 g / cm^3
# Si number density = 19.080142 Si / 1000 Ang^3
#
#
#
# Elastic Constant Matrix: (Units=GPa)
#
#
# Indices 1 2 3 4 5 6 
#
# 1 72.2717 11.8017 39.9407 0.0000 -1.4446 0.0000
# 2 11.8017 78.6284 59.0003 0.0000 -4.9450 0.0000
# 3 39.9407 59.0003 159.4208 0.0000 -13.3097 0.0000
# 4 0.0000 0.0000 0.0000 22.5893 0.0000 1.6689
# 5 -1.4446 -4.9450 -13.3097 0.0000 22.6125 0.0000
# 6 0.0000 0.0000 0.0000 1.6689 0.0000 12.5901
#
#
#
# Elastic Compliance Matrix: (Units=1/GPa)
#
#
# Indices 1 2 3 4 5 6 
#
# 1 0.016144 0.000847 -0.004476 0.000000 -0.001418 0.000000
# 2 0.000847 0.017652 -0.006750 0.000000 -0.000059 0.000000
# 3 -0.004476 -0.006750 0.010249 0.000000 0.004270 0.000000
# 4 0.000000 0.000000 0.000000 0.044706 0.000000 -0.005926
# 5 -0.001418 -0.000059 0.004270 0.000000 0.046633 0.000000
# 6 0.000000 0.000000 0.000000 -0.005926 0.000000 0.080213
#
#
# Mechanical properties :
#
#
# Convention : Reuss Voigt Hill
#
# Bulk Modulus (GPa) = 42.94504 59.08960 51.01732
# Shear Modulus (GPa) = 20.48180 24.86360 22.67270
#
# Velocity S-wave (km/s) = 3.27993 3.61378 3.45089
# Velocity P-wave (km/s) = 6.07458 6.96053 6.53259
#
# Compressibility (1/GPa) = 0.02328557
#
# Stress axis : x y z
#
# Youngs Moduli (GPa) = 61.94276 56.65001 97.57205
#
# Poissons Ratio (x) = -0.04796 0.43677
# Poissons Ratio (y) = -0.05244 0.65861
# Poissons Ratio (z) = 0.27728 0.38239
#
# Static dielectric constant tensor:
#      x y z
#    x 3.090080 0.000000 -0.060410 
#    y 0.000000 3.355100 0.000000 
#    z -0.060410 0.000000 3.668330 
# 
# 
# High freq. dielectric constant tensor:
#      x y z
#    x 1.703300 0.000000 -0.004050 
#    y 0.000000 1.734900 0.000000 
#    z -0.004050 0.000000 1.741360 
# 
# From -- ./inp_files/79332.got.cif
#   From: 2010.06.25/outbox.cif.g09.slc.cpg/sg10_40_cif.got.tgz:79332.got - 2010.06.27 22:07:45.
