data_PCOD8061185
_publ_section_title
;
Structure prediction by ZEFSAII (Michael W. Deem and Ramdas Pophale) SiO2 
 PCOD8061185
Probable space group: P 2/M
;
_chemical_formula_sum "Si O2"
_cell_formula_units_Z 32
_cell_length_a 26.828815
_cell_length_b 9.246210
_cell_length_c 21.189237
_cell_angle_alpha 90.000000
_cell_angle_beta 161.502426
_cell_angle_gamma 90.000000
_cell_volume 1667.639009
_symmetry_space_group_name_H-M "P 2/M"
_symmetry_group_IT_number 10
_symmetry_cell_setting 'monoclinic'
loop_
_space_group_symop_operation_xyz
x,y,z
-x,y,-z
-x,-y,-z
x,-y,z
loop_
_atom_site_type_symbol
_atom_site_label
_atom_site_fract_x
_atom_site_fract_y
_atom_site_fract_z
Si Si1 0.241023 0.169942 0.675571
Si Si2 0.474739 0.327889 0.540326
Si Si3 0.895626 0.328442 0.698500
Si Si4 0.889793 0.835591 0.226868
Si Si5 0.669782 0.835168 0.077271
Si Si6 0.629256 0.328464 0.282575
Si Si7 0.213148 0.328519 0.015312
Si Si8 0.155804 0.327535 0.222508
O O1 0.272980 0.216626 0.785464
O O2 0.357768 0.258204 0.771017
O O3 0.067529 0.217420 0.446850
O O4 0.269243 0.000000 0.700179
O O5 0.500000 0.267438 0.500000
O O6 0.468134 0.500000 0.530965
O O7 0.623066 0.273591 0.758968
O O8 0.312602 0.267509 0.376023
O O9 0.894158 0.500000 0.699323
O O10 0.767582 0.272633 0.494565
O O11 0.851754 0.267364 0.714974
O O12 0.068148 0.273568 0.884637
O O13 0.817378 0.820204 0.208933
O O14 0.880880 0.000000 0.191785
O O15 0.798342 0.735361 0.068185
O O16 0.607555 0.000000 0.004615
O O17 0.535051 0.730474 0.887852
O O18 0.627652 0.500000 0.275613
O O19 0.209521 0.500000 0.005436
O O20 0.159487 0.500000 0.226558
O O21 0.000000 0.270946 0.000000
#
# Coordination Sequence:
#
# PCOD8061185 Si02
#       8
#     4   4   4   4   4   4   4   4
#     4  10  20  38  60  78 101 139 185 228 272 322
#     4   9  17  28  47  77 108 140 177 216 258 308
#     4   9  18  31  46  70 105 142 173 212 262 313
#     4  10  21  37  57  80 106 138 182 227 275 325
#     4  10  22  38  56  78 105 139 182 230 273 321
#     4  11  22  35  53  80 114 144 177 220 274 329
#     4  10  19  33  53  76 109 143 176 219 268 317
#     4   9  16  27  45  70 104 142 177 212 255 307
#
# _framework density 19.188804999999999
#
# number of rings (size 3 to 8) (size 9 to 14) (size 15 to 20)
#    0.000    2.250    1.250    1.875    1.750    7.000 
#    0.000    0.000    0.000    2.625    0.000    0.000 
#    0.000    4.000    0.000    0.000    0.000    0.000 
#
# Total GULP energy -396821.926173 kJ/mol
# GULP energy per Si atom -12400.685193 kJ/mol
# Density = 1.914513 g / cm^3
# Si number density = 19.188805 Si / 1000 Ang^3
#
#
#
# Elastic Constant Matrix: (Units=GPa)
#
#
# Indices 1 2 3 4 5 6 
#
# 1 117.0604 16.5858 41.8008 0.0000 -8.1490 0.0000
# 2 16.5858 26.5129 25.1205 0.0000 -3.0511 0.0000
# 3 41.8008 25.1205 122.5715 0.0000 -3.6931 0.0000
# 4 0.0000 0.0000 0.0000 18.8346 0.0000 3.8320
# 5 -8.1490 -3.0511 -3.6931 0.0000 33.4233 0.0000
# 6 0.0000 0.0000 0.0000 3.8320 0.0000 16.9345
#
#
#
# Elastic Compliance Matrix: (Units=1/GPa)
#
#
# Indices 1 2 3 4 5 6 
#
# 1 0.010132 -0.003605 -0.002661 0.000000 0.001847 0.000000
# 2 -0.003605 0.048438 -0.008620 0.000000 0.002590 0.000000
# 3 -0.002661 -0.008620 0.010825 0.000000 -0.000239 0.000000
# 4 0.000000 0.000000 0.000000 0.055656 0.000000 -0.012594
# 5 0.001847 0.002590 -0.000239 0.000000 0.030580 0.000000
# 6 0.000000 0.000000 0.000000 -0.012594 0.000000 0.061901
#
#
# Mechanical properties :
#
#
# Convention : Reuss Voigt Hill
#
# Bulk Modulus (GPa) = 25.23694 48.12877 36.68286
# Shear Modulus (GPa) = 19.19311 26.01433 22.60372
#
# Velocity S-wave (km/s) = 3.16606 3.68598 3.43587
# Velocity P-wave (km/s) = 5.15226 6.57658 5.90750
#
# Compressibility (1/GPa) = 0.03962445
#
# Stress axis : x y z
#
# Youngs Moduli (GPa) = 98.69604 20.64512 92.37588
#
# Poissons Ratio (x) = 0.07442 0.24581
# Poissons Ratio (y) = 0.35576 0.79626
# Poissons Ratio (z) = 0.26263 0.17796
#
# Static dielectric constant tensor:
#      x y z
#    x 3.633880 0.000000 0.040860 
#    y 0.000000 3.012230 0.000000 
#    z 0.040860 0.000000 3.711470 
# 
# 
# High freq. dielectric constant tensor:
#      x y z
#    x 1.758230 0.000000 0.003130 
#    y 0.000000 1.691570 0.000000 
#    z 0.003130 0.000000 1.761840 
# 
# From -- ./inp_files/86845.got.cif
#   From: 2010.06.25/outbox.cif.g09.slc.cpg/sg10_44_cif.got.tgz:86845.got - 2010.06.27 22:07:45.
