data_PCOD8061704
_publ_section_title
;
Structure prediction by ZEFSAII (Michael W. Deem and Ramdas Pophale) SiO2 
 PCOD8061704
Probable space group: P 2/M
;
_chemical_formula_sum "Si O2"
_cell_formula_units_Z 18
_cell_length_a 4.948408
_cell_length_b 14.157324
_cell_length_c 12.920071
_cell_angle_alpha 90.000000
_cell_angle_beta 86.202897
_cell_angle_gamma 90.000000
_cell_volume 903.144348
_symmetry_space_group_name_H-M "P 2/M"
_symmetry_group_IT_number 10
_symmetry_cell_setting 'monoclinic'
loop_
_space_group_symop_operation_xyz
x,y,z
-x,y,-z
-x,-y,-z
x,-y,z
loop_
_atom_site_type_symbol
_atom_site_label
_atom_site_fract_x
_atom_site_fract_y
_atom_site_fract_z
Si Si1 0.024866 0.186500 0.680697
Si Si2 0.038607 0.281549 0.884162
Si Si3 0.535989 0.294920 0.615171
Si Si4 0.564299 0.607505 0.816830
Si Si5 0.228338 0.000000 0.575970
O O1 0.965136 0.196229 0.805490
O O2 0.232112 0.269180 0.651907
O O3 0.181005 0.089873 0.650690
O O4 0.750047 0.206263 0.620325
O O5 0.341900 0.319592 0.863836
O O6 0.838298 0.370104 0.871851
O O7 0.000000 0.239657 0.000000
O O8 0.500000 0.333118 0.500000
O O9 0.625066 0.376886 0.692445
O O10 0.478140 0.500000 0.839169
O O11 0.500000 0.000000 0.500000
O O12 0.000000 0.000000 0.500000
#
# Coordination Sequence:
#
# PCOD8061704 Si02
#       5
#     4   4   4   4   2
#     4  10  21  35  52  79 106 134 175 213 253 311
#     4  10  21  37  55  74 104 141 174 216 265 305
#     4  10  19  34  53  73 107 144 170 207 262 314
#     4  10  21  34  52  80 105 133 180 223 256 307
#     4  12  22  34  57  84 109 134 168 212 257 306
#
# _framework density 19.93037
#
# number of rings (size 3 to 8) (size 9 to 14) (size 15 to 20)
#    0.000    1.778    0.000    5.333    0.000    3.111 
#    0.000    0.556    0.000    8.000    0.000   10.889 
#    0.000    0.000    0.000    0.000    0.000    0.000 
#
# Total GULP energy -223061.710937 kJ/mol
# GULP energy per Si atom -12392.317274 kJ/mol
# Density = 1.988501 g / cm^3
# Si number density = 19.930370 Si / 1000 Ang^3
#
#
#
# Elastic Constant Matrix: (Units=GPa)
#
#
# Indices 1 2 3 4 5 6 
#
# 1 101.6410 7.0580 30.3136 0.0000 -1.3833 0.0000
# 2 7.0580 66.0794 31.7558 0.0000 -7.9401 0.0000
# 3 30.3136 31.7558 154.9050 0.0000 0.5340 0.0000
# 4 0.0000 0.0000 0.0000 13.4770 0.0000 -4.0673
# 5 -1.3833 -7.9401 0.5340 0.0000 26.3188 0.0000
# 6 0.0000 0.0000 0.0000 -4.0673 0.0000 24.1789
#
#
#
# Elastic Compliance Matrix: (Units=1/GPa)
#
#
# Indices 1 2 3 4 5 6 
#
# 1 0.010458 -0.000071 -0.002034 0.000000 0.000569 0.000000
# 2 -0.000071 0.017511 -0.003594 0.000000 0.005352 0.000000
# 3 -0.002034 -0.003594 0.007595 0.000000 -0.001345 0.000000
# 4 0.000000 0.000000 0.000000 0.078169 0.000000 0.013149
# 5 0.000569 0.005352 -0.001345 0.000000 0.039668 0.000000
# 6 0.000000 0.000000 0.000000 0.013149 0.000000 0.043570
#
#
# Mechanical properties :
#
#
# Convention : Reuss Voigt Hill
#
# Bulk Modulus (GPa) = 41.38144 51.20892 46.29518
# Shear Modulus (GPa) = 23.10270 29.69480 26.39875
#
# Velocity S-wave (km/s) = 3.40835 3.86414 3.64338
# Velocity P-wave (km/s) = 6.02472 6.75711 6.40140
#
# Compressibility (1/GPa) = 0.02416542
#
# Stress axis : x y z
#
# Youngs Moduli (GPa) = 95.62209 57.10571 131.66426
#
# Poissons Ratio (x) = 0.00406 0.26779
# Poissons Ratio (y) = 0.00680 0.47325
# Poissons Ratio (z) = 0.19448 0.20526
#
# Static dielectric constant tensor:
#      x y z
#    x 3.753410 0.000000 0.004470 
#    y 0.000000 2.917920 0.000000 
#    z 0.004470 0.000000 4.075860 
# 
# 
# High freq. dielectric constant tensor:
#      x y z
#    x 1.800430 0.000000 0.001530 
#    y 0.000000 1.728220 0.000000 
#    z 0.001530 0.000000 1.786960 
# 
# From -- ./inp_files/6573.got.cif
#   From: 2010.06.25/outbox.cif.g09.slc.cpg/sg10_4_cif.got.tgz:6573.got - 2010.06.27 22:07:45.
