data_PCOD8061202
_publ_section_title
;
Structure prediction by ZEFSAII (Michael W. Deem and Ramdas Pophale) SiO2 
 PCOD8061202
Probable space group: P 2/M
;
_chemical_formula_sum "Si O2"
_cell_formula_units_Z 28
_cell_length_a 9.609662
_cell_length_b 8.693368
_cell_length_c 31.582054
_cell_angle_alpha 90.000000
_cell_angle_beta 34.377498
_cell_angle_gamma 90.000000
_cell_volume 1489.739824
_symmetry_space_group_name_H-M "P 2/M"
_symmetry_group_IT_number 10
_symmetry_cell_setting 'monoclinic'
loop_
_space_group_symop_operation_xyz
x,y,z
-x,y,-z
-x,-y,-z
x,-y,z
loop_
_atom_site_type_symbol
_atom_site_label
_atom_site_fract_x
_atom_site_fract_y
_atom_site_fract_z
Si Si1 0.863862 0.680867 0.403536
Si Si2 0.747388 0.176532 0.211624
Si Si3 0.340626 0.822076 0.248325
Si Si4 0.768275 0.679841 0.811064
Si Si5 0.697288 0.180543 0.916503
Si Si6 0.334287 0.678523 0.682315
Si Si7 0.552259 0.180538 0.549558
O O1 0.822770 0.500000 0.408120
O O2 0.695095 0.769529 0.412346
O O3 0.787997 0.733392 0.469888
O O4 0.145001 0.722931 0.323933
O O5 0.606151 0.205945 0.203178
O O6 0.621573 0.277263 0.280045
O O7 0.032210 0.223550 0.133686
O O8 0.728133 0.000000 0.230925
O O9 0.362580 0.767514 0.194553
O O10 0.263075 0.000000 0.269381
O O11 0.726921 0.500000 0.815452
O O12 0.643478 0.733886 0.885954
O O13 0.056558 0.723010 0.738745
O O14 0.667760 0.000000 0.915933
O O15 0.500000 0.241080 0.000000
O O16 0.386186 0.500000 0.662731
O O17 0.526012 0.772325 0.605157
O O18 0.593158 0.000000 0.535048
#
# Coordination Sequence:
#
# PCOD8061202 Si02
#       7
#     4   4   4   4   4   4   4
#     4  11  21  33  50  75 108 141 179 228 274 319
#     4   9  20  36  55  80 109 141 179 222 270 323
#     4  11  21  35  54  78 109 144 181 223 270 323
#     4  10  20  33  54  81 109 141 179 221 264 319
#     4   9  18  36  61  85 109 139 177 220 265 318
#     4  10  19  33  53  78 106 140 182 228 271 318
#     4  11  20  32  52  77 105 140 183 228 272 317
#
# _framework density 18.79523
#
# number of rings (size 3 to 8) (size 9 to 14) (size 15 to 20)
#    0.000    1.857    1.429    4.714    0.000    2.571 
#    0.000    1.429    0.000    8.571    0.000    0.000 
#    0.000    0.000    0.000    0.000    0.000    0.000 
#
# Total GULP energy -347294.683853 kJ/mol
# GULP energy per Si atom -12403.381566 kJ/mol
# Density = 1.875245 g / cm^3
# Si number density = 18.795230 Si / 1000 Ang^3
#
#
#
# Elastic Constant Matrix: (Units=GPa)
#
#
# Indices 1 2 3 4 5 6 
#
# 1 104.3606 32.6545 46.2644 0.0000 13.5407 0.0000
# 2 32.6545 70.0742 29.1308 0.0000 8.2415 0.0000
# 3 46.2644 29.1308 121.2933 0.0000 19.4821 0.0000
# 4 0.0000 0.0000 0.0000 25.4776 0.0000 3.9101
# 5 13.5407 8.2415 19.4821 0.0000 23.9790 0.0000
# 6 0.0000 0.0000 0.0000 3.9101 0.0000 18.8340
#
#
#
# Elastic Compliance Matrix: (Units=1/GPa)
#
#
# Indices 1 2 3 4 5 6 
#
# 1 0.012788 -0.004196 -0.003383 0.000000 -0.003030 0.000000
# 2 -0.004196 0.017385 -0.002295 0.000000 -0.001741 0.000000
# 3 -0.003383 -0.002295 0.011101 0.000000 -0.006320 0.000000
# 4 0.000000 0.000000 0.000000 0.040542 0.000000 -0.008417
# 5 -0.003030 -0.001741 -0.006320 0.000000 0.049148 0.000000
# 6 0.000000 0.000000 0.000000 -0.008417 0.000000 0.054843
#
#
# Mechanical properties :
#
#
# Convention : Reuss Voigt Hill
#
# Bulk Modulus (GPa) = 46.45754 56.86971 51.66363
# Shear Modulus (GPa) = 23.50382 26.17000 24.83691
#
# Velocity S-wave (km/s) = 3.54011 3.73550 3.63912
# Velocity P-wave (km/s) = 6.44059 6.99489 6.72346
#
# Compressibility (1/GPa) = 0.02152503
#
# Stress axis : x y z
#
# Youngs Moduli (GPa) = 78.19698 57.52103 90.08000
#
# Poissons Ratio (x) = 0.24138 0.30476
# Poissons Ratio (y) = 0.32815 0.20674
# Poissons Ratio (z) = 0.26455 0.13201
#
# Static dielectric constant tensor:
#      x y z
#    x 3.291720 0.000000 0.126380 
#    y 0.000000 3.493290 0.000000 
#    z 0.126380 0.000000 3.512400 
# 
# 
# High freq. dielectric constant tensor:
#      x y z
#    x 1.710180 0.000000 0.017300 
#    y 0.000000 1.739160 0.000000 
#    z 0.017300 0.000000 1.720720 
# 
# From -- ./inp_files/79248.got.cif
#   From: 2010.06.25/outbox.cif.g09.slc.cpg/sg10_40_cif.got.tgz:79248.got - 2010.06.27 22:07:45.
