data_PCOD8061499
_publ_section_title
;
Structure prediction by ZEFSAII (Michael W. Deem and Ramdas Pophale) SiO2 
 PCOD8061499
Probable space group: P 2/M
;
_chemical_formula_sum "Si O2"
_cell_formula_units_Z 24
_cell_length_a 20.622669
_cell_length_b 7.760812
_cell_length_c 9.141509
_cell_angle_alpha 90.000000
_cell_angle_beta 120.813679
_cell_angle_gamma 90.000000
_cell_volume 1256.553511
_symmetry_space_group_name_H-M "P 2/M"
_symmetry_group_IT_number 10
_symmetry_cell_setting 'monoclinic'
loop_
_space_group_symop_operation_xyz
x,y,z
-x,y,-z
-x,-y,-z
x,-y,z
loop_
_atom_site_type_symbol
_atom_site_label
_atom_site_fract_x
_atom_site_fract_y
_atom_site_fract_z
Si Si1 0.989564 0.297676 0.648532
Si Si2 0.433298 0.500000 0.215743
Si Si3 0.075938 0.799728 0.010129
Si Si4 0.323031 0.806791 0.591409
Si Si5 0.840078 0.696054 0.633187
Si Si6 0.393943 0.500000 0.500915
Si Si7 0.580164 0.197904 0.019106
O O1 0.980467 0.500000 0.627593
O O2 0.912981 0.222809 0.633824
O O3 0.000000 0.215909 0.500000
O O4 0.065389 0.250770 0.827923
O O5 0.392131 0.500000 0.323814
O O6 0.522841 0.500000 0.337450
O O7 0.407941 0.327071 0.102195
O O8 0.089729 0.000000 0.043575
O O9 0.145265 0.706894 0.173709
O O10 0.000000 0.733904 0.000000
O O11 0.232584 0.805146 0.496296
O O12 0.351382 0.671806 0.503816
O O13 0.355405 0.760274 0.788127
O O14 0.349816 0.000000 0.578070
O O15 0.825062 0.500000 0.570284
O O16 0.584984 0.000000 0.968552
O O17 0.500000 0.235546 0.000000
#
# Coordination Sequence:
#
# PCOD8061499 Si02
#       7
#     4   2   4   4   4   2   4
#     4   9  18  33  53  79 108 141 182 230 282 334
#     4  11  22  37  62  85 120 148 190 246 283 349
#     4   9  17  30  49  74 103 137 179 223 268 325
#     4  11  22  38  60  85 117 151 196 242 283 344
#     4  10  19  33  56  80 106 144 189 233 278 334
#     4  11  23  38  57  90 115 153 190 233 302 337
#     4  10  20  36  60  88 115 154 196 235 282 338
#
# _framework density 19.099865000000001
#
# number of rings (size 3 to 8) (size 9 to 14) (size 15 to 20)
#    0.000    2.000    2.500    1.750    0.000    3.667 
#    0.000    3.333    0.000    2.000    0.000    0.000 
#    0.000    0.000    0.000    0.000    0.000    0.000 
#
# Total GULP energy -297553.955396 kJ/mol
# GULP energy per Si atom -12398.081475 kJ/mol
# Density = 1.905639 g / cm^3
# Si number density = 19.099865 Si / 1000 Ang^3
#
#
#
# Elastic Constant Matrix: (Units=GPa)
#
#
# Indices 1 2 3 4 5 6 
#
# 1 72.3205 33.2595 63.1537 0.0000 0.7740 0.0000
# 2 33.2595 100.0131 47.2547 0.0000 -12.4351 0.0000
# 3 63.1537 47.2547 162.9685 0.0000 -0.7988 0.0000
# 4 0.0000 0.0000 0.0000 26.3203 0.0000 6.4575
# 5 0.7740 -12.4351 -0.7988 0.0000 33.6432 0.0000
# 6 0.0000 0.0000 0.0000 6.4575 0.0000 14.3164
#
#
#
# Elastic Compliance Matrix: (Units=1/GPa)
#
#
# Indices 1 2 3 4 5 6 
#
# 1 0.022253 -0.004169 -0.007425 0.000000 -0.002229 0.000000
# 2 -0.004169 0.012993 -0.002128 0.000000 0.004848 0.000000
# 3 -0.007425 -0.002128 0.009629 0.000000 -0.000387 0.000000
# 4 0.000000 0.000000 0.000000 0.042721 0.000000 -0.019269
# 5 -0.002229 0.004848 -0.000387 0.000000 0.031558 0.000000
# 6 0.000000 0.000000 0.000000 -0.019269 0.000000 0.078541
#
#
# Mechanical properties :
#
#
# Convention : Reuss Voigt Hill
#
# Bulk Modulus (GPa) = 57.37345 69.18199 63.27772
# Shear Modulus (GPa) = 21.64966 27.63160 24.64063
#
# Velocity S-wave (km/s) = 3.37040 3.80767 3.59569
# Velocity P-wave (km/s) = 6.72681 7.45861 7.10214
#
# Compressibility (1/GPa) = 0.01742966
#
# Stress axis : x y z
#
# Youngs Moduli (GPa) = 44.93835 76.96196 103.85387
#
# Poissons Ratio (x) = 0.32085 0.77117
# Poissons Ratio (y) = 0.18734 0.22103
# Poissons Ratio (z) = 0.33369 0.16380
#
# Static dielectric constant tensor:
#      x y z
#    x 3.315380 0.000000 0.022960 
#    y 0.000000 3.445870 0.000000 
#    z 0.022960 0.000000 3.757330 
# 
# 
# High freq. dielectric constant tensor:
#      x y z
#    x 1.699580 0.000000 0.011730 
#    y 0.000000 1.751330 0.000000 
#    z 0.011730 0.000000 1.756110 
# 
# From -- ./inp_files/33529.got.cif
#   From: 2010.06.25/outbox.cif.g09.slc.cpg/sg10_17_cif.got.tgz:33529.got - 2010.06.27 22:07:45.
