data_PCOD8061980
_publ_section_title
;
Structure prediction by ZEFSAII (Michael W. Deem and Ramdas Pophale) SiO2 
 PCOD8061980
Probable space group: P 2/M
;
_chemical_formula_sum "Si O2"
_cell_formula_units_Z 28
_cell_length_a 17.242930
_cell_length_b 14.546905
_cell_length_c 8.213102
_cell_angle_alpha 90.000000
_cell_angle_beta 43.649870
_cell_angle_gamma 90.000000
_cell_volume 1421.985104
_symmetry_space_group_name_H-M "P 2/M"
_symmetry_group_IT_number 10
_symmetry_cell_setting 'monoclinic'
loop_
_space_group_symop_operation_xyz
x,y,z
-x,y,-z
-x,-y,-z
x,-y,z
loop_
_atom_site_type_symbol
_atom_site_label
_atom_site_fract_x
_atom_site_fract_y
_atom_site_fract_z
Si Si1 0.604664 0.189767 0.437486
Si Si2 0.808181 0.774399 0.579701
Si Si3 0.757095 0.693759 0.987538
Si Si4 0.811861 0.104597 0.276224
Si Si5 0.338267 0.500000 0.898758
Si Si6 0.395482 0.681466 0.274560
Si Si7 0.956388 0.735143 0.904205
Si Si8 0.586536 0.500000 0.584091
O O1 0.500000 0.143329 0.500000
O O2 0.696929 0.113832 0.346032
O O3 0.563890 0.238822 0.664363
O O4 0.652063 0.270035 0.249337
O O5 0.781925 0.772658 0.812851
O O6 0.792996 0.868304 0.496603
O O7 0.721174 0.703042 0.635633
O O8 0.938291 0.746784 0.374132
O O9 0.862662 0.680002 0.947992
O O10 0.731328 0.592782 0.952129
O O11 0.852678 0.000000 0.206600
O O12 0.905497 0.168188 0.049003
O O13 0.453070 0.500000 0.826054
O O14 0.376624 0.500000 0.656261
O O15 0.360067 0.589552 0.419174
O O16 0.500000 0.665244 0.000000
O O17 0.000000 0.680920 0.000000
#
# Coordination Sequence:
#
# PCOD8061980 Si02
#       8
#     4   4   4   4   2   4   4   2
#     4  10  19  34  57  82 116 157 191 228 284 343
#     4  10  21  36  58  83 113 150 188 232 284 343
#     4  11  21  38  57  82 117 154 195 234 281 332
#     4   9  20  38  61  88 114 144 187 237 287 341
#     4  11  22  34  57  83 116 153 197 241 275 323
#     4  11  21  34  55  84 116 151 196 236 284 332
#     4   9  20  38  61  82 109 148 187 232 286 340
#     4  11  21  34  53  84 117 149 193 248 277 325
#
# _framework density 19.690783
#
# number of rings (size 3 to 8) (size 9 to 14) (size 15 to 20)
#    0.000    1.857    1.429    4.071    0.000    3.429 
#    0.000    5.357    0.000   21.429    0.000    0.000 
#    0.000    0.000    0.000    0.000    0.000    0.000 
#
# Total GULP energy -346946.437099 kJ/mol
# GULP energy per Si atom -12390.944182 kJ/mol
# Density = 1.964597 g / cm^3
# Si number density = 19.690783 Si / 1000 Ang^3
#
#
#
# Elastic Constant Matrix: (Units=GPa)
#
#
# Indices 1 2 3 4 5 6 
#
# 1 113.3272 5.9989 22.9336 0.0000 -12.6847 0.0000
# 2 5.9989 63.0884 11.6356 0.0000 -0.3792 0.0000
# 3 22.9336 11.6356 74.4049 0.0000 -0.9441 0.0000
# 4 0.0000 0.0000 0.0000 18.1152 0.0000 4.9389
# 5 -12.6847 -0.3792 -0.9441 0.0000 36.0729 0.0000
# 6 0.0000 0.0000 0.0000 4.9389 0.0000 31.4673
#
#
#
# Elastic Compliance Matrix: (Units=1/GPa)
#
#
# Indices 1 2 3 4 5 6 
#
# 1 0.009813 -0.000374 -0.002923 0.000000 0.003370 0.000000
# 2 -0.000374 0.016336 -0.002440 0.000000 -0.000024 0.000000
# 3 -0.002923 -0.002440 0.014714 0.000000 -0.000668 0.000000
# 4 0.000000 0.000000 0.000000 0.057670 0.000000 -0.009052
# 5 0.003370 -0.000024 -0.000668 0.000000 0.028889 0.000000
# 6 0.000000 0.000000 0.000000 -0.009052 0.000000 0.033200
#
#
# Mechanical properties :
#
#
# Convention : Reuss Voigt Hill
#
# Bulk Modulus (GPa) = 34.02600 36.88406 35.45503
# Shear Modulus (GPa) = 27.48890 31.14790 29.31840
#
# Velocity S-wave (km/s) = 3.74040 3.98156 3.86287
# Velocity P-wave (km/s) = 5.99765 6.31739 6.15960
#
# Compressibility (1/GPa) = 0.02938929
#
# Stress axis : x y z
#
# Youngs Moduli (GPa) = 101.91004 61.21392 67.96213
#
# Poissons Ratio (x) = 0.02287 0.19867
# Poissons Ratio (y) = 0.03808 0.16581
# Poissons Ratio (z) = 0.29791 0.14935
#
# Static dielectric constant tensor:
#      x y z
#    x 3.947120 0.000000 0.049180 
#    y 0.000000 3.202400 0.000000 
#    z 0.049180 0.000000 3.703510 
# 
# 
# High freq. dielectric constant tensor:
#      x y z
#    x 1.791300 0.000000 -0.003450 
#    y 0.000000 1.723080 0.000000 
#    z -0.003450 0.000000 1.767920 
# 
# From -- ./inp_files/32819.got.cif
#   From: 2010.06.25/outbox.cif.g09.slc.cpg/sg10_17_cif.got.tgz:32819.got - 2010.06.27 22:07:45.
