data_PCOD8061168
_publ_section_title
;
Structure prediction by ZEFSAII (Michael W. Deem and Ramdas Pophale) SiO2 
 PCOD8061168
Probable space group: P 2/M
;
_chemical_formula_sum "Si O2"
_cell_formula_units_Z 32
_cell_length_a 27.839964
_cell_length_b 8.951435
_cell_length_c 22.444560
_cell_angle_alpha 90.000000
_cell_angle_beta 18.230417
_cell_angle_gamma 90.000000
_cell_volume 1749.820838
_symmetry_space_group_name_H-M "P 2/M"
_symmetry_group_IT_number 10
_symmetry_cell_setting 'monoclinic'
loop_
_space_group_symop_operation_xyz
x,y,z
-x,y,-z
-x,-y,-z
x,-y,z
loop_
_atom_site_type_symbol
_atom_site_label
_atom_site_fract_x
_atom_site_fract_y
_atom_site_fract_z
Si Si1 0.215135 0.822950 0.411240
Si Si2 0.584280 0.175655 0.659220
Si Si3 0.343575 0.831688 0.647766
Si Si4 0.195710 0.673017 0.924875
Si Si5 0.882091 0.323485 0.357489
Si Si6 0.151749 0.822290 0.352850
Si Si7 0.457194 0.825499 0.934350
Si Si8 0.499899 0.325585 0.638806
O O1 0.113541 0.742525 0.581035
O O2 0.150391 0.774544 0.423508
O O3 0.391747 0.767298 0.208830
O O4 0.205167 0.000000 0.433755
O O5 0.747840 0.252961 0.476154
O O6 0.472233 0.211498 0.846725
O O7 0.501614 0.240887 0.699163
O O8 0.611662 0.000000 0.620090
O O9 0.500000 0.825822 0.500000
O O10 0.209643 0.762975 0.846551
O O11 0.363621 0.735559 0.564099
O O12 0.298731 0.000000 0.682944
O O13 0.196277 0.500000 0.907058
O O14 0.335232 0.710563 0.804614
O O15 0.040690 0.722418 0.139730
O O16 0.859721 0.500000 0.387056
O O17 0.000000 0.756238 0.500000
O O18 0.153515 0.000000 0.345172
O O19 0.302212 0.751881 0.143392
O O20 0.445151 0.000000 0.960059
O O21 0.527076 0.500000 0.616993
#
# Coordination Sequence:
#
# PCOD8061168 Si02
#       8
#     4   4   4   4   4   4   4   4
#     4   9  17  30  49  70  94 127 165 203 245 295
#     4  10  20  34  52  75 102 131 168 212 254 296
#     4   9  17  30  50  76 103 131 166 208 250 293
#     4   9  19  34  52  74 100 134 171 205 247 301
#     4  10  20  35  53  73 101 135 170 207 250 301
#     4   9  16  26  44  72 100 124 157 203 250 293
#     4   8  15  28  45  65  92 127 161 196 242 294
#     4  10  19  33  53  75 102 135 168 203 248 303
#
# _framework density 18.287586999999998
#
# number of rings (size 3 to 8) (size 9 to 14) (size 15 to 20)
#    0.000    2.750    0.000    2.625    0.000    5.500 
#    0.000    1.875    0.000   10.875    0.000    0.000 
#    0.000    0.000    0.000    0.000    0.000    0.000 
#
# Total GULP energy -396775.368269 kJ/mol
# GULP energy per Si atom -12399.230258 kJ/mol
# Density = 1.824596 g / cm^3
# Si number density = 18.287587 Si / 1000 Ang^3
#
#
#
# Elastic Constant Matrix: (Units=GPa)
#
#
# Indices 1 2 3 4 5 6 
#
# 1 56.0616 18.0676 14.7024 0.0000 4.1256 0.0000
# 2 18.0676 57.6259 31.0108 0.0000 6.2672 0.0000
# 3 14.7024 31.0108 105.0146 0.0000 6.7887 0.0000
# 4 0.0000 0.0000 0.0000 20.7021 0.0000 0.2826
# 5 4.1256 6.2672 6.7887 0.0000 18.6194 0.0000
# 6 0.0000 0.0000 0.0000 0.2826 0.0000 20.1630
#
#
#
# Elastic Compliance Matrix: (Units=1/GPa)
#
#
# Indices 1 2 3 4 5 6 
#
# 1 0.020041 -0.005481 -0.001044 0.000000 -0.002215 0.000000
# 2 -0.005481 0.022565 -0.005616 0.000000 -0.004333 0.000000
# 3 -0.001044 -0.005616 0.011460 0.000000 -0.002057 0.000000
# 4 0.000000 0.000000 0.000000 0.048314 0.000000 -0.000677
# 5 -0.002215 -0.004333 -0.002057 0.000000 0.056407 0.000000
# 6 0.000000 0.000000 0.000000 -0.000677 0.000000 0.049605
#
#
# Mechanical properties :
#
#
# Convention : Reuss Voigt Hill
#
# Bulk Modulus (GPa) = 33.57482 38.47375 36.02429
# Shear Modulus (GPa) = 20.60996 22.22498 21.41747
#
# Velocity S-wave (km/s) = 3.36071 3.48990 3.42592
# Velocity P-wave (km/s) = 5.78432 6.10926 5.94901
#
# Compressibility (1/GPa) = 0.02978422
#
# Stress axis : x y z
#
# Youngs Moduli (GPa) = 49.89859 44.31609 87.25966
#
# Poissons Ratio (x) = 0.24288 0.09111
# Poissons Ratio (y) = 0.27347 0.49006
# Poissons Ratio (z) = 0.05210 0.24888
#
# Static dielectric constant tensor:
#      x y z
#    x 3.381050 0.000000 0.106700 
#    y 0.000000 3.181230 0.000000 
#    z 0.106700 0.000000 3.509160 
# 
# 
# High freq. dielectric constant tensor:
#      x y z
#    x 1.705730 0.000000 0.014770 
#    y 0.000000 1.688130 0.000000 
#    z 0.014770 0.000000 1.708150 
# 
# From -- ./inp_files/86766.got.cif
#   From: 2010.06.25/outbox.cif.g09.slc.cpg/sg10_44_cif.got.tgz:86766.got - 2010.06.27 22:07:45.
