data_PCOD8061080
_publ_section_title
;
Structure prediction by ZEFSAII (Michael W. Deem and Ramdas Pophale) SiO2 
 PCOD8061080
Probable space group: P 2/M
;
_chemical_formula_sum "Si O2"
_cell_formula_units_Z 28
_cell_length_a 20.346883
_cell_length_b 8.904495
_cell_length_c 18.121029
_cell_angle_alpha 90.000000
_cell_angle_beta 27.431975
_cell_angle_gamma 90.000000
_cell_volume 1512.528970
_symmetry_space_group_name_H-M "P 2/M"
_symmetry_group_IT_number 10
_symmetry_cell_setting 'monoclinic'
loop_
_space_group_symop_operation_xyz
x,y,z
-x,y,-z
-x,-y,-z
x,-y,z
loop_
_atom_site_type_symbol
_atom_site_label
_atom_site_fract_x
_atom_site_fract_y
_atom_site_fract_z
Si Si1 0.420373 0.820071 0.837190
Si Si2 0.356460 0.832939 0.055078
Si Si3 0.834898 0.330987 0.184574
Si Si4 0.779196 0.825516 0.096033
Si Si5 0.897165 0.174882 0.266767
Si Si6 0.278365 0.322723 0.435720
Si Si7 0.693045 0.169602 0.739815
O O1 0.334284 0.768821 0.851070
O O2 0.576576 0.749428 0.678084
O O3 0.435490 0.000000 0.827050
O O4 0.332092 0.759795 0.998122
O O5 0.282844 0.757623 0.201341
O O6 0.293404 0.000000 0.117470
O O7 0.525463 0.837614 0.894904
O O8 0.782004 0.500000 0.252255
O O9 0.746871 0.262803 0.203823
O O10 0.808926 0.232053 0.283417
O O11 0.000000 0.326579 0.000000
O O12 0.760904 0.000000 0.131828
O O13 0.936071 0.791898 0.908953
O O14 0.850084 0.266983 0.385224
O O15 0.864255 0.000000 0.310619
O O16 0.292297 0.500000 0.424585
O O17 0.238877 0.272991 0.391419
O O18 0.755715 0.000000 0.671828
#
# Coordination Sequence:
#
# PCOD8061080 Si02
#       7
#     4   4   4   4   4   4   4
#     4   9  17  32  51  72  98 125 154 193 239 282
#     4   7  11  22  44  68  89 117 154 193 231 272
#     4   9  17  30  49  72  97 124 154 190 232 278
#     4   9  18  32  53  76  95 120 157 196 234 279
#     4  10  19  33  52  72  94 123 160 198 233 274
#     4  11  21  31  45  70 100 128 158 193 236 282
#     4   8  13  25  44  65  89 121 158 194 232 272
#
# _framework density 18.512042999999998
#
# number of rings (size 3 to 8) (size 9 to 14) (size 15 to 20)
#    0.000    3.000    0.000    3.857    0.000    2.857 
#    0.000    6.429    0.000    5.143    0.000    6.000 
#    0.000    0.000    0.000    0.000    0.000    0.000 
#
# Total GULP energy -346900.246666 kJ/mol
# GULP energy per Si atom -12389.294524 kJ/mol
# Density = 1.846991 g / cm^3
# Si number density = 18.512043 Si / 1000 Ang^3
#
#
#
# Elastic Constant Matrix: (Units=GPa)
#
#
# Indices 1 2 3 4 5 6 
#
# 1 15.8075 6.5669 -2.2560 0.0000 5.0051 0.0000
# 2 6.5669 64.5985 15.6509 0.0000 4.7058 0.0000
# 3 -2.2560 15.6509 36.4044 0.0000 15.4172 0.0000
# 4 0.0000 0.0000 0.0000 17.8615 0.0000 1.3542
# 5 5.0051 4.7058 15.4172 0.0000 23.1294 0.0000
# 6 0.0000 0.0000 0.0000 1.3542 0.0000 11.3948
#
#
#
# Elastic Compliance Matrix: (Units=1/GPa)
#
#
# Indices 1 2 3 4 5 6 
#
# 1 0.080949 -0.011553 0.022859 0.000000 -0.030404 0.000000
# 2 -0.011553 0.018996 -0.011571 0.000000 0.006348 0.000000
# 3 0.022859 -0.011571 0.048708 0.000000 -0.035059 0.000000
# 4 0.000000 0.000000 0.000000 0.056495 0.000000 -0.006714
# 5 -0.030404 0.006348 -0.035059 0.000000 0.071892 0.000000
# 6 0.000000 0.000000 0.000000 -0.006714 0.000000 0.088557
#
#
# Mechanical properties :
#
#
# Convention : Reuss Voigt Hill
#
# Bulk Modulus (GPa) = 6.75109 17.41488 12.08299
# Shear Modulus (GPa) = 12.03368 16.93372 14.48370
#
# Velocity S-wave (km/s) = 2.55237 3.02775 2.80016
# Velocity P-wave (km/s) = 3.51296 4.65304 4.12260
#
# Compressibility (1/GPa) = 0.14812426
#
# Stress axis : x y z
#
# Youngs Moduli (GPa) = 12.35341 52.64383 20.53054
#
# Poissons Ratio (x) = 0.60817 -0.46931
# Poissons Ratio (y) = 0.14271 0.23755
# Poissons Ratio (z) = -0.28239 0.60913
#
# Static dielectric constant tensor:
#      x y z
#    x 3.824740 0.000000 0.524420 
#    y 0.000000 3.253880 0.000000 
#    z 0.524420 0.000000 3.182180 
# 
# 
# High freq. dielectric constant tensor:
#      x y z
#    x 1.718720 0.000000 0.039590 
#    y 0.000000 1.695810 0.000000 
#    z 0.039590 0.000000 1.687040 
# 
# From -- ./inp_files/37913.got.cif
#   From: 2010.06.25/outbox.cif.g09.slc.cpg/sg10_19_cif.got.tgz:37913.got - 2010.06.27 22:07:45.
