data_PCOD8061236
_publ_section_title
;
Structure prediction by ZEFSAII (Michael W. Deem and Ramdas Pophale) SiO2 
 PCOD8061236
Probable space group: P 2/M
;
_chemical_formula_sum "Si O2"
_cell_formula_units_Z 32
_cell_length_a 21.249317
_cell_length_b 9.247002
_cell_length_c 24.845467
_cell_angle_alpha 90.000000
_cell_angle_beta 20.479520
_cell_angle_gamma 90.000000
_cell_volume 1708.059375
_symmetry_space_group_name_H-M "P 2/M"
_symmetry_group_IT_number 10
_symmetry_cell_setting 'monoclinic'
loop_
_space_group_symop_operation_xyz
x,y,z
-x,y,-z
-x,-y,-z
x,-y,z
loop_
_atom_site_type_symbol
_atom_site_label
_atom_site_fract_x
_atom_site_fract_y
_atom_site_fract_z
Si Si1 0.575484 0.337832 0.355206
Si Si2 0.965661 0.837085 0.228409
Si Si3 0.508919 0.832407 0.056144
Si Si4 0.204336 0.666939 0.481695
Si Si5 0.786804 0.337295 0.286392
Si Si6 0.397880 0.838301 0.412382
Si Si7 0.199641 0.666080 0.360707
Si Si8 0.151406 0.670400 0.169250
O O1 0.618866 0.500000 0.300822
O O2 0.733431 0.283251 0.269023
O O3 0.388984 0.337380 0.536130
O O4 0.561223 0.236149 0.314282
O O5 0.935393 0.768234 0.193451
O O6 0.780298 0.836257 0.409177
O O7 0.111292 0.741402 0.143469
O O8 0.038605 0.000000 0.163086
O O9 0.323785 0.775444 0.228909
O O10 0.536691 0.000000 0.049038
O O11 0.500000 0.809300 0.000000
O O12 0.668883 0.738063 0.951621
O O13 0.245273 0.500000 0.459825
O O14 0.360301 0.755855 0.386754
O O15 0.210087 0.707189 0.414825
O O16 0.007539 0.707031 0.661716
O O17 0.865044 0.500000 0.221170
O O18 0.458666 0.000000 0.349638
O O19 0.259400 0.500000 0.303103
O O20 0.000000 0.691367 0.500000
O O21 0.177663 0.500000 0.140120
#
# Coordination Sequence:
#
# PCOD8061236 Si02
#       8
#     4   4   4   4   4   4   4   4
#     4   8  13  21  33  50  78 117 160 204 245 288
#     4   9  16  25  38  60  91 124 159 202 249 296
#     4  11  24  39  55  78 107 135 163 199 246 298
#     4   9  18  32  51  74  99 129 166 208 251 294
#     4   8  13  21  33  51  78 117 162 202 243 292
#     4   9  16  24  37  59  88 123 161 200 245 298
#     4  10  21  38  59  81 103 129 166 207 245 291
#     4  10  19  33  54  75  98 132 171 209 248 293
#
# _framework density 18.734711999999998
#
# number of rings (size 3 to 8) (size 9 to 14) (size 15 to 20)
#    0.000    2.750    0.000    3.000    0.000    6.750 
#    0.000    2.500    0.000    0.000    0.000    0.000 
#    0.000    1.000    0.000   10.500    0.000   14.750 
#
# Total GULP energy -396735.962658 kJ/mol
# GULP energy per Si atom -12397.998833 kJ/mol
# Density = 1.869207 g / cm^3
# Si number density = 18.734712 Si / 1000 Ang^3
#
#
#
# Elastic Constant Matrix: (Units=GPa)
#
#
# Indices 1 2 3 4 5 6 
#
# 1 148.3007 83.3239 40.6646 0.0000 -26.2512 0.0000
# 2 83.3239 126.9352 40.0436 0.0000 -19.1678 0.0000
# 3 40.6646 40.0436 42.6648 0.0000 -7.6550 0.0000
# 4 0.0000 0.0000 0.0000 17.6063 0.0000 -6.5207
# 5 -26.2512 -19.1678 -7.6550 0.0000 21.3355 0.0000
# 6 0.0000 0.0000 0.0000 -6.5207 0.0000 26.4408
#
#
#
# Elastic Compliance Matrix: (Units=1/GPa)
#
#
# Indices 1 2 3 4 5 6 
#
# 1 0.012877 -0.005294 -0.005681 0.000000 0.009050 0.000000
# 2 -0.005294 0.014348 -0.007777 0.000000 0.003586 0.000000
# 3 -0.005681 -0.007777 0.035960 0.000000 -0.001075 0.000000
# 4 0.000000 0.000000 0.000000 0.062507 0.000000 0.015415
# 5 0.009050 0.003586 -0.001075 0.000000 0.060841 0.000000
# 6 0.000000 0.000000 0.000000 0.015415 0.000000 0.041622
#
#
# Mechanical properties :
#
#
# Convention : Reuss Voigt Hill
#
# Bulk Modulus (GPa) = 38.94020 71.77388 55.35704
# Shear Modulus (GPa) = 18.23351 23.33442 20.78396
#
# Velocity S-wave (km/s) = 3.12308 3.53302 3.33435
# Velocity P-wave (km/s) = 5.81678 7.41868 6.66602
#
# Compressibility (1/GPa) = 0.02568040
#
# Stress axis : x y z
#
# Youngs Moduli (GPa) = 77.65561 69.69411 27.80896
#
# Poissons Ratio (x) = 0.36899 0.15798
# Poissons Ratio (y) = 0.41115 0.21628
# Poissons Ratio (z) = 0.44114 0.54203
#
# Static dielectric constant tensor:
#      x y z
#    x 3.693020 0.000000 -0.239510 
#    y 0.000000 3.602750 0.000000 
#    z -0.239510 0.000000 2.954480 
# 
# 
# High freq. dielectric constant tensor:
#      x y z
#    x 1.739090 0.000000 -0.025980 
#    y 0.000000 1.731600 0.000000 
#    z -0.025980 0.000000 1.674660 
# 
# From -- ./inp_files/93637.got.cif
#   From: 2010.06.25/outbox.cif.g09.slc.cpg/sg10_47_cif.got.tgz:93637.got - 2010.06.27 22:07:45.
