data_PCOD8061772
_publ_section_title
;
Structure prediction by ZEFSAII (Michael W. Deem and Ramdas Pophale) SiO2 
 PCOD8061772
Probable space group: P 2/M
;
_chemical_formula_sum "Si O2"
_cell_formula_units_Z 28
_cell_length_a 25.941148
_cell_length_b 9.230309
_cell_length_c 9.474731
_cell_angle_alpha 90.000000
_cell_angle_beta 139.749285
_cell_angle_gamma 90.000000
_cell_volume 1465.867045
_symmetry_space_group_name_H-M "P 2/M"
_symmetry_group_IT_number 10
_symmetry_cell_setting 'monoclinic'
loop_
_space_group_symop_operation_xyz
x,y,z
-x,y,-z
-x,-y,-z
x,-y,z
loop_
_atom_site_type_symbol
_atom_site_label
_atom_site_fract_x
_atom_site_fract_y
_atom_site_fract_z
Si Si1 0.064437 0.166938 0.517680
Si Si2 0.022648 0.663498 0.885764
Si Si3 0.585505 0.668926 0.226909
Si Si4 0.677076 0.837306 0.638933
Si Si5 0.730173 0.670424 0.324553
Si Si6 0.825933 0.164499 0.745674
Si Si7 0.752864 0.831238 0.086607
O O1 0.154364 0.195785 0.758152
O O2 0.000000 0.213864 0.500000
O O3 0.050569 0.267311 0.352820
O O4 0.051936 0.000000 0.449106
O O5 0.038971 0.500000 0.867879
O O6 0.100334 0.760841 0.021825
O O7 0.000000 0.666551 0.000000
O O8 0.580572 0.500000 0.246879
O O9 0.609005 0.739943 0.425471
O O10 0.648277 0.705479 0.235034
O O11 0.500000 0.730778 0.000000
O O12 0.755769 0.831438 0.710396
O O13 0.643754 0.000000 0.577042
O O14 0.699377 0.781750 0.841774
O O15 0.747842 0.500000 0.355349
O O16 0.803423 0.747328 0.557581
O O17 0.723031 0.734343 0.153620
O O18 0.847447 0.000000 0.747298
O O19 0.739240 0.000000 0.094191
#
# Coordination Sequence:
#
# PCOD8061772 Si02
#       7
#     4   4   4   4   4   4   4
#     4  10  21  37  55  74 100 139 183 223 265 312
#     4  11  23  35  48  72 104 135 173 222 269 312
#     4   9  19  37  59  82 108 138 172 209 253 309
#     4   9  19  35  56  81 105 133 172 214 255 304
#     4  10  20  34  54  80 108 138 173 215 261 310
#     4  10  19  34  55  75  98 133 177 220 262 311
#     4  10  20  35  54  77 107 140 175 216 262 314
#
# _framework density 19.101324000000002
#
# number of rings (size 3 to 8) (size 9 to 14) (size 15 to 20)
#    0.000    2.143    0.000    3.000    0.000    8.571 
#    0.000    2.143    0.000    4.286    0.000    0.000 
#    0.000    0.000    0.000    0.000    0.000    0.000 
#
# Total GULP energy -347273.898704 kJ/mol
# GULP energy per Si atom -12402.639239 kJ/mol
# Density = 1.905785 g / cm^3
# Si number density = 19.101324 Si / 1000 Ang^3
#
#
#
# Elastic Constant Matrix: (Units=GPa)
#
#
# Indices 1 2 3 4 5 6 
#
# 1 50.0930 35.3646 37.9514 0.0000 -11.3213 0.0000
# 2 35.3646 102.1560 63.9051 0.0000 -7.5769 0.0000
# 3 37.9514 63.9051 138.8184 0.0000 -9.9292 0.0000
# 4 0.0000 0.0000 0.0000 -8.2847 0.0000 13.0887
# 5 -11.3213 -7.5769 -9.9292 0.0000 34.5084 0.0000
# 6 0.0000 0.0000 0.0000 13.0887 0.0000 20.3340
#
#
#
# Elastic Compliance Matrix: (Units=1/GPa)
#
#
# Indices 1 2 3 4 5 6 
#
# 1 0.029871 -0.007060 -0.004417 0.000000 0.006979 0.000000
# 2 -0.007060 0.015467 -0.005221 0.000000 -0.000422 0.000000
# 3 -0.004417 -0.005221 0.010852 0.000000 0.000527 0.000000
# 4 0.000000 0.000000 0.000000 -0.059845 0.000000 0.038522
# 5 0.006979 -0.000422 0.000527 0.000000 0.031327 0.000000
# 6 0.000000 0.000000 0.000000 0.038522 0.000000 0.024383
#
#
# Mechanical properties :
#
#
# Convention : Reuss Voigt Hill
#
# Bulk Modulus (GPa) = 43.86874 62.83439 53.35157
# Shear Modulus (GPa) = 53.73529 19.56796 36.65162
#
# Velocity S-wave (km/s) = 5.30969 3.20414 4.38516
# Velocity P-wave (km/s) = 7.78502 6.83048 7.32332
#
# Compressibility (1/GPa) = 0.02279527
#
# Stress axis : x y z
#
# Youngs Moduli (GPa) = 33.47752 64.65193 92.14703
#
# Poissons Ratio (x) = 0.45644 0.40702
# Poissons Ratio (y) = 0.23635 0.48106
# Poissons Ratio (z) = 0.14787 0.33752
#
# Static dielectric constant tensor:
#      x y z
#    x 3.314290 0.000000 -0.007700 
#    y 0.000000 3.626670 0.000000 
#    z -0.007700 0.000000 3.688540 
# 
# 
# High freq. dielectric constant tensor:
#      x y z
#    x 1.727300 0.000000 -0.006950 
#    y 0.000000 1.744570 0.000000 
#    z -0.006950 0.000000 1.746380 
# 
# From -- ./inp_files/37045.got.cif
#   From: 2010.06.25/outbox.cif.g09.slc.cpg/sg10_19_cif.got.tgz:37045.got - 2010.06.27 22:07:45.
