data_PCOD8061061
_publ_section_title
;
Structure prediction by ZEFSAII (Michael W. Deem and Ramdas Pophale) SiO2 
 PCOD8061061
Probable space group: P 2/M
;
_chemical_formula_sum "Si O2"
_cell_formula_units_Z 32
_cell_length_a 23.546006
_cell_length_b 9.370641
_cell_length_c 20.386632
_cell_angle_alpha 90.000000
_cell_angle_beta 155.924235
_cell_angle_gamma 90.000000
_cell_volume 1834.986682
_symmetry_space_group_name_H-M "P 2/M"
_symmetry_group_IT_number 10
_symmetry_cell_setting 'monoclinic'
loop_
_space_group_symop_operation_xyz
x,y,z
-x,y,-z
-x,-y,-z
x,-y,z
loop_
_atom_site_type_symbol
_atom_site_label
_atom_site_fract_x
_atom_site_fract_y
_atom_site_fract_z
Si Si1 0.922632 0.161305 0.646606
Si Si2 0.653324 0.656448 0.132850
Si Si3 0.461842 0.670028 0.119388
Si Si4 0.758393 0.669322 0.375928
Si Si5 0.255057 0.836666 0.413455
Si Si6 0.025373 0.665155 0.102994
Si Si7 0.844895 0.835080 0.010339
Si Si8 0.441676 0.165354 0.229171
O O1 0.891665 0.261684 0.551769
O O2 0.804452 0.183748 0.576616
O O3 0.071293 0.203239 0.834663
O O4 0.923361 0.000000 0.621420
O O5 0.717322 0.500000 0.188541
O O6 0.746865 0.731239 0.288526
O O7 0.500000 0.638901 0.000000
O O8 0.638810 0.730483 0.045844
O O9 0.447270 0.500000 0.109934
O O10 0.620870 0.712344 0.271620
O O11 0.413170 0.742554 0.134699
O O12 0.776664 0.500000 0.393405
O O13 0.172896 0.736741 0.276234
O O14 0.416294 0.789145 0.584624
O O15 0.238489 0.000000 0.372553
O O16 0.031180 0.500000 0.129291
O O17 0.897420 0.738497 0.006068
O O18 0.000000 0.686372 0.000000
O O19 0.875105 0.000000 0.024010
O O20 0.682355 0.805734 0.850365
O O21 0.448092 0.000000 0.214836
#
# Coordination Sequence:
#
# PCOD8061061 Si02
#       8
#     4   4   4   4   4   4   4   4
#     4   9  16  28  45  68  95 122 158 205 249 285
#     4   7  12  23  37  58  90 124 159 200 245 294
#     4   9  16  26  43  67  95 127 161 201 253 298
#     4   9  15  24  42  66  91 123 163 204 248 294
#     4   9  18  32  52  76 101 131 164 199 238 285
#     4  10  21  37  57  80 104 129 159 197 237 279
#     4   9  20  36  53  73 100 135 166 196 238 289
#     4  10  19  33  51  73 102 131 164 204 244 286
#
# _framework density 17.438818000000001
#
# number of rings (size 3 to 8) (size 9 to 14) (size 15 to 20)
#    0.000    3.000    1.250    2.625    0.000    4.000 
#    0.000    1.250    0.000    6.750    0.000    5.250 
#    0.000    0.000    0.000    0.000    0.000    0.000 
#
# Total GULP energy -396554.194921 kJ/mol
# GULP energy per Si atom -12392.318591 kJ/mol
# Density = 1.739913 g / cm^3
# Si number density = 17.438818 Si / 1000 Ang^3
#
#
#
# Elastic Constant Matrix: (Units=GPa)
#
#
# Indices 1 2 3 4 5 6 
#
# 1 71.4797 44.0820 48.6472 0.0000 -11.8012 0.0000
# 2 44.0820 62.4091 39.6956 0.0000 -12.0067 0.0000
# 3 48.6472 39.6956 101.6811 0.0000 -1.5925 0.0000
# 4 0.0000 0.0000 0.0000 22.0659 0.0000 -3.7686
# 5 -11.8012 -12.0067 -1.5925 0.0000 26.7589 0.0000
# 6 0.0000 0.0000 0.0000 -3.7686 0.0000 4.6902
#
#
#
# Elastic Compliance Matrix: (Units=1/GPa)
#
#
# Indices 1 2 3 4 5 6 
#
# 1 0.029618 -0.014356 -0.008470 0.000000 0.006116 0.000000
# 2 -0.014356 0.030732 -0.005017 0.000000 0.007159 0.000000
# 3 -0.008470 -0.005017 0.015766 0.000000 -0.005048 0.000000
# 4 0.000000 0.000000 0.000000 0.052527 0.000000 0.042206
# 5 0.006116 0.007159 -0.005048 0.000000 0.042980 0.000000
# 6 0.000000 0.000000 0.000000 0.042206 0.000000 0.247125
#
#
# Mechanical properties :
#
#
# Convention : Reuss Voigt Hill
#
# Bulk Modulus (GPa) = 48.94678 55.60217 52.27448
# Shear Modulus (GPa) = 10.38973 17.57934 13.98454
#
# Velocity S-wave (km/s) = 2.44351 3.17844 2.83489
# Velocity P-wave (km/s) = 6.00747 6.73968 6.38408
#
# Compressibility (1/GPa) = 0.02043035
#
# Stress axis : x y z
#
# Youngs Moduli (GPa) = 33.76377 32.53911 63.42647
#
# Poissons Ratio (x) = 0.46714 0.53719
# Poissons Ratio (y) = 0.48472 0.31821
# Poissons Ratio (z) = 0.28596 0.16325
#
# Static dielectric constant tensor:
#      x y z
#    x 3.031130 0.000000 -0.148570 
#    y 0.000000 3.066030 0.000000 
#    z -0.148570 0.000000 3.332700 
# 
# 
# High freq. dielectric constant tensor:
#      x y z
#    x 1.649220 0.000000 -0.018120 
#    y 0.000000 1.655170 0.000000 
#    z -0.018120 0.000000 1.670490 
# 
# From -- ./inp_files/91225.got.cif
#   From: 2010.06.25/outbox.cif.g09.slc.cpg/sg10_46_cif.got.tgz:91225.got - 2010.06.27 22:07:45.
