data_PCOD8061998
_publ_section_title
;
Structure prediction by ZEFSAII (Michael W. Deem and Ramdas Pophale) SiO2 
 PCOD8061998
Probable space group: P 2/M
;
_chemical_formula_sum "Si O2"
_cell_formula_units_Z 32
_cell_length_a 20.537578
_cell_length_b 8.774367
_cell_length_c 25.314746
_cell_angle_alpha 90.000000
_cell_angle_beta 22.299253
_cell_angle_gamma 90.000000
_cell_volume 1730.957466
_symmetry_space_group_name_H-M "P 2/M"
_symmetry_group_IT_number 10
_symmetry_cell_setting 'monoclinic'
loop_
_space_group_symop_operation_xyz
x,y,z
-x,y,-z
-x,-y,-z
x,-y,z
loop_
_atom_site_type_symbol
_atom_site_label
_atom_site_fract_x
_atom_site_fract_y
_atom_site_fract_z
Si Si1 0.995299 0.823606 0.155319
Si Si2 0.318675 0.320415 0.866838
Si Si3 0.904896 0.818990 0.413032
Si Si4 0.643238 0.324724 0.436265
Si Si5 0.501352 0.677852 0.160271
Si Si6 0.858438 0.819145 0.565621
Si Si7 0.817496 0.823949 0.875914
Si Si8 0.574571 0.819874 0.598181
O O1 0.821786 0.729909 0.277157
O O2 0.058361 0.798161 0.167627
O O3 0.961013 0.000000 0.169004
O O4 0.134770 0.760286 0.009488
O O5 0.289912 0.500000 0.886599
O O6 0.436990 0.271966 0.827732
O O7 0.406558 0.262145 0.747464
O O8 0.903760 0.754512 0.473416
O O9 0.739525 0.756231 0.506040
O O10 0.079135 0.765555 0.253150
O O11 0.897631 0.000000 0.417626
O O12 0.500000 0.301536 0.500000
O O13 0.657994 0.500000 0.443092
O O14 0.592993 0.220689 0.523368
O O15 0.468108 0.500000 0.181566
O O16 0.326929 0.763166 0.276632
O O17 0.645221 0.725165 0.009754
O O18 0.000000 0.755821 0.500000
O O19 0.857433 0.000000 0.565793
O O20 0.763822 0.000000 0.911542
O O21 0.554271 0.000000 0.619896
#
# Coordination Sequence:
#
# PCOD8061998 Si02
#       8
#     4   4   4   4   4   4   4   4
#     4  10  19  34  57  84 110 144 187 231 278 326
#     4  10  20  34  54  84 116 146 181 228 284 336
#     4   9  17  32  54  82 109 136 180 231 275 317
#     4  11  24  40  57  81 117 154 183 222 279 339
#     4  10  20  33  51  79 111 144 180 222 273 329
#     4  10  20  35  56  80 109 147 186 226 275 330
#     4   9  17  32  54  79 106 138 177 227 276 319
#     4  11  20  35  59  85 111 143 188 238 275 322
#
# _framework density 18.486878999999998
#
# number of rings (size 3 to 8) (size 9 to 14) (size 15 to 20)
#    0.000    2.000    2.500    1.875    0.000    2.750 
#    0.000    1.875    0.000    7.500    0.000    0.000 
#    0.000    0.000    0.000    0.000    0.000    0.000 
#
# Total GULP energy -396912.167041 kJ/mol
# GULP energy per Si atom -12403.505220 kJ/mol
# Density = 1.844480 g / cm^3
# Si number density = 18.486879 Si / 1000 Ang^3
#
#
#
# Elastic Constant Matrix: (Units=GPa)
#
#
# Indices 1 2 3 4 5 6 
#
# 1 75.7591 22.6860 48.9827 0.0000 0.7096 0.0000
# 2 22.6860 38.0755 21.4743 0.0000 -6.1122 0.0000
# 3 48.9827 21.4743 135.6969 0.0000 3.7819 0.0000
# 4 0.0000 0.0000 0.0000 25.4761 0.0000 -1.8633
# 5 0.7096 -6.1122 3.7819 0.0000 27.8013 0.0000
# 6 0.0000 0.0000 0.0000 -1.8633 0.0000 19.1156
#
#
#
# Elastic Compliance Matrix: (Units=1/GPa)
#
#
# Indices 1 2 3 4 5 6 
#
# 1 0.019434 -0.008688 -0.005594 0.000000 -0.001645 0.000000
# 2 -0.008688 0.034140 -0.002491 0.000000 0.008066 0.000000
# 3 -0.005594 -0.002491 0.009832 0.000000 -0.001742 0.000000
# 4 0.000000 0.000000 0.000000 0.039534 0.000000 0.003854
# 5 -0.001645 0.008066 -0.001742 0.000000 0.038022 0.000000
# 6 0.000000 0.000000 0.000000 0.003854 0.000000 0.052689
#
#
# Mechanical properties :
#
#
# Convention : Reuss Voigt Hill
#
# Bulk Modulus (GPa) = 33.49176 48.42415 40.95795
# Shear Modulus (GPa) = 21.08364 24.90449 22.99407
#
# Velocity S-wave (km/s) = 3.38074 3.67433 3.53059
# Velocity P-wave (km/s) = 5.77884 6.65219 6.23084
#
# Compressibility (1/GPa) = 0.02985809
#
# Stress axis : x y z
#
# Youngs Moduli (GPa) = 51.45689 29.29115 101.71290
#
# Poissons Ratio (x) = 0.25448 0.56901
# Poissons Ratio (y) = 0.44705 0.25341
# Poissons Ratio (z) = 0.28787 0.07298
#
# Static dielectric constant tensor:
#      x y z
#    x 3.266040 0.000000 0.095660 
#    y 0.000000 3.263830 0.000000 
#    z 0.095660 0.000000 3.525380 
# 
# 
# High freq. dielectric constant tensor:
#      x y z
#    x 1.688070 0.000000 0.009910 
#    y 0.000000 1.710610 0.000000 
#    z 0.009910 0.000000 1.732240 
# 
# From -- ./inp_files/86994.got.cif
#   From: 2010.06.25/outbox.cif.g09.slc.cpg/sg10_44_cif.got.tgz:86994.got - 2010.06.27 22:07:45.
