data_PCOD8061078
_publ_section_title
;
Structure prediction by ZEFSAII (Michael W. Deem and Ramdas Pophale) SiO2 
 PCOD8061078
Probable space group: P 2/M
;
_chemical_formula_sum "Si O2"
_cell_formula_units_Z 28
_cell_length_a 14.294559
_cell_length_b 9.772148
_cell_length_c 12.578166
_cell_angle_alpha 90.000000
_cell_angle_beta 63.481042
_cell_angle_gamma 90.000000
_cell_volume 1572.163203
_symmetry_space_group_name_H-M "P 2/M"
_symmetry_group_IT_number 10
_symmetry_cell_setting 'monoclinic'
loop_
_space_group_symop_operation_xyz
x,y,z
-x,y,-z
-x,-y,-z
x,-y,z
loop_
_atom_site_type_symbol
_atom_site_label
_atom_site_fract_x
_atom_site_fract_y
_atom_site_fract_z
Si Si1 0.757377 0.154730 0.693216
Si Si2 0.962828 0.650006 0.854908
Si Si3 0.378173 0.160037 0.046311
Si Si4 0.980151 0.251007 0.624567
Si Si5 0.808366 0.659394 0.244885
Si Si6 0.253672 0.660358 0.955190
Si Si7 0.796832 0.155901 0.443547
O O1 0.681027 0.222627 0.819595
O O2 0.876764 0.158931 0.671734
O O3 0.745927 0.216025 0.579205
O O4 0.720986 0.000000 0.702041
O O5 0.954948 0.500000 0.909047
O O6 0.964575 0.638549 0.725455
O O7 0.857926 0.724656 0.949080
O O8 0.072831 0.714135 0.839414
O O9 0.344235 0.248980 0.961628
O O10 0.350614 0.000000 0.041349
O O11 0.500000 0.182140 0.000000
O O12 0.000000 0.324135 0.500000
O O13 0.077664 0.154865 0.605932
O O14 0.813455 0.500000 0.277147
O O15 0.759061 0.747251 0.366182
O O16 0.737935 0.679009 0.176273
O O17 0.266295 0.500000 0.980452
O O18 0.761634 0.000000 0.438413
#
# Coordination Sequence:
#
# PCOD8061078 Si02
#       7
#     4   4   4   4   4   4   4
#     4   9  16  29  47  67  96 128 158 197 245 289
#     4   9  16  27  43  66  98 134 166 192 229 284
#     4  10  21  36  54  75  97 123 160 207 253 289
#     4   9  15  24  41  66  97 130 161 191 232 283
#     4   9  18  31  47  70 102 134 163 195 234 283
#     4  10  19  33  52  71  96 132 166 198 241 289
#     4   9  17  28  46  71  98 129 163 194 231 287
#
# _framework density 17.809854999999999
#
# number of rings (size 3 to 8) (size 9 to 14) (size 15 to 20)
#    0.000    2.714    1.429    0.857    0.000    4.571 
#    0.000    2.857    0.000    3.429    0.000    6.000 
#    0.000    0.000    0.000    0.000    0.000    0.000 
#
# Total GULP energy -346870.932955 kJ/mol
# GULP energy per Si atom -12388.247606 kJ/mol
# Density = 1.776932 g / cm^3
# Si number density = 17.809855 Si / 1000 Ang^3
#
#
#
# Elastic Constant Matrix: (Units=GPa)
#
#
# Indices 1 2 3 4 5 6 
#
# 1 67.4992 32.3137 51.6652 0.0000 13.0198 0.0000
# 2 32.3137 59.1626 39.2356 0.0000 14.2651 0.0000
# 3 51.6652 39.2356 113.1185 0.0000 15.9524 0.0000
# 4 0.0000 0.0000 0.0000 25.1297 0.0000 6.3078
# 5 13.0198 14.2651 15.9524 0.0000 23.5253 0.0000
# 6 0.0000 0.0000 0.0000 6.3078 0.0000 18.6165
#
#
#
# Elastic Compliance Matrix: (Units=1/GPa)
#
#
# Indices 1 2 3 4 5 6 
#
# 1 0.025705 -0.007374 -0.008633 0.000000 -0.003901 0.000000
# 2 -0.007374 0.025942 -0.004409 0.000000 -0.008660 0.000000
# 3 -0.008633 -0.004409 0.014664 0.000000 -0.002492 0.000000
# 4 0.000000 0.000000 0.000000 0.043492 0.000000 -0.014736
# 5 -0.003901 -0.008660 -0.002492 0.000000 0.051608 0.000000
# 6 0.000000 0.000000 0.000000 -0.014736 0.000000 0.058709
#
#
# Mechanical properties :
#
#
# Convention : Reuss Voigt Hill
#
# Bulk Modulus (GPa) = 39.24657 54.02325 46.63491
# Shear Modulus (GPa) = 18.55668 21.22536 19.89102
#
# Velocity S-wave (km/s) = 3.23140 3.45596 3.34556
# Velocity P-wave (km/s) = 6.00057 6.80618 6.41603
#
# Compressibility (1/GPa) = 0.02547994
#
# Stress axis : x y z
#
# Youngs Moduli (GPa) = 38.90257 38.54736 68.19517
#
# Poissons Ratio (x) = 0.28426 0.58870
# Poissons Ratio (y) = 0.28688 0.30066
# Poissons Ratio (z) = 0.33583 0.16995
#
# Static dielectric constant tensor:
#      x y z
#    x 2.976720 0.000000 0.058310 
#    y 0.000000 2.959510 0.000000 
#    z 0.058310 0.000000 3.594570 
# 
# 
# High freq. dielectric constant tensor:
#      x y z
#    x 1.652060 0.000000 0.013250 
#    y 0.000000 1.653700 0.000000 
#    z 0.013250 0.000000 1.701210 
# 
# From -- ./inp_files/46009.got.cif
#   From: 2010.06.25/outbox.cif.g09.slc.cpg/sg10_24_cif.got.tgz:46009.got - 2010.06.27 22:07:45.
