data_PCOD8061464
_publ_section_title
;
Structure prediction by ZEFSAII (Michael W. Deem and Ramdas Pophale) SiO2 
 PCOD8061464
Probable space group: P 2/M
;
_chemical_formula_sum "Si O2"
_cell_formula_units_Z 30
_cell_length_a 16.812542
_cell_length_b 13.852770
_cell_length_c 10.720855
_cell_angle_alpha 90.000000
_cell_angle_beta 141.956072
_cell_angle_gamma 90.000000
_cell_volume 1538.747111
_symmetry_space_group_name_H-M "P 2/M"
_symmetry_group_IT_number 10
_symmetry_cell_setting 'monoclinic'
loop_
_space_group_symop_operation_xyz
x,y,z
-x,y,-z
-x,-y,-z
x,-y,z
loop_
_atom_site_type_symbol
_atom_site_label
_atom_site_fract_x
_atom_site_fract_y
_atom_site_fract_z
Si Si1 0.297669 0.391408 0.493532
Si Si2 0.010438 0.392653 0.158722
Si Si3 0.570220 0.782045 0.218682
Si Si4 0.178602 0.725427 0.923100
Si Si5 0.000000 0.775921 0.500000
Si Si6 0.341236 0.893008 0.047783
Si Si7 0.637322 0.610186 0.699456
Si Si8 0.202742 0.107088 0.614535
O O1 0.350688 0.500000 0.578899
O O2 0.158117 0.378613 0.384847
O O3 0.401540 0.321096 0.684155
O O4 0.277015 0.373866 0.319031
O O5 0.961224 0.500000 0.143641
O O6 0.931156 0.302041 0.113507
O O7 0.000000 0.389094 0.000000
O O8 0.706905 0.837240 0.372679
O O9 0.500000 0.765245 0.000000
O O10 0.479922 0.841448 0.203040
O O11 0.240403 0.832949 0.010044
O O12 0.112717 0.711871 0.704621
O O13 0.298227 0.654509 0.096837
O O14 0.934099 0.840050 0.528055
O O15 0.281026 0.902158 0.837943
O O16 0.360081 0.000000 0.129457
O O17 0.500000 0.659922 0.500000
O O18 0.614959 0.500000 0.706875
O O19 0.172498 0.000000 0.524599
#
# Coordination Sequence:
#
# PCOD8061464 Si02
#       8
#     4   4   4   4   2   4   4   4
#     4  10  20  34  53  80 110 142 187 232 274 328
#     4  10  19  35  58  82 105 139 190 238 274 322
#     4  10  19  33  55  83 114 150 189 230 282 339
#     4  11  20  35  57  82 115 148 185 232 289 338
#     4  10  21  32  51  88 122 148 179 230 297 350
#     4   9  19  34  54  81 112 148 189 234 283 335
#     4  10  20  35  56  80 104 141 193 234 267 323
#     4   9  17  32  54  79 110 147 190 235 276 330
#
# _framework density 19.496379999999998
#
# number of rings (size 3 to 8) (size 9 to 14) (size 15 to 20)
#    0.000    2.133    1.333    2.600    0.000    2.400 
#    0.000    2.000    0.000   17.600    0.000    0.000 
#    0.000    0.000    0.000    0.000    0.000    0.000 
#
# Total GULP energy -371694.301571 kJ/mol
# GULP energy per Si atom -12389.810052 kJ/mol
# Density = 1.945201 g / cm^3
# Si number density = 19.496380 Si / 1000 Ang^3
#
#
#
# Elastic Constant Matrix: (Units=GPa)
#
#
# Indices 1 2 3 4 5 6 
#
# 1 89.7124 61.9566 25.5048 0.0000 26.2849 0.0000
# 2 61.9566 137.5320 57.0459 0.0000 5.7310 0.0000
# 3 25.5048 57.0459 104.6763 0.0000 10.6093 0.0000
# 4 0.0000 0.0000 0.0000 15.7106 0.0000 5.5586
# 5 26.2849 5.7310 10.6093 0.0000 27.0723 0.0000
# 6 0.0000 0.0000 0.0000 5.5586 0.0000 32.3760
#
#
#
# Elastic Compliance Matrix: (Units=1/GPa)
#
#
# Indices 1 2 3 4 5 6 
#
# 1 0.024904 -0.011255 0.002369 0.000000 -0.022726 0.000000
# 2 -0.011255 0.014481 -0.006192 0.000000 0.010288 0.000000
# 3 0.002369 -0.006192 0.012966 0.000000 -0.006070 0.000000
# 4 0.000000 0.000000 0.000000 0.067768 0.000000 -0.011635
# 5 -0.022726 0.010288 -0.006070 0.000000 0.059204 0.000000
# 6 0.000000 0.000000 0.000000 -0.011635 0.000000 0.032885
#
#
# Mechanical properties :
#
#
# Convention : Reuss Voigt Hill
#
# Bulk Modulus (GPa) = 45.05529 68.99282 57.02406
# Shear Modulus (GPa) = 20.01905 27.52600 23.77253
#
# Velocity S-wave (km/s) = 3.20786 3.76154 3.49568
# Velocity P-wave (km/s) = 6.07291 7.37088 6.75315
#
# Compressibility (1/GPa) = 0.02219495
#
# Stress axis : x y z
#
# Youngs Moduli (GPa) = 40.15361 69.05681 77.12517
#
# Poissons Ratio (x) = 0.77721 -0.18269
# Poissons Ratio (y) = 0.45192 0.47758
# Poissons Ratio (z) = -0.09512 0.42761
#
# Static dielectric constant tensor:
#      x y z
#    x 3.568650 0.000000 0.329590 
#    y 0.000000 3.735860 0.000000 
#    z 0.329590 0.000000 3.523770 
# 
# 
# High freq. dielectric constant tensor:
#      x y z
#    x 1.746220 0.000000 0.034620 
#    y 0.000000 1.748720 0.000000 
#    z 0.034620 0.000000 1.749280 
# 
# From -- ./inp_files/53686.got.cif
#   From: 2010.06.25/outbox.cif.g09.slc.cpg/sg10_27_cif.got.tgz:53686.got - 2010.06.27 22:07:45.
