data_PCOD8061093
_publ_section_title
;
Structure prediction by ZEFSAII (Michael W. Deem and Ramdas Pophale) SiO2 
 PCOD8061093
Probable space group: P 2/M
;
_chemical_formula_sum "Si O2"
_cell_formula_units_Z 18
_cell_length_a 5.110814
_cell_length_b 11.142736
_cell_length_c 17.701798
_cell_angle_alpha 90.000000
_cell_angle_beta 61.681279
_cell_angle_gamma 90.000000
_cell_volume 887.444191
_symmetry_space_group_name_H-M "P 2/M"
_symmetry_group_IT_number 10
_symmetry_cell_setting 'monoclinic'
loop_
_space_group_symop_operation_xyz
x,y,z
-x,y,-z
-x,-y,-z
x,-y,z
loop_
_atom_site_type_symbol
_atom_site_label
_atom_site_fract_x
_atom_site_fract_y
_atom_site_fract_z
Si Si1 0.932722 0.277844 0.089020
Si Si2 0.404338 0.363415 0.724937
Si Si3 0.626267 0.865844 0.878699
Si Si4 0.967995 0.786885 0.691202
Si Si5 0.847214 0.000000 0.440920
O O1 0.798357 0.365031 0.171119
O O2 0.698557 0.172504 0.104240
O O3 0.242769 0.219416 0.073744
O O4 0.000000 0.346387 0.000000
O O5 0.447166 0.500000 0.693126
O O6 0.724120 0.306689 0.695661
O O7 0.252619 0.289691 0.678284
O O8 0.850394 0.863464 0.777520
O O9 0.608224 0.000000 0.912894
O O10 0.057572 0.879127 0.614366
O O11 0.500000 0.000000 0.500000
O O12 0.000000 0.000000 0.500000
#
# Coordination Sequence:
#
# PCOD8061093 Si02
#       5
#     4   4   4   4   2
#     4  10  21  32  48  79 112 148 198 248 288 324
#     4  10  21  38  62  83 112 163 205 236 279 331
#     4  10  19  33  52  73 110 155 189 231 290 345
#     4  10  21  39  60  88 119 147 193 237 280 353
#     4  12  24  40  68  98 123 146 175 232 302 350
#
# _framework density 20.282965999999998
#
# number of rings (size 3 to 8) (size 9 to 14) (size 15 to 20)
#    0.000    1.778    1.111    3.333    0.000    3.111 
#    0.000    0.000    0.000   21.333    0.000    0.000 
#    0.000    0.000    0.000    0.000    0.000    0.000 
#
# Total GULP energy -223206.752742 kJ/mol
# GULP energy per Si atom -12400.375152 kJ/mol
# Density = 2.023680 g / cm^3
# Si number density = 20.282966 Si / 1000 Ang^3
#
#
#
# Elastic Constant Matrix: (Units=GPa)
#
#
# Indices 1 2 3 4 5 6 
#
# 1 115.6185 19.1281 23.0404 0.0000 16.9296 0.0000
# 2 19.1281 94.9174 32.3263 0.0000 13.3555 0.0000
# 3 23.0404 32.3263 89.6166 0.0000 21.8063 0.0000
# 4 0.0000 0.0000 0.0000 -31.3787 0.0000 -25.2230
# 5 16.9296 13.3555 21.8063 0.0000 32.4091 0.0000
# 6 0.0000 0.0000 0.0000 -25.2230 0.0000 0.6359
#
#
#
# Elastic Compliance Matrix: (Units=1/GPa)
#
#
# Indices 1 2 3 4 5 6 
#
# 1 0.009608 -0.000997 -0.001183 0.000000 -0.003812 0.000000
# 2 -0.000997 0.012277 -0.003669 0.000000 -0.002070 0.000000
# 3 -0.001183 -0.003669 0.014670 0.000000 -0.007741 0.000000
# 4 0.000000 0.000000 0.000000 -0.000969 0.000000 -0.038441
# 5 -0.003812 -0.002070 -0.007741 0.000000 0.038908 0.000000
# 6 0.000000 0.000000 0.000000 -0.038441 0.000000 0.047822
#
#
# Mechanical properties :
#
#
# Convention : Reuss Voigt Hill
#
# Bulk Modulus (GPa) = 40.22884 49.90466 45.06675
# Shear Modulus (GPa) = 35.13734 15.37712 25.25723
#
# Velocity S-wave (km/s) = 4.16667 2.75640 3.53263
# Velocity P-wave (km/s) = 6.55935 5.89813 6.23751
#
# Compressibility (1/GPa) = 0.02485779
#
# Stress axis : x y z
#
# Youngs Moduli (GPa) = 104.07972 81.45274 68.16808
#
# Poissons Ratio (x) = 0.08120 0.08064
# Poissons Ratio (y) = 0.10376 0.25007
# Poissons Ratio (z) = 0.12313 0.29881
#
# Static dielectric constant tensor:
#      x y z
#    x 3.808990 0.000000 0.068680 
#    y 0.000000 3.345460 0.000000 
#    z 0.068680 0.000000 3.737320 
# 
# 
# High freq. dielectric constant tensor:
#      x y z
#    x 1.813520 0.000000 0.003810 
#    y 0.000000 1.773180 0.000000 
#    z 0.003810 0.000000 1.782300 
# 
# From -- ./inp_files/72862.got.cif
#   From: 2010.06.25/outbox.cif.g09.slc.cpg/sg10_37_cif.got.tgz:72862.got - 2010.06.27 22:07:45.
