data_PCOD8061611
_publ_section_title
;
Structure prediction by ZEFSAII (Michael W. Deem and Ramdas Pophale) SiO2 
 PCOD8061611
Probable space group: P 2/M
;
_chemical_formula_sum "Si O2"
_cell_formula_units_Z 28
_cell_length_a 9.780953
_cell_length_b 9.007154
_cell_length_c 27.945506
_cell_angle_alpha 90.000000
_cell_angle_beta 37.189904
_cell_angle_gamma 90.000000
_cell_volume 1488.152392
_symmetry_space_group_name_H-M "P 2/M"
_symmetry_group_IT_number 10
_symmetry_cell_setting 'monoclinic'
loop_
_space_group_symop_operation_xyz
x,y,z
-x,y,-z
-x,-y,-z
x,-y,z
loop_
_atom_site_type_symbol
_atom_site_label
_atom_site_fract_x
_atom_site_fract_y
_atom_site_fract_z
Si Si1 0.343591 0.672261 0.627934
Si Si2 0.660955 0.827144 0.808949
Si Si3 0.751788 0.169756 0.949067
Si Si4 0.062343 0.827604 0.627146
Si Si5 0.752374 0.668375 0.048730
Si Si6 0.139786 0.325367 0.507296
Si Si7 0.946731 0.325619 0.808202
O O1 0.325882 0.500000 0.619265
O O2 0.264093 0.759966 0.602902
O O3 0.597007 0.718017 0.571807
O O4 0.189019 0.710876 0.716746
O O5 0.413272 0.758172 0.868759
O O6 0.750825 0.741516 0.830159
O O7 0.820170 0.798740 0.719159
O O8 0.644226 0.000000 0.826440
O O9 0.933201 0.246986 0.863246
O O10 0.826163 0.000000 0.935438
O O11 0.500000 0.182704 0.000000
O O12 0.759014 0.254679 0.996188
O O13 0.041939 0.753198 0.581323
O O14 0.115690 0.000000 0.606299
O O15 0.665482 0.500000 0.068063
O O16 0.000000 0.674655 0.000000
O O17 0.107442 0.500000 0.522943
O O18 0.000000 0.269045 0.500000
O O19 0.908290 0.500000 0.825012
#
# Coordination Sequence:
#
# PCOD8061611 Si02
#       7
#     4   4   4   4   4   4   4
#     4   9  19  36  58  84 112 144 186 232 276 327
#     4  10  20  36  57  82 114 147 185 229 279 336
#     4  11  22  36  58  85 114 149 187 228 279 335
#     4  10  21  36  58  86 113 143 184 230 276 329
#     4  11  24  40  58  83 112 147 191 234 277 328
#     4  10  21  38  58  81 113 150 186 225 276 332
#     4  10  19  33  57  85 113 143 186 240 282 320
#
# _framework density 18.815277999999999
#
# number of rings (size 3 to 8) (size 9 to 14) (size 15 to 20)
#    0.000    1.857    1.429    2.571    0.000    6.571 
#    2.571    0.000    0.000    0.000    0.000    0.000 
#    0.000    0.000    0.000    0.000    0.000    0.000 
#
# Total GULP energy -347267.858617 kJ/mol
# GULP energy per Si atom -12402.423522 kJ/mol
# Density = 1.877245 g / cm^3
# Si number density = 18.815278 Si / 1000 Ang^3
#
#
#
# Elastic Constant Matrix: (Units=GPa)
#
#
# Indices 1 2 3 4 5 6 
#
# 1 106.8415 64.0679 64.2467 0.0000 6.9294 0.0000
# 2 64.0679 127.2517 67.5862 0.0000 13.5759 0.0000
# 3 64.2467 67.5862 123.8463 0.0000 7.5761 0.0000
# 4 0.0000 0.0000 0.0000 34.3042 0.0000 4.7161
# 5 6.9294 13.5759 7.5761 0.0000 24.4872 0.0000
# 6 0.0000 0.0000 0.0000 4.7161 0.0000 9.6300
#
#
#
# Elastic Compliance Matrix: (Units=1/GPa)
#
#
# Indices 1 2 3 4 5 6 
#
# 1 0.015576 -0.005002 -0.005352 0.000000 0.000021 0.000000
# 2 -0.005002 0.013146 -0.004301 0.000000 -0.004542 0.000000
# 3 -0.005352 -0.004301 0.013210 0.000000 -0.000188 0.000000
# 4 0.000000 0.000000 0.000000 0.031255 0.000000 -0.015307
# 5 0.000021 -0.004542 -0.000188 0.000000 0.043408 0.000000
# 6 0.000000 0.000000 0.000000 -0.015307 0.000000 0.111338
#
#
# Mechanical properties :
#
#
# Convention : Reuss Voigt Hill
#
# Bulk Modulus (GPa) = 79.23129 83.30458 81.26793
# Shear Modulus (GPa) = 19.12415 24.48687 21.80551
#
# Velocity S-wave (km/s) = 3.19159 3.61145 3.40799
# Velocity P-wave (km/s) = 7.46881 7.85883 7.66630
#
# Compressibility (1/GPa) = 0.01262128
#
# Stress axis : x y z
#
# Youngs Moduli (GPa) = 64.20208 76.06947 75.70166
#
# Poissons Ratio (x) = 0.38048 0.40514
# Poissons Ratio (y) = 0.32113 0.32563
# Poissons Ratio (z) = 0.34360 0.32721
#
# Static dielectric constant tensor:
#      x y z
#    x 3.123540 0.000000 0.006270 
#    y 0.000000 3.633220 0.000000 
#    z 0.006270 0.000000 3.736670 
# 
# 
# High freq. dielectric constant tensor:
#      x y z
#    x 1.708000 0.000000 0.002150 
#    y 0.000000 1.742400 0.000000 
#    z 0.002150 0.000000 1.746830 
# 
# From -- ./inp_files/91815.got.cif
#   From: 2010.06.25/outbox.cif.g09.slc.cpg/sg10_46_cif.got.tgz:91815.got - 2010.06.27 22:07:45.
