data_PCOD8061399
_publ_section_title
;
Structure prediction by ZEFSAII (Michael W. Deem and Ramdas Pophale) SiO2 
 PCOD8061399
Probable space group: P 2/M
;
_chemical_formula_sum "Si O2"
_cell_formula_units_Z 32
_cell_length_a 8.708458
_cell_length_b 24.456559
_cell_length_c 15.211552
_cell_angle_alpha 90.000000
_cell_angle_beta 150.003701
_cell_angle_gamma 90.000000
_cell_volume 1619.688698
_symmetry_space_group_name_H-M "P 2/M"
_symmetry_group_IT_number 10
_symmetry_cell_setting 'monoclinic'
loop_
_space_group_symop_operation_xyz
x,y,z
-x,y,-z
-x,-y,-z
x,-y,z
loop_
_atom_site_type_symbol
_atom_site_label
_atom_site_fract_x
_atom_site_fract_y
_atom_site_fract_z
Si Si1 0.277930 0.858851 0.972799
Si Si2 0.362538 0.141149 0.667670
Si Si3 0.139976 0.751308 0.830884
Si Si4 0.179927 0.061000 0.179927
Si Si5 0.862998 0.369178 0.169964
Si Si6 0.825968 0.564439 0.825968
Si Si7 0.212703 0.751307 0.521795
Si Si8 0.783894 0.369179 0.476929
O O1 0.081507 0.802099 0.867671
O O2 0.031550 0.907839 0.853867
O O3 0.500000 0.868218 0.000000
O O4 0.481025 0.856350 0.160341
O O5 0.498502 0.092162 0.676185
O O6 0.440002 0.197902 0.653839
O O7 0.000000 0.131783 0.500000
O O8 0.030964 0.691659 0.810691
O O9 0.985929 0.765970 0.661975
O O10 0.500000 0.746460 0.000000
O O11 0.249887 0.000000 0.249884
O O12 0.000000 0.058515 0.000000
O O13 0.986128 0.413083 0.163057
O O14 0.007552 0.381769 0.335851
O O15 0.500000 0.374941 0.000000
O O16 0.805702 0.500000 0.805696
O O17 0.483082 0.586916 0.660014
O O18 0.000000 0.582493 0.000000
O O19 0.370149 0.691658 0.590421
O O20 0.000000 0.746459 0.500000
O O21 0.000000 0.374941 0.500000
#
# Coordination Sequence:
#
# PCOD8061399 Si02
#       8
#     4   4   4   4   4   4   4   4
#     4  10  19  33  55  80 106 139 176 217 268 320
#     4  10  19  33  55  80 106 139 176 217 268 320
#     4   9  17  31  53  82 113 141 173 215 267 326
#     4   9  20  37  53  72 102 141 184 223 262 317
#     4  10  21  38  61  87 115 149 185 227 280 333
#     4  11  25  42  59  82 112 149 194 237 276 325
#     4   9  17  31  53  82 113 141 173 215 267 326
#     4  10  21  38  61  87 115 149 185 227 280 333
#
# _framework density 19.756883999999999
#
# number of rings (size 3 to 8) (size 9 to 14) (size 15 to 20)
#    0.000    2.250    0.000    4.125    0.000    6.000 
#    0.000    5.000    0.000    5.250    0.000    0.000 
#    0.000    0.000    0.000    0.000    0.000    0.000 
#
# Total GULP energy -396585.374808 kJ/mol
# GULP energy per Si atom -12393.292963 kJ/mol
# Density = 1.971192 g / cm^3
# Si number density = 19.756884 Si / 1000 Ang^3
#
#
#
# Elastic Constant Matrix: (Units=GPa)
#
#
# Indices 1 2 3 4 5 6 
#
# 1 99.7286 64.5897 61.8575 0.0000 3.2674 0.0000
# 2 64.5897 131.1917 66.1291 0.0000 -1.1565 0.0000
# 3 61.8575 66.1291 110.3256 0.0000 -11.1829 0.0000
# 4 0.0000 0.0000 0.0000 34.1628 0.0000 10.7748
# 5 3.2674 -1.1565 -11.1829 0.0000 27.5311 0.0000
# 6 0.0000 0.0000 0.0000 10.7748 0.0000 48.6008
#
#
#
# Elastic Compliance Matrix: (Units=1/GPa)
#
#
# Indices 1 2 3 4 5 6 
#
# 1 0.018382 -0.005187 -0.007760 0.000000 -0.005551 0.000000
# 2 -0.005187 0.012527 -0.004677 0.000000 -0.000758 0.000000
# 3 -0.007760 -0.004677 0.016991 0.000000 0.007626 0.000000
# 4 0.000000 0.000000 0.000000 0.031472 0.000000 -0.006977
# 5 -0.005551 -0.000758 0.007626 0.000000 0.040047 0.000000
# 6 0.000000 0.000000 0.000000 -0.006977 0.000000 0.022123
#
#
# Mechanical properties :
#
#
# Convention : Reuss Voigt Hill
#
# Bulk Modulus (GPa) = 79.04035 80.71092 79.87563
# Shear Modulus (GPa) = 27.62304 31.97023 29.79664
#
# Velocity S-wave (km/s) = 3.74324 4.02703 3.88772
# Velocity P-wave (km/s) = 7.66654 7.90970 7.78907
#
# Compressibility (1/GPa) = 0.01265177
#
# Stress axis : x y z
#
# Youngs Moduli (GPa) = 54.40174 79.82561 58.85379
#
# Poissons Ratio (x) = 0.41409 0.45668
# Poissons Ratio (y) = 0.28221 0.27527
# Poissons Ratio (z) = 0.42214 0.37336
#
# Static dielectric constant tensor:
#      x y z
#    x 3.449590 0.000000 -0.102330 
#    y 0.000000 4.290550 0.000000 
#    z -0.102330 0.000000 3.586630 
# 
# 
# High freq. dielectric constant tensor:
#      x y z
#    x 1.760160 0.000000 -0.007330 
#    y 0.000000 1.780020 0.000000 
#    z -0.007330 0.000000 1.769980 
# 
# From -- ./inp_files/62705.got.cif
#   From: 2010.06.25/outbox.cif.g09.slc.cpg/sg10_32_cif.got.tgz:62705.got - 2010.06.27 22:07:45.
