data_PCOD8061382
_publ_section_title
;
Structure prediction by ZEFSAII (Michael W. Deem and Ramdas Pophale) SiO2 
 PCOD8061382
Probable space group: P 2/M
;
_chemical_formula_sum "Si O2"
_cell_formula_units_Z 32
_cell_length_a 14.758587
_cell_length_b 15.126361
_cell_length_c 20.341819
_cell_angle_alpha 90.000000
_cell_angle_beta 21.150706
_cell_angle_gamma 90.000000
_cell_volume 1638.560265
_symmetry_space_group_name_H-M "P 2/M"
_symmetry_group_IT_number 10
_symmetry_cell_setting 'monoclinic'
loop_
_space_group_symop_operation_xyz
x,y,z
-x,y,-z
-x,-y,-z
x,-y,z
loop_
_atom_site_type_symbol
_atom_site_label
_atom_site_fract_x
_atom_site_fract_y
_atom_site_fract_z
Si Si1 0.211449 0.903666 0.302326
Si Si2 0.312835 0.595454 0.686873
Si Si3 0.595361 0.243105 0.536564
Si Si4 0.964692 0.689508 0.836218
Si Si5 0.207128 0.601851 0.183983
Si Si6 0.073132 0.749754 0.562429
Si Si7 0.470000 0.811415 0.817693
Si Si8 0.295558 0.898498 0.801410
O O1 0.472961 0.878168 0.161051
O O2 0.000000 0.912144 0.500000
O O3 0.134305 0.827865 0.302791
O O4 0.244804 0.000000 0.245025
O O5 0.500000 0.585656 0.500000
O O6 0.292004 0.500000 0.737402
O O7 0.419698 0.669642 0.664498
O O8 0.038327 0.619924 0.843337
O O9 0.783400 0.231354 0.468472
O O10 0.416463 0.156807 0.658824
O O11 0.776835 0.252871 0.350099
O O12 0.867307 0.640840 0.836725
O O13 0.754079 0.750068 0.009031
O O14 0.121843 0.500000 0.244540
O O15 0.064043 0.654814 0.339007
O O16 0.500000 0.612014 0.000000
O O17 0.276255 0.752109 0.365550
O O18 0.402238 0.866032 0.798791
O O19 0.370737 0.000000 0.740308
O O20 0.000000 0.884190 0.000000
#
# Coordination Sequence:
#
# PCOD8061382 Si02
#       8
#     4   4   4   4   4   4   4   4
#     4   9  17  31  53  78 102 132 173 217 262 313
#     4   9  17  31  53  78 102 132 173 217 262 313
#     4   9  19  33  52  77 104 137 174 217 266 317
#     4  10  19  33  55  79 108 140 174 219 271 322
#     4  10  20  35  54  75 104 144 183 217 262 321
#     4   9  19  33  52  77 104 137 174 217 266 317
#     4  10  19  33  55  79 108 140 174 219 271 322
#     4  10  20  35  54  75 104 144 183 217 262 321
#
# _framework density 19.529340000000001
#
# number of rings (size 3 to 8) (size 9 to 14) (size 15 to 20)
#    0.000    2.500    0.000    2.250    0.000    6.000 
#    0.000    2.500    0.000   25.500    0.000    0.000 
#    0.000    0.000    0.000    0.000    0.000    0.000 
#
# Total GULP energy -396530.863454 kJ/mol
# GULP energy per Si atom -12391.589483 kJ/mol
# Density = 1.948489 g / cm^3
# Si number density = 19.529340 Si / 1000 Ang^3
#
#
#
# Elastic Constant Matrix: (Units=GPa)
#
#
# Indices 1 2 3 4 5 6 
#
# 1 50.4192 23.1644 8.0192 0.0000 -15.5455 0.0000
# 2 23.1644 151.3641 65.4219 0.0000 -0.0217 0.0000
# 3 8.0192 65.4219 90.9279 0.0000 -8.4945 0.0000
# 4 0.0000 0.0000 0.0000 24.7741 0.0000 -0.7856
# 5 -15.5455 -0.0217 -8.4945 0.0000 25.7342 0.0000
# 6 0.0000 0.0000 0.0000 -0.7856 0.0000 35.9552
#
#
#
# Elastic Compliance Matrix: (Units=1/GPa)
#
#
# Indices 1 2 3 4 5 6 
#
# 1 0.027292 -0.005577 0.003245 0.000000 0.017553 0.000000
# 2 -0.005577 0.010867 -0.007884 0.000000 -0.005962 0.000000
# 3 0.003245 -0.007884 0.017093 0.000000 0.007596 0.000000
# 4 0.000000 0.000000 0.000000 0.040393 0.000000 0.000883
# 5 0.017553 -0.005962 0.007596 0.000000 0.051964 0.000000
# 6 0.000000 0.000000 0.000000 0.000883 0.000000 0.027832
#
#
# Mechanical properties :
#
#
# Convention : Reuss Voigt Hill
#
# Bulk Modulus (GPa) = 28.71789 53.99136 41.35462
# Shear Modulus (GPa) = 24.09897 30.36641 27.23269
#
# Velocity S-wave (km/s) = 3.51663 3.94752 3.73829
# Velocity P-wave (km/s) = 5.58801 6.96301 6.31305
#
# Compressibility (1/GPa) = 0.03482150
#
# Stress axis : x y z
#
# Youngs Moduli (GPa) = 36.64114 92.02508 58.50247
#
# Poissons Ratio (x) = 0.51321 -0.18986
# Poissons Ratio (y) = 0.20434 0.46121
# Poissons Ratio (z) = -0.11891 0.72549
#
# Static dielectric constant tensor:
#      x y z
#    x 3.858070 0.000000 -0.331280 
#    y 0.000000 4.063510 0.000000 
#    z -0.331280 0.000000 3.789260 
# 
# 
# High freq. dielectric constant tensor:
#      x y z
#    x 1.752690 0.000000 -0.032240 
#    y 0.000000 1.762100 0.000000 
#    z -0.032240 0.000000 1.749850 
# 
# From -- ./inp_files/82817.got.cif
#   From: 2010.06.25/outbox.cif.g09.slc.cpg/sg10_42_cif.got.tgz:82817.got - 2010.06.27 22:07:45.
