data_PCOD8061595
_publ_section_title
;
Structure prediction by ZEFSAII (Michael W. Deem and Ramdas Pophale) SiO2 
 PCOD8061595
Probable space group: P 2/M
;
_chemical_formula_sum "Si O2"
_cell_formula_units_Z 32
_cell_length_a 30.343238
_cell_length_b 9.167234
_cell_length_c 12.989075
_cell_angle_alpha 90.000000
_cell_angle_beta 153.059818
_cell_angle_gamma 90.000000
_cell_volume 1636.945453
_symmetry_space_group_name_H-M "P 2/M"
_symmetry_group_IT_number 10
_symmetry_cell_setting 'monoclinic'
loop_
_space_group_symop_operation_xyz
x,y,z
-x,y,-z
-x,-y,-z
x,-y,z
loop_
_atom_site_type_symbol
_atom_site_label
_atom_site_fract_x
_atom_site_fract_y
_atom_site_fract_z
Si Si1 0.119205 0.831657 0.055622
Si Si2 0.394646 0.173456 0.317895
Si Si3 0.074580 0.670137 0.381762
Si Si4 0.656808 0.661430 0.133950
Si Si5 0.823599 0.335345 0.623085
Si Si6 0.753858 0.828776 0.164545
Si Si7 0.544260 0.664131 0.194422
Si Si8 0.678349 0.167409 0.615181
O O1 0.149098 0.775174 0.230485
O O2 0.205713 0.812950 0.152523
O O3 0.090048 0.000000 0.007427
O O4 0.030145 0.742565 0.823483
O O5 0.500000 0.236153 0.500000
O O6 0.364719 0.233503 0.368394
O O7 0.400138 0.000000 0.330018
O O8 0.307154 0.224269 0.061511
O O9 0.065832 0.500000 0.387026
O O10 0.113793 0.701165 0.348564
O O11 0.145141 0.741420 0.614721
O O12 0.690942 0.500000 0.163771
O O13 0.709467 0.683199 0.355036
O O14 0.686640 0.792057 0.121980
O O15 0.541258 0.664861 0.899697
O O16 0.846378 0.500000 0.708229
O O17 0.776091 0.000000 0.207896
O O18 0.579688 0.500000 0.243219
O O19 0.634852 0.751751 0.425977
O O20 0.500000 0.738485 0.000000
O O21 0.647663 0.000000 0.543162
#
# Coordination Sequence:
#
# PCOD8061595 Si02
#       8
#     4   4   4   4   4   4   4   4
#     4  11  22  34  51  77 108 140 177 224 270 313
#     4   9  18  35  59  83 107 138 174 214 264 319
#     4  10  21  37  56  77 106 143 179 218 264 315
#     4   9  18  32  50  75 108 141 173 215 265 315
#     4   9  18  33  53  76 105 144 181 212 258 317
#     4  10  19  33  57  83 104 132 174 221 266 312
#     4  10  20  34  52  75 106 145 183 214 252 311
#     4  10  22  38  54  78 110 140 177 224 270 317
#
# _framework density 19.548604000000001
#
# number of rings (size 3 to 8) (size 9 to 14) (size 15 to 20)
#    0.000    2.250    0.000    3.750    0.000    7.750 
#    0.000    1.875    0.000    7.125    0.000    0.000 
#    0.000    0.000    0.000    0.000    0.000    0.000 
#
# Total GULP energy -396742.942915 kJ/mol
# GULP energy per Si atom -12398.216966 kJ/mol
# Density = 1.950411 g / cm^3
# Si number density = 19.548604 Si / 1000 Ang^3
#
#
#
# Elastic Constant Matrix: (Units=GPa)
#
#
# Indices 1 2 3 4 5 6 
#
# 1 67.9410 31.5525 41.0834 0.0000 -4.0642 0.0000
# 2 31.5525 83.7408 54.2112 0.0000 0.4425 0.0000
# 3 41.0834 54.2112 126.0215 0.0000 -2.4322 0.0000
# 4 0.0000 0.0000 0.0000 19.8151 0.0000 9.6610
# 5 -4.0642 0.4425 -2.4322 0.0000 30.4058 0.0000
# 6 0.0000 0.0000 0.0000 9.6610 0.0000 14.4365
#
#
#
# Elastic Compliance Matrix: (Units=1/GPa)
#
#
# Indices 1 2 3 4 5 6 
#
# 1 0.019635 -0.004568 -0.004391 0.000000 0.002340 0.000000
# 2 -0.004568 0.017633 -0.006122 0.000000 -0.001357 0.000000
# 3 -0.004391 -0.006122 0.012009 0.000000 0.000463 0.000000
# 4 0.000000 0.000000 0.000000 0.074907 0.000000 -0.050128
# 5 0.002340 -0.001357 0.000463 0.000000 0.033258 0.000000
# 6 0.000000 0.000000 0.000000 -0.050128 0.000000 0.102815
#
#
# Mechanical properties :
#
#
# Convention : Reuss Voigt Hill
#
# Bulk Modulus (GPa) = 52.31486 59.04417 55.67951
# Shear Modulus (GPa) = 16.84677 22.98857 19.91767
#
# Velocity S-wave (km/s) = 2.93881 3.43296 3.19545
# Velocity P-wave (km/s) = 6.19153 6.78108 6.49300
#
# Compressibility (1/GPa) = 0.01911503
#
# Stress axis : x y z
#
# Youngs Moduli (GPa) = 50.92877 56.71028 83.26918
#
# Poissons Ratio (x) = 0.25906 0.36563
# Poissons Ratio (y) = 0.23265 0.50981
# Poissons Ratio (z) = 0.22362 0.34720
#
# Static dielectric constant tensor:
#      x y z
#    x 3.465010 0.000000 0.112230 
#    y 0.000000 3.418890 0.000000 
#    z 0.112230 0.000000 3.691340 
# 
# 
# High freq. dielectric constant tensor:
#      x y z
#    x 1.744540 0.000000 0.012650 
#    y 0.000000 1.746700 0.000000 
#    z 0.012650 0.000000 1.769940 
# 
# From -- ./inp_files/58199.got.cif
#   From: 2010.06.25/outbox.cif.g09.slc.cpg/sg10_30_cif.got.tgz:58199.got - 2010.06.27 22:07:45.
