data_PCOD8061028
_publ_section_title
;
Structure prediction by ZEFSAII (Michael W. Deem and Ramdas Pophale) SiO2 
 PCOD8061028
Probable space group: P 2/M
;
_chemical_formula_sum "Si O2"
_cell_formula_units_Z 32
_cell_length_a 18.140724
_cell_length_b 15.032929
_cell_length_c 11.512250
_cell_angle_alpha 90.000000
_cell_angle_beta 28.303396
_cell_angle_gamma 90.000000
_cell_volume 1488.556734
_symmetry_space_group_name_H-M "P 2/M"
_symmetry_group_IT_number 10
_symmetry_cell_setting 'monoclinic'
loop_
_space_group_symop_operation_xyz
x,y,z
-x,y,-z
-x,-y,-z
x,-y,z
loop_
_atom_site_type_symbol
_atom_site_label
_atom_site_fract_x
_atom_site_fract_y
_atom_site_fract_z
Si Si1 0.250316 0.097091 0.105228
Si Si2 0.257230 0.596064 0.551645
Si Si3 0.872943 0.602804 0.521365
Si Si4 0.563266 0.157188 0.685753
Si Si5 0.943915 0.230263 0.776839
Si Si6 0.163733 0.237827 0.824296
Si Si7 0.443478 0.334546 0.950005
Si Si8 0.216617 0.100613 0.421445
O O1 0.141424 0.171273 0.200773
O O2 0.263474 0.115453 0.223783
O O3 0.176404 0.000000 0.180739
O O4 0.430538 0.095108 0.812319
O O5 0.209164 0.500000 0.666624
O O6 0.172878 0.617331 0.548112
O O7 0.201034 0.664778 0.724740
O O8 0.442020 0.594661 0.270036
O O9 0.925963 0.500000 0.471496
O O10 0.010193 0.675610 0.348478
O O11 0.730947 0.626363 0.805336
O O12 0.701807 0.169908 0.401350
O O13 0.461483 0.245731 0.850086
O O14 0.633307 0.117261 0.706883
O O15 0.089482 0.175541 0.627426
O O16 0.832698 0.246018 0.041457
O O17 0.000000 0.203670 0.000000
O O18 0.500000 0.312433 0.000000
O O19 0.154400 0.000000 0.529159
#
# Coordination Sequence:
#
# PCOD8061028 Si02
#       8
#     4   4   4   4   4   4   4   4
#     4  11  25  43  65  93 122 158 205 254 313 375
#     4   9  17  30  54  89 124 157 205 267 309 349
#     4  10  19  32  57  90 124 165 208 251 307 369
#     4  11  21  39  66  92 123 160 204 256 306 360
#     4  12  23  40  60  89 133 170 200 249 308 366
#     4  11  21  38  58  88 124 167 213 246 300 369
#     4   9  16  29  53  89 127 158 192 245 311 364
#     4  11  22  40  68  97 122 154 202 257 312 371
#
# _framework density 21.497333000000001
#
# number of rings (size 3 to 8) (size 9 to 14) (size 15 to 20)
#    0.000    1.500    2.500    4.875    0.000    4.750 
#    0.000    3.750    0.000    9.000    0.000    4.375 
#    0.000    0.000    0.000    0.000    0.000    0.000 
#
# Total GULP energy -396659.177743 kJ/mol
# GULP energy per Si atom -12395.599304 kJ/mol
# Density = 2.144840 g / cm^3
# Si number density = 21.497333 Si / 1000 Ang^3
#
#
#
# Elastic Constant Matrix: (Units=GPa)
#
#
# Indices 1 2 3 4 5 6 
#
# 1 58.5405 36.4235 30.1077 0.0000 -12.7415 0.0000
# 2 36.4235 128.5194 55.4543 0.0000 -4.8023 0.0000
# 3 30.1077 55.4543 112.8450 0.0000 2.3061 0.0000
# 4 0.0000 0.0000 0.0000 21.2223 0.0000 -5.6510
# 5 -12.7415 -4.8023 2.3061 0.0000 25.1487 0.0000
# 6 0.0000 0.0000 0.0000 -5.6510 0.0000 18.3815
#
#
#
# Elastic Compliance Matrix: (Units=1/GPa)
#
#
# Indices 1 2 3 4 5 6 
#
# 1 0.025010 -0.004625 -0.004649 0.000000 0.012214 0.000000
# 2 -0.004625 0.010869 -0.004109 0.000000 0.000109 0.000000
# 3 -0.004649 -0.004109 0.012209 0.000000 -0.004260 0.000000
# 4 0.000000 0.000000 0.000000 0.051322 0.000000 0.015778
# 5 0.012214 0.000109 -0.004260 0.000000 0.046363 0.000000
# 6 0.000000 0.000000 0.000000 0.015778 0.000000 0.059253
#
#
# Mechanical properties :
#
#
# Convention : Reuss Voigt Hill
#
# Bulk Modulus (GPa) = 46.90623 60.43066 53.66844
# Shear Modulus (GPa) = 20.92927 24.81178 22.87053
#
# Velocity S-wave (km/s) = 3.12360 3.40101 3.26525
# Velocity P-wave (km/s) = 5.90560 6.60260 6.26380
#
# Compressibility (1/GPa) = 0.02131913
#
# Stress axis : x y z
#
# Youngs Moduli (GPa) = 39.98438 92.00443 81.90908
#
# Poissons Ratio (x) = 0.42556 0.38082
# Poissons Ratio (y) = 0.18495 0.33660
# Poissons Ratio (z) = 0.18590 0.37808
#
# Static dielectric constant tensor:
#      x y z
#    x 3.447680 0.000000 -0.044330 
#    y 0.000000 4.032020 0.000000 
#    z -0.044330 0.000000 4.061420 
# 
# 
# High freq. dielectric constant tensor:
#      x y z
#    x 1.808720 0.000000 -0.002870 
#    y 0.000000 1.852290 0.000000 
#    z -0.002870 0.000000 1.847650 
# 
# From -- ./inp_files/54020.got.cif
#   From: 2010.06.25/outbox.cif.g09.slc.cpg/sg10_28_cif.got.tgz:54020.got - 2010.06.27 22:07:45.
