data_PCOD8061139
_publ_section_title
;
Structure prediction by ZEFSAII (Michael W. Deem and Ramdas Pophale) SiO2 
 PCOD8061139
Probable space group: P 2/M
;
_chemical_formula_sum "Si O2"
_cell_formula_units_Z 18
_cell_length_a 16.764846
_cell_length_b 12.458358
_cell_length_c 5.249835
_cell_angle_alpha 90.000000
_cell_angle_beta 121.887779
_cell_angle_gamma 90.000000
_cell_volume 931.015436
_symmetry_space_group_name_H-M "P 2/M"
_symmetry_group_IT_number 10
_symmetry_cell_setting 'monoclinic'
loop_
_space_group_symop_operation_xyz
x,y,z
-x,y,-z
-x,-y,-z
x,-y,z
loop_
_atom_site_type_symbol
_atom_site_label
_atom_site_fract_x
_atom_site_fract_y
_atom_site_fract_z
Si Si1 0.252898 0.256162 0.852227
Si Si2 0.090298 0.883870 0.485601
Si Si3 0.560665 0.877464 0.852408
Si Si4 0.000000 0.709821 0.000000
Si Si5 0.191571 0.375749 0.235029
O O1 0.181438 0.157097 0.792716
O O2 0.228369 0.316936 0.549792
O O3 0.355340 0.206723 0.002400
O O4 0.248063 0.335928 0.083402
O O5 0.000000 0.902800 0.500000
O O6 0.069121 0.786935 0.266174
O O7 0.112818 0.000000 0.391601
O O8 0.500000 0.855156 0.500000
O O9 0.598431 0.000000 0.916478
O O10 0.500000 0.855115 0.000000
O O11 0.078091 0.637487 0.988432
O O12 0.213308 0.500000 0.309345
#
# Coordination Sequence:
#
# PCOD8061139 Si02
#       5
#     4   4   4   2   4
#     4  11  22  39  60  87 116 155 192 238 294 343
#     4  10  19  33  52  82 121 154 185 224 280 354
#     4  10  21  39  64  93 120 149 188 235 289 351
#     4  10  20  36  52  82 114 162 198 240 282 334
#     4  11  23  38  59  82 115 155 203 247 284 332
#
# _framework density 19.333731
#
# number of rings (size 3 to 8) (size 9 to 14) (size 15 to 20)
#    0.000    1.556    2.222    3.333    0.000    0.000 
#    0.000    5.556    0.000   13.333    0.000    0.000 
#    0.000    0.000    0.000    0.000    0.000    0.000 
#
# Total GULP energy -223008.269479 kJ/mol
# GULP energy per Si atom -12389.348304 kJ/mol
# Density = 1.928973 g / cm^3
# Si number density = 19.333731 Si / 1000 Ang^3
#
#
#
# Elastic Constant Matrix: (Units=GPa)
#
#
# Indices 1 2 3 4 5 6 
#
# 1 113.4493 62.1408 63.8495 0.0000 3.1462 0.0000
# 2 62.1408 124.0056 60.3855 0.0000 16.3325 0.0000
# 3 63.8495 60.3855 105.0925 0.0000 -7.5527 0.0000
# 4 0.0000 0.0000 0.0000 22.9343 0.0000 21.6266
# 5 3.1462 16.3325 -7.5527 0.0000 34.1922 0.0000
# 6 0.0000 0.0000 0.0000 21.6266 0.0000 -70.4416
#
#
#
# Elastic Compliance Matrix: (Units=1/GPa)
#
#
# Indices 1 2 3 4 5 6 
#
# 1 0.014862 -0.004016 -0.006790 0.000000 -0.000949 0.000000
# 2 -0.004016 0.014139 -0.006242 0.000000 -0.007763 0.000000
# 3 -0.006790 -0.006242 0.017769 0.000000 0.007531 0.000000
# 4 0.000000 0.000000 0.000000 0.033814 0.000000 0.010381
# 5 -0.000949 -0.007763 0.007531 0.000000 0.034705 0.000000
# 6 0.000000 0.000000 0.000000 0.010381 0.000000 -0.011009
#
#
# Mechanical properties :
#
#
# Convention : Reuss Voigt Hill
#
# Bulk Modulus (GPa) = 78.90697 79.47766 79.19232
# Shear Modulus (GPa) = 35.06317 7.74841 21.40579
#
# Velocity S-wave (km/s) = 4.26323 2.00410 3.33103
# Velocity P-wave (km/s) = 8.07064 6.82296 7.47288
#
# Compressibility (1/GPa) = 0.01267315
#
# Stress axis : x y z
#
# Youngs Moduli (GPa) = 67.28521 70.72832 56.27914
#
# Poissons Ratio (x) = 0.28405 0.38214
# Poissons Ratio (y) = 0.27022 0.35129
# Poissons Ratio (z) = 0.45688 0.44148
#
# Static dielectric constant tensor:
#      x y z
#    x 3.513580 0.000000 0.150950 
#    y 0.000000 3.940280 0.000000 
#    z 0.150950 0.000000 3.462150 
# 
# 
# High freq. dielectric constant tensor:
#      x y z
#    x 1.748330 0.000000 0.001370 
#    y 0.000000 1.760150 0.000000 
#    z 0.001370 0.000000 1.746340 
# 
# From -- ./inp_files/6247.got.cif
#   From: 2010.06.25/outbox.cif.g09.slc.cpg/sg10_4_cif.got.tgz:6247.got - 2010.06.27 22:07:45.
