data_PCOD8061107
_publ_section_title
;
Structure prediction by ZEFSAII (Michael W. Deem and Ramdas Pophale) SiO2 
 PCOD8061107
Probable space group: P 2/M
;
_chemical_formula_sum "Si O2"
_cell_formula_units_Z 32
_cell_length_a 28.991899
_cell_length_b 8.881932
_cell_length_c 14.579260
_cell_angle_alpha 90.000000
_cell_angle_beta 150.586936
_cell_angle_gamma 90.000000
_cell_volume 1843.705844
_symmetry_space_group_name_H-M "P 2/M"
_symmetry_group_IT_number 10
_symmetry_cell_setting 'monoclinic'
loop_
_space_group_symop_operation_xyz
x,y,z
-x,y,-z
-x,-y,-z
x,-y,z
loop_
_atom_site_type_symbol
_atom_site_label
_atom_site_fract_x
_atom_site_fract_y
_atom_site_fract_z
Si Si1 0.312054 0.821604 0.559886
Si Si2 0.639252 0.177475 0.979570
Si Si3 0.812219 0.322843 0.187571
Si Si4 0.750337 0.329658 0.716364
Si Si5 0.118395 0.676844 0.892945
Si Si6 0.078122 0.178452 0.463182
Si Si7 0.550154 0.670459 0.322804
Si Si8 0.254584 0.176818 0.657161
O O1 0.234268 0.771754 0.348700
O O2 0.413336 0.749235 0.708460
O O3 0.280887 0.753017 0.604171
O O4 0.322406 0.000000 0.579566
O O5 0.535205 0.238221 0.780336
O O6 0.643086 0.000000 0.970653
O O7 0.710695 0.252934 0.032268
O O8 0.668010 0.222603 0.133103
O O9 0.809043 0.500000 0.199115
O O10 0.836357 0.280918 0.125453
O O11 0.893932 0.252677 0.391789
O O12 0.781396 0.500000 0.747110
O O13 0.638322 0.325964 0.546950
O O14 0.809687 0.266910 0.904231
O O15 0.097729 0.500000 0.863699
O O16 0.023015 0.766948 0.744053
O O17 0.152412 0.231968 0.514374
O O18 0.080361 0.000000 0.480180
O O19 0.518235 0.500000 0.246486
O O20 0.252143 0.000000 0.640654
#
# Coordination Sequence:
#
# PCOD8061107 Si02
#       8
#     4   4   4   4   4   4   4   4
#     4   9  16  31  53  72  96 131 169 205 243 291
#     4  10  19  33  52  75 104 134 165 204 247 295
#     4  10  20  34  53  76 102 132 165 202 248 302
#     4   8  18  35  51  70  99 131 167 210 248 290
#     4  10  20  36  55  73  97 134 171 203 249 303
#     4  10  20  34  52  77 106 132 162 205 250 294
#     4   9  18  33  51  72 102 134 166 205 248 293
#     4   8  17  32  49  72 103 134 162 197 249 301
#
# _framework density 17.356347
#
# number of rings (size 3 to 8) (size 9 to 14) (size 15 to 20)
#    0.750    2.000    0.000    2.625    0.000    3.500 
#    0.000   11.250    0.000    7.500    0.000    0.000 
#    0.000    0.000    0.000    0.000    0.000    0.000 
#
# Total GULP energy -396597.078607 kJ/mol
# GULP energy per Si atom -12393.658706 kJ/mol
# Density = 1.731684 g / cm^3
# Si number density = 17.356347 Si / 1000 Ang^3
#
#
#
# Elastic Constant Matrix: (Units=GPa)
#
#
# Indices 1 2 3 4 5 6 
#
# 1 46.9676 19.6147 30.4788 0.0000 9.6738 0.0000
# 2 19.6147 59.0612 30.5816 0.0000 9.0527 0.0000
# 3 30.4788 30.5816 86.8762 0.0000 7.7173 0.0000
# 4 0.0000 0.0000 0.0000 28.8699 0.0000 3.6299
# 5 9.6738 9.0527 7.7173 0.0000 19.0285 0.0000
# 6 0.0000 0.0000 0.0000 3.6299 0.0000 23.2446
#
#
#
# Elastic Compliance Matrix: (Units=1/GPa)
#
#
# Indices 1 2 3 4 5 6 
#
# 1 0.030564 -0.004295 -0.008311 0.000000 -0.010124 0.000000
# 2 -0.004295 0.022292 -0.005801 0.000000 -0.006069 0.000000
# 3 -0.008311 -0.005801 0.016440 0.000000 0.000318 0.000000
# 4 0.000000 0.000000 0.000000 0.035332 0.000000 -0.005517
# 5 -0.010124 -0.006069 0.000318 0.000000 0.060458 0.000000
# 6 0.000000 0.000000 0.000000 -0.005517 0.000000 0.043882
#
#
# Mechanical properties :
#
#
# Convention : Reuss Voigt Hill
#
# Bulk Modulus (GPa) = 30.78735 39.36168 35.07451
# Shear Modulus (GPa) = 19.48475 21.71059 20.59767
#
# Velocity S-wave (km/s) = 3.35420 3.54061 3.44866
# Velocity P-wave (km/s) = 5.72519 6.28031 6.00916
#
# Compressibility (1/GPa) = 0.03248088
#
# Stress axis : x y z
#
# Youngs Moduli (GPa) = 32.71846 44.85903 60.82580
#
# Poissons Ratio (x) = 0.19268 0.50555
# Poissons Ratio (y) = 0.14053 0.35286
# Poissons Ratio (z) = 0.27194 0.26023
#
# Static dielectric constant tensor:
#      x y z
#    x 3.266910 0.000000 0.016710 
#    y 0.000000 3.155260 0.000000 
#    z 0.016710 0.000000 3.179240 
# 
# 
# High freq. dielectric constant tensor:
#      x y z
#    x 1.658960 0.000000 0.006940 
#    y 0.000000 1.671250 0.000000 
#    z 0.006940 0.000000 1.660340 
# 
# From -- ./inp_files/72222.got.cif
#   From: 2010.06.25/outbox.cif.g09.slc.cpg/sg10_37_cif.got.tgz:72222.got - 2010.06.27 22:07:45.
