data_PCOD8061247
_publ_section_title
;
Structure prediction by ZEFSAII (Michael W. Deem and Ramdas Pophale) SiO2 
 PCOD8061247
Probable space group: P 2/M
;
_chemical_formula_sum "Si O2"
_cell_formula_units_Z 28
_cell_length_a 12.322749
_cell_length_b 11.666611
_cell_length_c 23.681708
_cell_angle_alpha 90.000000
_cell_angle_beta 29.922826
_cell_angle_gamma 90.000000
_cell_volume 1698.324099
_symmetry_space_group_name_H-M "P 2/M"
_symmetry_group_IT_number 10
_symmetry_cell_setting 'monoclinic'
loop_
_space_group_symop_operation_xyz
x,y,z
-x,y,-z
-x,-y,-z
x,-y,z
loop_
_atom_site_type_symbol
_atom_site_label
_atom_site_fract_x
_atom_site_fract_y
_atom_site_fract_z
Si Si1 0.605010 0.135741 0.754436
Si Si2 0.338461 0.500000 0.359517
Si Si3 0.405086 0.746520 0.360264
Si Si4 0.801145 0.131893 0.236902
Si Si5 0.870470 0.864413 0.004632
Si Si6 0.070479 0.500000 0.375177
Si Si7 0.989080 0.744043 0.378470
Si Si8 0.248033 0.868655 0.613183
O O1 0.623811 0.179503 0.682489
O O2 0.798173 0.181141 0.706099
O O3 0.616779 0.000000 0.747938
O O4 0.377132 0.180420 0.883780
O O5 0.469599 0.615390 0.315938
O O6 0.289474 0.500000 0.314362
O O7 0.121697 0.500000 0.493535
O O8 0.591576 0.794104 0.316320
O O9 0.176118 0.757165 0.495229
O O10 0.855050 0.147014 0.278373
O O11 0.009174 0.174364 0.107138
O O12 0.745592 0.000000 0.247631
O O13 0.868109 0.000000 0.010883
O O14 0.000000 0.812660 0.000000
O O15 0.059711 0.611412 0.340072
O O16 0.882349 0.784479 0.368558
O O17 0.500000 0.832638 0.500000
O O18 0.225388 0.000000 0.602327
#
# Coordination Sequence:
#
# PCOD8061247 Si02
#       8
#     4   2   4   4   4   2   4   4
#     4  11  21  30  49  80 106 129 166 216 258 305
#     4   9  18  32  47  72 105 140 164 202 260 313
#     4  11  19  31  52  76 105 134 168 207 260 307
#     4  10  19  33  54  76 104 141 170 201 254 310
#     4   9  17  31  49  73 104 136 170 202 247 310
#     4   9  18  34  50  68 102 143 170 201 255 308
#     4  11  21  34  51  76 104 136 173 212 252 304
#     4  10  20  34  51  75 109 139 165 204 258 309
#
# _framework density 16.486840999999998
#
# number of rings (size 3 to 8) (size 9 to 14) (size 15 to 20)
#    0.000    1.857    4.286    1.286    0.000    2.286 
#    0.000    1.786    0.000    6.000    0.000    1.000 
#    0.000    0.000    0.000    0.000    0.000    0.000 
#
# Total GULP energy -347182.556239 kJ/mol
# GULP energy per Si atom -12399.377009 kJ/mol
# Density = 1.644932 g / cm^3
# Si number density = 16.486841 Si / 1000 Ang^3
#
#
#
# Elastic Constant Matrix: (Units=GPa)
#
#
# Indices 1 2 3 4 5 6 
#
# 1 97.0879 51.3967 37.3501 0.0000 -1.7362 0.0000
# 2 51.3967 97.8372 33.0360 0.0000 -7.0148 0.0000
# 3 37.3501 33.0360 101.3160 0.0000 0.0385 0.0000
# 4 0.0000 0.0000 0.0000 4.6476 0.0000 2.8511
# 5 -1.7362 -7.0148 0.0385 0.0000 25.5653 0.0000
# 6 0.0000 0.0000 0.0000 2.8511 0.0000 23.2867
#
#
#
# Elastic Compliance Matrix: (Units=1/GPa)
#
#
# Indices 1 2 3 4 5 6 
#
# 1 0.015250 -0.006939 -0.003359 0.000000 -0.000863 0.000000
# 2 -0.006939 0.014904 -0.002303 0.000000 0.003622 0.000000
# 3 -0.003359 -0.002303 0.011860 0.000000 -0.000878 0.000000
# 4 0.000000 0.000000 0.000000 0.232640 0.000000 -0.028483
# 5 -0.000863 0.003622 -0.000878 0.000000 0.040052 0.000000
# 6 0.000000 0.000000 0.000000 -0.028483 0.000000 0.046430
#
#
# Mechanical properties :
#
#
# Convention : Reuss Voigt Hill
#
# Bulk Modulus (GPa) = 59.48317 59.97852 59.73084
# Shear Modulus (GPa) = 12.75703 22.33048 17.54375
#
# Velocity S-wave (km/s) = 2.78469 3.68427 3.26560
# Velocity P-wave (km/s) = 6.81886 7.38627 7.10823
#
# Compressibility (1/GPa) = 0.01681148
#
# Stress axis : x y z
#
# Youngs Moduli (GPa) = 65.57324 67.09796 84.31951
#
# Poissons Ratio (x) = 0.46559 0.28323
# Poissons Ratio (y) = 0.45501 0.19418
# Poissons Ratio (z) = 0.22026 0.15452
#
# Static dielectric constant tensor:
#      x y z
#    x 3.031390 0.000000 -0.023280 
#    y 0.000000 3.176410 0.000000 
#    z -0.023280 0.000000 3.222560 
# 
# 
# High freq. dielectric constant tensor:
#      x y z
#    x 1.628370 0.000000 -0.001340 
#    y 0.000000 1.621670 0.000000 
#    z -0.001340 0.000000 1.624270 
# 
# From -- ./inp_files/46067.got.cif
#   From: 2010.06.25/outbox.cif.g09.slc.cpg/sg10_24_cif.got.tgz:46067.got - 2010.06.27 22:07:45.
