data_PCOD8061356
_publ_section_title
;
Structure prediction by ZEFSAII (Michael W. Deem and Ramdas Pophale) SiO2 
 PCOD8061356
Probable space group: P 2/M
;
_chemical_formula_sum "Si O2"
_cell_formula_units_Z 28
_cell_length_a 26.550670
_cell_length_b 9.452267
_cell_length_c 9.355106
_cell_angle_alpha 90.000000
_cell_angle_beta 41.501714
_cell_angle_gamma 90.000000
_cell_volume 1555.748655
_symmetry_space_group_name_H-M "P 2/M"
_symmetry_group_IT_number 10
_symmetry_cell_setting 'monoclinic'
loop_
_space_group_symop_operation_xyz
x,y,z
-x,y,-z
-x,-y,-z
x,-y,z
loop_
_atom_site_type_symbol
_atom_site_label
_atom_site_fract_x
_atom_site_fract_y
_atom_site_fract_z
Si Si1 0.571114 0.665388 0.936086
Si Si2 0.914704 0.664831 0.644818
Si Si3 0.743928 0.335236 0.545322
Si Si4 0.692518 0.156898 0.145216
Si Si5 0.574044 0.346670 0.253019
Si Si6 0.819959 0.160767 0.636395
Si Si7 0.213441 0.660889 0.860333
O O1 0.569666 0.500000 0.907664
O O2 0.656362 0.719378 0.712744
O O3 0.500000 0.735637 0.000000
O O4 0.555128 0.704473 0.134009
O O5 0.908303 0.500000 0.617394
O O6 0.890320 0.755105 0.557619
O O7 0.000000 0.709388 0.500000
O O8 0.865010 0.699671 0.892252
O O9 0.743990 0.500000 0.592974
O O10 0.788453 0.242651 0.566249
O O11 0.791953 0.314366 0.297733
O O12 0.618951 0.225802 0.235996
O O13 0.718367 0.242858 0.228514
O O14 0.671982 0.000000 0.239895
O O15 0.755674 0.156936 0.890834
O O16 0.500000 0.371881 0.500000
O O17 0.617536 0.500000 0.152877
O O18 0.844151 0.000000 0.543330
O O19 0.236335 0.500000 0.845297
#
# Coordination Sequence:
#
# PCOD8061356 Si02
#       7
#     4   4   4   4   4   4   4
#     4   9  18  31  48  73 102 131 168 217 266 304
#     4   9  18  35  58  82 108 136 170 215 261 306
#     4  10  19  33  55  78 104 137 174 219 263 308
#     4  10  20  34  51  72 102 138 174 214 260 309
#     4  10  20  32  51  74  98 130 174 221 262 307
#     4  10  20  34  54  78 106 140 176 211 254 314
#     4   9  19  33  54  81 104 131 175 216 256 309
#
# _framework density 17.997765999999999
#
# number of rings (size 3 to 8) (size 9 to 14) (size 15 to 20)
#    0.000    2.429    1.429    0.857    2.000    2.286 
#    0.000    0.714    0.000    5.143    0.000    0.000 
#    0.000    0.000    0.000    0.000    0.000    0.000 
#
# Total GULP energy -347050.688463 kJ/mol
# GULP energy per Si atom -12394.667445 kJ/mol
# Density = 1.795680 g / cm^3
# Si number density = 17.997766 Si / 1000 Ang^3
#
#
#
# Elastic Constant Matrix: (Units=GPa)
#
#
# Indices 1 2 3 4 5 6 
#
# 1 142.3200 73.3669 55.3059 0.0000 -8.0479 0.0000
# 2 73.3669 98.8883 27.7697 0.0000 -0.5758 0.0000
# 3 55.3059 27.7697 69.3345 0.0000 3.1199 0.0000
# 4 0.0000 0.0000 0.0000 16.6278 0.0000 -0.8145
# 5 -8.0479 -0.5758 3.1199 0.0000 26.8384 0.0000
# 6 0.0000 0.0000 0.0000 -0.8145 0.0000 -8.3248
#
#
#
# Elastic Compliance Matrix: (Units=1/GPa)
#
#
# Indices 1 2 3 4 5 6 
#
# 1 0.015396 -0.008871 -0.008974 0.000000 0.005470 0.000000
# 2 -0.008871 0.016521 0.000565 0.000000 -0.002371 0.000000
# 3 -0.008974 0.000565 0.021588 0.000000 -0.005188 0.000000
# 4 0.000000 0.000000 0.000000 0.059854 0.000000 -0.005856
# 5 0.005470 -0.002371 -0.005188 0.000000 0.039453 0.000000
# 6 0.000000 0.000000 0.000000 -0.005856 0.000000 -0.119550
#
#
# Mechanical properties :
#
#
# Convention : Reuss Voigt Hill
#
# Bulk Modulus (GPa) = 52.77951 69.26978 61.02464
# Shear Modulus (GPa) = 67.44462 17.30162 42.37312
#
# Velocity S-wave (km/s) = 6.12823 3.10388 4.85743
# Velocity P-wave (km/s) = 8.91420 7.17056 8.08950
#
# Compressibility (1/GPa) = 0.01894675
#
# Stress axis : x y z
#
# Youngs Moduli (GPa) = 64.95233 60.52894 46.32160
#
# Poissons Ratio (x) = 0.53692 0.41570
# Poissons Ratio (y) = 0.57616 -0.02619
# Poissons Ratio (z) = 0.58289 -0.03423
#
# Static dielectric constant tensor:
#      x y z
#    x 3.345650 0.000000 0.037610 
#    y 0.000000 3.513470 0.000000 
#    z 0.037610 0.000000 3.270640 
# 
# 
# High freq. dielectric constant tensor:
#      x y z
#    x 1.695530 0.000000 0.006810 
#    y 0.000000 1.682550 0.000000 
#    z 0.006810 0.000000 1.685770 
# 
# From -- ./inp_files/36902.got.cif
#   From: 2010.06.25/outbox.cif.g09.slc.cpg/sg10_19_cif.got.tgz:36902.got - 2010.06.27 22:07:45.
