data_PCOD8061539
_publ_section_title
;
Structure prediction by ZEFSAII (Michael W. Deem and Ramdas Pophale) SiO2 
 PCOD8061539
Probable space group: P 2/M
;
_chemical_formula_sum "Si O2"
_cell_formula_units_Z 32
_cell_length_a 21.570713
_cell_length_b 8.809871
_cell_length_c 27.825504
_cell_angle_alpha 90.000000
_cell_angle_beta 161.181858
_cell_angle_gamma 90.000000
_cell_volume 1705.669573
_symmetry_space_group_name_H-M "P 2/M"
_symmetry_group_IT_number 10
_symmetry_cell_setting 'monoclinic'
loop_
_space_group_symop_operation_xyz
x,y,z
-x,y,-z
-x,-y,-z
x,-y,z
loop_
_atom_site_type_symbol
_atom_site_label
_atom_site_fract_x
_atom_site_fract_y
_atom_site_fract_z
Si Si1 0.281986 0.180293 0.340992
Si Si2 0.981156 0.324509 0.184074
Si Si3 0.412593 0.822966 0.837073
Si Si4 0.796537 0.672690 0.146665
Si Si5 0.685386 0.821503 0.897219
Si Si6 0.093076 0.324264 0.665554
Si Si7 0.670357 0.678339 0.325185
Si Si8 0.005289 0.821193 0.950673
O O1 0.500000 0.240260 0.500000
O O2 0.178784 0.245798 0.312569
O O3 0.170058 0.239387 0.211181
O O4 0.273476 0.000000 0.338132
O O5 0.989604 0.500000 0.176103
O O6 0.955671 0.299135 0.222270
O O7 0.797172 0.250579 0.023897
O O8 0.250149 0.780505 0.755988
O O9 0.384175 0.728154 0.768065
O O10 0.401154 0.000000 0.816515
O O11 0.617738 0.785323 0.010728
O O12 0.718187 0.500000 0.086471
O O13 0.902664 0.703812 0.274496
O O14 0.469852 0.756713 0.738640
O O15 0.682373 0.000000 0.903175
O O16 0.791909 0.779290 0.925492
O O17 0.132696 0.500000 0.681565
O O18 0.886379 0.271022 0.494940
O O19 0.644264 0.500000 0.311045
O O20 0.981561 0.000000 0.938124
O O21 0.000000 0.746229 0.000000
#
# Coordination Sequence:
#
# PCOD8061539 Si02
#       8
#     4   4   4   4   4   4   4   4
#     4   9  18  33  53  78 108 142 180 223 270 319
#     4  10  19  33  57  82 107 144 187 224 267 323
#     4  12  24  37  59  86 111 141 183 233 280 330
#     4  10  21  39  60  81 109 149 189 226 274 333
#     4  10  19  33  56  83 110 142 184 230 272 321
#     4  10  23  41  58  79 111 149 186 225 277 335
#     4  11  22  38  59  81 109 148 188 227 275 332
#     4   8  15  30  52  76 105 140 177 214 260 319
#
# _framework density 18.760959
#
# number of rings (size 3 to 8) (size 9 to 14) (size 15 to 20)
#    0.000    2.000    1.250    3.750    0.000    5.250 
#    2.250    0.000    0.000    9.375    0.000    0.000 
#    0.000    0.000    0.000    0.000    0.000    0.000 
#
# Total GULP energy -396854.191399 kJ/mol
# GULP energy per Si atom -12401.693481 kJ/mol
# Density = 1.871826 g / cm^3
# Si number density = 18.760959 Si / 1000 Ang^3
#
#
#
# Elastic Constant Matrix: (Units=GPa)
#
#
# Indices 1 2 3 4 5 6 
#
# 1 117.4542 20.9463 40.1494 0.0000 12.9436 0.0000
# 2 20.9463 34.9549 21.7538 0.0000 7.5031 0.0000
# 3 40.1494 21.7538 89.4845 0.0000 17.4336 0.0000
# 4 0.0000 0.0000 0.0000 23.0352 0.0000 9.3839
# 5 12.9436 7.5031 17.4336 0.0000 29.0345 0.0000
# 6 0.0000 0.0000 0.0000 9.3839 0.0000 25.0820
#
#
#
# Elastic Compliance Matrix: (Units=1/GPa)
#
#
# Indices 1 2 3 4 5 6 
#
# 1 0.010568 -0.003806 -0.003500 0.000000 -0.001626 0.000000
# 2 -0.003806 0.035558 -0.006202 0.000000 -0.003768 0.000000
# 3 -0.003500 -0.006202 0.015443 0.000000 -0.006110 0.000000
# 4 0.000000 0.000000 0.000000 0.051218 0.000000 -0.019162
# 5 -0.001626 -0.003768 -0.006110 0.000000 0.039809 0.000000
# 6 0.000000 0.000000 0.000000 -0.019162 0.000000 0.047038
#
#
# Mechanical properties :
#
#
# Convention : Reuss Voigt Hill
#
# Bulk Modulus (GPa) = 28.94051 45.28809 37.11430
# Shear Modulus (GPa) = 20.99354 26.03329 23.51341
#
# Velocity S-wave (km/s) = 3.34878 3.72913 3.54406
# Velocity P-wave (km/s) = 5.51469 6.53711 6.04755
#
# Compressibility (1/GPa) = 0.03455364
#
# Stress axis : x y z
#
# Youngs Moduli (GPa) = 94.62373 28.12329 64.75217
#
# Poissons Ratio (x) = 0.10703 0.22661
# Poissons Ratio (y) = 0.36012 0.40162
# Poissons Ratio (z) = 0.33115 0.17443
#
# Static dielectric constant tensor:
#      x y z
#    x 3.653400 0.000000 0.076650 
#    y 0.000000 3.357260 0.000000 
#    z 0.076650 0.000000 3.500830 
# 
# 
# High freq. dielectric constant tensor:
#      x y z
#    x 1.737020 0.000000 0.010200 
#    y 0.000000 1.718420 0.000000 
#    z 0.010200 0.000000 1.720480 
# 
# From -- ./inp_files/86881.got.cif
#   From: 2010.06.25/outbox.cif.g09.slc.cpg/sg10_44_cif.got.tgz:86881.got - 2010.06.27 22:07:45.
