data_PCOD8061944
_publ_section_title
;
Structure prediction by ZEFSAII (Michael W. Deem and Ramdas Pophale) SiO2 
 PCOD8061944
Probable space group: P 2/M
;
_chemical_formula_sum "Si O2"
_cell_formula_units_Z 28
_cell_length_a 8.963516
_cell_length_b 9.044736
_cell_length_c 28.849414
_cell_angle_alpha 90.000000
_cell_angle_beta 141.208622
_cell_angle_gamma 90.000000
_cell_volume 1465.288109
_symmetry_space_group_name_H-M "P 2/M"
_symmetry_group_IT_number 10
_symmetry_cell_setting 'monoclinic'
loop_
_space_group_symop_operation_xyz
x,y,z
-x,y,-z
-x,-y,-z
x,-y,z
loop_
_atom_site_type_symbol
_atom_site_label
_atom_site_fract_x
_atom_site_fract_y
_atom_site_fract_z
Si Si1 0.190622 0.671544 0.643723
Si Si2 0.047189 0.825357 0.783995
Si Si3 0.546404 0.674033 0.648566
Si Si4 0.767027 0.825361 0.071024
Si Si5 0.078485 0.671591 0.069653
Si Si6 0.180944 0.166522 0.501461
Si Si7 0.631910 0.671108 0.211570
O O1 0.129932 0.500000 0.623062
O O2 0.404705 0.715625 0.661015
O O3 0.269108 0.712836 0.714133
O O4 0.949892 0.761390 0.574378
O O5 0.134298 0.773901 0.855515
O O6 0.246586 0.776888 0.796016
O O7 0.803965 0.744653 0.713279
O O8 0.009108 0.000000 0.771981
O O9 0.571793 0.500000 0.647937
O O10 0.413531 0.739718 0.571343
O O11 0.933189 0.761493 0.071863
O O12 0.769174 0.000000 0.066809
O O13 0.500000 0.763320 0.000000
O O14 0.019798 0.500000 0.062354
O O15 0.354056 0.706072 0.143756
O O16 0.000000 0.725980 0.000000
O O17 0.000000 0.169916 0.500000
O O18 0.257995 0.000000 0.507587
O O19 0.682564 0.500000 0.211700
#
# Coordination Sequence:
#
# PCOD8061944 Si02
#       7
#     4   4   4   4   4   4   4
#     4   9  18  33  54  79 106 140 182 223 269 328
#     4  11  23  37  54  79 110 144 185 228 269 319
#     4  10  19  34  57  81 108 143 180 222 274 327
#     4  10  22  39  58  82 113 148 184 222 268 324
#     4  10  21  37  59  87 114 142 182 229 272 318
#     4   9  17  30  51  80 111 140 175 222 271 321
#     4  10  21  37  55  78 110 145 182 225 273 325
#
# _framework density 19.108868999999999
#
# number of rings (size 3 to 8) (size 9 to 14) (size 15 to 20)
#    0.000    2.143    0.000    3.000    0.000    6.286 
#    0.000    0.714    0.000    4.286    0.000    0.000 
#    0.000    0.000    0.000    0.000    0.000    0.000 
#
# Total GULP energy -347307.176105 kJ/mol
# GULP energy per Si atom -12403.827718 kJ/mol
# Density = 1.906538 g / cm^3
# Si number density = 19.108869 Si / 1000 Ang^3
#
#
#
# Elastic Constant Matrix: (Units=GPa)
#
#
# Indices 1 2 3 4 5 6 
#
# 1 80.7119 23.6947 54.3051 0.0000 -3.6301 0.0000
# 2 23.6947 51.4687 48.5223 0.0000 2.1124 0.0000
# 3 54.3051 48.5223 169.1211 0.0000 0.0970 0.0000
# 4 0.0000 0.0000 0.0000 27.8805 0.0000 1.9660
# 5 -3.6301 2.1124 0.0970 0.0000 29.2854 0.0000
# 6 0.0000 0.0000 0.0000 1.9660 0.0000 31.0580
#
#
#
# Elastic Compliance Matrix: (Units=1/GPa)
#
#
# Indices 1 2 3 4 5 6 
#
# 1 0.016409 -0.003675 -0.004216 0.000000 0.002313 0.000000
# 2 -0.003675 0.027562 -0.006726 0.000000 -0.002421 0.000000
# 3 -0.004216 -0.006726 0.009197 0.000000 -0.000068 0.000000
# 4 0.000000 0.000000 0.000000 0.036028 0.000000 -0.002281
# 5 0.002313 -0.002421 -0.000068 0.000000 0.034608 0.000000
# 6 0.000000 0.000000 0.000000 -0.002281 0.000000 0.032342
#
#
# Mechanical properties :
#
#
# Convention : Reuss Voigt Hill
#
# Bulk Modulus (GPa) = 41.78253 61.59402 51.68827
# Shear Modulus (GPa) = 25.85877 29.29675 27.57776
#
# Velocity S-wave (km/s) = 3.68262 3.91979 3.80306
# Velocity P-wave (km/s) = 6.32418 7.26564 6.81120
#
# Compressibility (1/GPa) = 0.02393345
#
# Stress axis : x y z
#
# Youngs Moduli (GPa) = 60.94139 36.28231 108.73555
#
# Poissons Ratio (x) = 0.13332 0.45844
# Poissons Ratio (y) = 0.22393 0.73140
# Poissons Ratio (z) = 0.25694 0.24405
#
# Static dielectric constant tensor:
#      x y z
#    x 3.306790 0.000000 -0.026960 
#    y 0.000000 3.502720 0.000000 
#    z -0.026960 0.000000 3.819130 
# 
# 
# High freq. dielectric constant tensor:
#      x y z
#    x 1.729600 0.000000 0.002030 
#    y 0.000000 1.743000 0.000000 
#    z 0.002030 0.000000 1.764170 
# 
# From -- ./inp_files/36828.got.cif
#   From: 2010.06.25/outbox.cif.g09.slc.cpg/sg10_19_cif.got.tgz:36828.got - 2010.06.27 22:07:45.
