data_PCOD8061928
_publ_section_title
;
Structure prediction by ZEFSAII (Michael W. Deem and Ramdas Pophale) SiO2 
 PCOD8061928
Probable space group: P 2/M
;
_chemical_formula_sum "Si O2"
_cell_formula_units_Z 32
_cell_length_a 21.470057
_cell_length_b 9.282858
_cell_length_c 27.938977
_cell_angle_alpha 90.000000
_cell_angle_beta 18.900467
_cell_angle_gamma 90.000000
_cell_volume 1803.723841
_symmetry_space_group_name_H-M "P 2/M"
_symmetry_group_IT_number 10
_symmetry_cell_setting 'monoclinic'
loop_
_space_group_symop_operation_xyz
x,y,z
-x,y,-z
-x,-y,-z
x,-y,z
loop_
_atom_site_type_symbol
_atom_site_label
_atom_site_fract_x
_atom_site_fract_y
_atom_site_fract_z
Si Si1 0.976691 0.831182 0.571098
Si Si2 0.290648 0.836659 0.417453
Si Si3 0.778824 0.668561 0.368176
Si Si4 0.707902 0.832847 0.141343
Si Si5 0.932804 0.667657 0.156631
Si Si6 0.040243 0.333075 0.668270
Si Si7 0.623361 0.667874 0.299596
Si Si8 0.284049 0.329918 0.166938
O O1 0.178577 0.794478 0.450356
O O2 0.000000 0.775309 0.500000
O O3 0.801406 0.748440 0.724268
O O4 0.927622 0.000000 0.607973
O O5 0.518234 0.813755 0.246199
O O6 0.220870 0.741539 0.512215
O O7 0.241241 0.000000 0.467094
O O8 0.747807 0.500000 0.383934
O O9 0.837681 0.732448 0.274125
O O10 0.575059 0.730879 0.534453
O O11 0.948262 0.703481 0.283558
O O12 0.681614 0.759036 0.211484
O O13 0.756266 0.000000 0.114598
O O14 0.875725 0.757475 0.990296
O O15 0.987287 0.500000 0.122897
O O16 0.788649 0.691383 0.218087
O O17 0.073381 0.500000 0.635293
O O18 0.838753 0.284992 0.790979
O O19 0.604916 0.500000 0.298587
O O20 0.277981 0.500000 0.181005
O O21 0.500000 0.276330 0.000000
#
# Coordination Sequence:
#
# PCOD8061928 Si02
#       8
#     4   4   4   4   4   4   4   4
#     4   9  18  34  55  76  99 130 171 211 245 288
#     4   9  18  33  52  73  99 131 168 208 246 288
#     4   9  17  32  54  77  98 124 166 211 249 290
#     4  11  22  35  51  73 104 136 166 203 251 301
#     4  10  21  35  51  75 104 131 163 209 257 296
#     4   9  16  30  54  76  97 130 168 203 242 294
#     4  10  19  34  57  77  95 127 171 213 250 294
#     4   9  18  32  50  76 109 135 159 198 248 299
#
# _framework density 17.741074999999999
#
# number of rings (size 3 to 8) (size 9 to 14) (size 15 to 20)
#    0.000    2.500    1.250    1.125    0.000    4.500 
#    2.250    1.250    0.000    1.500    0.000    0.000 
#    0.000    0.000    0.000    0.000    0.000    0.000 
#
# Total GULP energy -396736.512385 kJ/mol
# GULP energy per Si atom -12398.016012 kJ/mol
# Density = 1.770070 g / cm^3
# Si number density = 17.741075 Si / 1000 Ang^3
#
#
#
# Elastic Constant Matrix: (Units=GPa)
#
#
# Indices 1 2 3 4 5 6 
#
# 1 86.2126 30.9879 46.9056 0.0000 4.6247 0.0000
# 2 30.9879 45.4304 38.7368 0.0000 0.0050 0.0000
# 3 46.9056 38.7368 122.5442 0.0000 -0.5096 0.0000
# 4 0.0000 0.0000 0.0000 3.5935 0.0000 -10.6999
# 5 4.6247 0.0050 -0.5096 0.0000 26.9576 0.0000
# 6 0.0000 0.0000 0.0000 -10.6999 0.0000 15.0379
#
#
#
# Elastic Compliance Matrix: (Units=1/GPa)
#
#
# Indices 1 2 3 4 5 6 
#
# 1 0.016791 -0.008162 -0.003859 0.000000 -0.002952 0.000000
# 2 -0.008162 0.034102 -0.007650 0.000000 0.001249 0.000000
# 3 -0.003859 -0.007650 0.012060 0.000000 0.000891 0.000000
# 4 0.000000 0.000000 0.000000 -0.248770 0.000000 -0.177006
# 5 -0.002952 0.001249 0.000891 0.000000 0.037618 0.000000
# 6 0.000000 0.000000 0.000000 -0.177006 0.000000 -0.059446
#
#
# Mechanical properties :
#
#
# Convention : Reuss Voigt Hill
#
# Bulk Modulus (GPa) = 42.35661 54.16091 48.25876
# Shear Modulus (GPa) = -31.16589 18.28826 -6.43882
#
# Velocity S-wave (km/s) = -4.19586 3.21416 -1.90715
# Velocity P-wave (km/s) = 0.67312 6.66102 4.73404
#
# Compressibility (1/GPa) = 0.02360907
#
# Stress axis : x y z
#
# Youngs Moduli (GPa) = 59.55560 29.32361 82.92189
#
# Poissons Ratio (x) = 0.23935 0.32001
# Poissons Ratio (y) = 0.48610 0.63439
# Poissons Ratio (z) = 0.22984 0.22434
#
# Static dielectric constant tensor:
#      x y z
#    x 3.500170 0.000000 -0.090780 
#    y 0.000000 3.169270 0.000000 
#    z -0.090780 0.000000 3.356420 
# 
# 
# High freq. dielectric constant tensor:
#      x y z
#    x 1.693670 0.000000 -0.009710 
#    y 0.000000 1.669130 0.000000 
#    z -0.009710 0.000000 1.681750 
# 
# From -- ./inp_files/86748.got.cif
#   From: 2010.06.25/outbox.cif.g09.slc.cpg/sg10_44_cif.got.tgz:86748.got - 2010.06.27 22:07:45.
