data_PCOD8061266
_publ_section_title
;
Structure prediction by ZEFSAII (Michael W. Deem and Ramdas Pophale) SiO2 
 PCOD8061266
Probable space group: P 2/M
;
_chemical_formula_sum "Si O2"
_cell_formula_units_Z 28
_cell_length_a 25.517084
_cell_length_b 9.287405
_cell_length_c 9.655481
_cell_angle_alpha 90.000000
_cell_angle_beta 40.214579
_cell_angle_gamma 90.000000
_cell_volume 1477.399177
_symmetry_space_group_name_H-M "P 2/M"
_symmetry_group_IT_number 10
_symmetry_cell_setting 'monoclinic'
loop_
_space_group_symop_operation_xyz
x,y,z
-x,y,-z
-x,-y,-z
x,-y,z
loop_
_atom_site_type_symbol
_atom_site_label
_atom_site_fract_x
_atom_site_fract_y
_atom_site_fract_z
Si Si1 0.090195 0.168574 0.363043
Si Si2 0.823339 0.331209 0.046527
Si Si3 0.173021 0.666006 0.418094
Si Si4 0.497727 0.328149 0.846859
Si Si5 0.086364 0.666315 0.869127
Si Si6 0.641814 0.667851 0.366412
Si Si7 0.651907 0.671279 0.034095
O O1 0.104211 0.237211 0.484849
O O2 0.000000 0.207021 0.500000
O O3 0.106888 0.000000 0.332071
O O4 0.154514 0.244405 0.134295
O O5 0.839727 0.500000 0.988798
O O6 0.876474 0.266515 0.065669
O O7 0.728206 0.303811 0.265000
O O8 0.162535 0.500000 0.393437
O O9 0.156533 0.685030 0.613794
O O10 0.262130 0.724898 0.200408
O O11 0.500212 0.500000 0.846214
O O12 0.573796 0.265470 0.605390
O O13 0.417213 0.272212 0.930882
O O14 0.500000 0.267970 0.000000
O O15 0.068821 0.500000 0.934753
O O16 0.000000 0.739252 0.000000
O O17 0.624013 0.500000 0.386796
O O18 0.638192 0.733584 0.217435
O O19 0.651606 0.500000 0.039290
#
# Coordination Sequence:
#
# PCOD8061266 Si02
#       7
#     4   4   4   4   4   4   4
#     4  11  23  37  53  76 105 136 174 219 263 313
#     4  10  19  33  54  78 104 137 176 215 260 310
#     4  10  19  33  54  78 104 137 176 215 260 310
#     4   9  17  25  39  67 105 140 164 199 256 312
#     4   9  18  30  47  74 104 132 167 215 263 307
#     4   9  16  27  43  67  99 135 169 203 249 306
#     4   9  16  27  43  67  99 135 169 203 249 306
#
# _framework density 18.952223
#
# number of rings (size 3 to 8) (size 9 to 14) (size 15 to 20)
#    0.000    2.429    1.429    1.714    2.000    4.000 
#    0.000    0.714    0.000    2.571    0.000    2.000 
#    0.000    1.143    0.000    0.000    0.000    0.000 
#
# Total GULP energy -347106.115689 kJ/mol
# GULP energy per Si atom -12396.646989 kJ/mol
# Density = 1.890909 g / cm^3
# Si number density = 18.952223 Si / 1000 Ang^3
#
#
#
# Elastic Constant Matrix: (Units=GPa)
#
#
# Indices 1 2 3 4 5 6 
#
# 1 124.8155 13.6716 32.1933 0.0000 3.8252 0.0000
# 2 13.6716 22.8046 8.6586 0.0000 -6.8281 0.0000
# 3 32.1933 8.6586 101.8617 0.0000 -3.8591 0.0000
# 4 0.0000 0.0000 0.0000 2.9774 0.0000 -2.3489
# 5 3.8252 -6.8281 -3.8591 0.0000 30.7523 0.0000
# 6 0.0000 0.0000 0.0000 -2.3489 0.0000 6.9095
#
#
#
# Elastic Compliance Matrix: (Units=1/GPa)
#
#
# Indices 1 2 3 4 5 6 
#
# 1 0.009360 -0.005432 -0.002599 0.000000 -0.002696 0.000000
# 2 -0.005432 0.051489 -0.002212 0.000000 0.011831 0.000000
# 3 -0.002599 -0.002212 0.010872 0.000000 0.001196 0.000000
# 4 0.000000 0.000000 0.000000 0.458949 0.000000 0.156022
# 5 -0.002696 0.011831 0.001196 0.000000 0.035630 0.000000
# 6 0.000000 0.000000 0.000000 0.156022 0.000000 0.197768
#
#
# Mechanical properties :
#
#
# Convention : Reuss Voigt Hill
#
# Bulk Modulus (GPa) = 19.51738 39.83652 29.67695
# Shear Modulus (GPa) = 6.23728 21.12507 13.68117
#
# Velocity S-wave (km/s) = 1.81609 3.34226 2.68969
# Velocity P-wave (km/s) = 3.83642 5.99661 5.03376
#
# Compressibility (1/GPa) = 0.05123639
#
# Stress axis : x y z
#
# Youngs Moduli (GPa) = 106.84132 19.42144 91.98084
#
# Poissons Ratio (x) = 0.10550 0.23902
# Poissons Ratio (y) = 0.58036 0.20344
# Poissons Ratio (z) = 0.27763 0.04296
#
# Static dielectric constant tensor:
#      x y z
#    x 3.733440 0.000000 0.001500 
#    y 0.000000 2.781470 0.000000 
#    z 0.001500 0.000000 3.650680 
# 
# 
# High freq. dielectric constant tensor:
#      x y z
#    x 1.752650 0.000000 -0.001150 
#    y 0.000000 1.652180 0.000000 
#    z -0.001150 0.000000 1.749750 
# 
# From -- ./inp_files/36954.got.cif
#   From: 2010.06.25/outbox.cif.g09.slc.cpg/sg10_19_cif.got.tgz:36954.got - 2010.06.27 22:07:45.
