data_PCOD8061341
_publ_section_title
;
Structure prediction by ZEFSAII (Michael W. Deem and Ramdas Pophale) SiO2 
 PCOD8061341
Probable space group: P 2/M
;
_chemical_formula_sum "Si O2"
_cell_formula_units_Z 28
_cell_length_a 11.869896
_cell_length_b 8.755356
_cell_length_c 15.024629
_cell_angle_alpha 90.000000
_cell_angle_beta 60.662873
_cell_angle_gamma 90.000000
_cell_volume 1361.185833
_symmetry_space_group_name_H-M "P 2/M"
_symmetry_group_IT_number 10
_symmetry_cell_setting 'monoclinic'
loop_
_space_group_symop_operation_xyz
x,y,z
-x,y,-z
-x,-y,-z
x,-y,z
loop_
_atom_site_type_symbol
_atom_site_label
_atom_site_fract_x
_atom_site_fract_y
_atom_site_fract_z
Si Si1 0.378057 0.680993 0.487468
Si Si2 0.146802 0.181282 0.193171
Si Si3 0.116011 0.825753 0.009890
Si Si4 0.472478 0.177376 0.282101
Si Si5 0.116834 0.677646 0.685478
Si Si6 0.752317 0.170568 0.212325
Si Si7 0.419569 0.319192 0.118374
O O1 0.500000 0.738792 0.500000
O O2 0.384678 0.500000 0.476331
O O3 0.370442 0.751978 0.390959
O O4 0.241884 0.734985 0.582496
O O5 0.143435 0.250546 0.094091
O O6 0.275605 0.252046 0.184237
O O7 0.015137 0.236495 0.293369
O O8 0.158177 0.000000 0.195201
O O9 0.076089 0.000000 0.046527
O O10 0.239672 0.812899 0.898174
O O11 0.000000 0.745808 0.000000
O O12 0.603149 0.201726 0.289044
O O13 0.486737 0.266367 0.183585
O O14 0.442951 0.000000 0.274076
O O15 0.092060 0.500000 0.682310
O O16 0.150919 0.714572 0.775199
O O17 0.794014 0.000000 0.225624
O O18 0.412009 0.500000 0.117288
O O19 0.500000 0.258923 0.000000
#
# Coordination Sequence:
#
# PCOD8061341 Si02
#       7
#     4   4   4   4   4   4   4
#     4  10  21  39  61  88 127 171 209 253 314 377
#     4  11  22  39  63  87 122 163 206 260 311 366
#     4   9  16  29  51  80 114 152 190 233 296 362
#     4  11  23  38  63  94 123 160 211 264 312 365
#     4  11  22  36  57  87 124 162 203 249 307 372
#     4  10  19  33  54  84 120 156 198 247 303 364
#     4  11  25  45  67  91 125 166 209 254 305 373
#
# _framework density 20.5703
#
# number of rings (size 3 to 8) (size 9 to 14) (size 15 to 20)
#    0.000    1.571    2.857    2.571    0.000    4.286 
#    0.000    2.857    0.000    4.286    0.000    0.000 
#    0.000    0.000    0.000    0.000    0.000    0.000 
#
# Total GULP energy -347010.019135 kJ/mol
# GULP energy per Si atom -12393.214969 kJ/mol
# Density = 2.052348 g / cm^3
# Si number density = 20.570300 Si / 1000 Ang^3
#
#
#
# Elastic Constant Matrix: (Units=GPa)
#
#
# Indices 1 2 3 4 5 6 
#
# 1 77.9345 29.2609 38.3325 0.0000 -19.4473 0.0000
# 2 29.2609 64.6156 34.2880 0.0000 -7.7508 0.0000
# 3 38.3325 34.2880 103.0081 0.0000 -9.8773 0.0000
# 4 0.0000 0.0000 0.0000 29.3003 0.0000 0.6888
# 5 -19.4473 -7.7508 -9.8773 0.0000 35.0371 0.0000
# 6 0.0000 0.0000 0.0000 0.6888 0.0000 30.6606
#
#
#
# Elastic Compliance Matrix: (Units=1/GPa)
#
#
# Indices 1 2 3 4 5 6 
#
# 1 0.019080 -0.005235 -0.004577 0.000000 0.008142 0.000000
# 2 -0.005235 0.020441 -0.004832 0.000000 0.000254 0.000000
# 3 -0.004577 -0.004832 0.013026 0.000000 0.000063 0.000000
# 4 0.000000 0.000000 0.000000 0.034147 0.000000 -0.000767
# 5 0.008142 0.000254 0.000063 0.000000 0.033134 0.000000
# 6 0.000000 0.000000 0.000000 -0.000767 0.000000 0.032632
#
#
# Mechanical properties :
#
#
# Convention : Reuss Voigt Hill
#
# Bulk Modulus (GPa) = 42.99350 49.92455 46.45903
# Shear Modulus (GPa) = 26.38523 28.57808 27.48165
#
# Velocity S-wave (km/s) = 3.58535 3.73136 3.65908
# Velocity P-wave (km/s) = 6.17137 6.54881 6.36289
#
# Compressibility (1/GPa) = 0.02325933
#
# Stress axis : x y z
#
# Youngs Moduli (GPa) = 52.41225 48.92101 76.77229
#
# Poissons Ratio (x) = 0.25609 0.35138
# Poissons Ratio (y) = 0.27436 0.37095
# Poissons Ratio (z) = 0.23989 0.23638
#
# Static dielectric constant tensor:
#      x y z
#    x 3.657450 0.000000 -0.169550 
#    y 0.000000 3.471220 0.000000 
#    z -0.169550 0.000000 3.875280 
# 
# 
# High freq. dielectric constant tensor:
#      x y z
#    x 1.794550 0.000000 -0.015780 
#    y 0.000000 1.784670 0.000000 
#    z -0.015780 0.000000 1.809520 
# 
# From -- ./inp_files/63613.got.cif
#   From: 2010.06.25/outbox.cif.g09.slc.cpg/sg10_32_cif.got.tgz:63613.got - 2010.06.27 22:07:45.
