data_PCOD8061462
_publ_section_title
;
Structure prediction by ZEFSAII (Michael W. Deem and Ramdas Pophale) SiO2 
 PCOD8061462
Probable space group: P 2/M
;
_chemical_formula_sum "Si O2"
_cell_formula_units_Z 24
_cell_length_a 10.031775
_cell_length_b 8.377305
_cell_length_c 22.563837
_cell_angle_alpha 90.000000
_cell_angle_beta 39.408323
_cell_angle_gamma 90.000000
_cell_volume 1203.819109
_symmetry_space_group_name_H-M "P 2/M"
_symmetry_group_IT_number 10
_symmetry_cell_setting 'monoclinic'
loop_
_space_group_symop_operation_xyz
x,y,z
-x,y,-z
-x,-y,-z
x,-y,z
loop_
_atom_site_type_symbol
_atom_site_label
_atom_site_fract_x
_atom_site_fract_y
_atom_site_fract_z
Si Si1 0.679308 0.686413 0.117685
Si Si2 0.477416 0.310455 0.573667
Si Si3 0.981349 0.184790 0.918140
Si Si4 0.967110 0.689592 0.227800
Si Si5 0.919282 0.309854 0.465669
Si Si6 0.209791 0.310251 0.260394
O O1 0.672367 0.500000 0.134684
O O2 0.786768 0.773199 0.136873
O O3 0.444896 0.755376 0.189465
O O4 0.809435 0.714251 0.013050
O O5 0.500000 0.239224 0.500000
O O6 0.465104 0.500000 0.573747
O O7 0.266432 0.247035 0.676999
O O8 0.678856 0.253373 0.541709
O O9 0.957373 0.226537 0.857789
O O10 0.934945 0.000000 0.944686
O O11 0.971113 0.500000 0.217843
O O12 0.122886 0.746104 0.226563
O O13 0.932961 0.500000 0.460493
O O14 0.060385 0.241496 0.363547
O O15 0.000000 0.239210 0.500000
O O16 0.207438 0.500000 0.263095
#
# Coordination Sequence:
#
# PCOD8061462 Si02
#       6
#     4   4   4   4   4   4
#     4  10  20  37  60  83 107 137 176 224 276 323
#     4   9  15  26  46  75 111 144 171 212 265 312
#     4  11  23  39  56  78 107 142 182 223 270 324
#     4  10  19  33  55  83 112 143 181 221 265 317
#     4   9  16  25  41  74 116 144 168 210 266 319
#     4   9  18  31  50  82 116 140 171 222 274 318
#
# _framework density 19.936551000000001
#
# number of rings (size 3 to 8) (size 9 to 14) (size 15 to 20)
#    0.000    2.333    1.667    3.000    2.333    0.667 
#    0.000    5.000    0.000    0.500    0.000    1.167 
#    0.000    0.000    0.000    0.000    0.000    0.000 
#
# Total GULP energy -297592.149557 kJ/mol
# GULP energy per Si atom -12399.672898 kJ/mol
# Density = 1.989117 g / cm^3
# Si number density = 19.936551 Si / 1000 Ang^3
#
#
#
# Elastic Constant Matrix: (Units=GPa)
#
#
# Indices 1 2 3 4 5 6 
#
# 1 153.1205 8.2357 52.1207 0.0000 0.9131 0.0000
# 2 8.2357 27.1514 1.5493 0.0000 1.0507 0.0000
# 3 52.1207 1.5493 78.3023 0.0000 2.6350 0.0000
# 4 0.0000 0.0000 0.0000 -0.2616 0.0000 1.8999
# 5 0.9131 1.0507 2.6350 0.0000 48.2879 0.0000
# 6 0.0000 0.0000 0.0000 1.8999 0.0000 5.3730
#
#
#
# Elastic Compliance Matrix: (Units=1/GPa)
#
#
# Indices 1 2 3 4 5 6 
#
# 1 0.008585 -0.002288 -0.005676 0.000000 0.000197 0.000000
# 2 -0.002288 0.037510 0.000808 0.000000 -0.000817 0.000000
# 3 -0.005676 0.000808 0.016560 0.000000 -0.000814 0.000000
# 4 0.000000 0.000000 0.000000 -1.071408 0.000000 0.378846
# 5 0.000197 -0.000817 -0.000814 0.000000 0.020768 0.000000
# 6 0.000000 0.000000 0.000000 0.378846 0.000000 0.052158
#
#
# Mechanical properties :
#
#
# Convention : Reuss Voigt Hill
#
# Bulk Modulus (GPa) = 20.68489 42.48727 31.58608
# Shear Modulus (GPa) = -5.52241 23.79109 9.13434
#
# Velocity S-wave (km/s) = -1.66613 3.45822 2.14281
# Velocity P-wave (km/s) = 2.58777 6.10764 4.69041
#
# Compressibility (1/GPa) = 0.04834447
#
# Stress axis : x y z
#
# Youngs Moduli (GPa) = 116.48799 26.65961 60.38556
#
# Poissons Ratio (x) = 0.06099 0.34272
# Poissons Ratio (y) = 0.26649 -0.04880
# Poissons Ratio (z) = 0.66113 -0.02154
#
# Static dielectric constant tensor:
#      x y z
#    x 3.894590 0.000000 -0.092170 
#    y 0.000000 3.033820 0.000000 
#    z -0.092170 0.000000 3.704420 
# 
# 
# High freq. dielectric constant tensor:
#      x y z
#    x 1.791640 0.000000 -0.000470 
#    y 0.000000 1.721810 0.000000 
#    z -0.000470 0.000000 1.781720 
# 
# From -- ./inp_files/81927.got.cif
#   From: 2010.06.25/outbox.cif.g09.slc.cpg/sg10_41_cif.got.tgz:81927.got - 2010.06.27 22:07:45.
