data_PCOD8061859
_publ_section_title
;
Structure prediction by ZEFSAII (Michael W. Deem and Ramdas Pophale) SiO2 
 PCOD8061859
Probable space group: P 2/M
;
_chemical_formula_sum "Si O2"
_cell_formula_units_Z 28
_cell_length_a 31.540251
_cell_length_b 8.640598
_cell_length_c 31.540375
_cell_angle_alpha 90.000000
_cell_angle_beta 9.484063
_cell_angle_gamma 90.000000
_cell_volume 1416.323741
_symmetry_space_group_name_H-M "P 2/M"
_symmetry_group_IT_number 10
_symmetry_cell_setting 'monoclinic'
loop_
_space_group_symop_operation_xyz
x,y,z
-x,y,-z
-x,-y,-z
x,-y,z
loop_
_atom_site_type_symbol
_atom_site_label
_atom_site_fract_x
_atom_site_fract_y
_atom_site_fract_z
Si Si1 0.548046 0.316022 0.048024
Si Si2 0.736757 0.680390 0.236868
Si Si3 0.832778 0.816011 0.332787
Si Si4 0.975940 0.684598 0.475951
Si Si5 0.403515 0.316013 0.903474
Si Si6 0.309308 0.182820 0.809332
Si Si7 0.118646 0.183682 0.618677
O O1 0.547279 0.500000 0.047259
O O2 0.285761 0.250274 0.286496
O O3 0.572232 0.257664 0.072213
O O4 0.786516 0.250275 0.785742
O O5 0.500000 0.729381 0.500000
O O6 0.730915 0.500000 0.231640
O O7 0.715333 0.775503 0.215181
O O8 0.000000 0.729140 0.000000
O O9 0.571387 0.747436 0.570422
O O10 0.857001 0.758977 0.357040
O O11 0.831678 0.000000 0.331679
O O12 0.070432 0.747436 0.071384
O O13 0.975826 0.500000 0.475841
O O14 0.000000 0.747870 0.500000
O O15 0.402095 0.500000 0.902014
O O16 0.142224 0.250720 0.142486
O O17 0.642552 0.250707 0.642169
O O18 0.311627 0.000000 0.811635
O O19 0.116913 0.000000 0.616987
#
# Coordination Sequence:
#
# PCOD8061859 Si02
#       7
#     4   4   4   4   4   4   4
#     4   9  17  28  43  66 101 140 170 212 277 329
#     4  10  21  36  52  73 105 140 169 203 253 308
#     4   9  19  35  55  78 105 136 171 220 273 314
#     4   9  15  24  40  64  96 135 176 214 261 327
#     4  11  22  37  56  82 117 150 183 229 286 337
#     4  10  19  34  56  79 101 130 172 217 262 310
#     4  11  22  39  61  83 111 150 193 231 276 336
#
# _framework density 19.769490999999999
#
# number of rings (size 3 to 8) (size 9 to 14) (size 15 to 20)
#    0.000    2.143    0.000    3.857    0.000    6.857 
#    0.000    4.286    0.000    0.000    0.000    0.000 
#    0.000   40.000    0.000    0.000    0.000    0.000 
#
# Total GULP energy -347276.740204 kJ/mol
# GULP energy per Si atom -12402.740722 kJ/mol
# Density = 1.972449 g / cm^3
# Si number density = 19.769491 Si / 1000 Ang^3
#
#
#
# Elastic Constant Matrix: (Units=GPa)
#
#
# Indices 1 2 3 4 5 6 
#
# 1 188.8092 24.1961 114.5000 0.0000 -1.7824 0.0000
# 2 24.1961 31.4316 25.3698 0.0000 -0.1020 0.0000
# 3 114.5000 25.3698 229.2857 0.0000 -1.6310 0.0000
# 4 0.0000 0.0000 0.0000 16.6442 0.0000 1.5979
# 5 -1.7824 -0.1020 -1.6310 0.0000 47.7036 0.0000
# 6 0.0000 0.0000 0.0000 1.5979 0.0000 34.7766
#
#
#
# Elastic Compliance Matrix: (Units=1/GPa)
#
#
# Indices 1 2 3 4 5 6 
#
# 1 0.007876 -0.003172 -0.003581 0.000000 0.000165 0.000000
# 2 -0.003172 0.036213 -0.002424 0.000000 -0.000124 0.000000
# 3 -0.003581 -0.002424 0.006418 0.000000 0.000080 0.000000
# 4 0.000000 0.000000 0.000000 0.060347 0.000000 -0.002773
# 5 0.000165 -0.000124 0.000080 0.000000 0.020971 0.000000
# 6 0.000000 0.000000 0.000000 -0.002773 0.000000 0.028882
#
#
# Mechanical properties :
#
#
# Convention : Reuss Voigt Hill
#
# Bulk Modulus (GPa) = 31.10052 86.40647 58.75349
# Shear Modulus (GPa) = 26.34636 38.85559 32.60098
#
# Velocity S-wave (km/s) = 3.65455 4.43813 4.06526
# Velocity P-wave (km/s) = 5.79425 8.37045 7.19854
#
# Compressibility (1/GPa) = 0.03215380
#
# Stress axis : x y z
#
# Youngs Moduli (GPa) = 126.96774 27.61453 155.80317
#
# Poissons Ratio (x) = 0.08760 0.55792
# Poissons Ratio (y) = 0.40275 0.37761
# Poissons Ratio (z) = 0.45466 0.06693
#
# Static dielectric constant tensor:
#      x y z
#    x 3.792270 0.000000 0.012330 
#    y 0.000000 3.127440 0.000000 
#    z 0.012330 0.000000 3.659590 
# 
# 
# High freq. dielectric constant tensor:
#      x y z
#    x 1.790360 0.000000 -0.000490 
#    y 0.000000 1.723810 0.000000 
#    z -0.000490 0.000000 1.796000 
# 
# From -- ./inp_files/13546.got.cif
#   From: 2010.06.25/outbox.cif.g09.slc.cpg/sg10_7_cif.got.tgz:13546.got - 2010.06.27 22:07:45.
