data_PCOD8061007
_publ_section_title
;
Structure prediction by ZEFSAII (Michael W. Deem and Ramdas Pophale) SiO2 
 PCOD8061007
Probable space group: P 2/M
;
_chemical_formula_sum "Si O2"
_cell_formula_units_Z 30
_cell_length_a 36.100872
_cell_length_b 7.852229
_cell_length_c 5.178191
_cell_angle_alpha 90.000000
_cell_angle_beta 106.630179
_cell_angle_gamma 90.000000
_cell_volume 1406.475506
_symmetry_space_group_name_H-M "P 2/M"
_symmetry_group_IT_number 10
_symmetry_cell_setting 'monoclinic'
loop_
_space_group_symop_operation_xyz
x,y,z
-x,y,-z
-x,-y,-z
x,-y,z
loop_
_atom_site_type_symbol
_atom_site_label
_atom_site_fract_x
_atom_site_fract_y
_atom_site_fract_z
Si Si1 0.973828 0.000000 0.197923
Si Si2 0.348511 0.194579 0.432031
Si Si3 0.738780 0.796267 0.728243
Si Si4 0.609045 0.694705 0.982942
Si Si5 0.135345 0.695489 0.544741
Si Si6 0.913919 0.698814 0.051266
Si Si7 0.522150 0.702974 0.793025
Si Si8 0.779496 0.805892 0.309796
O O1 0.949678 0.825206 0.153844
O O2 0.000000 0.000000 0.500000
O O3 0.000000 0.000000 0.000000
O O4 0.305226 0.269449 0.360051
O O5 0.372049 0.295972 0.262182
O O6 0.347443 0.000000 0.339928
O O7 0.367199 0.205259 0.752578
O O8 0.761131 0.718051 0.525873
O O9 0.740638 0.000000 0.727903
O O10 0.761164 0.718651 0.019922
O O11 0.607361 0.500000 0.069354
O O12 0.565939 0.772405 0.881827
O O13 0.147219 0.500000 0.545799
O O14 0.115813 0.737087 0.778321
O O15 0.174264 0.801845 0.596951
O O16 0.106200 0.745865 0.258505
O O17 0.927563 0.500000 0.084932
O O18 0.500000 0.776977 0.500000
O O19 0.522275 0.500000 0.785040
O O20 0.500000 0.771890 0.000000
O O21 0.766030 0.000000 0.282292
#
# Coordination Sequence:
#
# PCOD8061007 Si02
#       8
#     2   4   4   4   4   4   4   4
#     4  12  26  42  66  96 122 158 208 252 296 358
#     4  11  22  39  61  80 115 161 197 236 288 362
#     4   9  19  35  52  78 110 148 196 237 280 337
#     4  11  22  37  59  88 113 140 193 248 288 345
#     4  10  21  38  58  86 121 157 191 235 296 355
#     4  10  23  41  62  88 125 161 197 246 301 359
#     4   9  17  31  53  79 107 140 178 228 289 349
#     4  10  19  32  56  83 108 144 194 245 283 329
#
# _framework density 21.329912
#
# number of rings (size 3 to 8) (size 9 to 14) (size 15 to 20)
#    0.000    1.867    0.000    4.000    1.867    4.800 
#    0.000    4.000    0.000    8.000    0.000    0.000 
#    0.000    0.000    0.000    0.000    0.000    0.000 
#
# Total GULP energy -372062.003914 kJ/mol
# GULP energy per Si atom -12402.066797 kJ/mol
# Density = 2.128136 g / cm^3
# Si number density = 21.329912 Si / 1000 Ang^3
#
#
#
# Elastic Constant Matrix: (Units=GPa)
#
#
# Indices 1 2 3 4 5 6 
#
# 1 152.1958 31.8001 60.4734 0.0000 0.6888 0.0000
# 2 31.8001 45.8125 20.8834 0.0000 6.0282 0.0000
# 3 60.4734 20.8834 158.7022 0.0000 -0.9219 0.0000
# 4 0.0000 0.0000 0.0000 19.6821 0.0000 3.9659
# 5 0.6888 6.0282 -0.9219 0.0000 46.6713 0.0000
# 6 0.0000 0.0000 0.0000 3.9659 0.0000 22.5107
#
#
#
# Elastic Compliance Matrix: (Units=1/GPa)
#
#
# Indices 1 2 3 4 5 6 
#
# 1 0.008633 -0.004843 -0.002650 0.000000 0.000446 0.000000
# 2 -0.004843 0.026384 -0.001646 0.000000 -0.003369 0.000000
# 3 -0.002650 -0.001646 0.007530 0.000000 0.000400 0.000000
# 4 0.000000 0.000000 0.000000 0.052678 0.000000 -0.009281
# 5 0.000446 -0.003369 0.000400 0.000000 0.021863 0.000000
# 6 0.000000 0.000000 0.000000 -0.009281 0.000000 0.046058
#
#
# Mechanical properties :
#
#
# Convention : Reuss Voigt Hill
#
# Bulk Modulus (GPa) = 41.20550 64.78048 52.99299
# Shear Modulus (GPa) = 26.38343 34.00976 30.19660
#
# Velocity S-wave (km/s) = 3.52081 3.99740 3.76665
# Velocity P-wave (km/s) = 5.99068 7.19321 6.61931
#
# Compressibility (1/GPa) = 0.02426861
#
# Stress axis : x y z
#
# Youngs Moduli (GPa) = 115.83010 37.90236 132.80744
#
# Poissons Ratio (x) = 0.18358 0.35191
# Poissons Ratio (y) = 0.56102 0.21857
# Poissons Ratio (z) = 0.30693 0.06238
#
# Static dielectric constant tensor:
#      x y z
#    x 3.871650 0.000000 -0.091900 
#    y 0.000000 3.574770 0.000000 
#    z -0.091900 0.000000 4.082940 
# 
# 
# High freq. dielectric constant tensor:
#      x y z
#    x 1.843990 0.000000 -0.005260 
#    y 0.000000 1.811340 0.000000 
#    z -0.005260 0.000000 1.855490 
# 
# From -- ./inp_files/13675.got.cif
#   From: 2010.06.25/outbox.cif.g09.slc.cpg/sg10_7_cif.got.tgz:13675.got - 2010.06.27 22:07:45.
