data_PCOD8061920
_publ_section_title
;
Structure prediction by ZEFSAII (Michael W. Deem and Ramdas Pophale) SiO2 
 PCOD8061920
Probable space group: P 2/M
;
_chemical_formula_sum "Si O2"
_cell_formula_units_Z 32
_cell_length_a 11.972840
_cell_length_b 8.749815
_cell_length_c 29.048117
_cell_angle_alpha 90.000000
_cell_angle_beta 149.159584
_cell_angle_gamma 90.000000
_cell_volume 1560.033215
_symmetry_space_group_name_H-M "P 2/M"
_symmetry_group_IT_number 10
_symmetry_cell_setting 'monoclinic'
loop_
_space_group_symop_operation_xyz
x,y,z
-x,y,-z
-x,-y,-z
x,-y,z
loop_
_atom_site_type_symbol
_atom_site_label
_atom_site_fract_x
_atom_site_fract_y
_atom_site_fract_z
Si Si1 0.904259 0.181867 0.918273
Si Si2 0.984829 0.824943 0.195121
Si Si3 0.568807 0.321239 0.663430
Si Si4 0.703011 0.178053 0.179546
Si Si5 0.271135 0.178155 0.980992
Si Si6 0.549011 0.818974 0.283036
Si Si7 0.870514 0.320123 0.328357
Si Si8 0.363937 0.681721 0.495532
O O1 0.661452 0.241963 0.820300
O O2 0.064386 0.244014 0.935461
O O3 0.897739 0.000000 0.917584
O O4 0.000000 0.247422 0.000000
O O5 0.174804 0.711435 0.247884
O O6 0.916461 0.798448 0.223575
O O7 0.771998 0.789848 0.088206
O O8 0.061195 0.000000 0.213605
O O9 0.528032 0.500000 0.655151
O O10 0.457478 0.236205 0.666644
O O11 0.467129 0.259101 0.579777
O O12 0.724672 0.274171 0.233337
O O13 0.672864 0.000000 0.181644
O O14 0.496352 0.249016 0.079109
O O15 0.292234 0.000000 0.998180
O O16 0.768715 0.754723 0.337927
O O17 0.556806 0.000000 0.285553
O O18 0.869562 0.500000 0.334982
O O19 0.115360 0.258769 0.406395
O O20 0.500000 0.748455 0.500000
O O21 0.371576 0.500000 0.496203
#
# Coordination Sequence:
#
# PCOD8061920 Si02
#       8
#     4   4   4   4   4   4   4   4
#     4   9  16  28  52  80 107 147 196 237 271 324
#     4  10  19  34  56  85 118 154 195 240 290 346
#     4  11  22  38  62  88 116 153 198 246 294 346
#     4  10  20  34  57  86 116 152 197 244 290 343
#     4   9  16  30  52  81 114 152 198 236 277 342
#     4  11  22  39  61  86 119 153 193 242 292 349
#     4  11  23  40  61  85 116 151 193 242 293 347
#     4   9  20  40  64  87 113 153 199 235 280 352
#
# _framework density 20.512384000000001
#
# number of rings (size 3 to 8) (size 9 to 14) (size 15 to 20)
#    0.000    2.000    1.250    3.000    0.000    5.500 
#    0.000    5.625    0.000    7.500    0.000    0.000 
#    0.000    0.000    0.000    0.000    0.000    0.000 
#
# Total GULP energy -396771.321235 kJ/mol
# GULP energy per Si atom -12399.103789 kJ/mol
# Density = 2.046570 g / cm^3
# Si number density = 20.512384 Si / 1000 Ang^3
#
#
#
# Elastic Constant Matrix: (Units=GPa)
#
#
# Indices 1 2 3 4 5 6 
#
# 1 146.7172 33.5586 64.7291 0.0000 -1.6756 0.0000
# 2 33.5586 45.6610 25.8387 0.0000 1.0188 0.0000
# 3 64.7291 25.8387 114.7307 0.0000 -0.7985 0.0000
# 4 0.0000 0.0000 0.0000 24.1461 0.0000 -0.1451
# 5 -1.6756 1.0188 -0.7985 0.0000 38.7179 0.0000
# 6 0.0000 0.0000 0.0000 -0.1451 0.0000 30.7005
#
#
#
# Elastic Compliance Matrix: (Units=1/GPa)
#
#
# Indices 1 2 3 4 5 6 
#
# 1 0.009894 -0.004727 -0.004514 0.000000 0.000459 0.000000
# 2 -0.004727 0.027381 -0.003506 0.000000 -0.000997 0.000000
# 3 -0.004514 -0.003506 0.012054 0.000000 0.000145 0.000000
# 4 0.000000 0.000000 0.000000 0.041416 0.000000 0.000196
# 5 0.000459 -0.000997 0.000145 0.000000 0.025877 0.000000
# 6 0.000000 0.000000 0.000000 0.000196 0.000000 0.032574
#
#
# Mechanical properties :
#
#
# Convention : Reuss Voigt Hill
#
# Bulk Modulus (GPa) = 41.95862 61.70687 51.83275
# Shear Modulus (GPa) = 27.37695 30.91175 29.14435
#
# Velocity S-wave (km/s) = 3.65726 3.88620 3.77346
# Velocity P-wave (km/s) = 6.19142 7.09117 6.65652
#
# Compressibility (1/GPa) = 0.02383300
#
# Stress axis : x y z
#
# Youngs Moduli (GPa) = 101.07214 36.52119 82.96302
#
# Poissons Ratio (x) = 0.17265 0.37451
# Poissons Ratio (y) = 0.47780 0.29091
# Poissons Ratio (z) = 0.45625 0.12806
#
# Static dielectric constant tensor:
#      x y z
#    x 3.887200 0.000000 0.001890 
#    y 0.000000 3.232770 0.000000 
#    z 0.001890 0.000000 3.872950 
# 
# 
# High freq. dielectric constant tensor:
#      x y z
#    x 1.818260 0.000000 -0.002470 
#    y 0.000000 1.753140 0.000000 
#    z -0.002470 0.000000 1.806360 
# 
# From -- ./inp_files/63764.got.cif
#   From: 2010.06.25/outbox.cif.g09.slc.cpg/sg10_32_cif.got.tgz:63764.got - 2010.06.27 22:07:45.
