data_PCOD8061023
_publ_section_title
;
Structure prediction by ZEFSAII (Michael W. Deem and Ramdas Pophale) SiO2 
 PCOD8061023
Probable space group: P 2/M
;
_chemical_formula_sum "Si O2"
_cell_formula_units_Z 32
_cell_length_a 22.564235
_cell_length_b 13.274086
_cell_length_c 9.417113
_cell_angle_alpha 90.000000
_cell_angle_beta 142.696696
_cell_angle_gamma 90.000000
_cell_volume 1709.386252
_symmetry_space_group_name_H-M "P 2/M"
_symmetry_group_IT_number 10
_symmetry_cell_setting 'monoclinic'
loop_
_space_group_symop_operation_xyz
x,y,z
-x,y,-z
-x,-y,-z
x,-y,z
loop_
_atom_site_type_symbol
_atom_site_label
_atom_site_fract_x
_atom_site_fract_y
_atom_site_fract_z
Si Si1 0.231068 0.384741 0.946661
Si Si2 0.463205 0.384293 0.770910
Si Si3 0.303358 0.882651 0.163176
Si Si4 0.949402 0.612918 0.555210
Si Si5 0.080945 0.114487 0.754060
Si Si6 0.731073 0.280333 0.691502
Si Si7 0.938014 0.245284 0.020365
Si Si8 0.418190 0.283320 0.230807
O O1 0.205343 0.500000 0.928028
O O2 0.219578 0.327484 0.073374
O O3 0.339740 0.371763 0.096181
O O4 0.158520 0.342112 0.685836
O O5 0.470595 0.500000 0.726976
O O6 0.350605 0.348652 0.539432
O O7 0.532006 0.301136 0.826078
O O8 0.500000 0.381525 0.000000
O O9 0.316176 0.825964 0.341160
O O10 0.369899 0.827210 0.168866
O O11 0.335073 0.000000 0.237419
O O12 0.190243 0.872066 0.899977
O O13 0.940844 0.500000 0.597271
O O14 0.000000 0.616902 0.500000
O O15 0.005645 0.668446 0.787424
O O16 0.071294 0.149076 0.896988
O O17 0.000000 0.171186 0.500000
O O18 0.050468 0.000000 0.702739
O O19 0.824371 0.271967 0.763049
O O20 0.000000 0.217413 0.000000
O O21 0.500000 0.306949 0.500000
#
# Coordination Sequence:
#
# PCOD8061023 Si02
#       8
#     4   4   4   4   4   4   4   4
#     4  10  19  32  57  83 108 141 190 246 285 325
#     4  11  24  41  59  81 117 157 192 236 286 339
#     4   9  19  36  60  90 116 143 186 238 290 336
#     4  10  20  34  53  78 109 151 192 230 280 339
#     4   9  19  37  63  88 113 148 191 234 281 339
#     4  10  20  37  57  84 110 154 195 230 289 344
#     4  11  23  35  55  85 119 154 183 232 289 346
#     4  11  21  35  57  89 106 143 192 242 280 329
#
# _framework density 18.72017
#
# number of rings (size 3 to 8) (size 9 to 14) (size 15 to 20)
#    0.000    1.875    3.750    1.125    3.500    2.750 
#    0.000    1.250    0.000    1.500    0.000    0.000 
#    0.000    0.000    0.000    0.000    0.000    0.000 
#
# Total GULP energy -396420.702317 kJ/mol
# GULP energy per Si atom -12388.146947 kJ/mol
# Density = 1.867756 g / cm^3
# Si number density = 18.720170 Si / 1000 Ang^3
#
#
#
# Elastic Constant Matrix: (Units=GPa)
#
#
# Indices 1 2 3 4 5 6 
#
# 1 112.3308 32.0350 40.4773 0.0000 16.4060 0.0000
# 2 32.0350 92.9813 42.8692 0.0000 7.6262 0.0000
# 3 40.4773 42.8692 101.2990 0.0000 15.1802 0.0000
# 4 0.0000 0.0000 0.0000 27.7490 0.0000 4.4883
# 5 16.4060 7.6262 15.1802 0.0000 27.1711 0.0000
# 6 0.0000 0.0000 0.0000 4.4883 0.0000 22.8182
#
#
#
# Elastic Compliance Matrix: (Units=1/GPa)
#
#
# Indices 1 2 3 4 5 6 
#
# 1 0.011225 -0.002162 -0.002887 0.000000 -0.004558 0.000000
# 2 -0.002162 0.013789 -0.005006 0.000000 0.000232 0.000000
# 3 -0.002887 -0.005006 0.013830 0.000000 -0.004578 0.000000
# 4 0.000000 0.000000 0.000000 0.037222 0.000000 -0.007321
# 5 -0.004558 0.000232 -0.004578 0.000000 0.042049 0.000000
# 6 0.000000 0.000000 0.000000 -0.007321 0.000000 0.045265
#
#
# Mechanical properties :
#
#
# Convention : Reuss Voigt Hill
#
# Bulk Modulus (GPa) = 53.38314 59.70822 56.54568
# Shear Modulus (GPa) = 26.35262 28.29628 27.32445
#
# Velocity S-wave (km/s) = 3.75602 3.89207 3.82465
# Velocity P-wave (km/s) = 6.88393 7.22233 7.05516
#
# Compressibility (1/GPa) = 0.01873251
#
# Stress axis : x y z
#
# Youngs Moduli (GPa) = 89.08694 72.52202 72.30591
#
# Poissons Ratio (x) = 0.15682 0.20876
# Poissons Ratio (y) = 0.19264 0.36198
# Poissons Ratio (z) = 0.25721 0.36306
#
# Static dielectric constant tensor:
#      x y z
#    x 3.366670 0.000000 0.091660 
#    y 0.000000 3.602380 0.000000 
#    z 0.091660 0.000000 4.200790 
# 
# 
# High freq. dielectric constant tensor:
#      x y z
#    x 1.702570 0.000000 0.030480 
#    y 0.000000 1.727940 0.000000 
#    z 0.030480 0.000000 1.731260 
# 
# From -- ./inp_files/35140.got.cif
#   From: 2010.06.25/outbox.cif.g09.slc.cpg/sg10_18_cif.got.tgz:35140.got - 2010.06.27 22:07:45.
