data_PCOD8061670
_publ_section_title
;
Structure prediction by ZEFSAII (Michael W. Deem and Ramdas Pophale) SiO2 
 PCOD8061670
Probable space group: P 2/M
;
_chemical_formula_sum "Si O2"
_cell_formula_units_Z 32
_cell_length_a 11.602244
_cell_length_b 9.366007
_cell_length_c 21.554562
_cell_angle_alpha 90.000000
_cell_angle_beta 127.169633
_cell_angle_gamma 90.000000
_cell_volume 1866.432920
_symmetry_space_group_name_H-M "P 2/M"
_symmetry_group_IT_number 10
_symmetry_cell_setting 'monoclinic'
loop_
_space_group_symop_operation_xyz
x,y,z
-x,y,-z
-x,-y,-z
x,-y,z
loop_
_atom_site_type_symbol
_atom_site_label
_atom_site_fract_x
_atom_site_fract_y
_atom_site_fract_z
Si Si1 0.669311 0.332992 0.297091
Si Si2 0.013052 0.160944 0.812250
Si Si3 0.345928 0.335984 0.221320
Si Si4 0.751985 0.664899 0.680212
Si Si5 0.833882 0.833164 0.455872
Si Si6 0.152346 0.838962 0.737689
Si Si7 0.075140 0.164374 0.085397
Si Si8 0.823631 0.835946 0.592618
O O1 0.703699 0.500000 0.312073
O O2 0.498741 0.302358 0.239643
O O3 0.736552 0.257944 0.378552
O O4 0.734288 0.270189 0.254752
O O5 0.154407 0.177856 0.813973
O O6 0.904195 0.283043 0.756297
O O7 0.039444 0.180177 0.894521
O O8 0.949194 0.000000 0.779467
O O9 0.299780 0.500000 0.197069
O O10 0.361153 0.304601 0.300624
O O11 0.225630 0.241048 0.148844
O O12 0.760751 0.500000 0.665549
O O13 0.718883 0.748557 0.605417
O O14 0.787152 0.792389 0.510452
O O15 0.000000 0.791543 0.500000
O O16 0.810244 0.000000 0.434197
O O17 0.992098 0.803450 0.660415
O O18 0.195189 0.000000 0.732037
O O19 0.114019 0.000000 0.085603
O O20 0.000000 0.231591 0.000000
O O21 0.788722 0.000000 0.592901
#
# Coordination Sequence:
#
# PCOD8061670 Si02
#       8
#     4   4   4   4   4   4   4   4
#     4  11  22  33  47  69  97 128 166 207 240 277
#     4   8  15  28  46  70 100 126 149 188 239 284
#     4   9  20  36  49  68 101 135 161 190 236 292
#     4   9  16  28  47  67  90 122 160 198 236 281
#     4  10  19  34  50  66  93 128 163 201 249 297
#     4   9  16  29  47  67  93 128 162 193 239 289
#     4   9  17  31  55  84 104 120 153 199 237 276
#     4   9  17  30  48  68  92 120 156 204 250 289
#
# _framework density 17.145004
#
# number of rings (size 3 to 8) (size 9 to 14) (size 15 to 20)
#    0.000    2.750    1.250    1.500    0.000    4.500 
#    0.000    0.625    0.000    4.500    0.000    5.250 
#    0.000    0.000    0.000    0.000    0.000    0.000 
#
# Total GULP energy -396545.400456 kJ/mol
# GULP energy per Si atom -12392.043764 kJ/mol
# Density = 1.710598 g / cm^3
# Si number density = 17.145004 Si / 1000 Ang^3
#
#
#
# Elastic Constant Matrix: (Units=GPa)
#
#
# Indices 1 2 3 4 5 6 
#
# 1 87.2946 45.9444 50.5953 0.0000 -19.0044 0.0000
# 2 45.9444 70.9065 41.3973 0.0000 -6.7029 0.0000
# 3 50.5953 41.3973 96.3948 0.0000 -22.8532 0.0000
# 4 0.0000 0.0000 0.0000 17.9093 0.0000 -3.4415
# 5 -19.0044 -6.7029 -22.8532 0.0000 25.3734 0.0000
# 6 0.0000 0.0000 0.0000 -3.4415 0.0000 27.1097
#
#
#
# Elastic Compliance Matrix: (Units=1/GPa)
#
#
# Indices 1 2 3 4 5 6 
#
# 1 0.021688 -0.010427 -0.004714 0.000000 0.009244 0.000000
# 2 -0.010427 0.024009 -0.006594 0.000000 -0.007406 0.000000
# 3 -0.004714 -0.006594 0.018348 0.000000 0.011253 0.000000
# 4 0.000000 0.000000 0.000000 0.057233 0.000000 0.007266
# 5 0.009244 -0.007406 0.011253 0.000000 0.054513 0.000000
# 6 0.000000 0.000000 0.000000 0.007266 0.000000 0.037810
#
#
# Mechanical properties :
#
#
# Convention : Reuss Voigt Hill
#
# Bulk Modulus (GPa) = 48.60221 58.94109 53.77165
# Shear Modulus (GPa) = 18.94457 21.85573 20.40015
#
# Velocity S-wave (km/s) = 3.32770 3.57425 3.45318
# Velocity P-wave (km/s) = 6.57070 7.17540 6.87969
#
# Compressibility (1/GPa) = 0.02057519
#
# Stress axis : x y z
#
# Youngs Moduli (GPa) = 46.10880 41.65159 54.50233
#
# Poissons Ratio (x) = 0.43429 0.25693
# Poissons Ratio (y) = 0.48076 0.35937
# Poissons Ratio (z) = 0.21736 0.27464
#
# Static dielectric constant tensor:
#      x y z
#    x 3.364700 0.000000 -0.467830 
#    y 0.000000 3.218510 0.000000 
#    z -0.467830 0.000000 3.112720 
# 
# 
# High freq. dielectric constant tensor:
#      x y z
#    x 1.653770 0.000000 -0.038870 
#    y 0.000000 1.663920 0.000000 
#    z -0.038870 0.000000 1.631840 
# 
# From -- ./inp_files/54912.got.cif
#   From: 2010.06.25/outbox.cif.g09.slc.cpg/sg10_28_cif.got.tgz:54912.got - 2010.06.27 22:07:45.
