data_PCOD8061052
_publ_section_title
;
Structure prediction by ZEFSAII (Michael W. Deem and Ramdas Pophale) SiO2 
 PCOD8061052
Probable space group: P 2/M
;
_chemical_formula_sum "Si O2"
_cell_formula_units_Z 32
_cell_length_a 23.511427
_cell_length_b 9.132967
_cell_length_c 15.651091
_cell_angle_alpha 90.000000
_cell_angle_beta 31.658512
_cell_angle_gamma 90.000000
_cell_volume 1763.905020
_symmetry_space_group_name_H-M "P 2/M"
_symmetry_group_IT_number 10
_symmetry_cell_setting 'monoclinic'
loop_
_space_group_symop_operation_xyz
x,y,z
-x,y,-z
-x,-y,-z
x,-y,z
loop_
_atom_site_type_symbol
_atom_site_label
_atom_site_fract_x
_atom_site_fract_y
_atom_site_fract_z
Si Si1 0.382454 0.160478 0.687840
Si Si2 0.705114 0.168498 0.020323
Si Si3 0.867943 0.328067 0.396033
Si Si4 0.655768 0.826877 0.737219
Si Si5 0.110740 0.166749 0.807639
Si Si6 0.424385 0.827005 0.975407
Si Si7 0.792713 0.331532 0.168123
Si Si8 0.897676 0.330531 0.859014
O O1 0.500000 0.156507 0.500000
O O2 0.326260 0.296680 0.714058
O O3 0.327249 0.000000 0.741244
O O4 0.378561 0.188735 0.794482
O O5 0.643554 0.240037 0.017214
O O6 0.821621 0.243215 0.890173
O O7 0.732067 0.000000 0.967203
O O8 0.848180 0.500000 0.410801
O O9 0.762684 0.255869 0.571057
O O10 0.892314 0.261836 0.272900
O O11 0.974286 0.298451 0.319754
O O12 0.635878 0.781739 0.860690
O O13 0.674229 0.000000 0.704023
O O14 0.550569 0.774824 0.816554
O O15 0.198787 0.233112 0.758779
O O16 0.140404 0.000000 0.746484
O O17 0.000000 0.180267 0.000000
O O18 0.427712 0.000000 0.962582
O O19 0.805957 0.500000 0.176682
O O20 0.874659 0.285670 0.987140
O O21 0.869431 0.500000 0.881997
#
# Coordination Sequence:
#
# PCOD8061052 Si02
#       8
#     4   4   4   4   4   4   4   4
#     4   9  18  31  47  72 106 139 174 222 268 307
#     4   9  17  31  54  77  98 134 180 219 260 315
#     4  11  22  36  53  77 111 143 176 217 270 324
#     4   9  18  35  58  81 106 138 176 221 272 323
#     4  11  22  34  52  77 103 135 178 219 256 308
#     4   8  16  34  58  81 106 137 176 223 275 322
#     4  10  19  33  51  70  99 140 178 214 261 313
#     4   9  19  34  50  71 104 142 172 208 261 317
#
# _framework density 18.141566000000001
#
# number of rings (size 3 to 8) (size 9 to 14) (size 15 to 20)
#    0.000    2.500    1.250    1.875    0.000    3.250 
#    0.000    5.625    0.000    3.750    0.000    0.000 
#    0.000    0.000    0.000    0.000    0.000    0.000 
#
# Total GULP energy -396574.601212 kJ/mol
# GULP energy per Si atom -12392.956288 kJ/mol
# Density = 1.810028 g / cm^3
# Si number density = 18.141566 Si / 1000 Ang^3
#
#
#
# Elastic Constant Matrix: (Units=GPa)
#
#
# Indices 1 2 3 4 5 6 
#
# 1 143.9614 48.8188 60.6237 0.0000 -8.2983 0.0000
# 2 48.8188 65.4155 50.0518 0.0000 -7.6565 0.0000
# 3 60.6237 50.0518 98.4944 0.0000 -17.7497 0.0000
# 4 0.0000 0.0000 0.0000 21.2755 0.0000 -0.8285
# 5 -8.2983 -7.6565 -17.7497 0.0000 18.9350 0.0000
# 6 0.0000 0.0000 0.0000 -0.8285 0.0000 20.2648
#
#
#
# Elastic Compliance Matrix: (Units=1/GPa)
#
#
# Indices 1 2 3 4 5 6 
#
# 1 0.010176 -0.004540 -0.004191 0.000000 -0.001305 0.000000
# 2 -0.004540 0.027112 -0.011270 0.000000 -0.001591 0.000000
# 3 -0.004191 -0.011270 0.020825 0.000000 0.013128 0.000000
# 4 0.000000 0.000000 0.000000 0.047077 0.000000 0.001925
# 5 -0.001305 -0.001591 0.013128 0.000000 0.063903 0.000000
# 6 0.000000 0.000000 0.000000 0.001925 0.000000 0.049425
#
#
# Mechanical properties :
#
#
# Convention : Reuss Voigt Hill
#
# Bulk Modulus (GPa) = 55.21576 69.65112 62.43344
# Shear Modulus (GPa) = 18.89954 21.98686 20.44320
#
# Velocity S-wave (km/s) = 3.23116 3.48510 3.36053
# Velocity P-wave (km/s) = 6.66503 7.39398 7.03895
#
# Compressibility (1/GPa) = 0.01811077
#
# Stress axis : x y z
#
# Youngs Moduli (GPa) = 98.27464 36.88472 48.01825
#
# Poissons Ratio (x) = 0.16745 0.20126
# Poissons Ratio (y) = 0.44614 0.54116
# Poissons Ratio (z) = 0.41191 0.41568
#
# Static dielectric constant tensor:
#      x y z
#    x 3.624230 0.000000 -0.013440 
#    y 0.000000 3.364940 0.000000 
#    z -0.013440 0.000000 3.286190 
# 
# 
# High freq. dielectric constant tensor:
#      x y z
#    x 1.703540 0.000000 -0.008220 
#    y 0.000000 1.691720 0.000000 
#    z -0.008220 0.000000 1.690150 
# 
# From -- ./inp_files/71481.got.cif
#   From: 2010.06.25/outbox.cif.g09.slc.cpg/sg10_36_cif.got.tgz:71481.got - 2010.06.27 22:07:45.
