data_PCOD8061875
_publ_section_title
;
Structure prediction by ZEFSAII (Michael W. Deem and Ramdas Pophale) SiO2 
 PCOD8061875
Probable space group: P 2/M
;
_chemical_formula_sum "Si O2"
_cell_formula_units_Z 28
_cell_length_a 31.383477
_cell_length_b 7.700661
_cell_length_c 10.176313
_cell_angle_alpha 90.000000
_cell_angle_beta 35.506117
_cell_angle_gamma 90.000000
_cell_volume 1428.362867
_symmetry_space_group_name_H-M "P 2/M"
_symmetry_group_IT_number 10
_symmetry_cell_setting 'monoclinic'
loop_
_space_group_symop_operation_xyz
x,y,z
-x,y,-z
-x,-y,-z
x,-y,z
loop_
_atom_site_type_symbol
_atom_site_label
_atom_site_fract_x
_atom_site_fract_y
_atom_site_fract_z
Si Si1 0.067619 0.000000 0.732807
Si Si2 0.820228 0.700620 0.547510
Si Si3 0.329619 0.304470 0.188718
Si Si4 0.931277 0.000000 0.576825
Si Si5 0.419240 0.804023 0.724341
Si Si6 0.582853 0.707155 0.787665
Si Si7 0.179116 0.304154 0.149789
Si Si8 0.338962 0.297691 0.672453
O O1 0.111932 0.175138 0.655265
O O2 0.044085 0.000000 0.638139
O O3 0.000000 0.000000 0.000000
O O4 0.839837 0.500000 0.462825
O O5 0.750380 0.775814 0.642045
O O6 0.798717 0.715769 0.753966
O O7 0.313966 0.500000 0.270632
O O8 0.371500 0.211608 0.204387
O O9 0.379671 0.308337 0.933998
O O10 0.884662 0.828768 0.728549
O O11 0.000000 0.000000 0.500000
O O12 0.500000 0.723835 0.500000
O O13 0.374057 0.806387 0.703523
O O14 0.425357 0.000000 0.762097
O O15 0.580726 0.500000 0.802333
O O16 0.623309 0.770678 0.554859
O O17 0.500000 0.781115 0.000000
O O18 0.151162 0.500000 0.190460
O O19 0.251808 0.261628 0.882908
O O20 0.354619 0.500000 0.656327
#
# Coordination Sequence:
#
# PCOD8061875 Si02
#       8
#     2   4   4   2   4   4   4   4
#     4  10  22  40  62  86 117 148 176 222 277 338
#     4   9  18  34  59  88 113 146 188 229 277 331
#     4  10  19  34  56  80 107 144 191 233 278 335
#     4  10  22  40  62  86 117 148 176 222 277 338
#     4  11  23  33  49  79 111 144 189 241 282 326
#     4   9  18  32  51  77 111 148 185 233 288 331
#     4   9  18  34  59  88 113 146 188 229 277 331
#     4  10  19  34  56  80 107 144 191 233 278 335
#
# _framework density 19.602861999999998
#
# number of rings (size 3 to 8) (size 9 to 14) (size 15 to 20)
#    0.000    2.286    1.429    1.286    2.000    2.857 
#    2.571    0.714    0.000    2.571    0.000    0.000 
#    0.000    0.000    0.000    0.000    0.000    0.000 
#
# Total GULP energy -347156.646560 kJ/mol
# GULP energy per Si atom -12398.451663 kJ/mol
# Density = 1.955824 g / cm^3
# Si number density = 19.602862 Si / 1000 Ang^3
#
#
#
# Elastic Constant Matrix: (Units=GPa)
#
#
# Indices 1 2 3 4 5 6 
#
# 1 141.2319 34.8747 59.0029 0.0000 -11.5852 0.0000
# 2 34.8747 70.8660 39.4343 0.0000 -14.1133 0.0000
# 3 59.0029 39.4343 148.5165 0.0000 -5.6892 0.0000
# 4 0.0000 0.0000 0.0000 10.0483 0.0000 -8.4168
# 5 -11.5852 -14.1133 -5.6892 0.0000 32.3339 0.0000
# 6 0.0000 0.0000 0.0000 -8.4168 0.0000 16.7387
#
#
#
# Elastic Compliance Matrix: (Units=1/GPa)
#
#
# Indices 1 2 3 4 5 6 
#
# 1 0.009032 -0.002533 -0.002853 0.000000 0.001629 0.000000
# 2 -0.002533 0.018744 -0.003717 0.000000 0.006620 0.000000
# 3 -0.002853 -0.003717 0.008812 0.000000 -0.001094 0.000000
# 4 0.000000 0.000000 0.000000 0.171937 0.000000 0.086456
# 5 0.001629 0.006620 -0.001094 0.000000 0.034208 0.000000
# 6 0.000000 0.000000 0.000000 0.086456 0.000000 0.103215
#
#
# Mechanical properties :
#
#
# Convention : Reuss Voigt Hill
#
# Bulk Modulus (GPa) = 54.40202 69.69312 62.04757
# Shear Modulus (GPa) = 13.50325 26.97769 20.24047
#
# Velocity S-wave (km/s) = 2.62742 3.71376 3.21678
# Velocity P-wave (km/s) = 6.08414 7.34976 6.74670
#
# Compressibility (1/GPa) = 0.01838167
#
# Stress axis : x y z
#
# Youngs Moduli (GPa) = 110.72344 53.34913 113.48299
#
# Poissons Ratio (x) = 0.13511 0.32379
# Poissons Ratio (y) = 0.28041 0.42185
# Poissons Ratio (z) = 0.31592 0.19831
#
# Static dielectric constant tensor:
#      x y z
#    x 3.596430 0.000000 -0.007500 
#    y 0.000000 3.503860 0.000000 
#    z -0.007500 0.000000 3.456810 
# 
# 
# High freq. dielectric constant tensor:
#      x y z
#    x 1.754750 0.000000 -0.004320 
#    y 0.000000 1.756460 0.000000 
#    z -0.004320 0.000000 1.752970 
# 
# From -- ./inp_files/37157.got.cif
#   From: 2010.06.25/outbox.cif.g09.slc.cpg/sg10_19_cif.got.tgz:37157.got - 2010.06.27 22:07:45.
