data_PCOD8061425
_publ_section_title
;
Structure prediction by ZEFSAII (Michael W. Deem and Ramdas Pophale) SiO2 
 PCOD8061425
Probable space group: P 2/M
;
_chemical_formula_sum "Si O2"
_cell_formula_units_Z 32
_cell_length_a 24.042708
_cell_length_b 9.326537
_cell_length_c 22.772521
_cell_angle_alpha 90.000000
_cell_angle_beta 160.246678
_cell_angle_gamma 90.000000
_cell_volume 1725.816893
_symmetry_space_group_name_H-M "P 2/M"
_symmetry_group_IT_number 10
_symmetry_cell_setting 'monoclinic'
loop_
_space_group_symop_operation_xyz
x,y,z
-x,y,-z
-x,-y,-z
x,-y,z
loop_
_atom_site_type_symbol
_atom_site_label
_atom_site_fract_x
_atom_site_fract_y
_atom_site_fract_z
Si Si1 0.925820 0.832276 0.490094
Si Si2 0.253729 0.330250 0.508535
Si Si3 0.662106 0.332459 0.536351
Si Si4 0.591912 0.335171 0.150169
Si Si5 0.935968 0.328387 0.264941
Si Si6 0.429337 0.664195 0.109802
Si Si7 0.812805 0.345760 0.806147
Si Si8 0.406317 0.161493 0.345068
O O1 0.743802 0.768239 0.312790
O O2 0.000000 0.805634 0.500000
O O3 0.041937 0.748760 0.650827
O O4 0.918960 0.000000 0.499224
O O5 0.256374 0.500000 0.518958
O O6 0.252231 0.283200 0.438920
O O7 0.419424 0.263026 0.703343
O O8 0.083951 0.274780 0.369291
O O9 0.619311 0.500000 0.491042
O O10 0.780734 0.289632 0.708145
O O11 0.493832 0.244585 0.378904
O O12 0.653988 0.500000 0.208323
O O13 0.461622 0.315651 0.072917
O O14 0.500000 0.287389 0.000000
O O15 0.938792 0.500000 0.277063
O O16 0.756347 0.277994 0.061110
O O17 0.430487 0.500000 0.129944
O O18 0.719999 0.500000 0.721733
O O19 0.765836 0.236831 0.811465
O O20 0.000000 0.374213 0.000000
O O21 0.500000 0.174726 0.500000
O O22 0.377815 0.000000 0.296343
#
# Coordination Sequence:
#
# PCOD8061425 Si02
#       8
#     4   4   4   4   4   4   4   4
#     4  11  23  36  51  76 110 142 175 217 269 325
#     4   9  17  32  53  80 108 134 172 219 264 313
#     4   9  17  31  51  74 102 135 169 209 257 307
#     4  10  19  33  55  81 107 135 177 224 266 318
#     4  10  19  35  59  79 103 136 173 220 265 311
#     4   9  17  31  53  82 105 128 169 219 266 312
#     4   9  17  30  48  75 108 137 169 211 259 309
#     4   9  17  30  49  71  96 131 171 207 249 299
#
# _framework density 18.541944999999998
#
# number of rings (size 3 to 8) (size 9 to 14) (size 15 to 20)
#    0.000    2.500    1.250    1.500    0.000    4.000 
#    2.250    1.250    0.000    0.000    0.000    0.000 
#    0.000    0.000    0.000    0.000    0.000    0.000 
#
# Total GULP energy -396552.516208 kJ/mol
# GULP energy per Si atom -12392.266132 kJ/mol
# Density = 1.849974 g / cm^3
# Si number density = 18.541945 Si / 1000 Ang^3
#
#
#
# Elastic Constant Matrix: (Units=GPa)
#
#
# Indices 1 2 3 4 5 6 
#
# 1 108.5380 31.9842 48.4030 0.0000 11.4945 0.0000
# 2 31.9842 56.4568 23.2524 0.0000 9.9876 0.0000
# 3 48.4030 23.2524 121.7082 0.0000 16.7481 0.0000
# 4 0.0000 0.0000 0.0000 9.8833 0.0000 -1.0552
# 5 11.4945 9.9876 16.7481 0.0000 25.1946 0.0000
# 6 0.0000 0.0000 0.0000 -1.0552 0.0000 7.9569
#
#
#
# Elastic Compliance Matrix: (Units=1/GPa)
#
#
# Indices 1 2 3 4 5 6 
#
# 1 0.012628 -0.005380 -0.003847 0.000000 -0.001071 0.000000
# 2 -0.005380 0.022292 -0.001366 0.000000 -0.005474 0.000000
# 3 -0.003847 -0.001366 0.010667 0.000000 -0.004794 0.000000
# 4 0.000000 0.000000 0.000000 0.102634 0.000000 0.013611
# 5 -0.001071 -0.005474 -0.004794 0.000000 0.045537 0.000000
# 6 0.000000 0.000000 0.000000 0.013611 0.000000 0.127482
#
#
# Mechanical properties :
#
#
# Convention : Reuss Voigt Hill
#
# Bulk Modulus (GPa) = 40.98216 54.88692 47.93454
# Shear Modulus (GPa) = 14.26296 20.81118 17.53707
#
# Velocity S-wave (km/s) = 2.77650 3.35383 3.07873
# Velocity P-wave (km/s) = 5.69465 6.68306 6.20856
#
# Compressibility (1/GPa) = 0.02440086
#
# Stress axis : x y z
#
# Youngs Moduli (GPa) = 79.19107 44.85991 93.74797
#
# Poissons Ratio (x) = 0.24135 0.36062
# Poissons Ratio (y) = 0.42605 0.12805
# Poissons Ratio (z) = 0.30463 0.06127
#
# Static dielectric constant tensor:
#      x y z
#    x 3.466860 0.000000 0.086280 
#    y 0.000000 3.182530 0.000000 
#    z 0.086280 0.000000 3.494150 
# 
# 
# High freq. dielectric constant tensor:
#      x y z
#    x 1.717440 0.000000 0.009650 
#    y 0.000000 1.685480 0.000000 
#    z 0.009650 0.000000 1.716230 
# 
# From -- ./inp_files/90617.got.cif
#   From: 2010.06.25/outbox.cif.g09.slc.cpg/sg10_46_cif.got.tgz:90617.got - 2010.06.27 22:07:45.
