data_PCOD8061289
_publ_section_title
;
Structure prediction by ZEFSAII (Michael W. Deem and Ramdas Pophale) SiO2 
 PCOD8061289
Probable space group: P 2/M
;
_chemical_formula_sum "Si O2"
_cell_formula_units_Z 20
_cell_length_a 24.754387
_cell_length_b 8.927592
_cell_length_c 7.951091
_cell_angle_alpha 90.000000
_cell_angle_beta 35.926828
_cell_angle_gamma 90.000000
_cell_volume 1031.020986
_symmetry_space_group_name_H-M "P 2/M"
_symmetry_group_IT_number 10
_symmetry_cell_setting 'monoclinic'
loop_
_space_group_symop_operation_xyz
x,y,z
-x,y,-z
-x,-y,-z
x,-y,z
loop_
_atom_site_type_symbol
_atom_site_label
_atom_site_fract_x
_atom_site_fract_y
_atom_site_fract_z
Si Si1 0.405817 0.326799 0.149759
Si Si2 0.599366 0.176134 0.186692
Si Si3 0.786872 0.326393 0.215377
Si Si4 0.223301 0.321774 0.127741
Si Si5 0.104116 0.321131 0.741769
O O1 0.409921 0.500000 0.081833
O O2 0.321925 0.298075 0.488451
O O3 0.500000 0.276346 0.000000
O O4 0.387016 0.222864 0.039190
O O5 0.500000 0.230957 0.500000
O O6 0.611329 0.000000 0.175043
O O7 0.675156 0.255921 0.109328
O O8 0.810047 0.500000 0.166538
O O9 0.846309 0.252341 0.216784
O O10 0.815105 0.267497 0.958218
O O11 0.231822 0.500000 0.111692
O O12 0.156177 0.261712 0.443697
O O13 0.107024 0.500000 0.735019
O O14 0.000000 0.261033 0.000000
#
# Coordination Sequence:
#
# PCOD8061289 Si02
#       5
#     4   4   4   4   4
#     4  10  19  33  54  79 108 141 181 224 264 317
#     4  11  23  36  51  76 111 145 181 223 268 321
#     4   9  17  30  50  80 110 137 177 219 264 321
#     4  10  19  34  57  79 107 144 179 222 268 315
#     4   9  17  30  51  82 115 140 171 223 276 318
#
# _framework density 19.398247000000001
#
# number of rings (size 3 to 8) (size 9 to 14) (size 15 to 20)
#    0.000    2.200    2.000    1.800    0.000    4.400 
#    0.000    5.000    0.000    0.600    0.000    1.400 
#    0.000    0.000    0.000    0.000    0.000    0.000 
#
# Total GULP energy -247956.646253 kJ/mol
# GULP energy per Si atom -12397.832313 kJ/mol
# Density = 1.935410 g / cm^3
# Si number density = 19.398247 Si / 1000 Ang^3
#
#
#
# Elastic Constant Matrix: (Units=GPa)
#
#
# Indices 1 2 3 4 5 6 
#
# 1 176.9724 14.2092 89.4493 0.0000 10.2209 0.0000
# 2 14.2092 17.2454 18.6758 0.0000 2.3922 0.0000
# 3 89.4493 18.6758 130.7779 0.0000 3.7758 0.0000
# 4 0.0000 0.0000 0.0000 9.6470 0.0000 -0.1999
# 5 10.2209 2.3922 3.7758 0.0000 41.1442 0.0000
# 6 0.0000 0.0000 0.0000 -0.1999 0.0000 4.8867
#
#
#
# Elastic Compliance Matrix: (Units=1/GPa)
#
#
# Indices 1 2 3 4 5 6 
#
# 1 0.008750 -0.000658 -0.005845 0.000000 -0.001599 0.000000
# 2 -0.000658 0.069040 -0.009323 0.000000 -0.002995 0.000000
# 3 -0.005845 -0.009323 0.012952 0.000000 0.000805 0.000000
# 4 0.000000 0.000000 0.000000 0.103747 0.000000 0.004244
# 5 -0.001599 -0.002995 0.000805 0.000000 0.024802 0.000000
# 6 0.000000 0.000000 0.000000 0.004244 0.000000 0.204812
#
#
# Mechanical properties :
#
#
# Convention : Reuss Voigt Hill
#
# Bulk Modulus (GPa) = 16.92298 63.29604 40.10951
# Shear Modulus (GPa) = 10.51632 24.64634 17.58133
#
# Velocity S-wave (km/s) = 2.33089 3.56834 3.01381
# Velocity P-wave (km/s) = 3.99837 7.04826 5.72996
#
# Compressibility (1/GPa) = 0.05909126
#
# Stress axis : x y z
#
# Youngs Moduli (GPa) = 114.28716 14.48435 77.20707
#
# Poissons Ratio (x) = 0.00953 0.45124
# Poissons Ratio (y) = 0.07523 0.71977
# Poissons Ratio (z) = 0.66796 0.13503
#
# Static dielectric constant tensor:
#      x y z
#    x 3.941540 0.000000 0.049520 
#    y 0.000000 2.994570 0.000000 
#    z 0.049520 0.000000 3.702120 
# 
# 
# High freq. dielectric constant tensor:
#      x y z
#    x 1.770150 0.000000 0.006070 
#    y 0.000000 1.696260 0.000000 
#    z 0.006070 0.000000 1.759990 
# 
# From -- ./inp_files/26909.got.cif
#   From: 2010.06.25/outbox.cif.g09.slc.cpg/sg10_14_cif.got.tgz:26909.got - 2010.06.27 22:07:45.
