data_PCOD8061891
_publ_section_title
;
Structure prediction by ZEFSAII (Michael W. Deem and Ramdas Pophale) SiO2 
 PCOD8061891
Probable space group: P 2/M
;
_chemical_formula_sum "Si O2"
_cell_formula_units_Z 32
_cell_length_a 21.185517
_cell_length_b 8.690276
_cell_length_c 11.530774
_cell_angle_alpha 90.000000
_cell_angle_beta 53.045581
_cell_angle_gamma 90.000000
_cell_volume 1696.445254
_symmetry_space_group_name_H-M "P 2/M"
_symmetry_group_IT_number 10
_symmetry_cell_setting 'monoclinic'
loop_
_space_group_symop_operation_xyz
x,y,z
-x,y,-z
-x,-y,-z
x,-y,z
loop_
_atom_site_type_symbol
_atom_site_label
_atom_site_fract_x
_atom_site_fract_y
_atom_site_fract_z
Si Si1 0.741259 0.820007 0.094914
Si Si2 0.074469 0.318621 0.776805
Si Si3 0.772357 0.676534 0.508236
Si Si4 0.900457 0.317906 0.992089
Si Si5 0.378833 0.320153 0.937460
Si Si6 0.666726 0.324229 0.400174
Si Si7 0.538343 0.179470 0.689509
Si Si8 0.356536 0.821968 0.206468
O O1 0.832466 0.769967 0.998432
O O2 0.703453 0.732264 0.027569
O O3 0.694940 0.778964 0.262931
O O4 0.735636 0.000000 0.078380
O O5 0.081873 0.500000 0.781300
O O6 0.137636 0.262652 0.610295
O O7 0.096697 0.254072 0.879353
O O8 0.984974 0.275321 0.839456
O O9 0.769775 0.500000 0.553511
O O10 0.729552 0.694975 0.432808
O O11 0.731158 0.780873 0.651114
O O12 0.883772 0.500000 0.006074
O O13 0.391984 0.500000 0.907544
O O14 0.448300 0.232393 0.793189
O O15 0.379297 0.280030 0.072083
O O16 0.660888 0.500000 0.364555
O O17 0.581167 0.268416 0.537688
O O18 0.579850 0.219430 0.765564
O O19 0.543502 0.000000 0.656863
O O20 0.359593 0.000000 0.167702
#
# Coordination Sequence:
#
# PCOD8061891 Si02
#       8
#     4   4   4   4   4   4   4   4
#     4  12  24  37  53  76 112 149 180 221 275 327
#     4   8  14  27  53  83 111 142 179 220 262 308
#     4   9  16  30  54  83 111 142 179 221 262 310
#     4   9  16  31  53  79 110 146 182 218 260 314
#     4  12  25  40  58  78 101 140 190 228 264 318
#     4  10  19  34  56  81 110 144 184 221 260 316
#     4  10  21  38  59  84 113 139 170 220 278 324
#     4  10  21  37  57  82 111 141 173 220 276 321
#
# _framework density 18.862973
#
# number of rings (size 3 to 8) (size 9 to 14) (size 15 to 20)
#    0.000    2.000    1.250    4.500    0.000    4.000 
#    0.000    4.375    0.000    0.750    0.000    5.250 
#    0.000    0.000    0.000    0.000    0.000    0.000 
#
# Total GULP energy -396831.188454 kJ/mol
# GULP energy per Si atom -12400.974639 kJ/mol
# Density = 1.882004 g / cm^3
# Si number density = 18.862973 Si / 1000 Ang^3
#
#
#
# Elastic Constant Matrix: (Units=GPa)
#
#
# Indices 1 2 3 4 5 6 
#
# 1 66.6016 20.8057 20.3024 0.0000 -21.8347 0.0000
# 2 20.8057 51.0232 18.0578 0.0000 0.9741 0.0000
# 3 20.3024 18.0578 57.9826 0.0000 -26.4154 0.0000
# 4 0.0000 0.0000 0.0000 29.8402 0.0000 0.1957
# 5 -21.8347 0.9741 -26.4154 0.0000 27.9709 0.0000
# 6 0.0000 0.0000 0.0000 0.1957 0.0000 22.8869
#
#
#
# Elastic Compliance Matrix: (Units=1/GPa)
#
#
# Indices 1 2 3 4 5 6 
#
# 1 0.026487 -0.014370 0.008510 0.000000 0.029213 0.000000
# 2 -0.014370 0.032742 -0.018947 0.000000 -0.030251 0.000000
# 3 0.008510 -0.018947 0.041236 0.000000 0.046246 0.000000
# 4 0.000000 0.000000 0.000000 0.033514 0.000000 -0.000287
# 5 0.029213 -0.030251 0.046246 0.000000 0.103283 0.000000
# 6 0.000000 0.000000 0.000000 -0.000287 0.000000 0.043696
#
#
# Mechanical properties :
#
#
# Convention : Reuss Voigt Hill
#
# Bulk Modulus (GPa) = 19.66554 32.65991 26.16273
# Shear Modulus (GPa) = 14.38759 23.90236 19.14498
#
# Velocity S-wave (km/s) = 2.76478 3.56358 3.18928
# Velocity P-wave (km/s) = 4.54314 5.85525 5.24042
#
# Compressibility (1/GPa) = 0.05085037
#
# Stress axis : x y z
#
# Youngs Moduli (GPa) = 37.75446 30.54202 24.25073
#
# Poissons Ratio (x) = 0.43889 -0.20637
# Poissons Ratio (y) = 0.54254 0.45948
# Poissons Ratio (z) = -0.32129 0.57868
#
# Static dielectric constant tensor:
#      x y z
#    x 3.391890 0.000000 -0.301770 
#    y 0.000000 3.332450 0.000000 
#    z -0.301770 0.000000 3.672460 
# 
# 
# High freq. dielectric constant tensor:
#      x y z
#    x 1.714130 0.000000 -0.021280 
#    y 0.000000 1.724690 0.000000 
#    z -0.021280 0.000000 1.732300 
# 
# From -- ./inp_files/55209.got.cif
#   From: 2010.06.25/outbox.cif.g09.slc.cpg/sg10_28_cif.got.tgz:55209.got - 2010.06.27 22:07:45.
