data_PCOD8061141
_publ_section_title
;
Structure prediction by ZEFSAII (Michael W. Deem and Ramdas Pophale) SiO2 
 PCOD8061141
Probable space group: P 2/M
;
_chemical_formula_sum "Si O2"
_cell_formula_units_Z 32
_cell_length_a 12.467958
_cell_length_b 14.786781
_cell_length_c 14.547508
_cell_angle_alpha 90.000000
_cell_angle_beta 41.928798
_cell_angle_gamma 90.000000
_cell_volume 1792.125098
_symmetry_space_group_name_H-M "P 2/M"
_symmetry_group_IT_number 10
_symmetry_cell_setting 'monoclinic'
loop_
_space_group_symop_operation_xyz
x,y,z
-x,y,-z
-x,-y,-z
x,-y,z
loop_
_atom_site_type_symbol
_atom_site_label
_atom_site_fract_x
_atom_site_fract_y
_atom_site_fract_z
Si Si1 0.181939 0.398020 0.911192
Si Si2 0.079278 0.831122 0.359897
Si Si3 0.299628 0.320919 0.308844
Si Si4 0.682746 0.604689 0.370515
Si Si5 0.764034 0.598512 0.828404
Si Si6 0.330015 0.898675 0.062796
Si Si7 0.347902 0.723293 0.948386
Si Si8 0.891966 0.320424 0.392147
O O1 0.215236 0.500000 0.927161
O O2 0.288006 0.378024 0.754972
O O3 0.218104 0.323949 0.965671
O O4 0.000000 0.386540 0.000000
O O5 0.188581 0.753402 0.332446
O O6 0.188160 0.897205 0.229446
O O7 0.000000 0.881511 0.500000
O O8 0.945327 0.783541 0.379360
O O9 0.298200 0.403166 0.237350
O O10 0.478581 0.283022 0.209652
O O11 0.226873 0.354495 0.451317
O O12 0.500000 0.632608 0.500000
O O13 0.716059 0.500000 0.376577
O O14 0.795106 0.671065 0.358733
O O15 0.730921 0.500000 0.892052
O O16 0.953861 0.615985 0.712897
O O17 0.659811 0.672854 0.948842
O O18 0.334655 0.000000 0.018610
O O19 0.500000 0.873300 0.000000
O O20 0.300106 0.827912 0.998748
#
# Coordination Sequence:
#
# PCOD8061141 Si02
#       8
#     4   4   4   4   4   4   4   4
#     4  10  22  36  52  76 104 139 186 230 269 310
#     4   9  18  34  53  80 109 136 175 217 262 329
#     4  10  20  32  49  75 109 140 179 212 259 323
#     4  10  20  34  49  72 102 136 187 233 265 306
#     4  11  21  31  48  74 107 146 180 210 258 322
#     4  11  21  36  59  85 113 143 174 217 274 332
#     4  12  20  36  54  75 108 143 178 223 268 319
#     4  10  19  33  53  72 103 145 177 222 267 315
#
# _framework density 17.855896000000001
#
# number of rings (size 3 to 8) (size 9 to 14) (size 15 to 20)
#    0.000    1.625    3.750    3.750    0.000    4.250 
#    0.000    0.000    0.000    0.375    0.000    0.000 
#    0.000    2.000    0.000    0.000    0.000    0.000 
#
# Total GULP energy -396705.071962 kJ/mol
# GULP energy per Si atom -12397.033499 kJ/mol
# Density = 1.781526 g / cm^3
# Si number density = 17.855896 Si / 1000 Ang^3
#
#
#
# Elastic Constant Matrix: (Units=GPa)
#
#
# Indices 1 2 3 4 5 6 
#
# 1 74.1860 37.1204 19.6292 0.0000 3.2419 0.0000
# 2 37.1204 91.4139 26.2269 0.0000 5.1090 0.0000
# 3 19.6292 26.2269 102.1256 0.0000 -8.9487 0.0000
# 4 0.0000 0.0000 0.0000 16.8693 0.0000 1.8495
# 5 3.2419 5.1090 -8.9487 0.0000 16.0788 0.0000
# 6 0.0000 0.0000 0.0000 1.8495 0.0000 16.3739
#
#
#
# Elastic Compliance Matrix: (Units=1/GPa)
#
#
# Indices 1 2 3 4 5 6 
#
# 1 0.017258 -0.006316 -0.001918 0.000000 -0.002540 0.000000
# 2 -0.006316 0.014643 -0.002988 0.000000 -0.005043 0.000000
# 3 -0.001918 -0.002988 0.011611 0.000000 0.007799 0.000000
# 4 0.000000 0.000000 0.000000 0.060023 0.000000 -0.006780
# 5 -0.002540 -0.005043 0.007799 0.000000 0.068649 0.000000
# 6 0.000000 0.000000 0.000000 -0.006780 0.000000 0.061839
#
#
# Mechanical properties :
#
#
# Convention : Reuss Voigt Hill
#
# Bulk Modulus (GPa) = 47.46395 48.18649 47.82522
# Shear Modulus (GPa) = 18.97606 22.18099 20.57853
#
# Velocity S-wave (km/s) = 3.26350 3.52834 3.39850
# Velocity P-wave (km/s) = 6.39061 6.60635 6.49937
#
# Compressibility (1/GPa) = 0.02106862
#
# Stress axis : x y z
#
# Youngs Moduli (GPa) = 57.94300 68.29131 86.12320
#
# Poissons Ratio (x) = 0.43132 0.16516
# Poissons Ratio (y) = 0.36596 0.25737
# Poissons Ratio (z) = 0.11112 0.20408
#
# Static dielectric constant tensor:
#      x y z
#    x 3.061810 0.000000 -0.113400 
#    y 0.000000 2.981790 0.000000 
#    z -0.113400 0.000000 3.562540 
# 
# 
# High freq. dielectric constant tensor:
#      x y z
#    x 1.670380 0.000000 -0.005250 
#    y 0.000000 1.651100 0.000000 
#    z -0.005250 0.000000 1.717640 
# 
# From -- ./inp_files/51638.got.cif
#   From: 2010.06.25/outbox.cif.g09.slc.cpg/sg10_26_cif.got.tgz:51638.got - 2010.06.27 22:07:45.
