data_PCOD8061925
_publ_section_title
;
Structure prediction by ZEFSAII (Michael W. Deem and Ramdas Pophale) SiO2 
 PCOD8061925
Probable space group: P 2/M
;
_chemical_formula_sum "Si O2"
_cell_formula_units_Z 28
_cell_length_a 21.723289
_cell_length_b 13.845269
_cell_length_c 9.237477
_cell_angle_alpha 90.000000
_cell_angle_beta 149.905096
_cell_angle_gamma 90.000000
_cell_volume 1393.137369
_symmetry_space_group_name_H-M "P 2/M"
_symmetry_group_IT_number 10
_symmetry_cell_setting 'monoclinic'
loop_
_space_group_symop_operation_xyz
x,y,z
-x,y,-z
-x,-y,-z
x,-y,z
loop_
_atom_site_type_symbol
_atom_site_label
_atom_site_fract_x
_atom_site_fract_y
_atom_site_fract_z
Si Si1 0.736931 0.106838 0.903460
Si Si2 0.925027 0.110009 0.707407
Si Si3 0.387085 0.611995 0.664685
Si Si4 0.671833 0.105998 0.095746
Si Si5 0.947766 0.246556 0.243138
Si Si6 0.890984 0.387883 0.883354
Si Si7 0.469689 0.241811 0.597535
O O1 0.606114 0.144623 0.584084
O O2 0.758166 0.000000 0.882925
O O3 0.743662 0.104831 0.089776
O O4 0.833791 0.177750 0.032709
O O5 0.777719 0.117624 0.434184
O O6 0.950837 0.182707 0.629820
O O7 0.962610 0.000000 0.744351
O O8 0.000000 0.145431 0.000000
O O9 0.396921 0.500000 0.639059
O O10 0.251019 0.631359 0.459072
O O11 0.401324 0.675672 0.548959
O O12 0.500000 0.639010 0.000000
O O13 0.607007 0.000000 0.985115
O O14 0.584062 0.199385 0.922614
O O15 0.000000 0.286236 0.500000
O O16 0.906808 0.339523 0.070778
O O17 0.913318 0.500000 0.952706
O O18 0.000000 0.347930 0.000000
O O19 0.500000 0.286460 0.500000
#
# Coordination Sequence:
#
# PCOD8061925 Si02
#       7
#     4   4   4   4   4   4   4
#     4  10  19  34  56  86 119 157 197 243 295 355
#     4  10  21  35  52  81 120 162 204 247 295 356
#     4  10  22  42  65  91 121 157 202 251 309 371
#     4   9  18  34  56  83 119 158 198 242 291 355
#     4  12  22  35  60  89 118 155 201 250 307 364
#     4  10  23  45  67  89 121 161 205 255 312 371
#     4  10  20  36  61  90 118 154 199 247 302 357
#
# _framework density 20.098520000000001
#
# number of rings (size 3 to 8) (size 9 to 14) (size 15 to 20)
#    0.000    1.857    2.857    1.286    0.000    5.143 
#    0.000    0.000    0.000    0.857    0.000    0.000 
#    0.000    0.000    0.000    0.000    0.000    0.000 
#
# Total GULP energy -346989.809642 kJ/mol
# GULP energy per Si atom -12392.493202 kJ/mol
# Density = 2.005278 g / cm^3
# Si number density = 20.098520 Si / 1000 Ang^3
#
#
#
# Elastic Constant Matrix: (Units=GPa)
#
#
# Indices 1 2 3 4 5 6 
#
# 1 76.8863 41.4405 44.2346 0.0000 9.6783 0.0000
# 2 41.4405 73.0267 37.7098 0.0000 0.3308 0.0000
# 3 44.2346 37.7098 134.1310 0.0000 0.5999 0.0000
# 4 0.0000 0.0000 0.0000 24.3106 0.0000 -4.2648
# 5 9.6783 0.3308 0.5999 0.0000 30.6076 0.0000
# 6 0.0000 0.0000 0.0000 -4.2648 0.0000 28.4181
#
#
#
# Elastic Compliance Matrix: (Units=1/GPa)
#
#
# Indices 1 2 3 4 5 6 
#
# 1 0.021771 -0.010098 -0.004311 0.000000 -0.006691 0.000000
# 2 -0.010098 0.020703 -0.002504 0.000000 0.003018 0.000000
# 3 -0.004311 -0.002504 0.009576 0.000000 0.001203 0.000000
# 4 0.000000 0.000000 0.000000 0.042247 0.000000 0.006340
# 5 -0.006691 0.003018 0.001203 0.000000 0.034731 0.000000
# 6 0.000000 0.000000 0.000000 0.006340 0.000000 0.036140
#
#
# Mechanical properties :
#
#
# Convention : Reuss Voigt Hill
#
# Bulk Modulus (GPa) = 54.87149 58.97930 56.92539
# Shear Modulus (GPa) = 24.38203 27.37786 25.87995
#
# Velocity S-wave (km/s) = 3.48677 3.69478 3.59228
# Velocity P-wave (km/s) = 6.60081 6.90005 6.75209
#
# Compressibility (1/GPa) = 0.01822440
#
# Stress axis : x y z
#
# Youngs Moduli (GPa) = 45.93183 48.30147 104.43158
#
# Poissons Ratio (x) = 0.48776 0.45020
# Poissons Ratio (y) = 0.46383 0.26148
# Poissons Ratio (z) = 0.19801 0.12094
#
# Static dielectric constant tensor:
#      x y z
#    x 3.516470 0.000000 0.105530 
#    y 0.000000 3.607240 0.000000 
#    z 0.105530 0.000000 3.762440 
# 
# 
# High freq. dielectric constant tensor:
#      x y z
#    x 1.757790 0.000000 0.009810 
#    y 0.000000 1.785550 0.000000 
#    z 0.009810 0.000000 1.797840 
# 
# From -- ./inp_files/29417.got.cif
#   From: 2010.06.25/outbox.cif.g09.slc.cpg/sg10_15_cif.got.tgz:29417.got - 2010.06.27 22:07:45.
