data_PCOD8061955
_publ_section_title
;
Structure prediction by ZEFSAII (Michael W. Deem and Ramdas Pophale) SiO2 
 PCOD8061955
Probable space group: P 2/M
;
_chemical_formula_sum "Si O2"
_cell_formula_units_Z 32
_cell_length_a 12.738443
_cell_length_b 9.098752
_cell_length_c 31.327252
_cell_angle_alpha 90.000000
_cell_angle_beta 27.999654
_cell_angle_gamma 90.000000
_cell_volume 1704.609227
_symmetry_space_group_name_H-M "P 2/M"
_symmetry_group_IT_number 10
_symmetry_cell_setting 'monoclinic'
loop_
_space_group_symop_operation_xyz
x,y,z
-x,y,-z
-x,-y,-z
x,-y,z
loop_
_atom_site_type_symbol
_atom_site_label
_atom_site_fract_x
_atom_site_fract_y
_atom_site_fract_z
Si Si1 0.383070 0.835913 0.668172
Si Si2 0.423593 0.824811 0.787182
Si Si3 0.473015 0.170539 0.865988
Si Si4 0.046316 0.671804 0.159870
Si Si5 0.760723 0.170264 0.595640
Si Si6 0.944007 0.830273 0.927015
Si Si7 0.858683 0.674219 0.779001
Si Si8 0.305365 0.167729 0.599621
O O1 0.623079 0.804748 0.601961
O O2 0.412730 0.822721 0.607468
O O3 0.213238 0.716073 0.747233
O O4 0.298478 0.000000 0.711615
O O5 0.469587 0.770053 0.818717
O O6 0.623666 0.763127 0.685199
O O7 0.184873 0.766017 0.855295
O O8 0.413099 0.000000 0.790161
O O9 0.644436 0.264932 0.831943
O O10 0.544258 0.000000 0.842620
O O11 0.225934 0.194732 0.973183
O O12 0.074715 0.500000 0.143645
O O13 0.155287 0.749420 0.079510
O O14 0.154207 0.723014 0.166348
O O15 0.000000 0.247378 0.500000
O O16 0.801106 0.000000 0.591592
O O17 0.964226 0.000000 0.907696
O O18 0.867574 0.500000 0.772078
O O19 0.080351 0.737712 0.676919
O O20 0.500000 0.233815 0.500000
O O21 0.246987 0.000000 0.607699
#
# Coordination Sequence:
#
# PCOD8061955 Si02
#       8
#     4   4   4   4   4   4   4   4
#     4   9  16  30  51  75 105 138 173 218 265 313
#     4   9  17  32  53  78 109 139 172 219 269 320
#     4  10  21  35  55  80 107 140 179 224 270 323
#     4  10  20  34  54  77 102 139 180 220 264 316
#     4   9  16  26  47  80 108 133 167 209 261 314
#     4  10  19  34  57  82 104 135 178 222 275 326
#     4  10  22  38  53  74 110 148 181 219 269 323
#     4   9  18  32  54  82 107 136 180 229 271 314
#
# _framework density 18.772629999999999
#
# number of rings (size 3 to 8) (size 9 to 14) (size 15 to 20)
#    0.000    2.500    1.250    1.125    0.000    5.250 
#    0.000    6.875    0.000    1.875    0.000    0.000 
#    0.000    0.000    0.000    0.000    0.000    0.000 
#
# Total GULP energy -396690.380833 kJ/mol
# GULP energy per Si atom -12396.574401 kJ/mol
# Density = 1.872990 g / cm^3
# Si number density = 18.772630 Si / 1000 Ang^3
#
#
#
# Elastic Constant Matrix: (Units=GPa)
#
#
# Indices 1 2 3 4 5 6 
#
# 1 119.1359 32.5892 62.0035 0.0000 -0.3015 0.0000
# 2 32.5892 41.0812 24.6257 0.0000 0.5874 0.0000
# 3 62.0035 24.6257 121.6344 0.0000 4.1001 0.0000
# 4 0.0000 0.0000 0.0000 11.2575 0.0000 3.3048
# 5 -0.3015 0.5874 4.1001 0.0000 28.7751 0.0000
# 6 0.0000 0.0000 0.0000 3.3048 0.0000 16.0467
#
#
#
# Elastic Compliance Matrix: (Units=1/GPa)
#
#
# Indices 1 2 3 4 5 6 
#
# 1 0.013118 -0.007275 -0.005249 0.000000 0.001034 0.000000
# 2 -0.007275 0.031740 -0.002706 0.000000 -0.000339 0.000000
# 3 -0.005249 -0.002706 0.011500 0.000000 -0.001638 0.000000
# 4 0.000000 0.000000 0.000000 0.094546 0.000000 -0.019471
# 5 0.001034 -0.000339 -0.001638 0.000000 0.035003 0.000000
# 6 0.000000 0.000000 0.000000 -0.019471 0.000000 0.066328
#
#
# Mechanical properties :
#
#
# Convention : Reuss Voigt Hill
#
# Bulk Modulus (GPa) = 38.61256 57.80981 48.21118
# Shear Modulus (GPa) = 17.16273 22.05807 19.61040
#
# Velocity S-wave (km/s) = 3.02692 3.43156 3.23558
# Velocity P-wave (km/s) = 5.72971 6.82367 6.30048
#
# Compressibility (1/GPa) = 0.02589831
#
# Stress axis : x y z
#
# Youngs Moduli (GPa) = 76.22972 31.50593 86.95484
#
# Poissons Ratio (x) = 0.22920 0.45643
# Poissons Ratio (y) = 0.55456 0.23532
# Poissons Ratio (z) = 0.40014 0.08526
#
# Static dielectric constant tensor:
#      x y z
#    x 3.604260 0.000000 0.158080 
#    y 0.000000 3.138060 0.000000 
#    z 0.158080 0.000000 3.555080 
# 
# 
# High freq. dielectric constant tensor:
#      x y z
#    x 1.737210 0.000000 0.008730 
#    y 0.000000 1.687970 0.000000 
#    z 0.008730 0.000000 1.730810 
# 
# From -- ./inp_files/58152.got.cif
#   From: 2010.06.25/outbox.cif.g09.slc.cpg/sg10_30_cif.got.tgz:58152.got - 2010.06.27 22:07:45.
