data_PCOD8061818
_publ_section_title
;
Structure prediction by ZEFSAII (Michael W. Deem and Ramdas Pophale) SiO2 
 PCOD8061818
Probable space group: P 2/M
;
_chemical_formula_sum "Si O2"
_cell_formula_units_Z 32
_cell_length_a 12.612983
_cell_length_b 8.797807
_cell_length_c 32.975075
_cell_angle_alpha 90.000000
_cell_angle_beta 153.450952
_cell_angle_gamma 90.000000
_cell_volume 1635.499223
_symmetry_space_group_name_H-M "P 2/M"
_symmetry_group_IT_number 10
_symmetry_cell_setting 'monoclinic'
loop_
_space_group_symop_operation_xyz
x,y,z
-x,y,-z
-x,-y,-z
x,-y,z
loop_
_atom_site_type_symbol
_atom_site_label
_atom_site_fract_x
_atom_site_fract_y
_atom_site_fract_z
Si Si1 0.352172 0.319585 0.774138
Si Si2 0.053398 0.672246 0.424545
Si Si3 0.685067 0.180003 0.826359
Si Si4 0.899240 0.320072 0.073210
Si Si5 0.458119 0.178104 0.604045
Si Si6 0.624868 0.680037 0.126026
Si Si7 0.041591 0.680020 0.212031
Si Si8 0.663164 0.326145 0.356177
O O1 0.385671 0.500000 0.780774
O O2 0.114781 0.266555 0.669162
O O3 0.583818 0.239563 0.834456
O O4 0.329414 0.264801 0.812462
O O5 0.131397 0.500000 0.442235
O O6 0.913726 0.681375 0.419328
O O7 0.291015 0.773490 0.508951
O O8 0.540737 0.254079 0.740544
O O9 0.955052 0.235173 0.912432
O O10 0.667169 0.000000 0.818539
O O11 0.918658 0.500000 0.073249
O O12 0.996930 0.269672 0.150526
O O13 0.628913 0.263008 0.976891
O O14 0.714270 0.253726 0.687583
O O15 0.321192 0.232955 0.597195
O O16 0.492234 0.000000 0.616147
O O17 0.631819 0.500000 0.126661
O O18 0.829596 0.746985 0.167194
O O19 0.051574 0.500000 0.218964
O O20 0.591185 0.500000 0.341227
#
# Coordination Sequence:
#
# PCOD8061818 Si02
#       8
#     4   4   4   4   4   4   4   4
#     4   9  19  38  60  81 111 146 189 238 279 323
#     4   9  19  34  54  78 106 144 185 227 278 329
#     4  11  21  33  53  83 119 152 184 222 274 337
#     4  10  19  34  59  87 115 144 181 232 287 334
#     4  12  23  33  51  81 115 148 182 223 275 336
#     4   9  19  37  62  87 105 140 196 242 278 325
#     4  10  20  36  59  84 114 146 184 234 283 330
#     4  10  19  34  55  80 111 146 183 226 278 329
#
# _framework density 19.565888999999999
#
# number of rings (size 3 to 8) (size 9 to 14) (size 15 to 20)
#    0.000    2.000    1.250    4.125    0.000    6.000 
#    0.000    5.000    0.000    5.250    0.000    0.000 
#    0.000    0.000    0.000    0.000    0.000    0.000 
#
# Total GULP energy -396827.005940 kJ/mol
# GULP energy per Si atom -12400.843936 kJ/mol
# Density = 1.952136 g / cm^3
# Si number density = 19.565889 Si / 1000 Ang^3
#
#
#
# Elastic Constant Matrix: (Units=GPa)
#
#
# Indices 1 2 3 4 5 6 
#
# 1 92.9144 44.6985 59.1652 0.0000 1.4523 0.0000
# 2 44.6985 116.5852 43.1761 0.0000 -9.1965 0.0000
# 3 59.1652 43.1761 116.1248 0.0000 18.1835 0.0000
# 4 0.0000 0.0000 0.0000 3.0585 0.0000 -2.0490
# 5 1.4523 -9.1965 18.1835 0.0000 24.5000 0.0000
# 6 0.0000 0.0000 0.0000 -2.0490 0.0000 8.8316
#
#
#
# Elastic Compliance Matrix: (Units=1/GPa)
#
#
# Indices 1 2 3 4 5 6 
#
# 1 0.017631 -0.003365 -0.008340 0.000000 0.003881 0.000000
# 2 -0.003365 0.011907 -0.003897 0.000000 0.007561 0.000000
# 3 -0.008340 -0.003897 0.016362 0.000000 -0.013112 0.000000
# 4 0.000000 0.000000 0.000000 0.387121 0.000000 0.089815
# 5 0.003881 0.007561 -0.013112 0.000000 0.053156 0.000000
# 6 0.000000 0.000000 0.000000 0.089815 0.000000 0.134068
#
#
# Mechanical properties :
#
#
# Convention : Reuss Voigt Hill
#
# Bulk Modulus (GPa) = 68.03613 68.85601 68.44607
# Shear Modulus (GPa) = 7.61792 19.18366 13.40079
#
# Velocity S-wave (km/s) = 1.97533 3.13463 2.61991
# Velocity P-wave (km/s) = 6.32858 6.95482 6.64907
#
# Compressibility (1/GPa) = 0.01469807
#
# Stress axis : x y z
#
# Youngs Moduli (GPa) = 56.71751 83.98366 61.11576
#
# Poissons Ratio (x) = 0.28262 0.50968
# Poissons Ratio (y) = 0.19086 0.23814
# Poissons Ratio (z) = 0.47300 0.32725
#
# Static dielectric constant tensor:
#      x y z
#    x 3.625550 0.000000 0.037080 
#    y 0.000000 3.278990 0.000000 
#    z 0.037080 0.000000 3.575920 
# 
# 
# High freq. dielectric constant tensor:
#      x y z
#    x 1.748790 0.000000 0.007370 
#    y 0.000000 1.736380 0.000000 
#    z 0.007370 0.000000 1.771200 
# 
# From -- ./inp_files/95090.got.cif
#   From: 2010.06.25/outbox.cif.g09.slc.cpg/sg10_48_cif.got.tgz:95090.got - 2010.06.27 22:07:45.
