data_PCOD8061367
_publ_section_title
;
Structure prediction by ZEFSAII (Michael W. Deem and Ramdas Pophale) SiO2 
 PCOD8061367
Probable space group: P 2/M
;
_chemical_formula_sum "Si O2"
_cell_formula_units_Z 28
_cell_length_a 19.250660
_cell_length_b 9.437244
_cell_length_c 13.737700
_cell_angle_alpha 90.000000
_cell_angle_beta 38.389271
_cell_angle_gamma 90.000000
_cell_volume 1549.876694
_symmetry_space_group_name_H-M "P 2/M"
_symmetry_group_IT_number 10
_symmetry_cell_setting 'monoclinic'
loop_
_space_group_symop_operation_xyz
x,y,z
-x,y,-z
-x,-y,-z
x,-y,z
loop_
_atom_site_type_symbol
_atom_site_label
_atom_site_fract_x
_atom_site_fract_y
_atom_site_fract_z
Si Si1 0.619040 0.334926 0.133224
Si Si2 0.949240 0.162058 0.267650
Si Si3 0.592729 0.164095 0.599303
Si Si4 0.262050 0.164827 0.376957
Si Si5 0.620136 0.666025 0.909215
Si Si6 0.801330 0.161701 0.242049
Si Si7 0.840944 0.333333 0.006482
O O1 0.590930 0.500000 0.170149
O O2 0.629717 0.285210 0.010073
O O3 0.518658 0.253547 0.296842
O O4 0.732481 0.295519 0.063000
O O5 0.863550 0.195765 0.448996
O O6 0.890055 0.188715 0.229618
O O7 0.990267 0.000000 0.229017
O O8 0.053822 0.265956 0.164791
O O9 0.651007 0.213410 0.635358
O O10 0.676495 0.191743 0.417764
O O11 0.560326 0.000000 0.640745
O O12 0.283415 0.253858 0.256272
O O13 0.278068 0.000000 0.336295
O O14 0.640812 0.500000 0.874110
O O15 0.500000 0.712116 0.000000
O O16 0.829156 0.269050 0.126193
O O17 0.811105 0.000000 0.193802
O O18 0.859684 0.500000 0.995516
#
# Coordination Sequence:
#
# PCOD8061367 Si02
#       7
#     4   4   4   4   4   4   4
#     4  10  22  37  50  73 111 143 171 211 260 310
#     4   9  19  37  58  78 104 137 173 215 261 306
#     4   9  18  33  54  80 105 133 171 213 260 311
#     4   9  18  33  55  83 107 128 166 221 266 300
#     4  10  19  33  55  79 103 138 176 208 255 315
#     4   9  19  36  57  79 104 135 173 217 261 306
#     4  11  23  36  51  75 107 142 177 215 256 303
#
# _framework density 18.065954000000001
#
# number of rings (size 3 to 8) (size 9 to 14) (size 15 to 20)
#    0.000    2.429    1.429    2.571    0.000    6.000 
#    0.000    6.429    0.000    4.286    0.000    0.000 
#    0.000    0.000    0.000    0.000    0.000    0.000 
#
# Total GULP energy -347275.284888 kJ/mol
# GULP energy per Si atom -12402.688746 kJ/mol
# Density = 1.802483 g / cm^3
# Si number density = 18.065954 Si / 1000 Ang^3
#
#
#
# Elastic Constant Matrix: (Units=GPa)
#
#
# Indices 1 2 3 4 5 6 
#
# 1 31.8519 21.5350 26.8670 0.0000 -16.4839 0.0000
# 2 21.5350 61.9634 53.1979 0.0000 -17.0309 0.0000
# 3 26.8670 53.1979 111.2640 0.0000 -17.3124 0.0000
# 4 0.0000 0.0000 0.0000 19.9045 0.0000 -6.3338
# 5 -16.4839 -17.0309 -17.3124 0.0000 26.1922 0.0000
# 6 0.0000 0.0000 0.0000 -6.3338 0.0000 23.7563
#
#
#
# Elastic Compliance Matrix: (Units=1/GPa)
#
#
# Indices 1 2 3 4 5 6 
#
# 1 0.054302 -0.006702 -0.005872 0.000000 0.025935 0.000000
# 2 -0.006702 0.030887 -0.011905 0.000000 0.007996 0.000000
# 3 -0.005872 -0.011905 0.015960 0.000000 -0.000888 0.000000
# 4 0.000000 0.000000 0.000000 0.054897 0.000000 0.014637
# 5 0.025935 0.007996 -0.000888 0.000000 0.059114 0.000000
# 6 0.000000 0.000000 0.000000 0.014637 0.000000 0.045996
#
#
# Mechanical properties :
#
#
# Convention : Reuss Voigt Hill
#
# Bulk Modulus (GPa) = 19.16121 45.36432 32.26277
# Shear Modulus (GPa) = 15.26666 20.86923 18.06795
#
# Velocity S-wave (km/s) = 2.91013 3.40247 3.16588
# Velocity P-wave (km/s) = 4.68200 6.37186 5.59114
#
# Compressibility (1/GPa) = 0.05218876
#
# Stress axis : x y z
#
# Youngs Moduli (GPa) = 18.41560 32.37653 62.65845
#
# Poissons Ratio (x) = 0.21699 0.36796
# Poissons Ratio (y) = 0.12343 0.74595
# Poissons Ratio (z) = 0.10814 0.38544
#
# Static dielectric constant tensor:
#      x y z
#    x 3.180820 0.000000 -0.014130 
#    y 0.000000 3.224670 0.000000 
#    z -0.014130 0.000000 3.388290 
# 
# 
# High freq. dielectric constant tensor:
#      x y z
#    x 1.680900 0.000000 0.000310 
#    y 0.000000 1.696190 0.000000 
#    z 0.000310 0.000000 1.710770 
# 
# From -- ./inp_files/57437.got.cif
#   From: 2010.06.25/outbox.cif.g09.slc.cpg/sg10_29_cif.got.tgz:57437.got - 2010.06.27 22:07:45.
