data_PCOD8061739
_publ_section_title
;
Structure prediction by ZEFSAII (Michael W. Deem and Ramdas Pophale) SiO2 
 PCOD8061739
Probable space group: P 2/M
;
_chemical_formula_sum "Si O2"
_cell_formula_units_Z 28
_cell_length_a 9.572084
_cell_length_b 8.851321
_cell_length_c 26.717836
_cell_angle_alpha 90.000000
_cell_angle_beta 39.528755
_cell_angle_gamma 90.000000
_cell_volume 1440.756766
_symmetry_space_group_name_H-M "P 2/M"
_symmetry_group_IT_number 10
_symmetry_cell_setting 'monoclinic'
loop_
_space_group_symop_operation_xyz
x,y,z
-x,y,-z
-x,-y,-z
x,-y,z
loop_
_atom_site_type_symbol
_atom_site_label
_atom_site_fract_x
_atom_site_fract_y
_atom_site_fract_z
Si Si1 0.534487 0.675528 0.432830
Si Si2 0.928108 0.322182 0.254206
Si Si3 0.775806 0.320562 0.087698
Si Si4 0.780197 0.325812 0.680127
Si Si5 0.690501 0.674754 0.221784
Si Si6 0.882916 0.827607 0.480155
Si Si7 0.665415 0.177490 0.813497
O O1 0.500000 0.723311 0.500000
O O2 0.480492 0.500000 0.439672
O O3 0.777875 0.712317 0.344791
O O4 0.367401 0.773864 0.445786
O O5 0.967960 0.500000 0.238384
O O6 0.810492 0.253505 0.236881
O O7 0.162495 0.240782 0.193463
O O8 0.745892 0.500000 0.095250
O O9 0.774517 0.258356 0.145333
O O10 0.574423 0.250334 0.112027
O O11 0.000000 0.267837 0.000000
O O12 0.793995 0.500000 0.694120
O O13 0.571710 0.299779 0.701212
O O14 0.756651 0.219442 0.734116
O O15 0.002597 0.281849 0.591321
O O16 0.748702 0.500000 0.206110
O O17 0.000000 0.805826 0.500000
O O18 0.896146 0.000000 0.458143
O O19 0.645224 0.000000 0.825431
#
# Coordination Sequence:
#
# PCOD8061739 Si02
#       7
#     4   4   4   4   4   4   4
#     4  10  21  35  52  74 100 138 186 230 272 317
#     4  10  19  34  54  76 105 139 179 223 264 314
#     4   9  18  36  61  85 108 137 176 218 259 310
#     4  10  19  35  57  77 100 136 185 230 267 315
#     4   8  16  31  54  81 103 131 175 224 268 307
#     4  11  23  35  49  75 109 141 176 223 279 330
#     4  11  22  35  54  81 111 141 172 209 262 322
#
# _framework density 19.434232000000002
#
# number of rings (size 3 to 8) (size 9 to 14) (size 15 to 20)
#    0.000    2.143    0.000    4.714    0.000    4.571 
#    0.000    4.286    0.000    4.286    0.000    0.000 
#    0.000    0.000    0.000    0.000    0.000    0.000 
#
# Total GULP energy -347178.226348 kJ/mol
# GULP energy per Si atom -12399.222370 kJ/mol
# Density = 1.939000 g / cm^3
# Si number density = 19.434232 Si / 1000 Ang^3
#
#
#
# Elastic Constant Matrix: (Units=GPa)
#
#
# Indices 1 2 3 4 5 6 
#
# 1 109.2266 31.2942 24.0854 0.0000 -17.8040 0.0000
# 2 31.2942 51.6168 20.9371 0.0000 -9.3884 0.0000
# 3 24.0854 20.9371 87.0673 0.0000 -16.2852 0.0000
# 4 0.0000 0.0000 0.0000 13.6267 0.0000 2.2014
# 5 -17.8040 -9.3884 -16.2852 0.0000 28.1163 0.0000
# 6 0.0000 0.0000 0.0000 2.2014 0.0000 13.5775
#
#
#
# Elastic Compliance Matrix: (Units=1/GPa)
#
#
# Indices 1 2 3 4 5 6 
#
# 1 0.011869 -0.005910 -0.000926 0.000000 0.005006 0.000000
# 2 -0.005910 0.024975 -0.003938 0.000000 0.002317 0.000000
# 3 -0.000926 -0.003938 0.013831 0.000000 0.006110 0.000000
# 4 0.000000 0.000000 0.000000 0.075359 0.000000 -0.012218
# 5 0.005006 0.002317 0.006110 0.000000 0.043049 0.000000
# 6 0.000000 0.000000 0.000000 -0.012218 0.000000 0.075632
#
#
# Mechanical properties :
#
#
# Convention : Reuss Voigt Hill
#
# Bulk Modulus (GPa) = 34.33051 44.50491 39.41771
# Shear Modulus (GPa) = 18.11786 22.50369 20.31078
#
# Velocity S-wave (km/s) = 3.05661 3.40654 3.23631
# Velocity P-wave (km/s) = 5.49186 6.19861 5.85590
#
# Compressibility (1/GPa) = 0.02912861
#
# Stress axis : x y z
#
# Youngs Moduli (GPa) = 84.25628 40.04000 72.30032
#
# Poissons Ratio (x) = 0.23662 0.06693
# Poissons Ratio (y) = 0.49792 0.28470
# Poissons Ratio (z) = 0.07800 0.15766
#
# Static dielectric constant tensor:
#      x y z
#    x 3.761840 0.000000 -0.067470 
#    y 0.000000 3.288420 0.000000 
#    z -0.067470 0.000000 3.524580 
# 
# 
# High freq. dielectric constant tensor:
#      x y z
#    x 1.764340 0.000000 -0.012300 
#    y 0.000000 1.734210 0.000000 
#    z -0.012300 0.000000 1.742670 
# 
# From -- ./inp_files/36909.got.cif
#   From: 2010.06.25/outbox.cif.g09.slc.cpg/sg10_19_cif.got.tgz:36909.got - 2010.06.27 22:07:45.
