data_PCOD8061213
_publ_section_title
;
Structure prediction by ZEFSAII (Michael W. Deem and Ramdas Pophale) SiO2 
 PCOD8061213
Probable space group: P 2/M
;
_chemical_formula_sum "Si O2"
_cell_formula_units_Z 32
_cell_length_a 10.832031
_cell_length_b 9.304948
_cell_length_c 21.918756
_cell_angle_alpha 90.000000
_cell_angle_beta 51.624420
_cell_angle_gamma 90.000000
_cell_volume 1731.939082
_symmetry_space_group_name_H-M "P 2/M"
_symmetry_group_IT_number 10
_symmetry_cell_setting 'monoclinic'
loop_
_space_group_symop_operation_xyz
x,y,z
-x,y,-z
-x,-y,-z
x,-y,z
loop_
_atom_site_type_symbol
_atom_site_label
_atom_site_fract_x
_atom_site_fract_y
_atom_site_fract_z
Si Si1 0.037277 0.836969 0.665553
Si Si2 0.264588 0.670500 0.788563
Si Si3 0.333793 0.329635 0.024808
Si Si4 0.871343 0.163004 0.589176
Si Si5 0.588908 0.670661 0.631338
Si Si6 0.819940 0.670931 0.052844
Si Si7 0.964672 0.670038 0.805908
Si Si8 0.653004 0.158972 0.491841
O O1 0.965515 0.735476 0.738631
O O2 0.211401 0.782205 0.594321
O O3 0.932382 0.823019 0.638259
O O4 0.041933 0.000000 0.688698
O O5 0.259503 0.500000 0.788940
O O6 0.420727 0.727785 0.707101
O O7 0.264446 0.722832 0.858951
O O8 0.111339 0.730475 0.800347
O O9 0.347762 0.500000 0.016469
O O10 0.197465 0.281897 0.113020
O O11 0.500000 0.266560 0.000000
O O12 0.282521 0.269696 0.973346
O O13 0.722123 0.267495 0.634446
O O14 0.000000 0.215028 0.500000
O O15 0.820896 0.000000 0.589342
O O16 0.595750 0.500000 0.628736
O O17 0.622277 0.728007 0.553922
O O18 0.827090 0.500000 0.045475
O O19 0.000000 0.729545 0.000000
O O20 0.975214 0.500000 0.796777
O O21 0.500000 0.140656 0.500000
O O22 0.703430 0.000000 0.502208
#
# Coordination Sequence:
#
# PCOD8061213 Si02
#       8
#     4   4   4   4   4   4   4   4
#     4  10  21  36  55  77 101 138 181 219 265 317
#     4   9  18  31  48  77 113 144 173 215 269 323
#     4   9  17  28  47  78 110 140 179 225 265 310
#     4  10  20  39  59  71  97 141 185 222 257 316
#     4  11  22  33  51  81 113 135 167 224 280 321
#     4   9  14  26  48  69  99 147 187 209 253 326
#     4  10  19  33  53  79 112 142 173 218 273 321
#     4  10  20  36  56  75 100 140 188 223 254 314
#
# _framework density 18.476400999999999
#
# number of rings (size 3 to 8) (size 9 to 14) (size 15 to 20)
#    0.000    2.250    2.500    1.125    0.000    2.500 
#    0.000    3.125    0.000    0.375    0.000    3.500 
#    0.000    0.000    0.000    0.000    0.000    0.000 
#
# Total GULP energy -396701.215475 kJ/mol
# GULP energy per Si atom -12396.912984 kJ/mol
# Density = 1.843435 g / cm^3
# Si number density = 18.476401 Si / 1000 Ang^3
#
#
#
# Elastic Constant Matrix: (Units=GPa)
#
#
# Indices 1 2 3 4 5 6 
#
# 1 129.9529 26.5604 63.4043 0.0000 -6.4611 0.0000
# 2 26.5604 35.6602 35.8218 0.0000 -4.6564 0.0000
# 3 63.4043 35.8218 137.6277 0.0000 -2.2724 0.0000
# 4 0.0000 0.0000 0.0000 9.2398 0.0000 -0.2650
# 5 -6.4611 -4.6564 -2.2724 0.0000 37.8759 0.0000
# 6 0.0000 0.0000 0.0000 -0.2650 0.0000 18.2805
#
#
#
# Elastic Compliance Matrix: (Units=1/GPa)
#
#
# Indices 1 2 3 4 5 6 
#
# 1 0.010363 -0.003791 -0.003769 0.000000 0.001075 0.000000
# 2 -0.003791 0.039997 -0.008602 0.000000 0.003754 0.000000
# 3 -0.003769 -0.008602 0.011224 0.000000 -0.001027 0.000000
# 4 0.000000 0.000000 0.000000 0.108273 0.000000 0.001569
# 5 0.001075 0.003754 -0.001027 0.000000 0.026985 0.000000
# 6 0.000000 0.000000 0.000000 0.001569 0.000000 0.054726
#
#
# Mechanical properties :
#
#
# Convention : Reuss Voigt Hill
#
# Bulk Modulus (GPa) = 34.17733 61.64600 47.91166
# Shear Modulus (GPa) = 17.02726 24.90953 20.96839
#
# Velocity S-wave (km/s) = 3.03903 3.67574 3.37244
# Velocity P-wave (km/s) = 5.55448 7.17300 6.41499
#
# Compressibility (1/GPa) = 0.02925916
#
# Stress axis : x y z
#
# Youngs Moduli (GPa) = 96.50130 25.00162 89.09102
#
# Poissons Ratio (x) = 0.09479 0.33582
# Poissons Ratio (y) = 0.36587 0.76635
# Poissons Ratio (z) = 0.36375 0.21506
#
# Static dielectric constant tensor:
#      x y z
#    x 3.679680 0.000000 -0.094480 
#    y 0.000000 2.978940 0.000000 
#    z -0.094480 0.000000 3.500810 
# 
# 
# High freq. dielectric constant tensor:
#      x y z
#    x 1.731320 0.000000 0.000620 
#    y 0.000000 1.666720 0.000000 
#    z 0.000620 0.000000 1.724040 
# 
# From -- ./inp_files/83594.got.cif
#   From: 2010.06.25/outbox.cif.g09.slc.cpg/sg10_42_cif.got.tgz:83594.got - 2010.06.27 22:07:45.
