data_PCOD8061984
_publ_section_title
;
Structure prediction by ZEFSAII (Michael W. Deem and Ramdas Pophale) SiO2 
 PCOD8061984
Probable space group: P 2/M
;
_chemical_formula_sum "Si O2"
_cell_formula_units_Z 32
_cell_length_a 31.989526
_cell_length_b 9.162638
_cell_length_c 12.814580
_cell_angle_alpha 90.000000
_cell_angle_beta 153.845021
_cell_angle_gamma 90.000000
_cell_volume 1655.674533
_symmetry_space_group_name_H-M "P 2/M"
_symmetry_group_IT_number 10
_symmetry_cell_setting 'monoclinic'
loop_
_space_group_symop_operation_xyz
x,y,z
-x,y,-z
-x,-y,-z
x,-y,z
loop_
_atom_site_type_symbol
_atom_site_label
_atom_site_fract_x
_atom_site_fract_y
_atom_site_fract_z
Si Si1 0.362992 0.828852 0.011727
Si Si2 0.708433 0.331816 0.347983
Si Si3 0.346596 0.837643 0.583020
Si Si4 0.079859 0.332241 0.099739
Si Si5 0.133685 0.837570 0.030391
Si Si6 0.576323 0.826919 0.459676
Si Si7 0.891380 0.328157 0.236103
Si Si8 0.725700 0.172233 0.965106
O O1 0.472123 0.776848 0.261118
O O2 0.356717 0.000000 0.974006
O O3 0.307889 0.744905 0.798408
O O4 0.315423 0.788135 0.014384
O O5 0.680460 0.500000 0.276610
O O6 0.641393 0.262006 0.287514
O O7 0.818309 0.309369 0.620078
O O8 0.237626 0.848023 0.309209
O O9 0.403063 0.767762 0.611255
O O10 0.385253 0.000000 0.696072
O O11 0.063642 0.500000 0.031879
O O12 0.066215 0.236515 0.965213
O O13 0.000000 0.277168 0.000000
O O14 0.095610 0.000000 0.918026
O O15 0.138671 0.736736 0.941305
O O16 0.586040 0.000000 0.479701
O O17 0.652518 0.767091 0.713812
O O18 0.873940 0.500000 0.197255
O O19 0.825977 0.254455 0.178106
O O20 0.000000 0.287621 0.500000
O O21 0.742304 0.000000 0.989472
#
# Coordination Sequence:
#
# PCOD8061984 Si02
#       8
#     4   4   4   4   4   4   4   4
#     4  10  21  36  58  84 115 152 187 229 282 342
#     4  10  21  36  53  77 114 150 186 233 282 332
#     4   9  17  33  58  82 107 140 183 230 276 331
#     4   9  19  36  57  79 106 148 192 228 278 344
#     4  10  19  34  57  83 109 138 180 237 284 325
#     4   9  17  34  60  87 111 144 188 232 282 338
#     4  11  24  39  56  81 113 151 189 225 278 343
#     4  10  20  38  61  86 113 144 190 240 283 328
#
# _framework density 19.327470000000002
#
# number of rings (size 3 to 8) (size 9 to 14) (size 15 to 20)
#    0.000    2.250    1.250    1.500    0.000    5.750 
#    0.000    7.500    0.000    1.500    0.000    0.000 
#    0.000    0.000    0.000    0.000    0.000    0.000 
#
# Total GULP energy -396828.489856 kJ/mol
# GULP energy per Si atom -12400.890308 kJ/mol
# Density = 1.928348 g / cm^3
# Si number density = 19.327470 Si / 1000 Ang^3
#
#
#
# Elastic Constant Matrix: (Units=GPa)
#
#
# Indices 1 2 3 4 5 6 
#
# 1 181.0559 66.7716 47.0111 0.0000 6.7158 0.0000
# 2 66.7716 73.8564 34.9226 0.0000 2.1887 0.0000
# 3 47.0111 34.9226 45.5504 0.0000 0.6997 0.0000
# 4 0.0000 0.0000 0.0000 16.0066 0.0000 -3.0672
# 5 6.7158 2.1887 0.6997 0.0000 30.0249 0.0000
# 6 0.0000 0.0000 0.0000 -3.0672 0.0000 22.4165
#
#
#
# Elastic Compliance Matrix: (Units=1/GPa)
#
#
# Indices 1 2 3 4 5 6 
#
# 1 0.008955 -0.005793 -0.004778 0.000000 -0.001469 0.000000
# 2 -0.005793 0.025028 -0.013207 0.000000 -0.000221 0.000000
# 3 -0.004778 -0.013207 0.036992 0.000000 0.001169 0.000000
# 4 0.000000 0.000000 0.000000 0.064156 0.000000 0.008778
# 5 -0.001469 -0.000221 0.001169 0.000000 0.033623 0.000000
# 6 0.000000 0.000000 0.000000 0.008778 0.000000 0.045811
#
#
# Mechanical properties :
#
#
# Convention : Reuss Voigt Hill
#
# Bulk Modulus (GPa) = 42.69830 66.43037 54.56434
# Shear Modulus (GPa) = 18.52353 23.80676 21.16514
#
# Velocity S-wave (km/s) = 3.09917 3.51345 3.31279
# Velocity P-wave (km/s) = 5.91155 7.13475 6.55176
#
# Compressibility (1/GPa) = 0.02342014
#
# Stress axis : x y z
#
# Youngs Moduli (GPa) = 111.67472 39.95495 27.03280
#
# Poissons Ratio (x) = 0.23145 0.12916
# Poissons Ratio (y) = 0.64692 0.35701
# Poissons Ratio (z) = 0.53357 0.52767
#
# Static dielectric constant tensor:
#      x y z
#    x 3.774220 0.000000 0.040130 
#    y 0.000000 3.509280 0.000000 
#    z 0.040130 0.000000 3.424750 
# 
# 
# High freq. dielectric constant tensor:
#      x y z
#    x 1.768130 0.000000 0.000380 
#    y 0.000000 1.736110 0.000000 
#    z 0.000380 0.000000 1.740810 
# 
# From -- ./inp_files/58298.got.cif
#   From: 2010.06.25/outbox.cif.g09.slc.cpg/sg10_30_cif.got.tgz:58298.got - 2010.06.27 22:07:45.
