data_PCOD8061119
_publ_section_title
;
Structure prediction by ZEFSAII (Michael W. Deem and Ramdas Pophale) SiO2 
 PCOD8061119
Probable space group: P 2/M
;
_chemical_formula_sum "Si O2"
_cell_formula_units_Z 28
_cell_length_a 9.363745
_cell_length_b 8.741958
_cell_length_c 30.823885
_cell_angle_alpha 90.000000
_cell_angle_beta 145.494975
_cell_angle_gamma 90.000000
_cell_volume 1429.318816
_symmetry_space_group_name_H-M "P 2/M"
_symmetry_group_IT_number 10
_symmetry_cell_setting 'monoclinic'
loop_
_space_group_symop_operation_xyz
x,y,z
-x,y,-z
-x,-y,-z
x,-y,z
loop_
_atom_site_type_symbol
_atom_site_label
_atom_site_fract_x
_atom_site_fract_y
_atom_site_fract_z
Si Si1 0.542279 0.181402 0.946556
Si Si2 0.069894 0.825015 0.618810
Si Si3 0.926248 0.676549 0.670183
Si Si4 0.449531 0.322646 0.834600
Si Si5 0.881741 0.682473 0.101773
Si Si6 0.601049 0.329841 0.476365
Si Si7 0.594439 0.182734 0.779227
O O1 0.572318 0.225340 0.903895
O O2 0.294625 0.263691 0.903144
O O3 0.521690 0.000000 0.947451
O O4 0.786442 0.244226 0.032825
O O5 0.361982 0.769971 0.688923
O O6 0.988533 0.791541 0.647317
O O7 0.864544 0.757037 0.533764
O O8 0.058910 0.000000 0.605841
O O9 0.925237 0.500000 0.652533
O O10 0.639685 0.717765 0.614620
O O11 0.143051 0.695740 0.760664
O O12 0.526647 0.500000 0.858224
O O13 0.557876 0.257864 0.817117
O O14 0.879033 0.500000 0.097924
O O15 0.159173 0.745969 0.181056
O O16 0.500000 0.307690 0.500000
O O17 0.680292 0.500000 0.485731
O O18 0.614217 0.000000 0.789348
#
# Coordination Sequence:
#
# PCOD8061119 Si02
#       7
#     4   4   4   4   4   4   4
#     4  11  22  38  57  77 102 131 161 200 251 300
#     4   9  16  24  38  62  93 126 160 199 241 287
#     4   8  15  26  40  60  91 128 162 199 241 283
#     4  10  19  33  52  76 104 134 170 209 247 292
#     4  11  22  38  58  78  98 127 168 207 243 292
#     4   8  13  22  36  56  86 125 163 196 236 284
#     4  10  20  34  50  74 106 136 166 205 255 300
#
# _framework density 19.589753000000002
#
# number of rings (size 3 to 8) (size 9 to 14) (size 15 to 20)
#    0.000    2.429    0.000    5.571    0.000    5.429 
#    0.000    2.857    0.000    0.000    0.000    1.000 
#    0.000    8.000    0.000    0.000    0.000    0.000 
#
# Total GULP energy -346871.198893 kJ/mol
# GULP energy per Si atom -12388.257103 kJ/mol
# Density = 1.954517 g / cm^3
# Si number density = 19.589753 Si / 1000 Ang^3
#
#
#
# Elastic Constant Matrix: (Units=GPa)
#
#
# Indices 1 2 3 4 5 6 
#
# 1 25.6896 15.8014 15.1308 0.0000 19.5781 0.0000
# 2 15.8014 80.8723 26.6989 0.0000 18.8379 0.0000
# 3 15.1308 26.6989 55.8509 0.0000 38.2525 0.0000
# 4 0.0000 0.0000 0.0000 29.2995 0.0000 6.8767
# 5 19.5781 18.8379 38.2525 0.0000 34.3909 0.0000
# 6 0.0000 0.0000 0.0000 6.8767 0.0000 22.7528
#
#
#
# Elastic Compliance Matrix: (Units=1/GPa)
#
#
# Indices 1 2 3 4 5 6 
#
# 1 0.097121 -0.011339 0.053415 0.000000 -0.108491 0.000000
# 2 -0.011339 0.016014 -0.012581 0.000000 0.011677 0.000000
# 3 0.053415 -0.012581 0.107288 0.000000 -0.142851 0.000000
# 4 0.000000 0.000000 0.000000 0.036736 0.000000 -0.011103
# 5 -0.108491 0.011677 -0.142851 0.000000 0.243334 0.000000
# 6 0.000000 0.000000 0.000000 -0.011103 0.000000 0.047306
#
#
# Mechanical properties :
#
#
# Convention : Reuss Voigt Hill
#
# Bulk Modulus (GPa) = 3.57895 30.85279 17.21587
# Shear Modulus (GPa) = 8.59182 24.27410 16.43296
#
# Velocity S-wave (km/s) = 2.09652 3.52394 2.89944
# Velocity P-wave (km/s) = 2.77334 5.68693 4.47396
#
# Compressibility (1/GPa) = 0.27941181
#
# Stress axis : x y z
#
# Youngs Moduli (GPa) = 10.29641 62.44448 9.32072
#
# Poissons Ratio (x) = 0.70808 -0.49786
# Poissons Ratio (y) = 0.11675 0.11727
# Poissons Ratio (z) = -0.54998 0.78563
#
# Static dielectric constant tensor:
#      x y z
#    x 3.062830 0.000000 0.445070 
#    y 0.000000 3.599420 0.000000 
#    z 0.445070 0.000000 4.161320 
# 
# 
# High freq. dielectric constant tensor:
#      x y z
#    x 1.703260 0.000000 0.034010 
#    y 0.000000 1.770740 0.000000 
#    z 0.034010 0.000000 1.780110 
# 
# From -- ./inp_files/79324.got.cif
#   From: 2010.06.25/outbox.cif.g09.slc.cpg/sg10_40_cif.got.tgz:79324.got - 2010.06.27 22:07:45.
