data_PCOD8061551
_publ_section_title
;
Structure prediction by ZEFSAII (Michael W. Deem and Ramdas Pophale) SiO2 
 PCOD8061551
Probable space group: P 2/M
;
_chemical_formula_sum "Si O2"
_cell_formula_units_Z 28
_cell_length_a 12.759249
_cell_length_b 8.872597
_cell_length_c 13.712028
_cell_angle_alpha 90.000000
_cell_angle_beta 67.293076
_cell_angle_gamma 90.000000
_cell_volume 1431.989748
_symmetry_space_group_name_H-M "P 2/M"
_symmetry_group_IT_number 10
_symmetry_cell_setting 'monoclinic'
loop_
_space_group_symop_operation_xyz
x,y,z
-x,y,-z
-x,-y,-z
x,-y,z
loop_
_atom_site_type_symbol
_atom_site_label
_atom_site_fract_x
_atom_site_fract_y
_atom_site_fract_z
Si Si1 0.497619 0.823476 0.272633
Si Si2 0.405727 0.322813 0.111353
Si Si3 0.119779 0.179652 0.421761
Si Si4 0.170817 0.178942 0.187352
Si Si5 0.685445 0.822308 0.508788
Si Si6 0.729150 0.820968 0.278413
Si Si7 0.971475 0.179499 0.117721
O O1 0.440387 0.734709 0.205377
O O2 0.434727 0.783443 0.397373
O O3 0.629313 0.776079 0.238488
O O4 0.483663 0.000000 0.254541
O O5 0.389533 0.500000 0.122624
O O6 0.290257 0.249255 0.112803
O O7 0.500000 0.273918 0.000000
O O8 0.142650 0.238283 0.305156
O O9 0.215350 0.245265 0.459015
O O10 0.000000 0.244884 0.500000
O O11 0.119705 0.000000 0.422821
O O12 0.070616 0.237655 0.153246
O O13 0.181302 0.000000 0.178335
O O14 0.698009 0.752388 0.396025
O O15 0.700613 0.000000 0.494860
O O16 0.849373 0.755821 0.196988
O O17 0.735789 0.000000 0.283787
O O18 0.966369 0.000000 0.119758
O O19 0.000000 0.241308 0.000000
#
# Coordination Sequence:
#
# PCOD8061551 Si02
#       7
#     4   4   4   4   4   4   4
#     4  10  19  33  56  84 108 137 181 224 267 320
#     4  11  25  41  56  76 106 143 183 228 280 326
#     4   9  15  24  44  77 112 141 170 212 262 312
#     4  10  19  34  57  83 109 138 179 224 266 321
#     4   9  15  26  44  75 112 138 171 214 263 316
#     4   9  17  28  47  79 117 147 170 214 271 319
#     4   9  18  30  46  77 115 144 171 214 271 319
#
# _framework density 19.553214000000001
#
# number of rings (size 3 to 8) (size 9 to 14) (size 15 to 20)
#    0.000    2.429    1.429    1.714    2.000    6.286 
#    0.000    0.000    0.000    3.429    0.000    0.000 
#    0.000    0.000    0.000    0.000    0.000    0.000 
#
# Total GULP energy -347145.399235 kJ/mol
# GULP energy per Si atom -12398.049973 kJ/mol
# Density = 1.950871 g / cm^3
# Si number density = 19.553214 Si / 1000 Ang^3
#
#
#
# Elastic Constant Matrix: (Units=GPa)
#
#
# Indices 1 2 3 4 5 6 
#
# 1 158.0217 14.9475 56.3325 0.0000 -19.8031 0.0000
# 2 14.9475 15.5631 15.0015 0.0000 -6.0830 0.0000
# 3 56.3325 15.0015 117.2912 0.0000 -14.8303 0.0000
# 4 0.0000 0.0000 0.0000 9.2035 0.0000 -0.8173
# 5 -19.8031 -6.0830 -14.8303 0.0000 39.1979 0.0000
# 6 0.0000 0.0000 0.0000 -0.8173 0.0000 3.6045
#
#
#
# Elastic Compliance Matrix: (Units=1/GPa)
#
#
# Indices 1 2 3 4 5 6 
#
# 1 0.008089 -0.003880 -0.003096 0.000000 0.002313 0.000000
# 2 -0.003880 0.077763 -0.007146 0.000000 0.007404 0.000000
# 3 -0.003096 -0.007146 0.011121 0.000000 0.001534 0.000000
# 4 0.000000 0.000000 0.000000 0.110887 0.000000 0.025143
# 5 0.002313 0.007404 0.001534 0.000000 0.028410 0.000000
# 6 0.000000 0.000000 0.000000 0.025143 0.000000 0.283128
#
#
# Mechanical properties :
#
#
# Convention : Reuss Voigt Hill
#
# Bulk Modulus (GPa) = 14.55019 51.49323 33.02171
# Shear Modulus (GPa) = 8.76343 24.04082 16.40212
#
# Velocity S-wave (km/s) = 2.11933 3.51024 2.89942
# Velocity P-wave (km/s) = 3.66691 6.54378 5.30412
#
# Compressibility (1/GPa) = 0.06872762
#
# Stress axis : x y z
#
# Youngs Moduli (GPa) = 123.62615 12.85954 89.92162
#
# Poissons Ratio (x) = 0.04990 0.27841
# Poissons Ratio (y) = 0.47972 0.64259
# Poissons Ratio (z) = 0.38277 0.09190
#
# Static dielectric constant tensor:
#      x y z
#    x 3.806790 0.000000 -0.083780 
#    y 0.000000 2.837700 0.000000 
#    z -0.083780 0.000000 3.807850 
# 
# 
# High freq. dielectric constant tensor:
#      x y z
#    x 1.781300 0.000000 -0.004470 
#    y 0.000000 1.681810 0.000000 
#    z -0.004470 0.000000 1.774730 
# 
# From -- ./inp_files/50065.got.cif
#   From: 2010.06.25/outbox.cif.g09.slc.cpg/sg10_26_cif.got.tgz:50065.got - 2010.06.27 22:07:45.
