data_PCOD8061805
_publ_section_title
;
Structure prediction by ZEFSAII (Michael W. Deem and Ramdas Pophale) SiO2 
 PCOD8061805
Probable space group: P 2/M
;
_chemical_formula_sum "Si O2"
_cell_formula_units_Z 28
_cell_length_a 16.159497
_cell_length_b 19.142703
_cell_length_c 9.226361
_cell_angle_alpha 90.000000
_cell_angle_beta 150.210645
_cell_angle_gamma 90.000000
_cell_volume 1417.928260
_symmetry_space_group_name_H-M "P 2/M"
_symmetry_group_IT_number 10
_symmetry_cell_setting 'monoclinic'
loop_
_space_group_symop_operation_xyz
x,y,z
-x,y,-z
-x,-y,-z
x,-y,z
loop_
_atom_site_type_symbol
_atom_site_label
_atom_site_fract_x
_atom_site_fract_y
_atom_site_fract_z
Si Si1 0.259042 0.802914 0.572616
Si Si2 0.574239 0.803930 0.883620
Si Si3 0.023349 0.078432 0.198239
Si Si4 0.166903 0.341191 0.333102
Si Si5 0.329554 0.420722 0.828194
Si Si6 0.822976 0.921134 0.158852
Si Si7 0.494671 0.657968 0.327249
O O1 0.390682 0.829737 0.652006
O O2 0.156356 0.869787 0.471604
O O3 0.146451 0.741064 0.336971
O O4 0.343748 0.772576 0.846033
O O5 0.559694 0.739495 0.750811
O O6 0.675253 0.868058 0.969146
O O7 0.852065 0.082071 0.029099
O O8 0.096518 0.000000 0.311939
O O9 0.000000 0.105281 0.000000
O O10 0.188117 0.383148 0.516157
O O11 0.324053 0.353030 0.467152
O O12 0.000000 0.367642 0.000000
O O13 0.272578 0.500000 0.768777
O O14 0.500000 0.416547 0.000000
O O15 0.356105 0.384480 0.025078
O O16 0.000000 0.901038 0.500000
O O17 0.771509 0.000000 0.128087
O O18 0.500000 0.630014 0.500000
#
# Coordination Sequence:
#
# PCOD8061805 Si02
#       7
#     4   4   4   4   4   4   4
#     4  10  19  34  55  79 109 147 188 232 281 336
#     4  10  20  34  55  80 109 145 188 236 280 335
#     4  10  21  36  53  76 108 143 182 231 284 338
#     4  10  20  36  59  86 116 150 190 235 280 333
#     4   9  18  36  62  86 115 156 192 224 274 340
#     4  10  20  35  53  77 108 143 186 236 287 339
#     4  10  21  38  57  85 118 149 191 234 280 334
#
# _framework density 19.747121
#
# number of rings (size 3 to 8) (size 9 to 14) (size 15 to 20)
#    0.000    2.143    2.857    0.429    0.000    4.571 
#    0.000    2.143    0.000    3.857    0.000    0.000 
#    0.000    0.000    0.000    0.000    0.000    0.000 
#
# Total GULP energy -347088.575129 kJ/mol
# GULP energy per Si atom -12396.020540 kJ/mol
# Density = 1.970218 g / cm^3
# Si number density = 19.747121 Si / 1000 Ang^3
#
#
#
# Elastic Constant Matrix: (Units=GPa)
#
#
# Indices 1 2 3 4 5 6 
#
# 1 93.2415 46.1333 36.4762 0.0000 -18.3666 0.0000
# 2 46.1333 112.5971 54.7582 0.0000 3.0904 0.0000
# 3 36.4762 54.7582 104.4728 0.0000 -12.3712 0.0000
# 4 0.0000 0.0000 0.0000 20.8093 0.0000 -0.6053
# 5 -18.3666 3.0904 -12.3712 0.0000 30.3108 0.0000
# 6 0.0000 0.0000 0.0000 -0.6053 0.0000 17.5813
#
#
#
# Elastic Compliance Matrix: (Units=1/GPa)
#
#
# Indices 1 2 3 4 5 6 
#
# 1 0.016331 -0.006409 -0.001149 0.000000 0.010080 0.000000
# 2 -0.006409 0.014904 -0.006529 0.000000 -0.008068 0.000000
# 3 -0.001149 -0.006529 0.014072 0.000000 0.005713 0.000000
# 4 0.000000 0.000000 0.000000 0.048104 0.000000 0.001656
# 5 0.010080 -0.008068 0.005713 0.000000 0.042254 0.000000
# 6 0.000000 0.000000 0.000000 0.001656 0.000000 0.056936
#
#
# Mechanical properties :
#
#
# Convention : Reuss Voigt Hill
#
# Bulk Modulus (GPa) = 58.37092 65.00519 61.68805
# Shear Modulus (GPa) = 22.07653 25.26988 23.67320
#
# Velocity S-wave (km/s) = 3.34722 3.58113 3.46615
# Velocity P-wave (km/s) = 6.67547 7.07740 6.87937
#
# Compressibility (1/GPa) = 0.01713182
#
# Stress axis : x y z
#
# Youngs Moduli (GPa) = 61.23372 67.09634 71.06376
#
# Poissons Ratio (x) = 0.43002 0.08165
# Poissons Ratio (y) = 0.39244 0.46401
# Poissons Ratio (z) = 0.07036 0.43810
#
# Static dielectric constant tensor:
#      x y z
#    x 3.546580 0.000000 -0.206080 
#    y 0.000000 3.484870 0.000000 
#    z -0.206080 0.000000 3.444920 
# 
# 
# High freq. dielectric constant tensor:
#      x y z
#    x 1.762220 0.000000 -0.019680 
#    y 0.000000 1.765780 0.000000 
#    z -0.019680 0.000000 1.752750 
# 
# From -- ./inp_files/30375.got.cif
#   From: 2010.06.25/outbox.cif.g09.slc.cpg/sg10_16_cif.got.tgz:30375.got - 2010.06.27 22:07:45.
