data_PCOD8061469
_publ_section_title
;
Structure prediction by ZEFSAII (Michael W. Deem and Ramdas Pophale) SiO2 
 PCOD8061469
Probable space group: P 2/M
;
_chemical_formula_sum "Si O2"
_cell_formula_units_Z 32
_cell_length_a 11.929013
_cell_length_b 8.844771
_cell_length_c 28.889618
_cell_angle_alpha 90.000000
_cell_angle_beta 30.995525
_cell_angle_gamma 90.000000
_cell_volume 1569.696837
_symmetry_space_group_name_H-M "P 2/M"
_symmetry_group_IT_number 10
_symmetry_cell_setting 'monoclinic'
loop_
_space_group_symop_operation_xyz
x,y,z
-x,y,-z
-x,-y,-z
x,-y,z
loop_
_atom_site_type_symbol
_atom_site_label
_atom_site_fract_x
_atom_site_fract_y
_atom_site_fract_z
Si Si1 0.623046 0.177847 0.410391
Si Si2 0.184900 0.322100 0.331638
Si Si3 0.275452 0.671545 0.474872
Si Si4 0.527171 0.328642 0.688913
Si Si5 0.872126 0.178819 0.000129
Si Si6 0.917630 0.821776 0.169520
Si Si7 0.407944 0.325403 0.159419
Si Si8 0.036172 0.676566 0.222337
O O1 0.500000 0.236216 0.500000
O O2 0.473770 0.223978 0.420438
O O3 0.857900 0.254265 0.320401
O O4 0.660792 0.000000 0.398224
O O5 0.169645 0.500000 0.345872
O O6 0.370838 0.259511 0.300289
O O7 0.246341 0.278267 0.258006
O O8 0.948484 0.253911 0.427461
O O9 0.305840 0.500000 0.482929
O O10 0.281622 0.672620 0.417042
O O11 0.438894 0.500000 0.727104
O O12 0.333834 0.221531 0.740933
O O13 0.621820 0.225887 0.087941
O O14 0.885195 0.000000 0.997034
O O15 0.000000 0.245021 0.000000
O O16 0.980246 0.240124 0.914583
O O17 0.038376 0.748371 0.170632
O O18 0.944237 0.000000 0.164802
O O19 0.476484 0.500000 0.139568
O O20 0.276311 0.294510 0.158702
O O21 0.985120 0.500000 0.236059
#
# Coordination Sequence:
#
# PCOD8061469 Si02
#       8
#     4   4   4   4   4   4   4   4
#     4  11  23  37  55  82 118 160 204 248 292 342
#     4   9  18  34  56  85 119 153 194 242 296 352
#     4  10  19  33  55  83 116 156 197 239 290 350
#     4  10  19  33  57  87 117 153 195 239 291 353
#     4  10  23  43  65  90 120 156 195 236 295 365
#     4  11  23  39  61  87 119 157 196 245 299 353
#     4  10  22  39  61  88 117 152 196 248 295 342
#     4  11  23  40  61  87 119 156 200 245 295 351
#
# _framework density 20.386102000000001
#
# number of rings (size 3 to 8) (size 9 to 14) (size 15 to 20)
#    0.000    1.750    1.250    3.000    0.000    6.250 
#    0.000    3.750    0.000    1.500    0.000    0.000 
#    0.000    0.000    0.000    0.000    0.000    0.000 
#
# Total GULP energy -396833.990182 kJ/mol
# GULP energy per Si atom -12401.062193 kJ/mol
# Density = 2.033970 g / cm^3
# Si number density = 20.386102 Si / 1000 Ang^3
#
#
#
# Elastic Constant Matrix: (Units=GPa)
#
#
# Indices 1 2 3 4 5 6 
#
# 1 127.3857 29.6080 46.1992 0.0000 3.6421 0.0000
# 2 29.6080 49.2536 21.4351 0.0000 4.1195 0.0000
# 3 46.1992 21.4351 106.6307 0.0000 4.6349 0.0000
# 4 0.0000 0.0000 0.0000 26.1084 0.0000 4.9169
# 5 3.6421 4.1195 4.6349 0.0000 37.7432 0.0000
# 6 0.0000 0.0000 0.0000 4.9169 0.0000 14.0740
#
#
#
# Elastic Compliance Matrix: (Units=1/GPa)
#
#
# Indices 1 2 3 4 5 6 
#
# 1 0.010185 -0.004601 -0.003486 0.000000 -0.000053 0.000000
# 2 -0.004601 0.024463 -0.002842 0.000000 -0.001877 0.000000
# 3 -0.003486 -0.002842 0.011493 0.000000 -0.000765 0.000000
# 4 0.000000 0.000000 0.000000 0.040999 0.000000 -0.014324
# 5 -0.000053 -0.001877 -0.000765 0.000000 0.026799 0.000000
# 6 0.000000 0.000000 0.000000 -0.014324 0.000000 0.076057
#
#
# Mechanical properties :
#
#
# Convention : Reuss Voigt Hill
#
# Bulk Modulus (GPa) = 41.18189 53.08384 47.13287
# Shear Modulus (GPa) = 22.73245 27.98696 25.35970
#
# Velocity S-wave (km/s) = 3.34293 3.70921 3.53082
# Velocity P-wave (km/s) = 5.92832 6.66634 6.30813
#
# Compressibility (1/GPa) = 0.02428252
#
# Stress axis : x y z
#
# Youngs Moduli (GPa) = 98.18058 40.87779 87.00949
#
# Poissons Ratio (x) = 0.18809 0.30329
# Poissons Ratio (y) = 0.45177 0.24732
# Poissons Ratio (z) = 0.34222 0.11619
#
# Static dielectric constant tensor:
#      x y z
#    x 3.874040 0.000000 0.178790 
#    y 0.000000 3.424940 0.000000 
#    z 0.178790 0.000000 3.723010 
# 
# 
# High freq. dielectric constant tensor:
#      x y z
#    x 1.809980 0.000000 0.005580 
#    y 0.000000 1.772800 0.000000 
#    z 0.005580 0.000000 1.798680 
# 
# From -- ./inp_files/58276.got.cif
#   From: 2010.06.25/outbox.cif.g09.slc.cpg/sg10_30_cif.got.tgz:58276.got - 2010.06.27 22:07:45.
