data_PCOD8061844
_publ_section_title
;
Structure prediction by ZEFSAII (Michael W. Deem and Ramdas Pophale) SiO2 
 PCOD8061844
Probable space group: P 2/M
;
_chemical_formula_sum "Si O2"
_cell_formula_units_Z 22
_cell_length_a 9.079519
_cell_length_b 13.404275
_cell_length_c 11.724147
_cell_angle_alpha 90.000000
_cell_angle_beta 65.454987
_cell_angle_gamma 90.000000
_cell_volume 1297.940196
_symmetry_space_group_name_H-M "P 2/M"
_symmetry_group_IT_number 10
_symmetry_cell_setting 'monoclinic'
loop_
_space_group_symop_operation_xyz
x,y,z
-x,y,-z
-x,-y,-z
x,-y,z
loop_
_atom_site_type_symbol
_atom_site_label
_atom_site_fract_x
_atom_site_fract_y
_atom_site_fract_z
Si Si1 0.343255 0.279988 0.622089
Si Si2 0.518505 0.382274 0.766876
Si Si3 0.847845 0.886533 0.197436
Si Si4 0.174059 0.382864 0.476259
Si Si5 0.214040 0.885650 0.043561
Si Si6 0.500000 0.743728 0.000000
O O1 0.500000 0.249278 0.500000
O O2 0.385401 0.346707 0.718383
O O3 0.255535 0.178303 0.682937
O O4 0.222469 0.343571 0.584189
O O5 0.498500 0.500000 0.792794
O O6 0.696567 0.354324 0.662877
O O7 0.487506 0.326454 0.894602
O O8 0.035027 0.852712 0.140153
O O9 0.834266 0.000000 0.243125
O O10 0.772466 0.874860 0.096485
O O11 0.161972 0.500000 0.492781
O O12 0.000000 0.336448 0.500000
O O13 0.342626 0.813613 0.062436
O O14 0.248838 0.000000 0.068576
#
# Coordination Sequence:
#
# PCOD8061844 Si02
#       6
#     4   4   4   4   4   2
#     4  10  19  34  56  77 103 142 174 208 254 314
#     4  10  21  35  50  77 109 140 172 211 261 305
#     4   9  18  35  54  76 104 135 172 216 260 306
#     4   9  19  35  55  76 100 135 178 218 253 304
#     4   9  19  34  54  76 103 136 175 215 255 308
#     4  12  20  32  56  80 106 138 170 218 260 304
#
# _framework density 16.949932
#
# number of rings (size 3 to 8) (size 9 to 14) (size 15 to 20)
#    0.000    2.364    1.818    2.182    2.545    2.545 
#    0.000    0.000    0.000    1.636    0.000    0.000 
#    0.000    0.000    0.000    0.000    0.000    0.000 
#
# Total GULP energy -272809.839714 kJ/mol
# GULP energy per Si atom -12400.447260 kJ/mol
# Density = 1.691135 g / cm^3
# Si number density = 16.949932 Si / 1000 Ang^3
#
#
#
# Elastic Constant Matrix: (Units=GPa)
#
#
# Indices 1 2 3 4 5 6 
#
# 1 115.0443 40.9959 45.5037 0.0000 5.8417 0.0000
# 2 40.9959 65.4840 42.0644 0.0000 1.1863 0.0000
# 3 45.5037 42.0644 86.7866 0.0000 10.9531 0.0000
# 4 0.0000 0.0000 0.0000 28.2472 0.0000 2.8389
# 5 5.8417 1.1863 10.9531 0.0000 18.6456 0.0000
# 6 0.0000 0.0000 0.0000 2.8389 0.0000 22.9749
#
#
#
# Elastic Compliance Matrix: (Units=1/GPa)
#
#
# Indices 1 2 3 4 5 6 
#
# 1 0.012044 -0.005178 -0.003640 0.000000 -0.001305 0.000000
# 2 -0.005178 0.024896 -0.010106 0.000000 0.005975 0.000000
# 3 -0.003640 -0.010106 0.019554 0.000000 -0.009703 0.000000
# 4 0.000000 0.000000 0.000000 0.035847 0.000000 -0.004429
# 5 -0.001305 0.005975 -0.009703 0.000000 0.059361 0.000000
# 6 0.000000 0.000000 0.000000 -0.004429 0.000000 0.044073
#
#
# Mechanical properties :
#
#
# Convention : Reuss Voigt Hill
#
# Bulk Modulus (GPa) = 53.63262 58.27143 55.95202
# Shear Modulus (GPa) = 20.84745 23.22360 22.03553
#
# Velocity S-wave (km/s) = 3.51086 3.70554 3.60951
# Velocity P-wave (km/s) = 6.93868 7.26369 7.10305
#
# Compressibility (1/GPa) = 0.01864537
#
# Stress axis : x y z
#
# Youngs Moduli (GPa) = 83.03220 40.16731 51.14030
#
# Poissons Ratio (x) = 0.20798 0.18616
# Poissons Ratio (y) = 0.42992 0.51682
# Poissons Ratio (z) = 0.30226 0.40593
#
# Static dielectric constant tensor:
#      x y z
#    x 3.356350 0.000000 -0.043340 
#    y 0.000000 3.098130 0.000000 
#    z -0.043340 0.000000 3.036780 
# 
# 
# High freq. dielectric constant tensor:
#      x y z
#    x 1.661610 0.000000 -0.001410 
#    y 0.000000 1.652100 0.000000 
#    z -0.001410 0.000000 1.644230 
# 
# From -- ./inp_files/18781.got.cif
#   From: 2010.06.25/outbox.cif.g09.slc.cpg/sg10_10_cif.got.tgz:18781.got - 2010.06.27 22:07:45.
