data_PCOD8061757
_publ_section_title
;
Structure prediction by ZEFSAII (Michael W. Deem and Ramdas Pophale) SiO2 
 PCOD8061757
Probable space group: P 2/M
;
_chemical_formula_sum "Si O2"
_cell_formula_units_Z 28
_cell_length_a 19.081450
_cell_length_b 8.926925
_cell_length_c 14.166781
_cell_angle_alpha 90.000000
_cell_angle_beta 146.664006
_cell_angle_gamma 90.000000
_cell_volume 1326.141586
_symmetry_space_group_name_H-M "P 2/M"
_symmetry_group_IT_number 10
_symmetry_cell_setting 'monoclinic'
loop_
_space_group_symop_operation_xyz
x,y,z
-x,y,-z
-x,-y,-z
x,-y,z
loop_
_atom_site_type_symbol
_atom_site_label
_atom_site_fract_x
_atom_site_fract_y
_atom_site_fract_z
Si Si1 0.721586 0.824790 0.109429
Si Si2 0.525980 0.676638 0.134918
Si Si3 0.677538 0.823388 0.456003
Si Si4 0.119330 0.669712 0.566513
Si Si5 0.526134 0.673770 0.637513
Si Si6 0.199319 0.674098 0.978046
Si Si7 0.923026 0.672324 0.696561
O O1 0.769871 0.775921 0.267379
O O2 0.817348 0.775289 0.134451
O O3 0.695117 0.000000 0.078663
O O4 0.592915 0.734840 0.937215
O O5 0.540758 0.500000 0.157483
O O6 0.650452 0.751407 0.321766
O O7 0.500000 0.734167 0.000000
O O8 0.574926 0.767454 0.416075
O O9 0.822331 0.771214 0.643574
O O10 0.670276 0.000000 0.442528
O O11 0.172416 0.500000 0.629107
O O12 0.083417 0.716899 0.420944
O O13 0.000000 0.689256 0.500000
O O14 0.500000 0.710787 0.500000
O O15 0.503992 0.500000 0.636728
O O16 0.673665 0.719701 0.821822
O O17 0.201472 0.500000 0.949368
O O18 0.070146 0.703517 0.894267
O O19 0.886633 0.500000 0.672594
#
# Coordination Sequence:
#
# PCOD8061757 Si02
#       7
#     4   4   4   4   4   4   4
#     4  12  23  33  52  84 121 159 202 256 313 362
#     4  11  23  39  59  82 116 166 216 259 303 363
#     4  12  25  40  61  93 130 166 202 257 324 380
#     4  10  19  34  54  79 115 166 220 260 301 359
#     4  10  22  43  73 101 122 155 207 264 319 380
#     4  10  20  39  65  89 118 158 205 254 304 367
#     4  10  21  38  61  87 120 168 214 256 306 365
#
# _framework density 21.113886000000001
#
# number of rings (size 3 to 8) (size 9 to 14) (size 15 to 20)
#    0.000    1.286    2.857    3.857    0.000    6.286 
#    0.000    0.714    0.000    4.286    0.000    0.000 
#    0.000    0.000    0.000    0.000    0.000    0.000 
#
# Total GULP energy -347168.064628 kJ/mol
# GULP energy per Si atom -12398.859451 kJ/mol
# Density = 2.106583 g / cm^3
# Si number density = 21.113886 Si / 1000 Ang^3
#
#
#
# Elastic Constant Matrix: (Units=GPa)
#
#
# Indices 1 2 3 4 5 6 
#
# 1 81.1805 45.5923 53.7036 0.0000 20.7229 0.0000
# 2 45.5923 94.9930 45.5844 0.0000 13.8658 0.0000
# 3 53.7036 45.5844 109.1982 0.0000 22.3640 0.0000
# 4 0.0000 0.0000 0.0000 9.3160 0.0000 1.9901
# 5 20.7229 13.8658 22.3640 0.0000 38.3785 0.0000
# 6 0.0000 0.0000 0.0000 1.9901 0.0000 15.4712
#
#
#
# Elastic Compliance Matrix: (Units=1/GPa)
#
#
# Indices 1 2 3 4 5 6 
#
# 1 0.021918 -0.006361 -0.007007 0.000000 -0.005454 0.000000
# 2 -0.006361 0.015116 -0.003142 0.000000 -0.000196 0.000000
# 3 -0.007007 -0.003142 0.014657 0.000000 -0.003622 0.000000
# 4 0.000000 0.000000 0.000000 0.110375 0.000000 -0.014198
# 5 -0.005454 -0.000196 -0.003622 0.000000 0.031183 0.000000
# 6 0.000000 0.000000 0.000000 -0.014198 0.000000 0.066463
#
#
# Mechanical properties :
#
#
# Convention : Reuss Voigt Hill
#
# Bulk Modulus (GPa) = 53.55666 63.90361 58.73013
# Shear Modulus (GPa) = 16.72487 21.99923 19.36205
#
# Velocity S-wave (km/s) = 2.81753 3.23140 3.03153
# Velocity P-wave (km/s) = 6.00044 6.65240 6.33481
#
# Compressibility (1/GPa) = 0.01867182
#
# Stress axis : x y z
#
# Youngs Moduli (GPa) = 45.62386 66.15319 68.22639
#
# Poissons Ratio (x) = 0.42082 0.47806
# Poissons Ratio (y) = 0.29023 0.21435
# Poissons Ratio (z) = 0.31969 0.20783
#
# Static dielectric constant tensor:
#      x y z
#    x 3.741000 0.000000 0.307030 
#    y 0.000000 3.545270 0.000000 
#    z 0.307030 0.000000 4.065260 
# 
# 
# High freq. dielectric constant tensor:
#      x y z
#    x 1.817140 0.000000 0.029150 
#    y 0.000000 1.806480 0.000000 
#    z 0.029150 0.000000 1.828900 
# 
# From -- ./inp_files/70281.got.cif
#   From: 2010.06.25/outbox.cif.g09.slc.cpg/sg10_36_cif.got.tgz:70281.got - 2010.06.27 22:07:45.
