data_PCOD8061534
_publ_section_title
;
Structure prediction by ZEFSAII (Michael W. Deem and Ramdas Pophale) SiO2 
 PCOD8061534
Probable space group: P 2/M
;
_chemical_formula_sum "Si O2"
_cell_formula_units_Z 32
_cell_length_a 18.188885
_cell_length_b 8.830925
_cell_length_c 25.097580
_cell_angle_alpha 90.000000
_cell_angle_beta 24.667890
_cell_angle_gamma 90.000000
_cell_volume 1682.490865
_symmetry_space_group_name_H-M "P 2/M"
_symmetry_group_IT_number 10
_symmetry_cell_setting 'monoclinic'
loop_
_space_group_symop_operation_xyz
x,y,z
-x,y,-z
-x,-y,-z
x,-y,z
loop_
_atom_site_type_symbol
_atom_site_label
_atom_site_fract_x
_atom_site_fract_y
_atom_site_fract_z
Si Si1 0.593640 0.820635 0.304989
Si Si2 0.624198 0.821313 0.063033
Si Si3 0.095931 0.675342 0.518589
Si Si4 0.194489 0.177427 0.561352
Si Si5 0.255640 0.176641 0.903070
Si Si6 0.971742 0.678309 0.798111
Si Si7 0.114327 0.822897 0.808128
Si Si8 0.733467 0.674394 0.705327
O O1 0.392491 0.773276 0.446681
O O2 0.666642 0.747014 0.201687
O O3 0.709732 0.762801 0.278449
O O4 0.615604 0.000000 0.286826
O O5 0.645675 0.759471 0.109496
O O6 0.433171 0.774344 0.167191
O O7 0.649411 0.000000 0.043341
O O8 0.776507 0.748121 0.926882
O O9 0.127208 0.500000 0.512976
O O10 0.162835 0.785016 0.520598
O O11 0.203816 0.720198 0.394921
O O12 0.889062 0.705135 0.644819
O O13 0.060654 0.273411 0.684530
O O14 0.165124 0.000000 0.590329
O O15 0.293436 0.000000 0.875219
O O16 0.047615 0.209552 0.045122
O O17 0.955622 0.500000 0.811307
O O18 0.091802 0.734914 0.767846
O O19 0.124732 0.000000 0.786955
O O20 0.677231 0.500000 0.743452
#
# Coordination Sequence:
#
# PCOD8061534 Si02
#       8
#     4   4   4   4   4   4   4   4
#     4   9  17  29  50  79 107 136 170 213 267 319
#     4  10  19  33  56  83 108 136 177 224 265 309
#     4   9  19  36  56  81 115 150 176 204 252 311
#     4  11  22  36  54  77 105 138 182 229 268 309
#     4   8  14  26  48  79 109 134 163 205 259 315
#     4  11  23  39  55  71 100 141 181 222 271 323
#     4   9  17  32  54  78 104 135 174 218 261 311
#     4   9  18  34  57  84 115 147 175 204 249 314
#
# _framework density 19.019421000000001
#
# number of rings (size 3 to 8) (size 9 to 14) (size 15 to 20)
#    0.000    2.500    0.000    4.500    0.000    4.000 
#    0.000    5.625    0.000   11.250    0.000    0.000 
#    0.000    0.000    0.000    0.000    0.000    0.000 
#
# Total GULP energy -396798.170815 kJ/mol
# GULP energy per Si atom -12399.942838 kJ/mol
# Density = 1.897613 g / cm^3
# Si number density = 19.019421 Si / 1000 Ang^3
#
#
#
# Elastic Constant Matrix: (Units=GPa)
#
#
# Indices 1 2 3 4 5 6 
#
# 1 53.5181 24.4170 29.4788 0.0000 -18.8424 0.0000
# 2 24.4170 69.7056 34.2064 0.0000 -7.3545 0.0000
# 3 29.4788 34.2064 88.9587 0.0000 -16.6717 0.0000
# 4 0.0000 0.0000 0.0000 22.2551 0.0000 2.4696
# 5 -18.8424 -7.3545 -16.6717 0.0000 31.6539 0.0000
# 6 0.0000 0.0000 0.0000 2.4696 0.0000 24.6622
#
#
#
# Elastic Compliance Matrix: (Units=1/GPa)
#
#
# Indices 1 2 3 4 5 6 
#
# 1 0.028814 -0.006444 -0.004589 0.000000 0.013237 0.000000
# 2 -0.006444 0.019134 -0.005667 0.000000 -0.002375 0.000000
# 3 -0.004589 -0.005667 0.015736 0.000000 0.004239 0.000000
# 4 0.000000 0.000000 0.000000 0.045438 0.000000 -0.004550
# 5 0.013237 -0.002375 0.004239 0.000000 0.041152 0.000000
# 6 0.000000 0.000000 0.000000 -0.004550 0.000000 0.041004
#
#
# Mechanical properties :
#
#
# Convention : Reuss Voigt Hill
#
# Bulk Modulus (GPa) = 33.02325 43.15408 38.08867
# Shear Modulus (GPa) = 21.29721 23.98627 22.64174
#
# Velocity S-wave (km/s) = 3.34991 3.55511 3.45404
# Velocity P-wave (km/s) = 5.68886 6.29210 5.99807
#
# Compressibility (1/GPa) = 0.03028169
#
# Stress axis : x y z
#
# Youngs Moduli (GPa) = 34.70548 52.26366 63.55054
#
# Poissons Ratio (x) = 0.33680 0.29166
# Poissons Ratio (y) = 0.22365 0.36014
# Poissons Ratio (z) = 0.15928 0.29618
#
# Static dielectric constant tensor:
#      x y z
#    x 3.528610 0.000000 -0.115740 
#    y 0.000000 3.155730 0.000000 
#    z -0.115740 0.000000 3.498210 
# 
# 
# High freq. dielectric constant tensor:
#      x y z
#    x 1.735300 0.000000 -0.009430 
#    y 0.000000 1.711490 0.000000 
#    z -0.009430 0.000000 1.741320 
# 
# From -- ./inp_files/89932.got.cif
#   From: 2010.06.25/outbox.cif.g09.slc.cpg/sg10_45_cif.got.tgz:89932.got - 2010.06.27 22:07:45.
