data_PCOD8061387
_publ_section_title
;
Structure prediction by ZEFSAII (Michael W. Deem and Ramdas Pophale) SiO2 
 PCOD8061387
Probable space group: P 2/M
;
_chemical_formula_sum "Si O2"
_cell_formula_units_Z 28
_cell_length_a 11.758545
_cell_length_b 8.731414
_cell_length_c 15.339447
_cell_angle_alpha 90.000000
_cell_angle_beta 64.365561
_cell_angle_gamma 90.000000
_cell_volume 1419.870046
_symmetry_space_group_name_H-M "P 2/M"
_symmetry_group_IT_number 10
_symmetry_cell_setting 'monoclinic'
loop_
_space_group_symop_operation_xyz
x,y,z
-x,y,-z
-x,-y,-z
x,-y,z
loop_
_atom_site_type_symbol
_atom_site_label
_atom_site_fract_x
_atom_site_fract_y
_atom_site_fract_z
Si Si1 0.638242 0.817634 0.975404
Si Si2 0.528299 0.818572 0.361392
Si Si3 0.950065 0.180567 0.107249
Si Si4 0.025704 0.680909 0.589503
Si Si5 0.293777 0.181255 0.543440
Si Si6 0.880146 0.181846 0.792220
Si Si7 0.676776 0.819133 0.154065
O O1 0.739591 0.766248 0.868783
O O2 0.637071 0.000000 0.979745
O O3 0.500000 0.752438 0.000000
O O4 0.674469 0.747612 0.058118
O O5 0.633998 0.758920 0.394257
O O6 0.385721 0.769788 0.432591
O O7 0.561773 0.758835 0.252926
O O8 0.536727 0.000000 0.363877
O O9 0.803812 0.224563 0.163488
O O10 0.023425 0.246466 0.166459
O O11 0.974320 0.000000 0.097328
O O12 0.000000 0.251906 0.000000
O O13 0.021770 0.500000 0.593904
O O14 0.160879 0.736372 0.578444
O O15 0.000000 0.741290 0.500000
O O16 0.914530 0.744585 0.688190
O O17 0.268725 0.000000 0.554277
O O18 0.889559 0.000000 0.779549
O O19 0.667422 0.000000 0.146099
#
# Coordination Sequence:
#
# PCOD8061387 Si02
#       7
#     4   4   4   4   4   4   4
#     4   9  17  27  41  70 109 136 160 200 250 305
#     4   8  15  27  49  81 113 138 162 209 270 319
#     4   9  14  23  44  76 107 132 162 201 245 297
#     4  11  25  41  54  71 101 142 185 227 273 318
#     4   9  17  33  55  81 107 132 172 220 267 318
#     4  10  19  33  55  80 102 131 173 218 261 310
#     4   9  14  22  38  66 105 140 162 190 244 304
#
# _framework density 19.720116000000001
#
# number of rings (size 3 to 8) (size 9 to 14) (size 15 to 20)
#    0.000    2.714    1.429    2.143    0.000    4.571 
#    0.000    4.286    0.000    0.857    0.000    1.000 
#    0.000    0.000    0.000    0.000    0.000    0.000 
#
# Total GULP energy -346983.480063 kJ/mol
# GULP energy per Si atom -12392.267145 kJ/mol
# Density = 1.967523 g / cm^3
# Si number density = 19.720116 Si / 1000 Ang^3
#
#
#
# Elastic Constant Matrix: (Units=GPa)
#
#
# Indices 1 2 3 4 5 6 
#
# 1 107.5323 15.9385 62.1573 0.0000 -12.6894 0.0000
# 2 15.9385 21.6710 22.6667 0.0000 -0.9584 0.0000
# 3 62.1573 22.6667 178.4310 0.0000 -18.0019 0.0000
# 4 0.0000 0.0000 0.0000 8.5443 0.0000 3.6911
# 5 -12.6894 -0.9584 -18.0019 0.0000 32.9118 0.0000
# 6 0.0000 0.0000 0.0000 3.6911 0.0000 7.5309
#
#
#
# Elastic Compliance Matrix: (Units=1/GPa)
#
#
# Indices 1 2 3 4 5 6 
#
# 1 0.012367 -0.005490 -0.003329 0.000000 0.002787 0.000000
# 2 -0.005490 0.055813 -0.005533 0.000000 -0.003518 0.000000
# 3 -0.003329 -0.005533 0.007749 0.000000 0.002794 0.000000
# 4 0.000000 0.000000 0.000000 0.148475 0.000000 -0.072772
# 5 0.002787 -0.003518 0.002794 0.000000 0.032884 0.000000
# 6 0.000000 0.000000 0.000000 -0.072772 0.000000 0.168455
#
#
# Mechanical properties :
#
#
# Convention : Reuss Voigt Hill
#
# Bulk Modulus (GPa) = 21.17507 56.57326 38.87416
# Shear Modulus (GPa) = 10.63404 23.58886 17.11145
#
# Velocity S-wave (km/s) = 2.32469 3.46234 2.94890
# Velocity P-wave (km/s) = 4.23871 6.68836 5.59914
#
# Compressibility (1/GPa) = 0.04722535
#
# Stress axis : x y z
#
# Youngs Moduli (GPa) = 80.86285 17.91685 129.05042
#
# Poissons Ratio (x) = 0.09836 0.42966
# Poissons Ratio (y) = 0.44391 0.71399
# Poissons Ratio (z) = 0.26923 0.09913
#
# Static dielectric constant tensor:
#      x y z
#    x 3.658470 0.000000 -0.066230 
#    y 0.000000 2.845070 0.000000 
#    z -0.066230 0.000000 4.075370 
# 
# 
# High freq. dielectric constant tensor:
#      x y z
#    x 1.766680 0.000000 -0.010490 
#    y 0.000000 1.687890 0.000000 
#    z -0.010490 0.000000 1.789890 
# 
# From -- ./inp_files/63385.got.cif
#   From: 2010.06.25/outbox.cif.g09.slc.cpg/sg10_32_cif.got.tgz:63385.got - 2010.06.27 22:07:45.
