data_PCOD8061016
_publ_section_title
;
Structure prediction by ZEFSAII (Michael W. Deem and Ramdas Pophale) SiO2 
 PCOD8061016
Probable space group: P 2/M
;
_chemical_formula_sum "Si O2"
_cell_formula_units_Z 32
_cell_length_a 16.055273
_cell_length_b 9.104893
_cell_length_c 24.489924
_cell_angle_alpha 90.000000
_cell_angle_beta 153.520168
_cell_angle_gamma 90.000000
_cell_volume 1596.249114
_symmetry_space_group_name_H-M "P 2/M"
_symmetry_group_IT_number 10
_symmetry_cell_setting 'monoclinic'
loop_
_space_group_symop_operation_xyz
x,y,z
-x,y,-z
-x,-y,-z
x,-y,z
loop_
_atom_site_type_symbol
_atom_site_label
_atom_site_fract_x
_atom_site_fract_y
_atom_site_fract_z
Si Si1 0.604017 0.671538 0.689402
Si Si2 0.725575 0.829007 0.981529
Si Si3 0.452888 0.673205 0.219421
Si Si4 0.445769 0.173277 0.909224
Si Si5 0.832576 0.830489 0.439535
Si Si6 0.231271 0.327885 0.405434
Si Si7 0.976211 0.831240 0.335094
Si Si8 0.153135 0.170589 0.251412
O O1 0.648501 0.500000 0.709332
O O2 0.595116 0.719807 0.747117
O O3 0.409389 0.712368 0.546493
O O4 0.770337 0.763859 0.760187
O O5 0.702286 0.741425 0.911369
O O6 0.581313 0.763730 0.941743
O O7 0.688413 0.000000 0.947989
O O8 0.932469 0.802030 0.125427
O O9 0.456310 0.500000 0.214764
O O10 0.653628 0.735128 0.319835
O O11 0.232622 0.216215 0.770426
O O12 0.475709 0.000000 0.928341
O O13 0.500000 0.240649 0.000000
O O14 0.000000 0.773797 0.500000
O O15 0.886981 0.806810 0.534078
O O16 0.787550 0.000000 0.399936
O O17 0.209244 0.500000 0.383572
O O18 0.255644 0.252693 0.361151
O O19 0.045842 0.267163 0.325924
O O20 0.976592 0.000000 0.315561
O O21 0.203522 0.000000 0.284076
#
# Coordination Sequence:
#
# PCOD8061016 Si02
#       8
#     4   4   4   4   4   4   4   4
#     4  10  23  42  61  85 120 161 198 241 305 364
#     4  10  22  41  62  87 121 157 199 250 305 360
#     4  11  23  40  61  86 120 160 203 246 295 359
#     4   9  17  33  58  85 117 156 195 240 295 351
#     4  10  20  35  57  85 117 155 199 245 296 350
#     4  11  22  39  61  86 123 161 195 241 302 364
#     4  10  19  32  56  87 115 150 197 242 288 346
#     4  11  24  40  63  92 117 150 201 256 304 355
#
# _framework density 20.046994000000002
#
# number of rings (size 3 to 8) (size 9 to 14) (size 15 to 20)
#    0.000    1.750    1.250    3.000    0.000    9.250 
#    0.000    4.375    0.000    1.500    0.000    0.000 
#    0.000    0.000    0.000    0.000    0.000    0.000 
#
# Total GULP energy -396975.683143 kJ/mol
# GULP energy per Si atom -12405.490098 kJ/mol
# Density = 2.000137 g / cm^3
# Si number density = 20.046994 Si / 1000 Ang^3
#
#
#
# Elastic Constant Matrix: (Units=GPa)
#
#
# Indices 1 2 3 4 5 6 
#
# 1 128.1069 47.2356 29.8502 0.0000 -1.2158 0.0000
# 2 47.2356 65.6859 33.6253 0.0000 -2.4934 0.0000
# 3 29.8502 33.6253 67.3976 0.0000 -6.9909 0.0000
# 4 0.0000 0.0000 0.0000 17.0361 0.0000 -6.5216
# 5 -1.2158 -2.4934 -6.9909 0.0000 37.7642 0.0000
# 6 0.0000 0.0000 0.0000 -6.5216 0.0000 31.5860
#
#
#
# Elastic Compliance Matrix: (Units=1/GPa)
#
#
# Indices 1 2 3 4 5 6 
#
# 1 0.010700 -0.007068 -0.001249 0.000000 -0.000353 0.000000
# 2 -0.007068 0.025126 -0.009438 0.000000 -0.000316 0.000000
# 3 -0.001249 -0.009438 0.020423 0.000000 0.003117 0.000000
# 4 0.000000 0.000000 0.000000 0.063736 0.000000 0.013160
# 5 -0.000353 -0.000316 0.003117 0.000000 0.027025 0.000000
# 6 0.000000 0.000000 0.000000 0.013160 0.000000 0.034377
#
#
# Mechanical properties :
#
#
# Convention : Reuss Voigt Hill
#
# Bulk Modulus (GPa) = 48.22094 53.62361 50.92228
# Shear Modulus (GPa) = 22.34033 27.30922 24.82478
#
# Velocity S-wave (km/s) = 3.34188 3.69489 3.52281
# Velocity P-wave (km/s) = 6.24476 6.70894 6.48101
#
# Compressibility (1/GPa) = 0.02073788
#
# Stress axis : x y z
#
# Youngs Moduli (GPa) = 93.45820 39.79883 48.96541
#
# Poissons Ratio (x) = 0.28132 0.06116
# Poissons Ratio (y) = 0.66061 0.46213
# Poissons Ratio (z) = 0.11674 0.37562
#
# Static dielectric constant tensor:
#      x y z
#    x 3.784100 0.000000 -0.036990 
#    y 0.000000 3.425220 0.000000 
#    z -0.036990 0.000000 3.596540 
# 
# 
# High freq. dielectric constant tensor:
#      x y z
#    x 1.795480 0.000000 -0.001700 
#    y 0.000000 1.761030 0.000000 
#    z -0.001700 0.000000 1.786100 
# 
# From -- ./inp_files/89619.got.cif
#   From: 2010.06.25/outbox.cif.g09.slc.cpg/sg10_45_cif.got.tgz:89619.got - 2010.06.27 22:07:45.
