data_PCOD8061589
_publ_section_title
;
Structure prediction by ZEFSAII (Michael W. Deem and Ramdas Pophale) SiO2 
 PCOD8061589
Probable space group: P 2/M
;
_chemical_formula_sum "Si O2"
_cell_formula_units_Z 32
_cell_length_a 27.222539
_cell_length_b 14.083961
_cell_length_c 9.472358
_cell_angle_alpha 90.000000
_cell_angle_beta 150.736902
_cell_angle_gamma 90.000000
_cell_volume 1775.256537
_symmetry_space_group_name_H-M "P 2/M"
_symmetry_group_IT_number 10
_symmetry_cell_setting 'monoclinic'
loop_
_space_group_symop_operation_xyz
x,y,z
-x,y,-z
-x,-y,-z
x,-y,z
loop_
_atom_site_type_symbol
_atom_site_label
_atom_site_fract_x
_atom_site_fract_y
_atom_site_fract_z
Si Si1 0.602021 0.892802 0.820535
Si Si2 0.235200 0.891057 0.012073
Si Si3 0.633002 0.768265 0.461820
Si Si4 0.691871 0.391575 0.116180
Si Si5 0.920893 0.609019 0.679199
Si Si6 0.596750 0.763878 0.055519
Si Si7 0.715154 0.610825 0.852584
Si Si8 0.091107 0.721548 0.622777
O O1 0.500000 0.845863 0.500000
O O2 0.691786 0.884450 0.936869
O O3 0.576660 0.000000 0.798544
O O4 0.640218 0.842558 0.058512
O O5 0.293848 0.849320 0.294279
O O6 0.202903 0.000000 0.961492
O O7 0.138442 0.827232 0.732822
O O8 0.655236 0.763797 0.350555
O O9 0.650030 0.665258 0.573551
O O10 0.518152 0.791745 0.205941
O O11 0.661767 0.500000 0.060857
O O12 0.807623 0.372706 0.451028
O O13 0.614690 0.336430 0.023165
O O14 0.677567 0.361953 0.916030
O O15 0.927780 0.500000 0.640067
O O16 0.948388 0.684793 0.627235
O O17 0.000000 0.627691 0.000000
O O18 0.707065 0.500000 0.801733
O O19 0.829692 0.644351 0.121867
O O20 0.000000 0.726589 0.500000
#
# Coordination Sequence:
#
# PCOD8061589 Si02
#       8
#     4   4   4   4   4   4   4   4
#     4  10  19  33  57  80  95 128 175 216 260 308
#     4  10  21  39  58  76 104 137 178 222 260 315
#     4  10  22  34  49  78 108 144 171 210 273 318
#     4   9  19  34  53  76 103 143 185 217 253 304
#     4   9  18  33  54  80 108 137 173 217 262 306
#     4  11  21  33  51  76 112 138 171 220 266 314
#     4   9  19  36  54  74 105 141 182 221 253 303
#     4  10  20  34  55  81 105 136 175 212 264 316
#
# _framework density 18.025563999999999
#
# number of rings (size 3 to 8) (size 9 to 14) (size 15 to 20)
#    0.000    2.250    1.250    3.375    0.000    4.750 
#    0.000    5.000    0.000    0.375    0.000    0.000 
#    0.000    0.000    0.000    0.000    0.000    0.000 
#
# Total GULP energy -396742.235815 kJ/mol
# GULP energy per Si atom -12398.194869 kJ/mol
# Density = 1.798454 g / cm^3
# Si number density = 18.025564 Si / 1000 Ang^3
#
#
#
# Elastic Constant Matrix: (Units=GPa)
#
#
# Indices 1 2 3 4 5 6 
#
# 1 98.6835 51.7915 37.8486 0.0000 -13.6902 0.0000
# 2 51.7915 115.1956 41.1768 0.0000 -20.8898 0.0000
# 3 37.8486 41.1768 71.4011 0.0000 -25.5994 0.0000
# 4 0.0000 0.0000 0.0000 26.5478 0.0000 2.9436
# 5 -13.6902 -20.8898 -25.5994 0.0000 28.9774 0.0000
# 6 0.0000 0.0000 0.0000 2.9436 0.0000 14.2350
#
#
#
# Elastic Compliance Matrix: (Units=1/GPa)
#
#
# Indices 1 2 3 4 5 6 
#
# 1 0.014573 -0.004870 -0.005425 0.000000 -0.001418 0.000000
# 2 -0.004870 0.012794 -0.003388 0.000000 0.003929 0.000000
# 3 -0.005425 -0.003388 0.024940 0.000000 0.017027 0.000000
# 4 0.000000 0.000000 0.000000 0.038552 0.000000 -0.007972
# 5 -0.001418 0.003929 0.017027 0.000000 0.051714 0.000000
# 6 0.000000 0.000000 0.000000 -0.007972 0.000000 0.071898
#
#
# Mechanical properties :
#
#
# Convention : Reuss Voigt Hill
#
# Bulk Modulus (GPa) = 40.09503 60.76822 50.43163
# Shear Modulus (GPa) = 19.98796 24.24960 22.11878
#
# Velocity S-wave (km/s) = 3.33358 3.67180 3.50677
# Velocity P-wave (km/s) = 6.09169 7.19455 6.66597
#
# Compressibility (1/GPa) = 0.02494074
#
# Stress axis : x y z
#
# Youngs Moduli (GPa) = 68.61880 78.16136 40.09699
#
# Poissons Ratio (x) = 0.38065 0.21753
# Poissons Ratio (y) = 0.33418 0.13585
# Poissons Ratio (z) = 0.37226 0.26481
#
# Static dielectric constant tensor:
#      x y z
#    x 3.255610 0.000000 -0.118200 
#    y 0.000000 3.519430 0.000000 
#    z -0.118200 0.000000 3.348660 
# 
# 
# High freq. dielectric constant tensor:
#      x y z
#    x 1.690650 0.000000 -0.004610 
#    y 0.000000 1.699500 0.000000 
#    z -0.004610 0.000000 1.688190 
# 
# From -- ./inp_files/37739.got.cif
#   From: 2010.06.25/outbox.cif.g09.slc.cpg/sg10_19_cif.got.tgz:37739.got - 2010.06.27 22:07:45.
