data_PCOD8061754
_publ_section_title
;
Structure prediction by ZEFSAII (Michael W. Deem and Ramdas Pophale) SiO2 
 PCOD8061754
Probable space group: P 2/M
;
_chemical_formula_sum "Si O2"
_cell_formula_units_Z 32
_cell_length_a 24.317544
_cell_length_b 8.646596
_cell_length_c 18.902547
_cell_angle_alpha 90.000000
_cell_angle_beta 155.836357
_cell_angle_gamma 90.000000
_cell_volume 1626.948515
_symmetry_space_group_name_H-M "P 2/M"
_symmetry_group_IT_number 10
_symmetry_cell_setting 'monoclinic'
loop_
_space_group_symop_operation_xyz
x,y,z
-x,y,-z
-x,-y,-z
x,-y,z
loop_
_atom_site_type_symbol
_atom_site_label
_atom_site_fract_x
_atom_site_fract_y
_atom_site_fract_z
Si Si1 0.582653 0.814800 0.664172
Si Si2 0.362911 0.321161 0.015954
Si Si3 0.554590 0.819047 0.352639
Si Si4 0.835853 0.817990 0.625200
Si Si5 0.649952 0.827247 0.150224
Si Si6 0.120395 0.828366 0.802110
Si Si7 0.844736 0.679736 0.485047
Si Si8 0.125724 0.829474 0.975441
O O1 0.500000 0.753306 0.500000
O O2 0.507402 0.755279 0.646711
O O3 0.588492 0.000000 0.672993
O O4 0.735499 0.745645 0.836957
O O5 0.379843 0.500000 0.017015
O O6 0.491087 0.267557 0.211488
O O7 0.347683 0.223698 0.927596
O O8 0.229157 0.293732 0.903737
O O9 0.715814 0.787751 0.540228
O O10 0.523043 0.000000 0.307193
O O11 0.797361 0.739053 0.506071
O O12 0.980391 0.751897 0.824984
O O13 0.854590 0.000000 0.631903
O O14 0.729781 0.708160 0.292900
O O15 0.711223 0.000000 0.228500
O O16 0.500000 0.826137 0.000000
O O17 0.132431 0.837546 0.899646
O O18 0.974858 0.768497 0.608859
O O19 0.144506 0.000000 0.798273
O O20 0.877401 0.500000 0.528943
O O21 0.127580 0.000000 0.011733
#
# Coordination Sequence:
#
# PCOD8061754 Si02
#       8
#     4   4   4   4   4   4   4   4
#     4   9  16  28  51  82 112 143 182 231 283 329
#     4  12  24  36  55  83 111 140 181 234 285 330
#     4  10  19  34  54  79 108 145 191 234 277 334
#     4   9  18  32  53  77 106 148 194 232 273 333
#     4  11  24  41  58  76 104 147 192 230 278 339
#     4  10  19  36  59  80 107 146 187 226 273 331
#     4  11  22  36  55  82 114 142 181 233 284 331
#     4   8  14  28  50  76 106 140 179 223 273 325
#
# _framework density 19.668723
#
# number of rings (size 3 to 8) (size 9 to 14) (size 15 to 20)
#    0.000    2.000    1.250    4.500    0.000    5.000 
#    0.000    3.125    0.000    4.125    0.000    0.000 
#    0.000    3.250    0.000    0.000    0.000    0.000 
#
# Total GULP energy -396644.180415 kJ/mol
# GULP energy per Si atom -12395.130638 kJ/mol
# Density = 1.962396 g / cm^3
# Si number density = 19.668723 Si / 1000 Ang^3
#
#
#
# Elastic Constant Matrix: (Units=GPa)
#
#
# Indices 1 2 3 4 5 6 
#
# 1 54.2375 8.2317 58.3384 0.0000 13.8380 0.0000
# 2 8.2317 52.9503 22.4899 0.0000 3.4474 0.0000
# 3 58.3384 22.4899 147.4751 0.0000 3.8947 0.0000
# 4 0.0000 0.0000 0.0000 15.0658 0.0000 5.4069
# 5 13.8380 3.4474 3.8947 0.0000 28.6257 0.0000
# 6 0.0000 0.0000 0.0000 5.4069 0.0000 9.0720
#
#
#
# Elastic Compliance Matrix: (Units=1/GPa)
#
#
# Indices 1 2 3 4 5 6 
#
# 1 0.038782 0.001493 -0.015124 0.000000 -0.016870 0.000000
# 2 0.001493 0.020368 -0.003626 0.000000 -0.002681 0.000000
# 3 -0.015124 -0.003626 0.013159 0.000000 0.005957 0.000000
# 4 0.000000 0.000000 0.000000 0.084436 0.000000 -0.050323
# 5 -0.016870 -0.002681 0.005957 0.000000 0.042601 0.000000
# 6 0.000000 0.000000 0.000000 -0.050323 0.000000 0.140222
#
#
# Mechanical properties :
#
#
# Convention : Reuss Voigt Hill
#
# Bulk Modulus (GPa) = 26.45788 48.08700 37.27244
# Shear Modulus (GPa) = 12.93059 21.59289 17.26174
#
# Velocity S-wave (km/s) = 2.56680 3.31694 2.96569
# Velocity P-wave (km/s) = 4.71864 6.25868 5.54241
#
# Compressibility (1/GPa) = 0.03779592
#
# Stress axis : x y z
#
# Youngs Moduli (GPa) = 25.78510 49.09629 75.99340
#
# Poissons Ratio (x) = -0.07329 1.14929
# Poissons Ratio (y) = -0.03849 0.27554
# Poissons Ratio (z) = 0.38996 0.17801
#
# Static dielectric constant tensor:
#      x y z
#    x 3.420110 0.000000 0.244310 
#    y 0.000000 3.339800 0.000000 
#    z 0.244310 0.000000 3.934770 
# 
# 
# High freq. dielectric constant tensor:
#      x y z
#    x 1.749750 0.000000 0.019400 
#    y 0.000000 1.735150 0.000000 
#    z 0.019400 0.000000 1.780450 
# 
# From -- ./inp_files/87026.got.cif
#   From: 2010.06.25/outbox.cif.g09.slc.cpg/sg10_44_cif.got.tgz:87026.got - 2010.06.27 22:07:45.
