data_PCOD8061930
_publ_section_title
;
Structure prediction by ZEFSAII (Michael W. Deem and Ramdas Pophale) SiO2 
 PCOD8061930
Probable space group: P 2/M
;
_chemical_formula_sum "Si O2"
_cell_formula_units_Z 32
_cell_length_a 23.799535
_cell_length_b 9.027356
_cell_length_c 18.204492
_cell_angle_alpha 90.000000
_cell_angle_beta 26.325244
_cell_angle_gamma 90.000000
_cell_volume 1734.475075
_symmetry_space_group_name_H-M "P 2/M"
_symmetry_group_IT_number 10
_symmetry_cell_setting 'monoclinic'
loop_
_space_group_symop_operation_xyz
x,y,z
-x,y,-z
-x,-y,-z
x,-y,z
loop_
_atom_site_type_symbol
_atom_site_label
_atom_site_fract_x
_atom_site_fract_y
_atom_site_fract_z
Si Si1 0.218078 0.166014 0.564807
Si Si2 0.313132 0.829766 0.042872
Si Si3 0.489475 0.830685 0.302970
Si Si4 0.401028 0.324580 0.551524
Si Si5 0.355386 0.164243 0.152610
Si Si6 0.176411 0.672769 0.468579
Si Si7 0.975775 0.831797 0.612531
Si Si8 0.856044 0.824987 0.185847
O O1 0.369500 0.173097 0.389723
O O2 0.166050 0.275440 0.564444
O O3 0.162208 0.217053 0.708017
O O4 0.172404 0.000000 0.599304
O O5 0.336472 0.755941 0.095608
O O6 0.167407 0.812208 0.193912
O O7 0.356841 0.000000 0.998180
O O8 0.395391 0.760801 0.879990
O O9 0.468220 0.729275 0.398488
O O10 0.515733 0.000000 0.298331
O O11 0.500000 0.278899 0.500000
O O12 0.381661 0.500000 0.572081
O O13 0.258762 0.252505 0.726360
O O14 0.295578 0.257007 0.288003
O O15 0.291341 0.000000 0.225693
O O16 0.500000 0.148224 0.000000
O O17 0.194467 0.500000 0.446241
O O18 0.049081 0.717447 0.576894
O O19 0.000000 0.787365 0.500000
O O20 0.021982 0.000000 0.571414
O O21 0.841664 0.000000 0.188515
O O22 0.000000 0.770702 0.000000
#
# Coordination Sequence:
#
# PCOD8061930 Si02
#       8
#     4   4   4   4   4   4   4   4
#     4   9  18  35  58  81 109 141 176 222 275 326
#     4   9  17  32  55  81 102 131 178 227 275 320
#     4   9  18  35  60  86 108 135 181 236 278 314
#     4  10  21  37  57  84 121 160 189 217 271 346
#     4  10  19  34  57  79 101 133 176 223 268 319
#     4  12  24  35  50  76 111 144 180 220 266 322
#     4  10  19  36  58  74 100 142 187 228 269 321
#     4   9  19  38  64  91 114 141 187 242 286 325
#
# _framework density 18.449387000000002
#
# number of rings (size 3 to 8) (size 9 to 14) (size 15 to 20)
#    0.000    2.250    1.250    3.000    0.000    5.750 
#    2.250    1.250    0.000    0.000    0.000    0.000 
#    0.000    0.000    0.000    0.000    0.000    0.000 
#
# Total GULP energy -396670.956955 kJ/mol
# GULP energy per Si atom -12395.967405 kJ/mol
# Density = 1.840740 g / cm^3
# Si number density = 18.449387 Si / 1000 Ang^3
#
#
#
# Elastic Constant Matrix: (Units=GPa)
#
#
# Indices 1 2 3 4 5 6 
#
# 1 105.3463 47.9177 47.8787 0.0000 -2.1774 0.0000
# 2 47.9177 77.2839 32.6879 0.0000 0.1693 0.0000
# 3 47.8787 32.6879 136.2096 0.0000 -6.3065 0.0000
# 4 0.0000 0.0000 0.0000 10.7734 0.0000 -4.3606
# 5 -2.1774 0.1693 -6.3065 0.0000 23.2322 0.0000
# 6 0.0000 0.0000 0.0000 -4.3606 0.0000 8.3301
#
#
#
# Elastic Compliance Matrix: (Units=1/GPa)
#
#
# Indices 1 2 3 4 5 6 
#
# 1 0.014414 -0.007575 -0.003224 0.000000 0.000531 0.000000
# 2 -0.007575 0.018407 -0.001817 0.000000 -0.001337 0.000000
# 3 -0.003224 -0.001817 0.009011 0.000000 0.002157 0.000000
# 4 0.000000 0.000000 0.000000 0.117775 0.000000 0.061653
# 5 0.000531 -0.001337 0.002157 0.000000 0.043689 0.000000
# 6 0.000000 0.000000 0.000000 0.061653 0.000000 0.152320
#
#
# Mechanical properties :
#
#
# Convention : Reuss Voigt Hill
#
# Bulk Modulus (GPa) = 60.23808 63.97871 62.10840
# Shear Modulus (GPa) = 12.94060 21.15751 17.04906
#
# Velocity S-wave (km/s) = 2.65129 3.39010 3.04320
# Velocity P-wave (km/s) = 6.48797 7.07651 6.78862
#
# Compressibility (1/GPa) = 0.01660079
#
# Stress axis : x y z
#
# Youngs Moduli (GPa) = 69.37567 54.32706 110.97681
#
# Poissons Ratio (x) = 0.41150 0.35783
# Poissons Ratio (y) = 0.52549 0.20162
# Poissons Ratio (z) = 0.22369 0.09870
#
# Static dielectric constant tensor:
#      x y z
#    x 3.472160 0.000000 -0.010910 
#    y 0.000000 3.162290 0.000000 
#    z -0.010910 0.000000 3.508190 
# 
# 
# High freq. dielectric constant tensor:
#      x y z
#    x 1.714510 0.000000 -0.002920 
#    y 0.000000 1.687370 0.000000 
#    z -0.002920 0.000000 1.723220 
# 
# From -- ./inp_files/79926.got.cif
#   From: 2010.06.25/outbox.cif.g09.slc.cpg/sg10_40_cif.got.tgz:79926.got - 2010.06.27 22:07:45.
