data_PCOD8061470
_publ_section_title
;
Structure prediction by ZEFSAII (Michael W. Deem and Ramdas Pophale) SiO2 
 PCOD8061470
Probable space group: P 2/M
;
_chemical_formula_sum "Si O2"
_cell_formula_units_Z 32
_cell_length_a 13.413586
_cell_length_b 12.334527
_cell_length_c 16.116484
_cell_angle_alpha 90.000000
_cell_angle_beta 143.312933
_cell_angle_gamma 90.000000
_cell_volume 1593.070568
_symmetry_space_group_name_H-M "P 2/M"
_symmetry_group_IT_number 10
_symmetry_cell_setting 'monoclinic'
loop_
_space_group_symop_operation_xyz
x,y,z
-x,y,-z
-x,-y,-z
x,-y,z
loop_
_atom_site_type_symbol
_atom_site_label
_atom_site_fract_x
_atom_site_fract_y
_atom_site_fract_z
Si Si1 0.317735 0.691217 0.358195
Si Si2 0.945814 0.227084 0.277628
Si Si3 0.039728 0.619699 0.849162
Si Si4 0.276337 0.124692 0.457303
Si Si5 0.635392 0.126094 0.156464
Si Si6 0.427145 0.766330 0.718286
Si Si7 0.129900 0.382575 0.514646
Si Si8 0.716336 0.626530 0.847635
O O1 0.500000 0.637838 0.500000
O O2 0.315487 0.810894 0.398270
O O3 0.286435 0.694688 0.239088
O O4 0.162274 0.623999 0.291245
O O5 0.874312 0.281987 0.145608
O O6 0.807633 0.186425 0.249485
O O7 0.079173 0.131866 0.348134
O O8 0.046768 0.328640 0.380153
O O9 0.095583 0.500000 0.854691
O O10 0.103835 0.633452 0.986983
O O11 0.390693 0.172494 0.607560
O O12 0.323420 0.000000 0.474379
O O13 0.562441 0.148052 0.199371
O O14 0.673016 0.000000 0.172816
O O15 0.500000 0.165695 0.000000
O O16 0.278701 0.689233 0.647686
O O17 0.586795 0.688732 0.820551
O O18 0.197344 0.500000 0.531525
O O19 0.000000 0.396111 0.500000
O O20 0.666859 0.500000 0.799182
#
# Coordination Sequence:
#
# PCOD8061470 Si02
#       8
#     4   4   4   4   4   4   4   4
#     4  11  22  41  60  92 117 152 192 244 294 353
#     4  10  20  38  59  86 118 153 196 241 288 346
#     4  10  22  39  62  89 121 157 194 237 291 355
#     4  10  22  39  62  88 115 150 194 247 302 348
#     4  11  23  38  58  82 112 156 203 245 290 340
#     4  11  21  39  57  87 118 152 197 243 289 345
#     4  10  19  33  55  83 117 151 186 234 290 344
#     4  11  23  40  61  88 121 158 194 236 294 356
#
# _framework density 20.086994000000001
#
# number of rings (size 3 to 8) (size 9 to 14) (size 15 to 20)
#    0.000    1.500    2.500    3.000    0.000    2.250 
#    0.000    1.875    0.000   10.500    0.000    0.000 
#    0.000    0.000    0.000    0.000    0.000    0.000 
#
# Total GULP energy -396601.336930 kJ/mol
# GULP energy per Si atom -12393.791779 kJ/mol
# Density = 2.004128 g / cm^3
# Si number density = 20.086994 Si / 1000 Ang^3
#
#
#
# Elastic Constant Matrix: (Units=GPa)
#
#
# Indices 1 2 3 4 5 6 
#
# 1 87.1302 29.6521 29.0512 0.0000 -5.6217 0.0000
# 2 29.6521 99.1919 41.6820 0.0000 -4.5175 0.0000
# 3 29.0512 41.6820 91.2920 0.0000 -6.9616 0.0000
# 4 0.0000 0.0000 0.0000 24.5537 0.0000 -0.2333
# 5 -5.6217 -4.5175 -6.9616 0.0000 28.5671 0.0000
# 6 0.0000 0.0000 0.0000 -0.2333 0.0000 26.8607
#
#
#
# Elastic Compliance Matrix: (Units=1/GPa)
#
#
# Indices 1 2 3 4 5 6 
#
# 1 0.013480 -0.002731 -0.002928 0.000000 0.001507 0.000000
# 2 -0.002731 0.013038 -0.005062 0.000000 0.000291 0.000000
# 3 -0.002928 -0.005062 0.014359 0.000000 0.002122 0.000000
# 4 0.000000 0.000000 0.000000 0.040730 0.000000 0.000354
# 5 0.001507 0.000291 0.002122 0.000000 0.035865 0.000000
# 6 0.000000 0.000000 0.000000 0.000354 0.000000 0.037232
#
#
# Mechanical properties :
#
#
# Convention : Reuss Voigt Hill
#
# Bulk Modulus (GPa) = 51.45134 53.15385 52.30259
# Shear Modulus (GPa) = 27.37878 27.81158 27.59518
#
# Velocity S-wave (km/s) = 3.69590 3.72500 3.71048
# Velocity P-wave (km/s) = 6.62441 6.70970 6.66719
#
# Compressibility (1/GPa) = 0.01943584
#
# Stress axis : x y z
#
# Youngs Moduli (GPa) = 74.18487 76.69880 69.64504
#
# Poissons Ratio (x) = 0.20943 0.20391
# Poissons Ratio (y) = 0.20257 0.35253
# Poissons Ratio (z) = 0.21721 0.38823
#
# Static dielectric constant tensor:
#      x y z
#    x 4.239670 0.000000 0.046840 
#    y 0.000000 3.639580 0.000000 
#    z 0.046840 0.000000 3.742780 
# 
# 
# High freq. dielectric constant tensor:
#      x y z
#    x 1.787030 0.000000 -0.004290 
#    y 0.000000 1.776200 0.000000 
#    z -0.004290 0.000000 1.784790 
# 
# From -- ./inp_files/69174.got.cif
#   From: 2010.06.25/outbox.cif.g09.slc.cpg/sg10_35_cif.got.tgz:69174.got - 2010.06.27 22:07:45.
