data_PCOD8061887
_publ_section_title
;
Structure prediction by ZEFSAII (Michael W. Deem and Ramdas Pophale) SiO2 
 PCOD8061887
Probable space group: P 2/M
;
_chemical_formula_sum "Si O2"
_cell_formula_units_Z 32
_cell_length_a 14.867870
_cell_length_b 8.823374
_cell_length_c 11.947632
_cell_angle_alpha 90.000000
_cell_angle_beta 86.114471
_cell_angle_gamma 90.000000
_cell_volume 1563.744782
_symmetry_space_group_name_H-M "P 2/M"
_symmetry_group_IT_number 10
_symmetry_cell_setting 'monoclinic'
loop_
_space_group_symop_operation_xyz
x,y,z
-x,y,-z
-x,-y,-z
x,-y,z
loop_
_atom_site_type_symbol
_atom_site_label
_atom_site_fract_x
_atom_site_fract_y
_atom_site_fract_z
Si Si1 0.918454 0.678316 0.434323
Si Si2 0.719160 0.679222 0.481876
Si Si3 0.799179 0.170865 0.097023
Si Si4 0.176645 0.824651 0.156082
Si Si5 0.652672 0.322591 0.250197
Si Si6 0.491170 0.820963 0.128127
Si Si7 0.671564 0.677079 0.729302
Si Si8 0.973414 0.172015 0.209010
O O1 0.917114 0.500000 0.452723
O O2 0.820946 0.747680 0.477421
O O3 0.000000 0.751344 0.500000
O O4 0.935935 0.715042 0.304590
O O5 0.728952 0.500000 0.471565
O O6 0.664672 0.736994 0.377101
O O7 0.664586 0.724079 0.598776
O O8 0.744414 0.289642 0.175965
O O9 0.906171 0.185652 0.109389
O O10 0.766332 0.000000 0.128463
O O11 0.781060 0.206164 0.969126
O O12 0.227752 0.717896 0.239580
O O13 0.072391 0.776524 0.163382
O O14 0.188622 0.000000 0.188909
O O15 0.631800 0.500000 0.249162
O O16 0.570815 0.237412 0.199329
O O17 0.397504 0.770002 0.189688
O O18 0.494396 0.000000 0.125725
O O19 0.500000 0.758042 0.000000
O O20 0.652746 0.500000 0.746437
O O21 0.974730 0.000000 0.255107
#
# Coordination Sequence:
#
# PCOD8061887 Si02
#       8
#     4   4   4   4   4   4   4   4
#     4  10  19  34  56  80 114 160 203 243 292 347
#     4   9  20  38  58  85 121 157 192 240 299 347
#     4  10  20  36  57  83 118 159 199 243 298 354
#     4  10  21  37  56  82 120 160 197 244 302 353
#     4  11  22  39  64  90 119 155 198 246 295 352
#     4  11  25  45  66  90 122 155 188 235 299 361
#     4  11  23  41  64  89 117 152 198 243 290 350
#     4  10  20  34  54  82 115 155 202 245 291 349
#
# _framework density 20.463695999999999
#
# number of rings (size 3 to 8) (size 9 to 14) (size 15 to 20)
#    0.000    1.750    1.250    3.000    0.000    8.250 
#    0.000    6.250    0.000    2.250    0.000    0.000 
#    0.000    0.000    0.000    0.000    0.000    0.000 
#
# Total GULP energy -396817.446622 kJ/mol
# GULP energy per Si atom -12400.545207 kJ/mol
# Density = 2.041712 g / cm^3
# Si number density = 20.463696 Si / 1000 Ang^3
#
#
#
# Elastic Constant Matrix: (Units=GPa)
#
#
# Indices 1 2 3 4 5 6 
#
# 1 108.2768 23.5581 45.7083 0.0000 8.7036 0.0000
# 2 23.5581 39.1914 29.5517 0.0000 2.5296 0.0000
# 3 45.7083 29.5517 128.2880 0.0000 6.4790 0.0000
# 4 0.0000 0.0000 0.0000 26.1060 0.0000 2.2999
# 5 8.7036 2.5296 6.4790 0.0000 36.7448 0.0000
# 6 0.0000 0.0000 0.0000 2.2999 0.0000 26.6243
#
#
#
# Elastic Compliance Matrix: (Units=1/GPa)
#
#
# Indices 1 2 3 4 5 6 
#
# 1 0.011659 -0.004630 -0.002991 0.000000 -0.001916 0.000000
# 2 -0.004630 0.032746 -0.005888 0.000000 -0.000120 0.000000
# 3 -0.002991 -0.005888 0.010252 0.000000 -0.000694 0.000000
# 4 0.000000 0.000000 0.000000 0.038599 0.000000 -0.003334
# 5 -0.001916 -0.000120 -0.000694 0.000000 0.027799 0.000000
# 6 0.000000 0.000000 0.000000 -0.003334 0.000000 0.037848
#
#
# Mechanical properties :
#
#
# Convention : Reuss Voigt Hill
#
# Bulk Modulus (GPa) = 36.17841 52.59916 44.38879
# Shear Modulus (GPa) = 25.62353 29.69090 27.65721
#
# Velocity S-wave (km/s) = 3.54241 3.81321 3.68030
# Velocity P-wave (km/s) = 5.86935 6.71914 6.30857
#
# Compressibility (1/GPa) = 0.02764079
#
# Stress axis : x y z
#
# Youngs Moduli (GPa) = 85.76703 30.53825 97.54268
#
# Poissons Ratio (x) = 0.14138 0.29175
# Poissons Ratio (y) = 0.39707 0.57429
# Poissons Ratio (z) = 0.25653 0.17980
#
# Static dielectric constant tensor:
#      x y z
#    x 3.873980 0.000000 0.110730 
#    y 0.000000 3.463910 0.000000 
#    z 0.110730 0.000000 3.860340 
# 
# 
# High freq. dielectric constant tensor:
#      x y z
#    x 1.808050 0.000000 0.006490 
#    y 0.000000 1.776690 0.000000 
#    z 0.006490 0.000000 1.808750 
# 
# From -- ./inp_files/49845.got.cif
#   From: 2010.06.25/outbox.cif.g09.slc.cpg/sg10_25_cif.got.tgz:49845.got - 2010.06.27 22:07:45.
