data_PCOD8061939
_publ_section_title
;
Structure prediction by ZEFSAII (Michael W. Deem and Ramdas Pophale) SiO2 
 PCOD8061939
Probable space group: P 2/M
;
_chemical_formula_sum "Si O2"
_cell_formula_units_Z 24
_cell_length_a 14.727227
_cell_length_b 9.103542
_cell_length_c 15.004022
_cell_angle_alpha 90.000000
_cell_angle_beta 139.544276
_cell_angle_gamma 90.000000
_cell_volume 1305.239588
_symmetry_space_group_name_H-M "P 2/M"
_symmetry_group_IT_number 10
_symmetry_cell_setting 'monoclinic'
loop_
_space_group_symop_operation_xyz
x,y,z
-x,y,-z
-x,-y,-z
x,-y,z
loop_
_atom_site_type_symbol
_atom_site_label
_atom_site_fract_x
_atom_site_fract_y
_atom_site_fract_z
Si Si1 0.863309 0.672231 0.124637
Si Si2 0.150239 0.830046 0.383219
Si Si3 0.849869 0.326570 0.915205
Si Si4 0.339825 0.673846 0.385470
Si Si5 0.846044 0.830798 0.407684
Si Si6 0.342222 0.672627 0.872027
O O1 0.899710 0.500000 0.155737
O O2 0.740408 0.715780 0.100181
O O3 0.001008 0.759988 0.252214
O O4 0.811688 0.719100 0.987500
O O5 0.271371 0.750416 0.419184
O O6 0.187981 0.808988 0.514459
O O7 0.143733 0.000000 0.351596
O O8 0.857584 0.500000 0.912245
O O9 0.733138 0.267840 0.759656
O O10 0.000000 0.258474 0.000000
O O11 0.500000 0.722337 0.500000
O O12 0.323082 0.500000 0.384890
O O13 0.728000 0.745048 0.265941
O O14 0.000000 0.766450 0.500000
O O15 0.840764 0.000000 0.374182
O O16 0.341277 0.500000 0.854733
O O17 0.500000 0.731972 0.000000
#
# Coordination Sequence:
#
# PCOD8061939 Si02
#       6
#     4   4   4   4   4   4
#     4  10  19  34  57  80 108 146 186 227 277 336
#     4  11  22  36  57  83 112 145 188 237 278 323
#     4   9  16  30  54  80 106 138 179 221 266 327
#     4  10  21  37  58  84 112 146 184 224 277 338
#     4  10  21  38  58  81 112 153 196 233 277 339
#     4  10  22  37  56  87 119 144 181 239 293 333
#
# _framework density 18.387428
#
# number of rings (size 3 to 8) (size 9 to 14) (size 15 to 20)
#    0.000    2.000    3.333    0.500    0.000    3.667 
#    0.000    5.000    0.000    0.000    0.000    0.000 
#    0.000    0.000    0.000    0.000    0.000    0.000 
#
# Total GULP energy -297645.883824 kJ/mol
# GULP energy per Si atom -12401.911826 kJ/mol
# Density = 1.834558 g / cm^3
# Si number density = 18.387428 Si / 1000 Ang^3
#
#
#
# Elastic Constant Matrix: (Units=GPa)
#
#
# Indices 1 2 3 4 5 6 
#
# 1 148.1714 48.0437 85.3767 0.0000 9.5072 0.0000
# 2 48.0437 44.3539 41.9229 0.0000 4.7166 0.0000
# 3 85.3767 41.9229 160.1549 0.0000 10.2730 0.0000
# 4 0.0000 0.0000 0.0000 9.8954 0.0000 -7.2119
# 5 9.5072 4.7166 10.2730 0.0000 36.5163 0.0000
# 6 0.0000 0.0000 0.0000 -7.2119 0.0000 13.0631
#
#
#
# Elastic Compliance Matrix: (Units=1/GPa)
#
#
# Indices 1 2 3 4 5 6 
#
# 1 0.012091 -0.009256 -0.003969 0.000000 -0.000836 0.000000
# 2 -0.009256 0.037148 -0.004722 0.000000 -0.001060 0.000000
# 3 -0.003969 -0.004722 0.009665 0.000000 -0.001076 0.000000
# 4 0.000000 0.000000 0.000000 0.169097 0.000000 0.093356
# 5 -0.000836 -0.001060 -0.001076 0.000000 0.028042 0.000000
# 6 0.000000 0.000000 0.000000 0.093356 0.000000 0.128092
#
#
# Mechanical properties :
#
#
# Convention : Reuss Voigt Hill
#
# Bulk Modulus (GPa) = 43.45998 78.15188 60.80593
# Shear Modulus (GPa) = 11.69049 23.71740 17.70395
#
# Velocity S-wave (km/s) = 2.52422 3.59537 3.10631
# Velocity P-wave (km/s) = 5.67297 7.73504 6.78282
#
# Compressibility (1/GPa) = 0.02300967
#
# Stress axis : x y z
#
# Youngs Moduli (GPa) = 82.70779 26.91949 103.47008
#
# Poissons Ratio (x) = 0.24918 0.41066
# Poissons Ratio (y) = 0.76558 0.48854
# Poissons Ratio (z) = 0.32825 0.12710
#
# Static dielectric constant tensor:
#      x y z
#    x 3.671770 0.000000 -0.069100 
#    y 0.000000 3.182530 0.000000 
#    z -0.069100 0.000000 3.532950 
# 
# 
# High freq. dielectric constant tensor:
#      x y z
#    x 1.723400 0.000000 -0.007950 
#    y 0.000000 1.689030 0.000000 
#    z -0.007950 0.000000 1.719680 
# 
# From -- ./inp_files/66306.got.cif
#   From: 2010.06.25/outbox.cif.g09.slc.cpg/sg10_34_cif.got.tgz:66306.got - 2010.06.27 22:07:45.
