data_PCOD8061793
_publ_section_title
;
Structure prediction by ZEFSAII (Michael W. Deem and Ramdas Pophale) SiO2 
 PCOD8061793
Probable space group: P 2/M
;
_chemical_formula_sum "Si O2"
_cell_formula_units_Z 24
_cell_length_a 6.961023
_cell_length_b 12.792641
_cell_length_c 15.419701
_cell_angle_alpha 90.000000
_cell_angle_beta 61.262172
_cell_angle_gamma 90.000000
_cell_volume 1203.993377
_symmetry_space_group_name_H-M "P 2/M"
_symmetry_group_IT_number 10
_symmetry_cell_setting 'monoclinic'
loop_
_space_group_symop_operation_xyz
x,y,z
-x,y,-z
-x,-y,-z
x,-y,z
loop_
_atom_site_type_symbol
_atom_site_label
_atom_site_fract_x
_atom_site_fract_y
_atom_site_fract_z
Si Si1 0.185921 0.383319 0.630779
Si Si2 0.195257 0.000000 0.624076
Si Si3 0.894272 0.807898 0.244896
Si Si4 0.316165 0.000000 0.412606
Si Si5 0.406566 0.194852 0.284351
Si Si6 0.681694 0.383046 0.583787
Si Si7 0.668122 0.876101 0.890142
O O1 0.103585 0.500000 0.671405
O O2 0.052877 0.300918 0.717704
O O3 0.440159 0.370835 0.597631
O O4 0.154062 0.362146 0.533792
O O5 0.085654 0.103777 0.685547
O O6 0.148135 0.000000 0.530535
O O7 0.448309 0.000000 0.593615
O O8 0.666054 0.807591 0.245226
O O9 0.088367 0.836765 0.134805
O O10 0.284790 0.898740 0.360173
O O11 0.291957 0.301609 0.343002
O O12 0.385235 0.184556 0.186661
O O13 0.720162 0.500000 0.612319
O O14 0.654478 0.000000 0.879402
O O15 0.500000 0.838932 0.000000
#
# Coordination Sequence:
#
# PCOD8061793 Si02
#       7
#     4   2   4   2   4   4   4
#     4   8  14  27  51  82 113 145 176 204 242 301
#     4   9  16  27  47  76 107 137 164 196 246 306
#     4  10  19  34  55  78 106 139 172 210 260 314
#     4   9  16  27  47  76 107 137 164 196 246 306
#     4  10  19  34  55  78 106 139 172 210 260 314
#     4   8  14  27  51  82 113 145 176 204 242 301
#     4  11  24  40  55  74 101 131 176 234 276 312
#
# _framework density 19.933665000000001
#
# number of rings (size 3 to 8) (size 9 to 14) (size 15 to 20)
#    0.000    2.667    1.667    2.000    0.000    4.667 
#    0.000    6.667    0.000    4.000    0.000    4.667 
#    0.000    0.000    0.000    0.000    0.000    0.000 
#
# Total GULP energy -297517.264310 kJ/mol
# GULP energy per Si atom -12396.552680 kJ/mol
# Density = 1.988830 g / cm^3
# Si number density = 19.933665 Si / 1000 Ang^3
#
#
#
# Elastic Constant Matrix: (Units=GPa)
#
#
# Indices 1 2 3 4 5 6 
#
# 1 19.2048 4.3283 6.0307 0.0000 4.7322 0.0000
# 2 4.3283 139.0011 55.7024 0.0000 1.7065 0.0000
# 3 6.0307 55.7024 112.1831 0.0000 -7.4787 0.0000
# 4 0.0000 0.0000 0.0000 25.7902 0.0000 0.9010
# 5 4.7322 1.7065 -7.4787 0.0000 29.1288 0.0000
# 6 0.0000 0.0000 0.0000 0.9010 0.0000 7.9548
#
#
#
# Elastic Compliance Matrix: (Units=1/GPa)
#
#
# Indices 1 2 3 4 5 6 
#
# 1 0.055683 -0.000183 -0.003566 0.000000 -0.009951 0.000000
# 2 -0.000183 0.009065 -0.004604 0.000000 -0.001683 0.000000
# 3 -0.003566 -0.004604 0.011648 0.000000 0.003840 0.000000
# 4 0.000000 0.000000 0.000000 0.038928 0.000000 -0.004409
# 5 -0.009951 -0.001683 0.003840 0.000000 0.037031 0.000000
# 6 0.000000 0.000000 0.000000 -0.004409 0.000000 0.126209
#
#
# Mechanical properties :
#
#
# Convention : Reuss Voigt Hill
#
# Bulk Modulus (GPa) = 16.75283 44.72354 30.73819
# Shear Modulus (GPa) = 15.86459 26.19660 21.03060
#
# Velocity S-wave (km/s) = 2.82418 3.62911 3.25164
# Velocity P-wave (km/s) = 4.36545 6.32815 5.43611
#
# Compressibility (1/GPa) = 0.05969141
#
# Stress axis : x y z
#
# Youngs Moduli (GPa) = 17.95869 110.30977 85.85517
#
# Poissons Ratio (x) = 0.02015 0.30617
# Poissons Ratio (y) = 0.00328 0.39525
# Poissons Ratio (z) = 0.06404 0.50783
#
# Static dielectric constant tensor:
#      x y z
#    x 3.592740 0.000000 -0.184280 
#    y 0.000000 3.781670 0.000000 
#    z -0.184280 0.000000 3.573770 
# 
# 
# High freq. dielectric constant tensor:
#      x y z
#    x 1.791390 0.000000 -0.011710 
#    y 0.000000 1.777240 0.000000 
#    z -0.011710 0.000000 1.741230 
# 
# From -- ./inp_files/74758.got.cif
#   From: 2010.06.25/outbox.cif.g09.slc.cpg/sg10_38_cif.got.tgz:74758.got - 2010.06.27 22:07:45.
