data_PCOD8061091
_publ_section_title
;
Structure prediction by ZEFSAII (Michael W. Deem and Ramdas Pophale) SiO2 
 PCOD8061091
Probable space group: P 2/M
;
_chemical_formula_sum "Si O2"
_cell_formula_units_Z 20
_cell_length_a 5.143329
_cell_length_b 8.611837
_cell_length_c 23.472075
_cell_angle_alpha 90.000000
_cell_angle_beta 108.981297
_cell_angle_gamma 90.000000
_cell_volume 983.128858
_symmetry_space_group_name_H-M "P 2/M"
_symmetry_group_IT_number 10
_symmetry_cell_setting 'monoclinic'
loop_
_space_group_symop_operation_xyz
x,y,z
-x,y,-z
-x,-y,-z
x,-y,z
loop_
_atom_site_type_symbol
_atom_site_label
_atom_site_fract_x
_atom_site_fract_y
_atom_site_fract_z
Si Si1 0.333130 0.317120 0.432086
Si Si2 0.746167 0.182714 0.372898
Si Si3 0.014255 0.683526 0.829675
Si Si4 0.802202 0.314638 0.035331
Si Si5 0.410805 0.316002 0.756867
O O1 0.500000 0.269230 0.500000
O O2 0.310843 0.500000 0.422901
O O3 0.484481 0.249572 0.387709
O O4 0.028684 0.249987 0.417897
O O5 0.722239 0.228890 0.305582
O O6 0.749624 0.000000 0.380240
O O7 0.996734 0.500000 0.834081
O O8 0.718775 0.746077 0.788568
O O9 0.096691 0.753584 0.896915
O O10 0.240401 0.733851 0.800140
O O11 0.802775 0.500000 0.037127
O O12 0.500000 0.250921 0.000000
O O13 0.000000 0.251813 0.000000
O O14 0.397872 0.500000 0.744966
#
# Coordination Sequence:
#
# PCOD8061091 Si02
#       5
#     4   4   4   4   4
#     4  11  24  43  66  90 118 155 196 234 281 347
#     4  12  25  40  61  90 122 153 192 243 295 341
#     4   9  17  28  45  70  99 138 183 224 273 334
#     4   9  15  23  37  61  97 134 167 214 278 336
#     4  10  19  33  52  73 104 144 186 228 273 334
#
# _framework density 20.343212999999999
#
# number of rings (size 3 to 8) (size 9 to 14) (size 15 to 20)
#    0.000    1.800    0.000    5.400    0.000   10.400 
#    0.000    0.000    0.000    0.000    0.000    0.000 
#    0.000   16.000    0.000    0.000    0.000    0.000 
#
# Total GULP energy -248080.011117 kJ/mol
# GULP energy per Si atom -12404.000556 kJ/mol
# Density = 2.029691 g / cm^3
# Si number density = 20.343213 Si / 1000 Ang^3
#
#
#
# Elastic Constant Matrix: (Units=GPa)
#
#
# Indices 1 2 3 4 5 6 
#
# 1 116.8042 17.5622 20.2099 0.0000 9.8844 0.0000
# 2 17.5622 50.1718 29.2997 0.0000 2.0241 0.0000
# 3 20.2099 29.2997 115.4999 0.0000 7.1072 0.0000
# 4 0.0000 0.0000 0.0000 -1.1239 0.0000 6.9620
# 5 9.8844 2.0241 7.1072 0.0000 42.0878 0.0000
# 6 0.0000 0.0000 0.0000 6.9620 0.0000 14.8079
#
#
#
# Elastic Compliance Matrix: (Units=1/GPa)
#
#
# Indices 1 2 3 4 5 6 
#
# 1 0.009269 -0.002687 -0.000823 0.000000 -0.001909 0.000000
# 2 -0.002687 0.024177 -0.005689 0.000000 0.000429 0.000000
# 3 -0.000823 -0.005689 0.010324 0.000000 -0.001276 0.000000
# 4 0.000000 0.000000 0.000000 -0.227420 0.000000 0.106923
# 5 -0.001909 0.000429 -0.001276 0.000000 0.024403 0.000000
# 6 0.000000 0.000000 0.000000 0.106923 0.000000 0.017261
#
#
# Mechanical properties :
#
#
# Convention : Reuss Voigt Hill
#
# Bulk Modulus (GPa) = 39.41397 46.29102 42.85250
# Shear Modulus (GPa) = -43.42936 25.51465 -8.95736
#
# Velocity S-wave (km/s) = -4.62544 3.54532 -2.10064
# Velocity P-wave (km/s) = 3.01822 6.28995 3.90217
#
# Compressibility (1/GPa) = 0.02537172
#
# Stress axis : x y z
#
# Youngs Moduli (GPa) = 107.88370 41.36096 96.86334
#
# Poissons Ratio (x) = 0.11114 0.07970
# Poissons Ratio (y) = 0.28989 0.55110
# Poissons Ratio (z) = 0.08877 0.23532
#
# Static dielectric constant tensor:
#      x y z
#    x 3.892220 0.000000 0.039600 
#    y 0.000000 3.214430 0.000000 
#    z 0.039600 0.000000 3.897500 
# 
# 
# High freq. dielectric constant tensor:
#      x y z
#    x 1.814620 0.000000 0.001040 
#    y 0.000000 1.744860 0.000000 
#    z 0.001040 0.000000 1.813740 
# 
# From -- ./inp_files/80948.got.cif
#   From: 2010.06.25/outbox.cif.g09.slc.cpg/sg10_41_cif.got.tgz:80948.got - 2010.06.27 22:07:45.
