data_PCOD8061674
_publ_section_title
;
Structure prediction by ZEFSAII (Michael W. Deem and Ramdas Pophale) SiO2 
 PCOD8061674
Probable space group: P 2/M
;
_chemical_formula_sum "Si O2"
_cell_formula_units_Z 24
_cell_length_a 17.403868
_cell_length_b 7.899356
_cell_length_c 24.814203
_cell_angle_alpha 90.000000
_cell_angle_beta 23.134532
_cell_angle_gamma 90.000000
_cell_volume 1340.325690
_symmetry_space_group_name_H-M "P 2/M"
_symmetry_group_IT_number 10
_symmetry_cell_setting 'monoclinic'
loop_
_space_group_symop_operation_xyz
x,y,z
-x,y,-z
-x,-y,-z
x,-y,z
loop_
_atom_site_type_symbol
_atom_site_label
_atom_site_fract_x
_atom_site_fract_y
_atom_site_fract_z
Si Si1 0.681051 0.000000 0.204084
Si Si2 0.065906 0.696531 0.514888
Si Si3 0.241761 0.187921 0.202991
Si Si4 0.024983 0.000000 0.896178
Si Si5 0.360869 0.690353 0.016220
Si Si6 0.495444 0.308744 0.736392
Si Si7 0.156737 0.306085 0.041060
O O1 0.554400 0.828818 0.277541
O O2 0.763039 0.000000 0.212111
O O3 0.857954 0.000000 0.048464
O O4 0.014616 0.500000 0.549151
O O5 0.949083 0.781286 0.638740
O O6 0.000000 0.774616 0.500000
O O7 0.293223 0.734185 0.376163
O O8 0.248938 0.307136 0.145789
O O9 0.233097 0.000000 0.185182
O O10 0.437518 0.205704 0.112625
O O11 0.007686 0.827290 0.872379
O O12 0.421927 0.500000 0.962762
O O13 0.217940 0.754981 0.061315
O O14 0.488538 0.500000 0.716374
O O15 0.347123 0.292584 0.881269
O O16 0.074263 0.500000 0.093399
#
# Coordination Sequence:
#
# PCOD8061674 Si02
#       7
#     2   4   4   2   4   4   4
#     4   9  18  32  47  73 101 132 162 192 251 302
#     4  10  20  35  51  69  98 135 172 203 237 284
#     4  11  22  31  46  73 100 131 167 203 244 286
#     4   9  18  30  50  72 103 129 154 205 245 302
#     4  10  19  34  51  67  97 134 167 204 242 287
#     4   9  18  32  50  72 101 133 166 203 240 290
#     4   9  18  31  51  76  98 129 165 201 249 294
#
# _framework density 17.906096000000002
#
# number of rings (size 3 to 8) (size 9 to 14) (size 15 to 20)
#    0.000    2.333    0.000    4.000    3.500    3.667 
#    3.000    3.333    0.000    0.000    0.000    2.333 
#    0.000    5.333    0.000    0.000    0.000    0.000 
#
# Total GULP energy -297549.409274 kJ/mol
# GULP energy per Si atom -12397.892053 kJ/mol
# Density = 1.786534 g / cm^3
# Si number density = 17.906096 Si / 1000 Ang^3
#
#
#
# Elastic Constant Matrix: (Units=GPa)
#
#
# Indices 1 2 3 4 5 6 
#
# 1 124.1693 58.3332 29.8506 0.0000 -26.3066 0.0000
# 2 58.3332 102.9105 24.8204 0.0000 -20.9373 0.0000
# 3 29.8506 24.8204 45.3317 0.0000 -8.8109 0.0000
# 4 0.0000 0.0000 0.0000 18.9922 0.0000 -6.0846
# 5 -26.3066 -20.9373 -8.8109 0.0000 24.4531 0.0000
# 6 0.0000 0.0000 0.0000 -6.0846 0.0000 27.7177
#
#
#
# Elastic Compliance Matrix: (Units=1/GPa)
#
#
# Indices 1 2 3 4 5 6 
#
# 1 0.013098 -0.004617 -0.004438 0.000000 0.008539 0.000000
# 2 -0.004617 0.014464 -0.003696 0.000000 0.006085 0.000000
# 3 -0.004438 -0.003696 0.027380 0.000000 0.001927 0.000000
# 4 0.000000 0.000000 0.000000 0.056636 0.000000 0.012433
# 5 0.008539 0.006085 0.001927 0.000000 0.055986 0.000000
# 6 0.000000 0.000000 0.000000 0.012433 0.000000 0.038807
#
#
# Mechanical properties :
#
#
# Convention : Reuss Voigt Hill
#
# Bulk Modulus (GPa) = 33.96675 55.38001 44.67338
# Shear Modulus (GPa) = 20.68791 24.85975 22.77383
#
# Velocity S-wave (km/s) = 3.40274 3.73009 3.57017
# Velocity P-wave (km/s) = 5.86931 7.03893 6.48056
#
# Compressibility (1/GPa) = 0.02944056
#
# Stress axis : x y z
#
# Youngs Moduli (GPa) = 76.34465 69.13776 36.52293
#
# Poissons Ratio (x) = 0.31922 0.16207
# Poissons Ratio (y) = 0.35249 0.13500
# Poissons Ratio (z) = 0.33878 0.25555
#
# Static dielectric constant tensor:
#      x y z
#    x 3.381940 0.000000 -0.089310 
#    y 0.000000 3.550880 0.000000 
#    z -0.089310 0.000000 2.974660 
# 
# 
# High freq. dielectric constant tensor:
#      x y z
#    x 1.682860 0.000000 -0.004310 
#    y 0.000000 1.706820 0.000000 
#    z -0.004310 0.000000 1.653410 
# 
# From -- ./inp_files/92500.got.cif
#   From: 2010.06.25/outbox.cif.g09.slc.cpg/sg10_47_cif.got.tgz:92500.got - 2010.06.27 22:07:45.
