data_PCOD8061968
_publ_section_title
;
Structure prediction by ZEFSAII (Michael W. Deem and Ramdas Pophale) SiO2 
 PCOD8061968
Probable space group: P 2/M
;
_chemical_formula_sum "Si O2"
_cell_formula_units_Z 30
_cell_length_a 29.624912
_cell_length_b 8.794989
_cell_length_c 12.049270
_cell_angle_alpha 90.000000
_cell_angle_beta 150.618192
_cell_angle_gamma 90.000000
_cell_volume 1540.297630
_symmetry_space_group_name_H-M "P 2/M"
_symmetry_group_IT_number 10
_symmetry_cell_setting 'monoclinic'
loop_
_space_group_symop_operation_xyz
x,y,z
-x,y,-z
-x,-y,-z
x,-y,z
loop_
_atom_site_type_symbol
_atom_site_label
_atom_site_fract_x
_atom_site_fract_y
_atom_site_fract_z
Si Si1 0.763082 0.825327 0.296190
Si Si2 0.738483 0.822286 0.804087
Si Si3 0.908973 0.661544 0.085939
Si Si4 0.962048 0.825164 0.802436
Si Si5 0.812999 0.682087 0.176255
Si Si6 0.597593 0.324875 0.345935
Si Si7 0.615583 0.674990 0.132387
Si Si8 0.000000 0.294059 0.500000
O O1 0.853087 0.799064 0.564288
O O2 0.766725 0.724660 0.193232
O O3 0.676648 0.779864 0.185077
O O4 0.753278 0.000000 0.239292
O O5 0.646135 0.780631 0.540729
O O6 0.740118 0.000000 0.834269
O O7 0.825080 0.779557 0.911333
O O8 0.742384 0.727399 0.927049
O O9 0.875242 0.500000 0.962543
O O10 0.992019 0.729306 0.195270
O O11 0.948595 0.617104 0.291904
O O12 0.989403 0.000000 0.844372
O O13 0.000000 0.763208 0.000000
O O14 0.833120 0.500000 0.217672
O O15 0.909279 0.782332 0.364997
O O16 0.623188 0.500000 0.423107
O O17 0.629673 0.277907 0.290951
O O18 0.489373 0.298888 0.127479
O O19 0.643767 0.500000 0.175894
#
# Coordination Sequence:
#
# PCOD8061968 Si02
#       8
#     4   4   4   4   4   4   4   2
#     4  11  23  38  58  87 122 157 196 240 292 351
#     4  11  23  37  57  87 121 152 188 239 298 352
#     4  11  21  36  57  84 113 151 200 244 283 338
#     4  10  23  40  54  78 120 160 194 236 288 343
#     4  11  21  38  60  84 114 153 201 246 290 343
#     4   9  19  40  65  91 117 149 194 242 291 346
#     4   9  20  39  65  90 117 152 194 242 290 344
#     4  10  19  34  57  82 109 144 193 246 285 326
#
# _framework density 19.476754
#
# number of rings (size 3 to 8) (size 9 to 14) (size 15 to 20)
#    0.000    1.733    1.333    5.200    1.867    1.867 
#    0.000    4.000    0.000    4.000    0.000    0.000 
#    0.000    0.000    0.000    0.000    0.000    0.000 
#
# Total GULP energy -371720.390416 kJ/mol
# GULP energy per Si atom -12390.679681 kJ/mol
# Density = 1.943242 g / cm^3
# Si number density = 19.476754 Si / 1000 Ang^3
#
#
#
# Elastic Constant Matrix: (Units=GPa)
#
#
# Indices 1 2 3 4 5 6 
#
# 1 118.0847 40.8096 41.0740 0.0000 6.3605 0.0000
# 2 40.8096 83.6347 37.6853 0.0000 -0.7482 0.0000
# 3 41.0740 37.6853 104.1704 0.0000 -9.9705 0.0000
# 4 0.0000 0.0000 0.0000 47.3755 0.0000 19.2949
# 5 6.3605 -0.7482 -9.9705 0.0000 22.4217 0.0000
# 6 0.0000 0.0000 0.0000 19.2949 0.0000 29.9341
#
#
#
# Elastic Compliance Matrix: (Units=1/GPa)
#
#
# Indices 1 2 3 4 5 6 
#
# 1 0.011328 -0.003999 -0.003489 0.000000 -0.004898 0.000000
# 2 -0.003999 0.015776 -0.004148 0.000000 -0.000183 0.000000
# 3 -0.003489 -0.004148 0.013115 0.000000 0.006683 0.000000
# 4 0.000000 0.000000 0.000000 0.028622 0.000000 -0.018449
# 5 -0.004898 -0.000183 0.006683 0.000000 0.048955 0.000000
# 6 0.000000 0.000000 0.000000 -0.018449 0.000000 0.045299
#
#
# Mechanical properties :
#
#
# Convention : Reuss Voigt Hill
#
# Bulk Modulus (GPa) = 59.00530 60.55863 59.78197
# Shear Modulus (GPa) = 26.03968 32.36763 29.20366
#
# Velocity S-wave (km/s) = 3.66042 4.08101 3.87642
# Velocity P-wave (km/s) = 6.94449 7.30524 7.12714
#
# Compressibility (1/GPa) = 0.01694763
#
# Stress axis : x y z
#
# Youngs Moduli (GPa) = 88.27723 63.38928 76.24655
#
# Poissons Ratio (x) = 0.25352 0.26599
# Poissons Ratio (y) = 0.35305 0.31625
# Poissons Ratio (z) = 0.30796 0.26292
#
# Static dielectric constant tensor:
#      x y z
#    x 3.561600 0.000000 -0.070880 
#    y 0.000000 3.364020 0.000000 
#    z -0.070880 0.000000 3.545980 
# 
# 
# High freq. dielectric constant tensor:
#      x y z
#    x 1.757230 0.000000 -0.005740 
#    y 0.000000 1.747970 0.000000 
#    z -0.005740 0.000000 1.758140 
# 
# From -- ./inp_files/58033.got.cif
#   From: 2010.06.25/outbox.cif.g09.slc.cpg/sg10_30_cif.got.tgz:58033.got - 2010.06.27 22:07:45.
