data_PCOD8061655
_publ_section_title
;
Structure prediction by ZEFSAII (Michael W. Deem and Ramdas Pophale) SiO2 
 PCOD8061655
Probable space group: P 2/M
;
_chemical_formula_sum "Si O2"
_cell_formula_units_Z 28
_cell_length_a 11.178524
_cell_length_b 13.597877
_cell_length_c 20.263396
_cell_angle_alpha 90.000000
_cell_angle_beta 154.139643
_cell_angle_gamma 90.000000
_cell_volume 1343.485038
_symmetry_space_group_name_H-M "P 2/M"
_symmetry_group_IT_number 10
_symmetry_cell_setting 'monoclinic'
loop_
_space_group_symop_operation_xyz
x,y,z
-x,y,-z
-x,-y,-z
x,-y,z
loop_
_atom_site_type_symbol
_atom_site_label
_atom_site_fract_x
_atom_site_fract_y
_atom_site_fract_z
Si Si1 0.304791 0.606963 0.176517
Si Si2 0.677070 0.114412 0.334612
Si Si3 0.236048 0.389030 0.914872
Si Si4 0.430448 0.227426 0.332717
Si Si5 0.810471 0.891862 0.678864
Si Si6 0.457824 0.284382 0.823188
Si Si7 0.959021 0.724473 0.670121
O O1 0.407999 0.500000 0.251551
O O2 0.282394 0.681425 0.225593
O O3 0.521933 0.643182 0.229316
O O4 0.000000 0.599150 0.000000
O O5 0.556802 0.149991 0.344243
O O6 0.537534 0.173109 0.203808
O O7 0.000000 0.134816 0.500000
O O8 0.610334 0.000000 0.290645
O O9 0.173857 0.500000 0.910683
O O10 0.985029 0.351150 0.744735
O O11 0.500000 0.391089 0.000000
O O12 0.294157 0.312436 0.003765
O O13 0.197569 0.168822 0.257070
O O14 0.654102 0.279106 0.490613
O O15 0.500000 0.900962 0.500000
O O16 0.002393 0.835029 0.721118
O O17 0.938435 0.000000 0.753024
O O18 0.170060 0.301023 0.716980
#
# Coordination Sequence:
#
# PCOD8061655 Si02
#       7
#     4   4   4   4   4   4   4
#     4  10  23  40  61  85 115 160 201 240 298 362
#     4  10  19  33  59  87 115 153 192 242 299 350
#     4   9  19  35  56  79 111 154 190 230 295 358
#     4  10  20  37  60  87 121 154 195 252 296 347
#     4   9  19  35  57  85 118 158 194 232 293 358
#     4  10  20  37  59  84 119 150 195 245 293 351
#     4  10  20  35  58  90 116 148 196 250 294 349
#
# _framework density 20.841318000000001
#
# number of rings (size 3 to 8) (size 9 to 14) (size 15 to 20)
#    0.000    2.286    1.429    0.857    2.000    2.286 
#    0.000    1.429    0.000    7.286    0.000    0.000 
#    0.000    0.000    0.000    0.000    0.000    0.000 
#
# Total GULP energy -347011.284888 kJ/mol
# GULP energy per Si atom -12393.260175 kJ/mol
# Density = 2.079388 g / cm^3
# Si number density = 20.841318 Si / 1000 Ang^3
#
#
#
# Elastic Constant Matrix: (Units=GPa)
#
#
# Indices 1 2 3 4 5 6 
#
# 1 75.6356 44.1041 13.4165 0.0000 -9.7483 0.0000
# 2 44.1041 172.4348 49.9098 0.0000 -18.1116 0.0000
# 3 13.4165 49.9098 60.9776 0.0000 -21.9709 0.0000
# 4 0.0000 0.0000 0.0000 28.4849 0.0000 -9.4626
# 5 -9.7483 -18.1116 -21.9709 0.0000 31.1699 0.0000
# 6 0.0000 0.0000 0.0000 -9.4626 0.0000 9.8590
#
#
#
# Elastic Compliance Matrix: (Units=1/GPa)
#
#
# Indices 1 2 3 4 5 6 
#
# 1 0.015793 -0.003972 0.000971 0.000000 0.003316 0.000000
# 2 -0.003972 0.008599 -0.006449 0.000000 -0.000792 0.000000
# 3 0.000971 -0.006449 0.027109 0.000000 0.015664 0.000000
# 4 0.000000 0.000000 0.000000 0.051539 0.000000 0.049466
# 5 0.003316 -0.000792 0.015664 0.000000 0.043700 0.000000
# 6 0.000000 0.000000 0.000000 0.049466 0.000000 0.148907
#
#
# Mechanical properties :
#
#
# Convention : Reuss Voigt Hill
#
# Bulk Modulus (GPa) = 30.67573 58.21209 44.44391
# Shear Modulus (GPa) = 15.36506 27.34395 21.35451
#
# Velocity S-wave (km/s) = 2.71816 3.62609 3.20445
# Velocity P-wave (km/s) = 4.96003 6.74708 5.92136
#
# Compressibility (1/GPa) = 0.03259906
#
# Stress axis : x y z
#
# Youngs Moduli (GPa) = 63.32095 116.29503 36.88847
#
# Poissons Ratio (x) = 0.46194 -0.03582
# Poissons Ratio (y) = 0.25152 0.23791
# Poissons Ratio (z) = -0.06149 0.75004
#
# Static dielectric constant tensor:
#      x y z
#    x 3.949800 0.000000 -0.242620 
#    y 0.000000 4.154870 0.000000 
#    z -0.242620 0.000000 3.557880 
# 
# 
# High freq. dielectric constant tensor:
#      x y z
#    x 1.827840 0.000000 -0.012830 
#    y 0.000000 1.818610 0.000000 
#    z -0.012830 0.000000 1.786380 
# 
# From -- ./inp_files/55810.got.cif
#   From: 2010.06.25/outbox.cif.g09.slc.cpg/sg10_28_cif.got.tgz:55810.got - 2010.06.27 22:07:45.
