data_PCOD8061698
_publ_section_title
;
Structure prediction by ZEFSAII (Michael W. Deem and Ramdas Pophale) SiO2 
 PCOD8061698
Probable space group: P 2/M
;
_chemical_formula_sum "Si O2"
_cell_formula_units_Z 32
_cell_length_a 19.264616
_cell_length_b 8.909371
_cell_length_c 11.270705
_cell_angle_alpha 90.000000
_cell_angle_beta 96.338311
_cell_angle_gamma 90.000000
_cell_volume 1922.629716
_symmetry_space_group_name_H-M "P 2/M"
_symmetry_group_IT_number 10
_symmetry_cell_setting 'monoclinic'
loop_
_space_group_symop_operation_xyz
x,y,z
-x,y,-z
-x,-y,-z
x,-y,z
loop_
_atom_site_type_symbol
_atom_site_label
_atom_site_fract_x
_atom_site_fract_y
_atom_site_fract_z
Si Si1 0.598413 0.178854 0.567987
Si Si2 0.295963 0.823114 0.001947
Si Si3 0.730222 0.823848 0.740735
Si Si4 0.468034 0.678443 0.662548
Si Si5 0.435707 0.174311 0.900667
Si Si6 0.839251 0.331246 0.068327
Si Si7 0.133494 0.668451 0.206321
Si Si8 0.012413 0.320929 0.873235
O O1 0.674451 0.224179 0.631131
O O2 0.589914 0.258264 0.439436
O O3 0.541453 0.241748 0.649105
O O4 0.589038 0.000000 0.554900
O O5 0.366241 0.766355 0.952781
O O6 0.228093 0.769719 0.914875
O O7 0.295991 0.000000 0.005631
O O8 0.293085 0.757214 0.135494
O O9 0.806950 0.765766 0.717791
O O10 0.734492 0.000000 0.752275
O O11 0.475079 0.500000 0.649672
O O12 0.444839 0.720667 0.789337
O O13 0.429829 0.000000 0.861268
O O14 0.500000 0.198902 0.000000
O O15 0.820516 0.500000 0.103279
O O16 0.908921 0.273599 0.153914
O O17 0.857618 0.324111 0.933228
O O18 0.142882 0.500000 0.255202
O O19 0.054101 0.728045 0.221759
O O20 0.010730 0.500000 0.883303
O O21 0.000000 0.248786 0.000000
#
# Coordination Sequence:
#
# PCOD8061698 Si02
#       8
#     4   4   4   4   4   4   4   4
#     4  10  19  34  53  67  86 119 152 177 213 269
#     4   9  17  28  42  62  87 113 146 184 216 252
#     4   9  17  28  43  64  88 115 147 181 214 251
#     4  11  22  34  49  71  93 110 140 188 230 258
#     4  10  20  35  52  66  86 120 154 179 213 266
#     4   8  13  22  36  53  77 111 147 178 210 251
#     4   8  13  21  35  55  80 111 144 177 212 251
#     4   7  10  18  32  50  74 108 146 175 203 248
#
# _framework density 16.64387
#
# number of rings (size 3 to 8) (size 9 to 14) (size 15 to 20)
#    0.000    3.000    0.000    4.500    0.000    3.750 
#    0.000    3.125    0.000    3.750    0.000    0.000 
#    0.000    1.000    0.000   11.250    0.000    8.000 
#
# Total GULP energy -396448.243854 kJ/mol
# GULP energy per Si atom -12389.007620 kJ/mol
# Density = 1.660599 g / cm^3
# Si number density = 16.643870 Si / 1000 Ang^3
#
#
#
# Elastic Constant Matrix: (Units=GPa)
#
#
# Indices 1 2 3 4 5 6 
#
# 1 138.9680 26.6221 43.9611 0.0000 32.3252 0.0000
# 2 26.6221 37.7129 22.9165 0.0000 7.3892 0.0000
# 3 43.9611 22.9165 54.8008 0.0000 13.4864 0.0000
# 4 0.0000 0.0000 0.0000 15.4859 0.0000 4.0776
# 5 32.3252 7.3892 13.4864 0.0000 24.5211 0.0000
# 6 0.0000 0.0000 0.0000 4.0776 0.0000 26.6620
#
#
#
# Elastic Compliance Matrix: (Units=1/GPa)
#
#
# Indices 1 2 3 4 5 6 
#
# 1 0.012439 -0.002873 -0.005730 0.000000 -0.012380 0.000000
# 2 -0.002873 0.036397 -0.012894 0.000000 -0.000089 0.000000
# 3 -0.005730 -0.012894 0.029401 0.000000 -0.004731 0.000000
# 4 0.000000 0.000000 0.000000 0.067284 0.000000 -0.010290
# 5 -0.012380 -0.000089 -0.004731 0.000000 0.059730 0.000000
# 6 0.000000 0.000000 0.000000 -0.010290 0.000000 0.039080
#
#
# Mechanical properties :
#
#
# Convention : Reuss Voigt Hill
#
# Bulk Modulus (GPa) = 28.37484 46.49789 37.43637
# Shear Modulus (GPa) = 16.71842 22.53263 19.62552
#
# Velocity S-wave (km/s) = 3.17279 3.68341 3.43759
# Velocity P-wave (km/s) = 5.52335 6.78878 6.18849
#
# Compressibility (1/GPa) = 0.03524249
#
# Stress axis : x y z
#
# Youngs Moduli (GPa) = 80.39457 27.47517 34.01285
#
# Poissons Ratio (x) = 0.07894 0.19490
# Poissons Ratio (y) = 0.23098 0.43855
# Poissons Ratio (z) = 0.46067 0.35425
#
# Static dielectric constant tensor:
#      x y z
#    x 3.546920 0.000000 0.289550 
#    y 0.000000 2.983170 0.000000 
#    z 0.289550 0.000000 2.802210 
# 
# 
# High freq. dielectric constant tensor:
#      x y z
#    x 1.654440 0.000000 0.029110 
#    y 0.000000 1.626100 0.000000 
#    z 0.029110 0.000000 1.586040 
# 
# From -- ./inp_files/54512.got.cif
#   From: 2010.06.25/outbox.cif.g09.slc.cpg/sg10_28_cif.got.tgz:54512.got - 2010.06.27 22:07:45.
