data_PCOD8061765
_publ_section_title
;
Structure prediction by ZEFSAII (Michael W. Deem and Ramdas Pophale) SiO2 
 PCOD8061765
Probable space group: P 2/M
;
_chemical_formula_sum "Si O2"
_cell_formula_units_Z 24
_cell_length_a 16.241639
_cell_length_b 8.433893
_cell_length_c 22.662778
_cell_angle_alpha 90.000000
_cell_angle_beta 156.951894
_cell_angle_gamma 90.000000
_cell_volume 1215.366122
_symmetry_space_group_name_H-M "P 2/M"
_symmetry_group_IT_number 10
_symmetry_cell_setting 'monoclinic'
loop_
_space_group_symop_operation_xyz
x,y,z
-x,y,-z
-x,-y,-z
x,-y,z
loop_
_atom_site_type_symbol
_atom_site_label
_atom_site_fract_x
_atom_site_fract_y
_atom_site_fract_z
Si Si1 0.221619 0.688278 0.480389
Si Si2 0.004503 0.314313 0.092545
Si Si3 0.682609 0.184260 0.791516
Si Si4 0.476339 0.311066 0.050257
Si Si5 0.917255 0.688556 0.384019
Si Si6 0.031690 0.688102 0.799216
O O1 0.251556 0.500000 0.501691
O O2 0.441227 0.770593 0.638973
O O3 0.059031 0.747322 0.423002
O O4 0.134985 0.747341 0.359695
O O5 0.955239 0.500000 0.058432
O O6 0.037183 0.254303 0.181212
O O7 0.217421 0.279280 0.197381
O O8 0.805015 0.226212 0.932389
O O9 0.708424 0.000000 0.795326
O O10 0.467790 0.500000 0.043506
O O11 0.678182 0.250848 0.219804
O O12 0.500000 0.244700 0.000000
O O13 0.263632 0.242156 0.938724
O O14 0.923525 0.500000 0.389382
O O15 0.000000 0.760553 0.500000
O O16 0.041290 0.500000 0.802113
#
# Coordination Sequence:
#
# PCOD8061765 Si02
#       6
#     4   4   4   4   4   4
#     4  10  19  34  54  82 114 143 178 222 268 315
#     4  10  20  37  60  84 105 135 178 226 275 322
#     4  11  23  39  56  77 108 144 179 221 271 325
#     4   9  14  25  43  71 113 145 166 207 266 318
#     4   9  17  26  44  78 114 143 173 215 265 313
#     4   9  18  30  51  83 113 140 174 221 273 318
#
# _framework density 19.747135
#
# number of rings (size 3 to 8) (size 9 to 14) (size 15 to 20)
#    0.000    2.333    1.667    3.000    2.333    0.667 
#    0.000    5.000    0.000    0.500    0.000    1.167 
#    0.000    0.000    0.000    0.000    0.000    0.000 
#
# Total GULP energy -297568.391395 kJ/mol
# GULP energy per Si atom -12398.682975 kJ/mol
# Density = 1.970219 g / cm^3
# Si number density = 19.747135 Si / 1000 Ang^3
#
#
#
# Elastic Constant Matrix: (Units=GPa)
#
#
# Indices 1 2 3 4 5 6 
#
# 1 105.4326 10.6606 36.0474 0.0000 -23.0372 0.0000
# 2 10.6606 28.0241 12.5028 0.0000 -1.2195 0.0000
# 3 36.0474 12.5028 116.3218 0.0000 -5.4859 0.0000
# 4 0.0000 0.0000 0.0000 4.1064 0.0000 0.5339
# 5 -23.0372 -1.2195 -5.4859 0.0000 39.7635 0.0000
# 6 0.0000 0.0000 0.0000 0.5339 0.0000 -0.7231
#
#
#
# Elastic Compliance Matrix: (Units=1/GPa)
#
#
# Indices 1 2 3 4 5 6 
#
# 1 0.012318 -0.002977 -0.003186 0.000000 0.006606 0.000000
# 2 -0.002977 0.038215 -0.003232 0.000000 -0.000999 0.000000
# 3 -0.003186 -0.003232 0.009904 0.000000 -0.000578 0.000000
# 4 0.000000 0.000000 0.000000 0.222195 0.000000 0.164039
# 5 0.006606 -0.000999 -0.000578 0.000000 0.028865 0.000000
# 6 0.000000 0.000000 0.000000 0.164039 0.000000 -1.261782
#
#
# Mechanical properties :
#
#
# Convention : Reuss Voigt Hill
#
# Bulk Modulus (GPa) = 24.01122 40.91112 32.46117
# Shear Modulus (GPa) = -5.44892 21.33387 7.94247
#
# Velocity S-wave (km/s) = -1.66293 3.29044 2.00769
# Velocity P-wave (km/s) = 2.91524 5.93283 4.67424
#
# Compressibility (1/GPa) = 0.04164719
#
# Stress axis : x y z
#
# Youngs Moduli (GPa) = 81.17936 26.16801 100.96697
#
# Poissons Ratio (x) = 0.07791 0.32167
# Poissons Ratio (y) = 0.24169 0.32632
# Poissons Ratio (z) = 0.25863 0.08457
#
# Static dielectric constant tensor:
#      x y z
#    x 3.791750 0.000000 -0.105060 
#    y 0.000000 3.040770 0.000000 
#    z -0.105060 0.000000 3.780110 
# 
# 
# High freq. dielectric constant tensor:
#      x y z
#    x 1.776760 0.000000 -0.002390 
#    y 0.000000 1.715010 0.000000 
#    z -0.002390 0.000000 1.781150 
# 
# From -- ./inp_files/90061.got.cif
#   From: 2010.06.25/outbox.cif.g09.slc.cpg/sg10_46_cif.got.tgz:90061.got - 2010.06.27 22:07:45.
