data_PCOD8061637
_publ_section_title
;
Structure prediction by ZEFSAII (Michael W. Deem and Ramdas Pophale) SiO2 
 PCOD8061637
Probable space group: P 2/M
;
_chemical_formula_sum "Si O2"
_cell_formula_units_Z 24
_cell_length_a 22.789881
_cell_length_b 9.265955
_cell_length_c 10.889628
_cell_angle_alpha 90.000000
_cell_angle_beta 147.861277
_cell_angle_gamma 90.000000
_cell_volume 1223.300716
_symmetry_space_group_name_H-M "P 2/M"
_symmetry_group_IT_number 10
_symmetry_cell_setting 'monoclinic'
loop_
_space_group_symop_operation_xyz
x,y,z
-x,y,-z
-x,-y,-z
x,-y,z
loop_
_atom_site_type_symbol
_atom_site_label
_atom_site_fract_x
_atom_site_fract_y
_atom_site_fract_z
Si Si1 0.967934 0.829057 0.079128
Si Si2 0.281685 0.829474 0.354704
Si Si3 0.477102 0.340466 0.600225
Si Si4 0.925762 0.828328 0.480904
Si Si5 0.619385 0.164283 0.223121
Si Si6 0.319350 0.164304 0.936581
O O1 0.039012 0.768248 0.321143
O O2 0.981784 0.000000 0.095513
O O3 0.843424 0.784198 0.892547
O O4 0.000000 0.765550 0.000000
O O5 0.364722 0.750567 0.409773
O O6 0.310603 0.769651 0.541830
O O7 0.296778 0.000000 0.364764
O O8 0.500000 0.357333 0.500000
O O9 0.463595 0.500000 0.635447
O O10 0.580589 0.262899 0.845398
O O11 0.799721 0.782867 0.225585
O O12 0.000000 0.766730 0.500000
O O13 0.936170 0.000000 0.504021
O O14 0.691629 0.174834 0.229578
O O15 0.595304 0.000000 0.218368
O O16 0.500000 0.242939 0.000000
O O17 0.344079 0.000000 0.022006
#
# Coordination Sequence:
#
# PCOD8061637 Si02
#       6
#     4   4   4   4   4   4
#     4   9  17  30  50  80 115 145 174 215 270 325
#     4  10  19  33  58  84 109 143 183 218 261 330
#     4  11  25  40  52  73 109 145 181 230 280 318
#     4   9  18  30  47  78 111 135 170 225 270 303
#     4   9  15  27  48  80 110 131 165 214 262 308
#     4  10  19  34  58  80 107 141 175 217 270 331
#
# _framework density 19.619052
#
# number of rings (size 3 to 8) (size 9 to 14) (size 15 to 20)
#    0.000    2.333    1.667    1.500    2.333    5.333 
#    0.000    1.667    0.000    2.000    0.000    0.000 
#    0.000    0.000    0.000    0.000    0.000    0.000 
#
# Total GULP energy -297405.050256 kJ/mol
# GULP energy per Si atom -12391.877094 kJ/mol
# Density = 1.957440 g / cm^3
# Si number density = 19.619052 Si / 1000 Ang^3
#
#
#
# Elastic Constant Matrix: (Units=GPa)
#
#
# Indices 1 2 3 4 5 6 
#
# 1 99.9911 23.2929 32.8264 0.0000 17.1400 0.0000
# 2 23.2929 50.4422 33.8799 0.0000 11.5469 0.0000
# 3 32.8264 33.8799 95.7960 0.0000 16.1704 0.0000
# 4 0.0000 0.0000 0.0000 6.4691 0.0000 -4.7788
# 5 17.1400 11.5469 16.1704 0.0000 40.5767 0.0000
# 6 0.0000 0.0000 0.0000 -4.7788 0.0000 11.4998
#
#
#
# Elastic Compliance Matrix: (Units=1/GPa)
#
#
# Indices 1 2 3 4 5 6 
#
# 1 0.012109 -0.003191 -0.002478 0.000000 -0.003220 0.000000
# 2 -0.003191 0.027463 -0.008071 0.000000 -0.003251 0.000000
# 3 -0.002478 -0.008071 0.014557 0.000000 -0.002458 0.000000
# 4 0.000000 0.000000 0.000000 0.223051 0.000000 0.092690
# 5 -0.003220 -0.003251 -0.002458 0.000000 0.027910 0.000000
# 6 0.000000 0.000000 0.000000 0.092690 0.000000 0.125476
#
#
# Mechanical properties :
#
#
# Convention : Reuss Voigt Hill
#
# Bulk Modulus (GPa) = 37.52101 47.35863 42.43982
# Shear Modulus (GPa) = 10.70831 22.12444 16.41638
#
# Velocity S-wave (km/s) = 2.33880 3.36177 2.89581
# Velocity P-wave (km/s) = 5.14389 6.26579 5.73235
#
# Compressibility (1/GPa) = 0.02665173
#
# Stress axis : x y z
#
# Youngs Moduli (GPa) = 82.57998 36.41266 68.69513
#
# Poissons Ratio (x) = 0.11618 0.17020
# Poissons Ratio (y) = 0.26349 0.55441
# Poissons Ratio (z) = 0.20460 0.29387
#
# Static dielectric constant tensor:
#      x y z
#    x 3.808670 0.000000 -0.058370 
#    y 0.000000 3.117080 0.000000 
#    z -0.058370 0.000000 3.813190 
# 
# 
# High freq. dielectric constant tensor:
#      x y z
#    x 1.776250 0.000000 0.003860 
#    y 0.000000 1.688000 0.000000 
#    z 0.003860 0.000000 1.777330 
# 
# From -- ./inp_files/56546.got.cif
#   From: 2010.06.25/outbox.cif.g09.slc.cpg/sg10_29_cif.got.tgz:56546.got - 2010.06.27 22:07:45.
