data_PCOD8061817
_publ_section_title
;
Structure prediction by ZEFSAII (Michael W. Deem and Ramdas Pophale) SiO2 
 PCOD8061817
Probable space group: P 2/M
;
_chemical_formula_sum "Si O2"
_cell_formula_units_Z 32
_cell_length_a 20.239748
_cell_length_b 9.276830
_cell_length_c 21.033601
_cell_angle_alpha 90.000000
_cell_angle_beta 25.914770
_cell_angle_gamma 90.000000
_cell_volume 1725.969926
_symmetry_space_group_name_H-M "P 2/M"
_symmetry_group_IT_number 10
_symmetry_cell_setting 'monoclinic'
loop_
_space_group_symop_operation_xyz
x,y,z
-x,y,-z
-x,-y,-z
x,-y,z
loop_
_atom_site_type_symbol
_atom_site_label
_atom_site_fract_x
_atom_site_fract_y
_atom_site_fract_z
Si Si1 0.343790 0.334491 0.667487
Si Si2 0.227675 0.334456 0.902206
Si Si3 0.838302 0.166244 0.816025
Si Si4 0.711083 0.665464 0.595902
Si Si5 0.003408 0.331042 0.569869
Si Si6 0.862903 0.164068 0.362137
Si Si7 0.078841 0.828236 0.830108
Si Si8 0.369606 0.332386 0.912976
O O1 0.500000 0.281137 0.500000
O O2 0.311990 0.500000 0.674986
O O3 0.349530 0.319623 0.739330
O O4 0.207603 0.233114 0.763833
O O5 0.174263 0.500000 0.954694
O O6 0.306625 0.281704 0.898935
O O7 0.082860 0.237264 0.011342
O O8 0.872367 0.244544 0.719891
O O9 0.977377 0.187232 0.742784
O O10 0.801616 0.000000 0.834253
O O11 0.696692 0.240105 0.972190
O O12 0.729781 0.500000 0.561701
O O13 0.733968 0.748764 0.510155
O O14 0.546708 0.700045 0.764676
O O15 0.832830 0.711523 0.543749
O O16 0.969693 0.500000 0.606317
O O17 0.000000 0.281803 0.500000
O O18 0.878544 0.222276 0.277553
O O19 0.810642 0.000000 0.407980
O O20 0.068730 0.000000 0.845733
O O21 0.332753 0.500000 0.955868
#
# Coordination Sequence:
#
# PCOD8061817 Si02
#       8
#     4   4   4   4   4   4   4   4
#     4  10  23  40  57  78 107 140 180 229 279 329
#     4  10  21  37  56  78 104 140 181 223 272 326
#     4  10  19  34  55  80 111 143 179 219 263 317
#     4   9  19  33  54  82 109 139 179 223 267 314
#     4   9  18  35  58  83 112 146 183 222 266 316
#     4   9  19  34  51  76 106 137 174 218 266 318
#     4  11  22  37  56  79 107 140 180 222 271 329
#     4  10  20  34  54  81 110 138 178 226 272 321
#
# _framework density 18.540299000000001
#
# number of rings (size 3 to 8) (size 9 to 14) (size 15 to 20)
#    0.000    2.250    1.250    1.125    1.750    4.500 
#    0.000    0.625    0.000    3.750    0.000    0.000 
#    0.000    0.000    0.000    0.000    0.000    0.000 
#
# Total GULP energy -396860.801328 kJ/mol
# GULP energy per Si atom -12401.900041 kJ/mol
# Density = 1.849810 g / cm^3
# Si number density = 18.540299 Si / 1000 Ang^3
#
#
#
# Elastic Constant Matrix: (Units=GPa)
#
#
# Indices 1 2 3 4 5 6 
#
# 1 80.4182 32.1119 55.7537 0.0000 20.3566 0.0000
# 2 32.1119 67.0811 58.4006 0.0000 10.3629 0.0000
# 3 55.7537 58.4006 127.5800 0.0000 19.1505 0.0000
# 4 0.0000 0.0000 0.0000 20.0507 0.0000 5.9437
# 5 20.3566 10.3629 19.1505 0.0000 31.1708 0.0000
# 6 0.0000 0.0000 0.0000 5.9437 0.0000 23.0600
#
#
#
# Elastic Compliance Matrix: (Units=1/GPa)
#
#
# Indices 1 2 3 4 5 6 
#
# 1 0.019958 -0.002932 -0.006135 0.000000 -0.008290 0.000000
# 2 -0.002932 0.025271 -0.010259 0.000000 -0.000184 0.000000
# 3 -0.006135 -0.010259 0.015535 0.000000 -0.002127 0.000000
# 4 0.000000 0.000000 0.000000 0.054000 0.000000 -0.013918
# 5 -0.008290 -0.000184 -0.002127 0.000000 0.038863 0.000000
# 6 0.000000 0.000000 0.000000 -0.013918 0.000000 0.046953
#
#
# Mechanical properties :
#
#
# Convention : Reuss Voigt Hill
#
# Bulk Modulus (GPa) = 45.22658 63.06797 54.14727
# Shear Modulus (GPa) = 20.27571 23.44383 21.85977
#
# Velocity S-wave (km/s) = 3.31055 3.55981 3.43744
# Velocity P-wave (km/s) = 6.24977 7.14051 6.70994
#
# Compressibility (1/GPa) = 0.02211089
#
# Stress axis : x y z
#
# Youngs Moduli (GPa) = 50.10601 39.57160 64.37174
#
# Poissons Ratio (x) = 0.11602 0.39494
# Poissons Ratio (y) = 0.14690 0.66039
# Poissons Ratio (z) = 0.30742 0.40596
#
# Static dielectric constant tensor:
#      x y z
#    x 3.373620 0.000000 0.121430 
#    y 0.000000 3.367880 0.000000 
#    z 0.121430 0.000000 3.429210 
# 
# 
# High freq. dielectric constant tensor:
#      x y z
#    x 1.708760 0.000000 0.013260 
#    y 0.000000 1.715940 0.000000 
#    z 0.013260 0.000000 1.722200 
# 
# From -- ./inp_files/90611.got.cif
#   From: 2010.06.25/outbox.cif.g09.slc.cpg/sg10_46_cif.got.tgz:90611.got - 2010.06.27 22:07:45.
