data_PCOD8061208
_publ_section_title
;
Structure prediction by ZEFSAII (Michael W. Deem and Ramdas Pophale) SiO2 
 PCOD8061208
Probable space group: P 2/M
;
_chemical_formula_sum "Si O2"
_cell_formula_units_Z 32
_cell_length_a 25.500445
_cell_length_b 8.973127
_cell_length_c 21.120461
_cell_angle_alpha 90.000000
_cell_angle_beta 20.774883
_cell_angle_gamma 90.000000
_cell_volume 1714.165046
_symmetry_space_group_name_H-M "P 2/M"
_symmetry_group_IT_number 10
_symmetry_cell_setting 'monoclinic'
loop_
_space_group_symop_operation_xyz
x,y,z
-x,y,-z
-x,-y,-z
x,-y,z
loop_
_atom_site_type_symbol
_atom_site_label
_atom_site_fract_x
_atom_site_fract_y
_atom_site_fract_z
Si Si1 0.032455 0.674138 0.895173
Si Si2 0.874935 0.669271 0.950850
Si Si3 0.644859 0.676393 0.875928
Si Si4 0.129564 0.170838 0.597073
Si Si5 0.247833 0.823913 0.123298
Si Si6 0.905895 0.171899 0.508905
Si Si7 0.703357 0.675997 0.487675
Si Si8 0.374687 0.328527 0.857846
O O1 0.056277 0.500000 0.879548
O O2 0.894626 0.706538 0.003264
O O3 0.000000 0.750908 0.000000
O O4 0.181819 0.740361 0.694377
O O5 0.931577 0.500000 0.875335
O O6 0.706854 0.688292 0.117887
O O7 0.969382 0.779035 0.801184
O O8 0.642177 0.500000 0.886489
O O9 0.644925 0.749789 0.945531
O O10 0.797500 0.724925 0.671174
O O11 0.500000 0.730617 0.000000
O O12 0.139933 0.198721 0.511283
O O13 0.257248 0.264450 0.487141
O O14 0.152065 0.000000 0.589397
O O15 0.075965 0.781296 0.329361
O O16 0.269271 0.000000 0.101239
O O17 0.295011 0.767823 0.001139
O O18 0.882662 0.000000 0.555183
O O19 0.715752 0.500000 0.475377
O O20 0.538788 0.730650 0.658073
O O21 0.375628 0.500000 0.879705
#
# Coordination Sequence:
#
# PCOD8061208 Si02
#       8
#     4   4   4   4   4   4   4   4
#     4   8  14  28  51  77 107 145 185 219 257 310
#     4   9  17  31  52  78 107 141 177 216 265 315
#     4  11  26  43  58  81 110 141 179 221 268 323
#     4  10  19  33  53  79 106 136 178 220 262 316
#     4  11  23  40  60  81 107 140 180 223 271 322
#     4  10  22  39  58  81 107 138 178 223 271 321
#     4   9  19  33  50  76 110 143 177 222 269 312
#     4  10  20  34  53  79 111 141 177 222 272 323
#
# _framework density 18.667978999999999
#
# number of rings (size 3 to 8) (size 9 to 14) (size 15 to 20)
#    0.000    2.250    1.250    2.250    1.750    5.000 
#    0.000    0.625    0.000    9.750    0.000    0.000 
#    0.000    9.000    0.000    0.000    0.000    0.000 
#
# Total GULP energy -396700.097536 kJ/mol
# GULP energy per Si atom -12396.878048 kJ/mol
# Density = 1.862549 g / cm^3
# Si number density = 18.667979 Si / 1000 Ang^3
#
#
#
# Elastic Constant Matrix: (Units=GPa)
#
#
# Indices 1 2 3 4 5 6 
#
# 1 131.0594 32.9210 67.8794 0.0000 -13.3290 0.0000
# 2 32.9210 33.2515 24.0963 0.0000 1.7954 0.0000
# 3 67.8794 24.0963 82.1449 0.0000 -16.5321 0.0000
# 4 0.0000 0.0000 0.0000 16.0065 0.0000 -7.6655
# 5 -13.3290 1.7954 -16.5321 0.0000 32.6992 0.0000
# 6 0.0000 0.0000 0.0000 -7.6655 0.0000 10.1609
#
#
#
# Elastic Compliance Matrix: (Units=1/GPa)
#
#
# Indices 1 2 3 4 5 6 
#
# 1 0.014666 -0.007686 -0.009548 0.000000 0.001573 0.000000
# 2 -0.007686 0.044547 -0.008727 0.000000 -0.009991 0.000000
# 3 -0.009548 -0.008727 0.024421 0.000000 0.008934 0.000000
# 4 0.000000 0.000000 0.000000 0.097814 0.000000 0.073793
# 5 0.001573 -0.009991 0.008934 0.000000 0.036288 0.000000
# 6 0.000000 0.000000 0.000000 0.073793 0.000000 0.154087
#
#
# Mechanical properties :
#
#
# Convention : Reuss Voigt Hill
#
# Bulk Modulus (GPa) = 31.53304 55.13883 43.33593
# Shear Modulus (GPa) = 11.51236 19.87726 15.69481
#
# Velocity S-wave (km/s) = 2.48602 3.26663 2.90269
# Velocity P-wave (km/s) = 5.01683 6.62031 5.87355
#
# Compressibility (1/GPa) = 0.03171277
#
# Stress axis : x y z
#
# Youngs Moduli (GPa) = 68.18571 22.44821 40.94797
#
# Poissons Ratio (x) = 0.17254 0.39096
# Poissons Ratio (y) = 0.52408 0.35735
# Poissons Ratio (z) = 0.65102 0.19590
#
# Static dielectric constant tensor:
#      x y z
#    x 3.690840 0.000000 -0.097390 
#    y 0.000000 3.270850 0.000000 
#    z -0.097390 0.000000 3.485160 
# 
# 
# High freq. dielectric constant tensor:
#      x y z
#    x 1.737210 0.000000 -0.011080 
#    y 0.000000 1.707500 0.000000 
#    z -0.011080 0.000000 1.710230 
# 
# From -- ./inp_files/86821.got.cif
#   From: 2010.06.25/outbox.cif.g09.slc.cpg/sg10_44_cif.got.tgz:86821.got - 2010.06.27 22:07:45.
