data_PCOD8061810
_publ_section_title
;
Structure prediction by ZEFSAII (Michael W. Deem and Ramdas Pophale) SiO2 
 PCOD8061810
Probable space group: P 2/M
;
_chemical_formula_sum "Si O2"
_cell_formula_units_Z 28
_cell_length_a 11.489682
_cell_length_b 17.475297
_cell_length_c 8.873838
_cell_angle_alpha 90.000000
_cell_angle_beta 54.982219
_cell_angle_gamma 90.000000
_cell_volume 1459.197868
_symmetry_space_group_name_H-M "P 2/M"
_symmetry_group_IT_number 10
_symmetry_cell_setting 'monoclinic'
loop_
_space_group_symop_operation_xyz
x,y,z
-x,y,-z
-x,-y,-z
x,-y,z
loop_
_atom_site_type_symbol
_atom_site_label
_atom_site_fract_x
_atom_site_fract_y
_atom_site_fract_z
Si Si1 0.286936 0.582635 0.236335
Si Si2 0.233980 0.165657 0.051164
Si Si3 0.127677 0.000000 0.717156
Si Si4 0.410318 0.582035 0.830853
Si Si5 0.560599 0.741191 0.295649
Si Si6 0.064550 0.147687 0.614618
Si Si7 0.278355 0.746184 0.322805
Si Si8 0.207419 0.000000 0.984986
O O1 0.210791 0.500000 0.331072
O O2 0.438235 0.581903 0.202906
O O3 0.212135 0.660841 0.347306
O O4 0.296143 0.590578 0.049236
O O5 0.287889 0.203738 0.164477
O O6 0.061313 0.170459 0.174957
O O7 0.303936 0.208359 0.855779
O O8 0.276873 0.075536 0.009150
O O9 0.160052 0.076487 0.598601
O O10 0.228917 0.000000 0.788272
O O11 0.960364 0.000000 0.869629
O O12 0.386805 0.500000 0.764177
O O13 0.391530 0.651909 0.727498
O O14 0.500000 0.770042 0.500000
O O15 0.439067 0.746682 0.260485
O O16 0.171773 0.218568 0.524124
O O17 0.000000 0.126392 0.500000
#
# Coordination Sequence:
#
# PCOD8061810 Si02
#       8
#     4   4   2   4   4   4   4   2
#     4   8  13  25  49  76 101 135 178 212 250 303
#     4  10  20  38  55  74 105 137 177 218 260 316
#     4   9  17  34  55  80 104 131 175 227 259 308
#     4   8  14  27  48  73 100 136 175 215 255 300
#     4  11  22  33  51  79 111 139 171 217 268 317
#     4   9  19  33  57  81 103 136 177 219 260 311
#     4  10  19  34  55  80 106 142 174 215 267 310
#     4   9  20  34  57  77 100 138 179 216 268 307
#
# _framework density 19.188623
#
# number of rings (size 3 to 8) (size 9 to 14) (size 15 to 20)
#    0.000    2.714    1.429    1.500    2.000    2.000 
#    0.000    2.500    0.000    4.714    0.000    0.000 
#    0.000    5.714    0.000    0.143    0.000    0.000 
#
# Total GULP energy -346866.408651 kJ/mol
# GULP energy per Si atom -12388.086023 kJ/mol
# Density = 1.914495 g / cm^3
# Si number density = 19.188623 Si / 1000 Ang^3
#
#
#
# Elastic Constant Matrix: (Units=GPa)
#
#
# Indices 1 2 3 4 5 6 
#
# 1 26.3516 33.8587 10.9443 0.0000 2.3075 0.0000
# 2 33.8587 197.9233 68.0048 0.0000 -5.1673 0.0000
# 3 10.9443 68.0048 98.0666 0.0000 -9.8685 0.0000
# 4 0.0000 0.0000 0.0000 51.2159 0.0000 -10.6747
# 5 2.3075 -5.1673 -9.8685 0.0000 19.7543 0.0000
# 6 0.0000 0.0000 0.0000 -10.6747 0.0000 20.4533
#
#
#
# Elastic Compliance Matrix: (Units=1/GPa)
#
#
# Indices 1 2 3 4 5 6 
#
# 1 0.049913 -0.008605 -0.000439 0.000000 -0.008300 0.000000
# 2 -0.008605 0.008123 -0.004588 0.000000 0.000838 0.000000
# 3 -0.000439 -0.004588 0.014017 0.000000 0.005853 0.000000
# 4 0.000000 0.000000 0.000000 0.021908 0.000000 0.011434
# 5 -0.008300 0.000838 0.005853 0.000000 0.054735 0.000000
# 6 0.000000 0.000000 0.000000 0.011434 0.000000 0.054859
#
#
# Mechanical properties :
#
#
# Convention : Reuss Voigt Hill
#
# Bulk Modulus (GPa) = 22.32651 60.88413 41.60532
# Shear Modulus (GPa) = 20.34604 32.25363 26.29984
#
# Velocity S-wave (km/s) = 3.25978 4.10429 3.70617
# Velocity P-wave (km/s) = 5.08220 7.36603 6.32800
#
# Compressibility (1/GPa) = 0.04478980
#
# Stress axis : x y z
#
# Youngs Moduli (GPa) = 20.03479 123.11045 71.34262
#
# Poissons Ratio (x) = 1.05931 0.03130
# Poissons Ratio (y) = 0.17239 0.32734
# Poissons Ratio (z) = 0.00879 0.56486
#
# Static dielectric constant tensor:
#      x y z
#    x 3.010840 0.000000 0.021200 
#    y 0.000000 4.238530 0.000000 
#    z 0.021200 0.000000 3.453680 
# 
# 
# High freq. dielectric constant tensor:
#      x y z
#    x 1.688770 0.000000 0.009500 
#    y 0.000000 1.770210 0.000000 
#    z 0.009500 0.000000 1.729370 
# 
# From -- ./inp_files/29442.got.cif
#   From: 2010.06.25/outbox.cif.g09.slc.cpg/sg10_15_cif.got.tgz:29442.got - 2010.06.27 22:07:45.
