data_PCOD8061394
_publ_section_title
;
Structure prediction by ZEFSAII (Michael W. Deem and Ramdas Pophale) SiO2 
 PCOD8061394
Probable space group: P 2/M
;
_chemical_formula_sum "Si O2"
_cell_formula_units_Z 28
_cell_length_a 9.233658
_cell_length_b 9.023493
_cell_length_c 31.692446
_cell_angle_alpha 90.000000
_cell_angle_beta 146.291822
_cell_angle_gamma 90.000000
_cell_volume 1465.441180
_symmetry_space_group_name_H-M "P 2/M"
_symmetry_group_IT_number 10
_symmetry_cell_setting 'monoclinic'
loop_
_space_group_symop_operation_xyz
x,y,z
-x,y,-z
-x,-y,-z
x,-y,z
loop_
_atom_site_type_symbol
_atom_site_label
_atom_site_fract_x
_atom_site_fract_y
_atom_site_fract_z
Si Si1 0.377556 0.174723 0.665344
Si Si2 0.891818 0.670751 0.070114
Si Si3 0.157176 0.824569 0.770152
Si Si4 0.103970 0.662962 0.478072
Si Si5 0.651464 0.671980 0.100766
Si Si6 0.620634 0.675686 0.643536
Si Si7 0.420397 0.825721 0.194801
O O1 0.544333 0.256168 0.670152
O O2 0.494724 0.226466 0.738212
O O3 0.071648 0.221439 0.590546
O O4 0.396524 0.000000 0.662873
O O5 0.969587 0.500000 0.088153
O O6 0.809251 0.717023 0.097188
O O7 0.139150 0.762438 0.114449
O O8 0.654993 0.701840 0.980634
O O9 0.246728 0.777952 0.838197
O O10 0.369932 0.768106 0.788192
O O11 0.888488 0.745569 0.692401
O O12 0.116601 0.000000 0.758910
O O13 0.085663 0.500000 0.452260
O O14 0.405620 0.714758 0.555316
O O15 0.000000 0.651330 0.500000
O O16 0.700114 0.500000 0.124026
O O17 0.646180 0.500000 0.655776
O O18 0.400600 0.000000 0.187679
#
# Coordination Sequence:
#
# PCOD8061394 Si02
#       7
#     4   4   4   4   4   4   4
#     4  10  19  33  55  80 105 137 175 214 258 308
#     4   9  19  36  59  82 104 133 170 213 260 309
#     4  11  23  37  52  74 106 143 178 212 255 307
#     4   8  16  31  51  77 106 133 167 215 264 306
#     4   9  19  37  58  82 107 131 168 216 261 307
#     4  10  20  35  55  79 106 135 171 218 265 308
#     4  10  23  38  50  73 110 143 174 213 256 305
#
# _framework density 19.106874000000001
#
# number of rings (size 3 to 8) (size 9 to 14) (size 15 to 20)
#    0.000    2.429    0.000    3.857    0.000    9.429 
#    0.000    5.000    0.000    4.286    0.000    0.000 
#    0.000    0.000    0.000    0.000    0.000    0.000 
#
# Total GULP energy -347196.206949 kJ/mol
# GULP energy per Si atom -12399.864534 kJ/mol
# Density = 1.906339 g / cm^3
# Si number density = 19.106874 Si / 1000 Ang^3
#
#
#
# Elastic Constant Matrix: (Units=GPa)
#
#
# Indices 1 2 3 4 5 6 
#
# 1 74.1067 25.1085 29.9496 0.0000 31.8817 0.0000
# 2 25.1085 54.7111 26.2699 0.0000 13.1774 0.0000
# 3 29.9496 26.2699 79.6694 0.0000 34.5535 0.0000
# 4 0.0000 0.0000 0.0000 21.3274 0.0000 13.2940
# 5 31.8817 13.1774 34.5535 0.0000 27.7546 0.0000
# 6 0.0000 0.0000 0.0000 13.2940 0.0000 22.1045
#
#
#
# Elastic Compliance Matrix: (Units=1/GPa)
#
#
# Indices 1 2 3 4 5 6 
#
# 1 0.031815 -0.008748 0.010811 0.000000 -0.045851 0.000000
# 2 -0.008748 0.024240 -0.008849 0.000000 0.009557 0.000000
# 3 0.010811 -0.008849 0.032539 0.000000 -0.048727 0.000000
# 4 0.000000 0.000000 0.000000 0.075007 0.000000 -0.045110
# 5 -0.045851 0.009557 -0.048727 0.000000 0.144826 0.000000
# 6 0.000000 0.000000 0.000000 -0.045110 0.000000 0.072370
#
#
# Mechanical properties :
#
#
# Convention : Reuss Voigt Hill
#
# Bulk Modulus (GPa) = 13.32961 41.23813 27.28387
# Shear Modulus (GPa) = 11.92250 22.71458 17.31854
#
# Velocity S-wave (km/s) = 2.50069 3.45166 3.01392
# Velocity P-wave (km/s) = 3.91528 6.12495 5.14026
#
# Compressibility (1/GPa) = 0.07502093
#
# Stress axis : x y z
#
# Youngs Moduli (GPa) = 31.43193 41.25476 30.73213
#
# Poissons Ratio (x) = 0.36090 -0.33224
# Poissons Ratio (y) = 0.27497 0.27195
# Poissons Ratio (z) = -0.33981 0.36507
#
# Static dielectric constant tensor:
#      x y z
#    x 3.419670 0.000000 0.244650 
#    y 0.000000 3.408950 0.000000 
#    z 0.244650 0.000000 3.795780 
# 
# 
# High freq. dielectric constant tensor:
#      x y z
#    x 1.723340 0.000000 0.016280 
#    y 0.000000 1.741220 0.000000 
#    z 0.016280 0.000000 1.754750 
# 
# From -- ./inp_files/94533.got.cif
#   From: 2010.06.25/outbox.cif.g09.slc.cpg/sg10_48_cif.got.tgz:94533.got - 2010.06.27 22:07:45.
