data_PCOD8061407
_publ_section_title
;
Structure prediction by ZEFSAII (Michael W. Deem and Ramdas Pophale) SiO2 
 PCOD8061407
Probable space group: P 2/M
;
_chemical_formula_sum "Si O2"
_cell_formula_units_Z 32
_cell_length_a 28.026050
_cell_length_b 9.012253
_cell_length_c 21.631749
_cell_angle_alpha 90.000000
_cell_angle_beta 18.838560
_cell_angle_gamma 90.000000
_cell_volume 1764.243804
_symmetry_space_group_name_H-M "P 2/M"
_symmetry_group_IT_number 10
_symmetry_cell_setting 'monoclinic'
loop_
_space_group_symop_operation_xyz
x,y,z
-x,y,-z
-x,-y,-z
x,-y,z
loop_
_atom_site_type_symbol
_atom_site_label
_atom_site_fract_x
_atom_site_fract_y
_atom_site_fract_z
Si Si1 0.840319 0.173728 0.338438
Si Si2 0.074489 0.672373 0.973197
Si Si3 0.828996 0.173607 0.712543
Si Si4 0.302108 0.326269 0.376665
Si Si5 0.412089 0.326391 0.546367
Si Si6 0.669825 0.172397 0.782494
Si Si7 0.602514 0.674754 0.075129
Si Si8 0.457844 0.174741 0.364508
O O1 0.816023 0.250010 0.433962
O O2 0.707500 0.216753 0.454752
O O3 0.849598 0.000000 0.337608
O O4 0.995083 0.232203 0.123005
O O5 0.056895 0.500000 0.011297
O O6 0.243767 0.722176 0.763387
O O7 0.000000 0.711931 0.000000
O O8 0.758106 0.222132 0.734718
O O9 0.000000 0.216830 0.500000
O O10 0.804526 0.000000 0.755085
O O11 0.753071 0.262829 0.861347
O O12 0.275983 0.500000 0.411199
O O13 0.268671 0.267708 0.349450
O O14 0.467950 0.283242 0.194310
O O15 0.500000 0.283162 0.500000
O O16 0.423726 0.500000 0.516664
O O17 0.481964 0.237198 0.403603
O O18 0.693057 0.000000 0.738802
O O19 0.500000 0.212174 0.000000
O O20 0.616453 0.500000 0.067883
O O21 0.576732 0.749979 0.173266
O O22 0.485197 0.000000 0.330463
#
# Coordination Sequence:
#
# PCOD8061407 Si02
#       8
#     4   4   4   4   4   4   4   4
#     4  10  20  33  53  81 111 141 178 225 272 319
#     4  10  19  33  55  80 107 139 176 219 266 317
#     4  10  21  37  56  80 111 145 180 220 268 321
#     4  10  20  33  53  81 111 141 178 225 272 319
#     4  10  21  37  56  80 111 145 180 220 268 321
#     4  10  19  33  55  80 107 139 176 219 266 317
#     4  10  20  34  55  81 109 141 180 224 268 319
#     4  10  20  34  55  81 109 141 180 224 268 319
#
# _framework density 18.138083000000002
#
# number of rings (size 3 to 8) (size 9 to 14) (size 15 to 20)
#    0.000    2.000    2.500    1.500    0.000    4.000 
#    0.000    1.250    0.000    0.000    0.000    0.000 
#    0.000    0.000    0.000    0.000    0.000    0.000 
#
# Total GULP energy -396963.846918 kJ/mol
# GULP energy per Si atom -12405.120216 kJ/mol
# Density = 1.809680 g / cm^3
# Si number density = 18.138083 Si / 1000 Ang^3
#
#
#
# Elastic Constant Matrix: (Units=GPa)
#
#
# Indices 1 2 3 4 5 6 
#
# 1 121.5798 54.3189 74.4578 0.0000 14.7123 0.0000
# 2 54.3189 77.8230 57.3039 0.0000 19.5645 0.0000
# 3 74.4578 57.3039 126.1684 0.0000 16.2074 0.0000
# 4 0.0000 0.0000 0.0000 21.0213 0.0000 22.7898
# 5 14.7123 19.5645 16.2074 0.0000 34.5892 0.0000
# 6 0.0000 0.0000 0.0000 22.7898 0.0000 17.4257
#
#
#
# Elastic Compliance Matrix: (Units=1/GPa)
#
#
# Indices 1 2 3 4 5 6 
#
# 1 0.014384 -0.005657 -0.005900 0.000000 -0.000154 0.000000
# 2 -0.005657 0.023404 -0.006278 0.000000 -0.007890 0.000000
# 3 -0.005900 -0.006278 0.014344 0.000000 -0.000661 0.000000
# 4 0.000000 0.000000 0.000000 -0.113845 0.000000 0.148890
# 5 -0.000154 -0.007890 -0.000661 0.000000 0.033749 0.000000
# 6 0.000000 0.000000 0.000000 0.148890 0.000000 -0.137336
#
#
# Mechanical properties :
#
#
# Convention : Reuss Voigt Hill
#
# Bulk Modulus (GPa) = 60.74135 77.52583 69.13359
# Shear Modulus (GPa) = -40.27611 23.90660 -8.18476
#
# Velocity S-wave (km/s) = -4.71736 3.63441 -2.12656
# Velocity P-wave (km/s) = 1.97223 7.77475 5.67170
#
# Compressibility (1/GPa) = 0.01646325
#
# Stress axis : x y z
#
# Youngs Moduli (GPa) = 69.52095 42.72699 69.71669
#
# Poissons Ratio (x) = 0.24171 0.41130
# Poissons Ratio (y) = 0.39328 0.43768
# Poissons Ratio (z) = 0.41015 0.26824
#
# Static dielectric constant tensor:
#      x y z
#    x 3.289140 0.000000 0.106330 
#    y 0.000000 3.257060 0.000000 
#    z 0.106330 0.000000 3.305570 
# 
# 
# High freq. dielectric constant tensor:
#      x y z
#    x 1.693680 0.000000 0.019540 
#    y 0.000000 1.705120 0.000000 
#    z 0.019540 0.000000 1.696660 
# 
# From -- ./inp_files/86744.got.cif
#   From: 2010.06.25/outbox.cif.g09.slc.cpg/sg10_44_cif.got.tgz:86744.got - 2010.06.27 22:07:45.
