data_PCOD8061743
_publ_section_title
;
Structure prediction by ZEFSAII (Michael W. Deem and Ramdas Pophale) SiO2 
 PCOD8061743
Probable space group: P 2/M
;
_chemical_formula_sum "Si O2"
_cell_formula_units_Z 22
_cell_length_a 9.994636
_cell_length_b 7.472604
_cell_length_c 15.472012
_cell_angle_alpha 90.000000
_cell_angle_beta 101.900978
_cell_angle_gamma 90.000000
_cell_volume 1130.704184
_symmetry_space_group_name_H-M "P 2/M"
_symmetry_group_IT_number 10
_symmetry_cell_setting 'monoclinic'
loop_
_space_group_symop_operation_xyz
x,y,z
-x,y,-z
-x,-y,-z
x,-y,z
loop_
_atom_site_type_symbol
_atom_site_label
_atom_site_fract_x
_atom_site_fract_y
_atom_site_fract_z
Si Si1 0.058489 0.703081 0.781525
Si Si2 0.489156 0.708693 0.403804
Si Si3 0.431504 0.000000 0.855861
Si Si4 0.266581 0.000000 0.111386
Si Si5 0.676378 0.294529 0.278344
Si Si6 0.753660 0.707449 0.748396
Si Si7 0.160278 0.000000 0.917164
O O1 0.081656 0.500000 0.815854
O O2 0.163158 0.750430 0.716706
O O3 0.904523 0.730317 0.726094
O O4 0.086518 0.825837 0.868436
O O5 0.500000 0.800085 0.500000
O O6 0.462997 0.500000 0.412742
O O7 0.630576 0.747835 0.370828
O O8 0.358524 0.784774 0.333636
O O9 0.417001 0.822563 0.796267
O O10 0.584111 0.000000 0.913454
O O11 0.320861 0.000000 0.916482
O O12 0.248560 0.178983 0.164553
O O13 0.152174 0.000000 0.020341
O O14 0.643196 0.500000 0.252100
O O15 0.724023 0.500000 0.767725
#
# Coordination Sequence:
#
# PCOD8061743 Si02
#       7
#     4   4   2   2   4   4   2
#     4   9  19  36  55  75 105 144 176 209 260 311
#     4   9  17  32  55  81 107 135 172 217 258 305
#     4  10  19  34  54  77 104 136 175 215 260 310
#     4  12  22  34  55  80 105 140 175 217 268 306
#     4   9  17  33  55  76 103 140 174 209 258 310
#     4  10  21  36  54  78 108 139 174 215 260 312
#     4  10  22  36  53  79 107 134 179 225 252 305
#
# _framework density 19.456900999999998
#
# number of rings (size 3 to 8) (size 9 to 14) (size 15 to 20)
#    0.000    2.364    1.818    0.818    0.000    2.182 
#    0.000    4.545    0.000   10.909    0.000    5.091 
#    0.000    0.000    0.000    0.000    0.000    0.000 
#
# Total GULP energy -272663.801147 kJ/mol
# GULP energy per Si atom -12393.809143 kJ/mol
# Density = 1.941262 g / cm^3
# Si number density = 19.456901 Si / 1000 Ang^3
#
#
#
# Elastic Constant Matrix: (Units=GPa)
#
#
# Indices 1 2 3 4 5 6 
#
# 1 118.7918 25.2786 51.0742 0.0000 11.2164 0.0000
# 2 25.2786 79.3569 37.9113 0.0000 -0.4161 0.0000
# 3 51.0742 37.9113 136.4181 0.0000 -1.2790 0.0000
# 4 0.0000 0.0000 0.0000 -90.1343 0.0000 -32.8146
# 5 11.2164 -0.4161 -1.2790 0.0000 13.5791 0.0000
# 6 0.0000 0.0000 0.0000 -32.8146 0.0000 9.5025
#
#
#
# Elastic Compliance Matrix: (Units=1/GPa)
#
#
# Indices 1 2 3 4 5 6 
#
# 1 0.011391 -0.001843 -0.003845 0.000000 -0.009828 0.000000
# 2 -0.001843 0.014829 -0.003415 0.000000 0.001655 0.000000
# 3 -0.003845 -0.003415 0.009756 0.000000 0.003990 0.000000
# 4 0.000000 0.000000 0.000000 -0.004915 0.000000 -0.016973
# 5 -0.009828 0.001655 0.003990 0.000000 0.082187 0.000000
# 6 0.000000 0.000000 0.000000 -0.016973 0.000000 0.046622
#
#
# Mechanical properties :
#
#
# Convention : Reuss Voigt Hill
#
# Bulk Modulus (GPa) = 56.27580 62.56612 59.42096
# Shear Modulus (GPa) = 27.17385 1.27631 14.22508
#
# Velocity S-wave (km/s) = 3.74119 0.81080 2.70683
# Velocity P-wave (km/s) = 6.90276 5.75349 6.35416
#
# Compressibility (1/GPa) = 0.01776963
#
# Stress axis : x y z
#
# Youngs Moduli (GPa) = 87.78594 67.43639 102.49695
#
# Poissons Ratio (x) = 0.12431 0.39407
# Poissons Ratio (y) = 0.16183 0.35006
# Poissons Ratio (z) = 0.33751 0.23032
#
# Static dielectric constant tensor:
#      x y z
#    x 3.921210 0.000000 -0.076750 
#    y 0.000000 3.564250 0.000000 
#    z -0.076750 0.000000 3.365390 
# 
# 
# High freq. dielectric constant tensor:
#      x y z
#    x 1.776250 0.000000 -0.008800 
#    y 0.000000 1.761130 0.000000 
#    z -0.008800 0.000000 1.719440 
# 
# From -- ./inp_files/60384.got.cif
#   From: 2010.06.25/outbox.cif.g09.slc.cpg/sg10_31_cif.got.tgz:60384.got - 2010.06.27 22:07:45.
