data_PCOD8061935
_publ_section_title
;
Structure prediction by ZEFSAII (Michael W. Deem and Ramdas Pophale) SiO2 
 PCOD8061935
Probable space group: P 2/M
;
_chemical_formula_sum "Si O2"
_cell_formula_units_Z 24
_cell_length_a 24.308788
_cell_length_b 8.468452
_cell_length_c 18.052641
_cell_angle_alpha 90.000000
_cell_angle_beta 19.231587
_cell_angle_gamma 90.000000
_cell_volume 1224.094195
_symmetry_space_group_name_H-M "P 2/M"
_symmetry_group_IT_number 10
_symmetry_cell_setting 'monoclinic'
loop_
_space_group_symop_operation_xyz
x,y,z
-x,y,-z
-x,-y,-z
x,-y,z
loop_
_atom_site_type_symbol
_atom_site_label
_atom_site_fract_x
_atom_site_fract_y
_atom_site_fract_z
Si Si1 0.828910 0.312726 0.751237
Si Si2 0.135331 0.684760 0.127815
Si Si3 0.329452 0.816429 0.751502
Si Si4 0.500019 0.686525 0.914217
Si Si5 0.833305 0.183835 0.423076
Si Si6 0.031479 0.683464 0.044138
O O1 0.832890 0.500000 0.741006
O O2 0.813940 0.256252 0.855135
O O3 0.000000 0.242115 0.500000
O O4 0.671215 0.250437 0.904863
O O5 0.095013 0.500000 0.178394
O O6 0.967931 0.772895 0.314881
O O7 0.289995 0.722526 0.877159
O O8 0.500000 0.749823 0.500000
O O9 0.344870 0.000000 0.751434
O O10 0.184651 0.789700 0.876134
O O11 0.522537 0.500000 0.875717
O O12 0.649879 0.773226 0.682857
O O13 0.500000 0.734971 0.000000
O O14 0.870883 0.277922 0.299123
O O15 0.845408 0.000000 0.390401
O O16 0.077698 0.500000 0.993613
O O17 0.000000 0.731150 0.000000
#
# Coordination Sequence:
#
# PCOD8061935 Si02
#       6
#     4   4   4   4   4   4
#     4   9  18  33  55  83 108 134 174 221 268 315
#     4  10  19  34  57  80 105 139 181 226 268 314
#     4  10  21  36  54  78 110 145 179 217 268 327
#     4  10  20  36  59  83 109 142 181 225 269 317
#     4  11  22  36  55  79 111 146 180 220 269 326
#     4  10  21  37  58  82 107 139 183 229 270 317
#
# _framework density 19.606334
#
# number of rings (size 3 to 8) (size 9 to 14) (size 15 to 20)
#    0.000    2.000    0.000    6.000    0.000    7.000 
#    0.000    6.667    0.000    3.500    0.000    0.000 
#    0.000    0.000    0.000    0.000    0.000    0.000 
#
# Total GULP energy -297661.967848 kJ/mol
# GULP energy per Si atom -12402.581994 kJ/mol
# Density = 1.956171 g / cm^3
# Si number density = 19.606334 Si / 1000 Ang^3
#
#
#
# Elastic Constant Matrix: (Units=GPa)
#
#
# Indices 1 2 3 4 5 6 
#
# 1 170.1313 18.5130 72.7445 0.0000 11.9509 0.0000
# 2 18.5130 39.5872 15.2351 0.0000 1.8486 0.0000
# 3 72.7445 15.2351 159.7142 0.0000 4.2171 0.0000
# 4 0.0000 0.0000 0.0000 28.1879 0.0000 -4.5075
# 5 11.9509 1.8486 4.2171 0.0000 24.4568 0.0000
# 6 0.0000 0.0000 0.0000 -4.5075 0.0000 2.2994
#
#
#
# Elastic Compliance Matrix: (Units=1/GPa)
#
#
# Indices 1 2 3 4 5 6 
#
# 1 0.007710 -0.002225 -0.003219 0.000000 -0.003044 0.000000
# 2 -0.002225 0.026924 -0.001537 0.000000 -0.000683 0.000000
# 3 -0.003219 -0.001537 0.007865 0.000000 0.000333 0.000000
# 4 0.000000 0.000000 0.000000 0.051675 0.000000 0.101298
# 5 -0.003044 -0.000683 0.000333 0.000000 0.042370 0.000000
# 6 0.000000 0.000000 0.000000 0.101298 0.000000 0.633476
#
#
# Mechanical properties :
#
#
# Convention : Reuss Voigt Hill
#
# Bulk Modulus (GPa) = 35.04066 64.71310 49.87688
# Shear Modulus (GPa) = 6.30124 28.51815 17.40969
#
# Velocity S-wave (km/s) = 1.79467 3.81798 2.98310
# Velocity P-wave (km/s) = 4.71226 7.24664 6.11225
#
# Compressibility (1/GPa) = 0.02853827
#
# Stress axis : x y z
#
# Youngs Moduli (GPa) = 129.69869 37.14092 127.14207
#
# Poissons Ratio (x) = 0.08262 0.40929
# Poissons Ratio (y) = 0.28853 0.19542
# Poissons Ratio (z) = 0.41752 0.05709
#
# Static dielectric constant tensor:
#      x y z
#    x 3.743550 0.000000 0.096880 
#    y 0.000000 3.371550 0.000000 
#    z 0.096880 0.000000 3.715180 
# 
# 
# High freq. dielectric constant tensor:
#      x y z
#    x 1.767550 0.000000 0.009540 
#    y 0.000000 1.750310 0.000000 
#    z 0.009540 0.000000 1.771020 
# 
# From -- ./inp_files/80056.got.cif
#   From: 2010.06.25/outbox.cif.g09.slc.cpg/sg10_41_cif.got.tgz:80056.got - 2010.06.27 22:07:45.
