data_PCOD8061347
_publ_section_title
;
Structure prediction by ZEFSAII (Michael W. Deem and Ramdas Pophale) SiO2 
 PCOD8061347
Probable space group: P 2/M
;
_chemical_formula_sum "Si O2"
_cell_formula_units_Z 32
_cell_length_a 25.986605
_cell_length_b 9.300140
_cell_length_c 20.620458
_cell_angle_alpha 90.000000
_cell_angle_beta 21.372309
_cell_angle_gamma 90.000000
_cell_volume 1816.132801
_symmetry_space_group_name_H-M "P 2/M"
_symmetry_group_IT_number 10
_symmetry_cell_setting 'monoclinic'
loop_
_space_group_symop_operation_xyz
x,y,z
-x,y,-z
-x,-y,-z
x,-y,z
loop_
_atom_site_type_symbol
_atom_site_label
_atom_site_fract_x
_atom_site_fract_y
_atom_site_fract_z
Si Si1 0.895100 0.831955 0.927384
Si Si2 0.393535 0.165800 0.032346
Si Si3 0.365484 0.663736 0.813223
Si Si4 0.299059 0.167339 0.287469
Si Si5 0.881584 0.166782 0.090979
Si Si6 0.031017 0.670320 0.654704
Si Si7 0.257372 0.335617 0.076397
Si Si8 0.600118 0.335387 0.440115
O O1 0.006406 0.744823 0.753105
O O2 0.901184 0.000000 0.902222
O O3 0.737401 0.774083 0.101820
O O4 0.933364 0.803610 0.957198
O O5 0.558189 0.211630 0.841779
O O6 0.384192 0.000000 0.025582
O O7 0.320219 0.196805 0.186810
O O8 0.306164 0.247172 0.080604
O O9 0.311035 0.500000 0.864492
O O10 0.521707 0.684637 0.601253
O O11 0.365967 0.693326 0.889700
O O12 0.174206 0.269166 0.457121
O O13 0.262748 0.000000 0.342479
O O14 0.739159 0.243559 0.277933
O O15 0.853732 0.000000 0.135377
O O16 0.000000 0.227536 0.000000
O O17 0.043593 0.500000 0.649949
O O18 0.900302 0.709530 0.760834
O O19 0.258849 0.500000 0.096339
O O20 0.500000 0.279691 0.500000
O O21 0.641712 0.500000 0.378558
#
# Coordination Sequence:
#
# PCOD8061347 Si02
#       8
#     4   4   4   4   4   4   4   4
#     4  10  19  33  55  77 103 140 178 216 262 313
#     4   9  19  36  57  79 106 139 175 216 259 305
#     4   9  18  34  53  77 109 138 173 219 265 311
#     4   9  19  37  57  78 106 140 177 215 256 308
#     4  10  22  38  53  75 109 141 174 220 269 314
#     4  10  21  36  55  80 108 139 175 216 261 312
#     4   9  19  34  52  76 110 141 170 216 264 309
#     4  10  19  33  57  81 102 136 180 221 261 311
#
# _framework density 17.619858000000001
#
# number of rings (size 3 to 8) (size 9 to 14) (size 15 to 20)
#    0.000    2.500    1.250    2.250    0.000    5.500 
#    2.250    3.750    0.000    0.000    0.000    0.000 
#    0.000    0.000    0.000    0.000    0.000    0.000 
#
# Total GULP energy -396784.016849 kJ/mol
# GULP energy per Si atom -12399.500527 kJ/mol
# Density = 1.757975 g / cm^3
# Si number density = 17.619858 Si / 1000 Ang^3
#
#
#
# Elastic Constant Matrix: (Units=GPa)
#
#
# Indices 1 2 3 4 5 6 
#
# 1 109.8968 61.1301 59.2386 0.0000 -6.4179 0.0000
# 2 61.1301 85.7247 65.0481 0.0000 -0.6871 0.0000
# 3 59.2386 65.0481 130.8428 0.0000 -2.3779 0.0000
# 4 0.0000 0.0000 0.0000 36.5585 0.0000 -0.1125
# 5 -6.4179 -0.6871 -2.3779 0.0000 18.7066 0.0000
# 6 0.0000 0.0000 0.0000 -0.1125 0.0000 22.0604
#
#
#
# Elastic Compliance Matrix: (Units=1/GPa)
#
#
# Indices 1 2 3 4 5 6 
#
# 1 0.015981 -0.009528 -0.002411 0.000000 0.004826 0.000000
# 2 -0.009528 0.024417 -0.007886 0.000000 -0.003374 0.000000
# 3 -0.002411 -0.007886 0.012664 0.000000 0.000493 0.000000
# 4 0.000000 0.000000 0.000000 0.027354 0.000000 0.000139
# 5 0.004826 -0.003374 0.000493 0.000000 0.055052 0.000000
# 6 0.000000 0.000000 0.000000 0.000139 0.000000 0.045331
#
#
# Mechanical properties :
#
#
# Convention : Reuss Voigt Hill
#
# Bulk Modulus (GPa) = 74.56352 77.47755 76.02054
# Shear Modulus (GPa) = 22.23038 24.86825 23.54931
#
# Velocity S-wave (km/s) = 3.55585 3.76090 3.65981
# Velocity P-wave (km/s) = 7.69860 7.93262 7.81649
#
# Compressibility (1/GPa) = 0.01341138
#
# Stress axis : x y z
#
# Youngs Moduli (GPa) = 62.57581 40.95579 78.96506
#
# Poissons Ratio (x) = 0.39022 0.19037
# Poissons Ratio (y) = 0.59621 0.62274
# Poissons Ratio (z) = 0.15086 0.32299
#
# Static dielectric constant tensor:
#      x y z
#    x 3.270070 0.000000 0.095500 
#    y 0.000000 3.259480 0.000000 
#    z 0.095500 0.000000 3.279010 
# 
# 
# High freq. dielectric constant tensor:
#      x y z
#    x 1.675160 0.000000 0.011430 
#    y 0.000000 1.683420 0.000000 
#    z 0.011430 0.000000 1.681960 
# 
# From -- ./inp_files/86892.got.cif
#   From: 2010.06.25/outbox.cif.g09.slc.cpg/sg10_44_cif.got.tgz:86892.got - 2010.06.27 22:07:45.
