data_PCOD8061594
_publ_section_title
;
Structure prediction by ZEFSAII (Michael W. Deem and Ramdas Pophale) SiO2 
 PCOD8061594
Probable space group: P 2/M
;
_chemical_formula_sum "Si O2"
_cell_formula_units_Z 32
_cell_length_a 23.734975
_cell_length_b 8.989643
_cell_length_c 18.569994
_cell_angle_alpha 90.000000
_cell_angle_beta 155.387576
_cell_angle_gamma 90.000000
_cell_volume 1650.193951
_symmetry_space_group_name_H-M "P 2/M"
_symmetry_group_IT_number 10
_symmetry_cell_setting 'monoclinic'
loop_
_space_group_symop_operation_xyz
x,y,z
-x,y,-z
-x,-y,-z
x,-y,z
loop_
_atom_site_type_symbol
_atom_site_label
_atom_site_fract_x
_atom_site_fract_y
_atom_site_fract_z
Si Si1 0.145443 0.676342 0.839662
Si Si2 0.360279 0.672009 0.513162
Si Si3 0.143093 0.837496 0.339325
Si Si4 0.873543 0.168102 0.510082
Si Si5 0.355336 0.175424 0.357341
Si Si6 0.562859 0.324019 0.867012
Si Si7 0.403683 0.673487 0.821245
Si Si8 0.155509 0.828814 0.003455
O O1 0.125876 0.500000 0.816985
O O2 0.012881 0.749371 0.648370
O O3 0.279357 0.724131 0.949540
O O4 0.169877 0.729002 0.949468
O O5 0.370292 0.500000 0.505800
O O6 0.234104 0.701909 0.418924
O O7 0.328625 0.760819 0.404631
O O8 0.493840 0.728112 0.711389
O O9 0.130026 0.829661 0.408998
O O10 0.202023 0.000000 0.384863
O O11 0.992767 0.818027 0.133520
O O12 0.738539 0.248515 0.325270
O O13 0.877371 0.000000 0.484236
O O14 0.500000 0.231420 0.500000
O O15 0.251926 0.236440 0.177538
O O16 0.343866 0.000000 0.349926
O O17 0.552126 0.500000 0.859907
O O18 0.479193 0.258387 0.838080
O O19 0.373462 0.500000 0.775392
O O20 0.500000 0.704359 0.000000
O O21 0.190893 0.000000 0.024171
#
# Coordination Sequence:
#
# PCOD8061594 Si02
#       8
#     4   4   4   4   4   4   4   4
#     4  10  19  33  57  82 109 146 184 228 276 327
#     4  11  21  33  53  77 106 137 175 231 276 321
#     4   9  18  33  52  74 100 137 178 217 269 324
#     4  10  20  36  57  83 115 147 184 226 270 329
#     4  10  21  36  52  71 101 142 183 224 274 331
#     4   9  19  35  54  83 114 139 180 231 277 326
#     4  10  20  37  62  87 113 147 185 226 273 328
#     4   9  19  35  52  74 107 141 181 231 273 321
#
# _framework density 19.391659000000001
#
# number of rings (size 3 to 8) (size 9 to 14) (size 15 to 20)
#    0.000    2.250    1.250    2.625    0.000    3.500 
#    0.000    6.250    0.000    3.750    0.000    0.000 
#    0.000    0.000    0.000    0.000    0.000    0.000 
#
# Total GULP energy -396685.618440 kJ/mol
# GULP energy per Si atom -12396.425576 kJ/mol
# Density = 1.934752 g / cm^3
# Si number density = 19.391659 Si / 1000 Ang^3
#
#
#
# Elastic Constant Matrix: (Units=GPa)
#
#
# Indices 1 2 3 4 5 6 
#
# 1 40.7035 15.9675 26.4541 0.0000 8.0548 0.0000
# 2 15.9675 56.3793 44.6737 0.0000 3.9569 0.0000
# 3 26.4541 44.6737 143.7088 0.0000 12.5487 0.0000
# 4 0.0000 0.0000 0.0000 26.6421 0.0000 4.1139
# 5 8.0548 3.9569 12.5487 0.0000 26.3895 0.0000
# 6 0.0000 0.0000 0.0000 4.1139 0.0000 15.8063
#
#
#
# Elastic Compliance Matrix: (Units=1/GPa)
#
#
# Indices 1 2 3 4 5 6 
#
# 1 0.030191 -0.005493 -0.003252 0.000000 -0.006845 0.000000
# 2 -0.005493 0.024533 -0.006720 0.000000 0.001193 0.000000
# 3 -0.003252 -0.006720 0.009882 0.000000 -0.002699 0.000000
# 4 0.000000 0.000000 0.000000 0.039106 0.000000 -0.010178
# 5 -0.006845 0.001193 -0.002699 0.000000 0.041087 0.000000
# 6 0.000000 0.000000 0.000000 -0.010178 0.000000 0.065915
#
#
# Mechanical properties :
#
#
# Convention : Reuss Voigt Hill
#
# Bulk Modulus (GPa) = 29.69448 46.10912 37.90180
# Shear Modulus (GPa) = 19.77298 24.01399 21.89349
#
# Velocity S-wave (km/s) = 3.19668 3.52286 3.36373
# Velocity P-wave (km/s) = 5.38250 6.35428 5.88847
#
# Compressibility (1/GPa) = 0.03367629
#
# Stress axis : x y z
#
# Youngs Moduli (GPa) = 33.12235 40.76075 101.19701
#
# Poissons Ratio (x) = 0.22390 0.32912
# Poissons Ratio (y) = 0.18194 0.68000
# Poissons Ratio (z) = 0.10772 0.27389
#
# Static dielectric constant tensor:
#      x y z
#    x 3.541160 0.000000 0.294970 
#    y 0.000000 3.465940 0.000000 
#    z 0.294970 0.000000 3.970400 
# 
# 
# High freq. dielectric constant tensor:
#      x y z
#    x 1.735420 0.000000 0.009730 
#    y 0.000000 1.739600 0.000000 
#    z 0.009730 0.000000 1.769300 
# 
# From -- ./inp_files/87015.got.cif
#   From: 2010.06.25/outbox.cif.g09.slc.cpg/sg10_44_cif.got.tgz:87015.got - 2010.06.27 22:07:45.
