data_PCOD8061121
_publ_section_title
;
Structure prediction by ZEFSAII (Michael W. Deem and Ramdas Pophale) SiO2 
 PCOD8061121
Probable space group: P 2/M
;
_chemical_formula_sum "Si O2"
_cell_formula_units_Z 32
_cell_length_a 28.962828
_cell_length_b 8.909651
_cell_length_c 14.850399
_cell_angle_alpha 90.000000
_cell_angle_beta 151.592751
_cell_angle_gamma 90.000000
_cell_volume 1823.078369
_symmetry_space_group_name_H-M "P 2/M"
_symmetry_group_IT_number 10
_symmetry_cell_setting 'monoclinic'
loop_
_space_group_symop_operation_xyz
x,y,z
-x,y,-z
-x,-y,-z
x,-y,z
loop_
_atom_site_type_symbol
_atom_site_label
_atom_site_fract_x
_atom_site_fract_y
_atom_site_fract_z
Si Si1 0.272883 0.677606 0.997699
Si Si2 0.635430 0.676098 0.520716
Si Si3 0.233716 0.175723 0.113497
Si Si4 0.069294 0.825678 0.972242
Si Si5 0.849229 0.822696 0.569058
Si Si6 0.241089 0.830006 0.769890
Si Si7 0.436014 0.829854 0.184057
Si Si8 0.800944 0.324980 0.665523
O O1 0.280422 0.500000 0.015350
O O2 0.208677 0.729283 0.800539
O O3 0.221310 0.740729 0.997790
O O4 0.381434 0.749614 0.175097
O O5 0.632573 0.500000 0.535541
O O6 0.673334 0.759255 0.674799
O O7 0.529379 0.736299 0.314552
O O8 0.703918 0.715137 0.553962
O O9 0.249001 0.000000 0.123819
O O10 0.136202 0.211268 0.001480
O O11 0.961250 0.772695 0.763189
O O12 0.073316 0.000000 0.004245
O O13 0.104984 0.737508 0.121318
O O14 0.802467 0.761363 0.396274
O O15 0.790744 0.750140 0.550801
O O16 0.837025 0.000000 0.554677
O O17 0.202662 0.000000 0.718491
O O18 0.359475 0.829309 0.969071
O O19 0.464725 0.000000 0.259925
O O20 0.815163 0.500000 0.677375
#
# Coordination Sequence:
#
# PCOD8061121 Si02
#       8
#     4   4   4   4   4   4   4   4
#     4  10  19  33  53  75 103 136 168 206 252 302
#     4  10  20  34  51  75 106 137 168 206 253 304
#     4  10  19  33  52  76 105 135 169 210 252 298
#     4   9  19  34  54  78 103 134 171 210 252 298
#     4  10  19  35  57  77  99 133 175 213 252 299
#     4   8  18  35  53  74 100 131 171 216 251 291
#     4   9  18  34  54  75 101 133 170 211 252 294
#     4  10  21  34  50  77 110 137 164 205 257 306
#
# _framework density 17.552728999999999
#
# number of rings (size 3 to 8) (size 9 to 14) (size 15 to 20)
#    0.750    1.750    0.000    2.625    0.000    5.000 
#    0.000    3.750    0.000    7.500    0.000    0.000 
#    0.000    0.000    0.000    0.000    0.000    0.000 
#
# Total GULP energy -396712.008809 kJ/mol
# GULP energy per Si atom -12397.250275 kJ/mol
# Density = 1.751278 g / cm^3
# Si number density = 17.552729 Si / 1000 Ang^3
#
#
#
# Elastic Constant Matrix: (Units=GPa)
#
#
# Indices 1 2 3 4 5 6 
#
# 1 100.7890 44.7627 45.0405 0.0000 -19.2035 0.0000
# 2 44.7627 82.0503 24.5326 0.0000 -7.7297 0.0000
# 3 45.0405 24.5326 59.2852 0.0000 -14.4584 0.0000
# 4 0.0000 0.0000 0.0000 14.8760 0.0000 1.6264
# 5 -19.2035 -7.7297 -14.4584 0.0000 25.1442 0.0000
# 6 0.0000 0.0000 0.0000 1.6264 0.0000 30.7611
#
#
#
# Elastic Compliance Matrix: (Units=1/GPa)
#
#
# Indices 1 2 3 4 5 6 
#
# 1 0.018378 -0.006521 -0.009689 0.000000 0.006461 0.000000
# 2 -0.006521 0.016250 -0.002054 0.000000 -0.001166 0.000000
# 3 -0.009689 -0.002054 0.026891 0.000000 0.007432 0.000000
# 4 0.000000 0.000000 0.000000 0.067613 0.000000 -0.003575
# 5 0.006461 -0.001166 0.007432 0.000000 0.048620 0.000000
# 6 0.000000 0.000000 0.000000 -0.003575 0.000000 0.032698
#
#
# Mechanical properties :
#
#
# Convention : Reuss Voigt Hill
#
# Bulk Modulus (GPa) = 40.01461 52.31068 46.16265
# Shear Modulus (GPa) = 19.58423 22.67550 21.12987
#
# Velocity S-wave (km/s) = 3.34389 3.59813 3.47334
# Velocity P-wave (km/s) = 6.14452 6.86504 6.51475
#
# Compressibility (1/GPa) = 0.02499087
#
# Stress axis : x y z
#
# Youngs Moduli (GPa) = 54.41186 61.54018 37.18737
#
# Poissons Ratio (x) = 0.40130 0.36029
# Poissons Ratio (y) = 0.35481 0.07640
# Poissons Ratio (z) = 0.52717 0.12643
#
# Static dielectric constant tensor:
#      x y z
#    x 3.199650 0.000000 -0.021410 
#    y 0.000000 3.251270 0.000000 
#    z -0.021410 0.000000 3.164360 
# 
# 
# High freq. dielectric constant tensor:
#      x y z
#    x 1.671740 0.000000 -0.001000 
#    y 0.000000 1.685420 0.000000 
#    z -0.001000 0.000000 1.661520 
# 
# From -- ./inp_files/72242.got.cif
#   From: 2010.06.25/outbox.cif.g09.slc.cpg/sg10_37_cif.got.tgz:72242.got - 2010.06.27 22:07:45.
