data_PCOD8061862
_publ_section_title
;
Structure prediction by ZEFSAII (Michael W. Deem and Ramdas Pophale) SiO2 
 PCOD8061862
Probable space group: P 2/M
;
_chemical_formula_sum "Si O2"
_cell_formula_units_Z 32
_cell_length_a 14.250291
_cell_length_b 8.977282
_cell_length_c 14.883926
_cell_angle_alpha 90.000000
_cell_angle_beta 121.049991
_cell_angle_gamma 90.000000
_cell_volume 1631.262271
_symmetry_space_group_name_H-M "P 2/M"
_symmetry_group_IT_number 10
_symmetry_cell_setting 'monoclinic'
loop_
_space_group_symop_operation_xyz
x,y,z
-x,y,-z
-x,-y,-z
x,-y,z
loop_
_atom_site_type_symbol
_atom_site_label
_atom_site_fract_x
_atom_site_fract_y
_atom_site_fract_z
Si Si1 0.621681 0.177413 0.310222
Si Si2 0.803700 0.174762 0.261591
Si Si3 0.761282 0.176064 0.727024
Si Si4 0.981696 0.666948 0.844439
Si Si5 0.017633 0.664131 0.368202
Si Si6 0.800358 0.823026 0.054777
Si Si7 0.742220 0.677726 0.527969
Si Si8 0.622719 0.824956 0.828978
O O1 0.704143 0.233085 0.273429
O O2 0.650438 0.255841 0.418019
O O3 0.501075 0.234839 0.223045
O O4 0.625765 0.000000 0.325609
O O5 0.781815 0.227419 0.148750
O O6 0.919355 0.235092 0.357504
O O7 0.812067 0.000000 0.270832
O O8 0.723663 0.253613 0.616829
O O9 0.669966 0.218188 0.755162
O O10 0.876144 0.238327 0.821573
O O11 0.772563 0.000000 0.717283
O O12 0.974815 0.500000 0.881428
O O13 0.090876 0.748506 0.933533
O O14 0.986450 0.659879 0.740356
O O15 0.999813 0.500000 0.399892
O O16 0.138456 0.725126 0.453446
O O17 0.814401 0.000000 0.054189
O O18 0.697694 0.761163 0.946713
O O19 0.733710 0.500000 0.531528
O O20 0.621724 0.000000 0.839994
#
# Coordination Sequence:
#
# PCOD8061862 Si02
#       8
#     4   4   4   4   4   4   4   4
#     4  10  21  37  53  75 105 138 177 220 259 305
#     4   9  18  31  53  81 106 133 170 214 258 300
#     4  10  19  34  56  79 103 137 174 214 260 310
#     4   9  17  31  51  79 110 138 168 210 261 313
#     4   8  16  31  51  73 102 134 165 203 257 318
#     4   9  17  33  55  79 106 139 175 213 255 307
#     4  10  21  37  55  78 105 137 172 213 264 315
#     4   9  20  36  54  76 104 138 180 219 257 306
#
# _framework density 19.616712
#
# number of rings (size 3 to 8) (size 9 to 14) (size 15 to 20)
#    0.000    2.750    0.000    1.875    0.000    6.000 
#    0.000   13.125    0.000    0.000    0.000    4.375 
#    0.000    0.000    0.000    0.000    0.000    0.000 
#
# Total GULP energy -396712.347161 kJ/mol
# GULP energy per Si atom -12397.260849 kJ/mol
# Density = 1.957206 g / cm^3
# Si number density = 19.616712 Si / 1000 Ang^3
#
#
#
# Elastic Constant Matrix: (Units=GPa)
#
#
# Indices 1 2 3 4 5 6 
#
# 1 88.8204 23.2842 16.3721 0.0000 14.5480 0.0000
# 2 23.2842 46.3652 14.9298 0.0000 -3.6402 0.0000
# 3 16.3721 14.9298 73.2596 0.0000 14.1024 0.0000
# 4 0.0000 0.0000 0.0000 12.5514 0.0000 2.5400
# 5 14.5480 -3.6402 14.1024 0.0000 26.5223 0.0000
# 6 0.0000 0.0000 0.0000 2.5400 0.0000 5.8096
#
#
#
# Elastic Compliance Matrix: (Units=1/GPa)
#
#
# Indices 1 2 3 4 5 6 
#
# 1 0.014948 -0.008300 0.000165 0.000000 -0.009426 0.000000
# 2 -0.008300 0.028682 -0.006266 0.000000 0.011821 0.000000
# 3 0.000165 -0.006266 0.016792 0.000000 -0.009879 0.000000
# 4 0.000000 0.000000 0.000000 0.087406 0.000000 -0.038215
# 5 -0.009426 0.011821 -0.009879 0.000000 0.049750 0.000000
# 6 0.000000 0.000000 0.000000 -0.038215 0.000000 0.188836
#
#
# Mechanical properties :
#
#
# Convention : Reuss Voigt Hill
#
# Bulk Modulus (GPa) = 31.62474 35.29082 33.45778
# Shear Modulus (GPa) = 11.74387 19.23396 15.48891
#
# Velocity S-wave (km/s) = 2.44942 3.13467 2.81299
# Velocity P-wave (km/s) = 4.91486 5.57950 5.25769
#
# Compressibility (1/GPa) = 0.03162082
#
# Stress axis : x y z
#
# Youngs Moduli (GPa) = 66.89855 34.86535 59.55310
#
# Poissons Ratio (x) = 0.28939 -0.00986
# Poissons Ratio (y) = 0.55527 0.37314
# Poissons Ratio (z) = -0.01107 0.21846
#
# Static dielectric constant tensor:
#      x y z
#    x 3.791160 0.000000 0.211870 
#    y 0.000000 3.467720 0.000000 
#    z 0.211870 0.000000 3.649640 
# 
# 
# High freq. dielectric constant tensor:
#      x y z
#    x 1.763180 0.000000 0.004830 
#    y 0.000000 1.746420 0.000000 
#    z 0.004830 0.000000 1.762980 
# 
# From -- ./inp_files/66568.got.cif
#   From: 2010.06.25/outbox.cif.g09.slc.cpg/sg10_34_cif.got.tgz:66568.got - 2010.06.27 22:07:45.
