data_PCOD8061824
_publ_section_title
;
Structure prediction by ZEFSAII (Michael W. Deem and Ramdas Pophale) SiO2 
 PCOD8061824
Probable space group: P 2/M
;
_chemical_formula_sum "Si O2"
_cell_formula_units_Z 32
_cell_length_a 14.079168
_cell_length_b 9.218721
_cell_length_c 12.421558
_cell_angle_alpha 90.000000
_cell_angle_beta 98.302379
_cell_angle_gamma 90.000000
_cell_volume 1595.321508
_symmetry_space_group_name_H-M "P 2/M"
_symmetry_group_IT_number 10
_symmetry_cell_setting 'monoclinic'
loop_
_space_group_symop_operation_xyz
x,y,z
-x,y,-z
-x,-y,-z
x,-y,z
loop_
_atom_site_type_symbol
_atom_site_label
_atom_site_fract_x
_atom_site_fract_y
_atom_site_fract_z
Si Si1 0.824996 0.167304 0.742785
Si Si2 0.380843 0.169389 0.215033
Si Si3 0.223596 0.669511 0.676168
Si Si4 0.561871 0.330305 0.212329
Si Si5 0.892375 0.832221 0.513510
Si Si6 0.620058 0.157704 0.027372
Si Si7 0.825327 0.158974 0.137166
Si Si8 0.107899 0.340852 0.049253
O O1 0.711723 0.210075 0.727259
O O2 0.872516 0.193848 0.635507
O O3 0.885078 0.267659 0.833027
O O4 0.835273 0.000000 0.780838
O O5 0.475182 0.259555 0.268319
O O6 0.404848 0.000000 0.229682
O O7 0.355268 0.217290 0.087874
O O8 0.202158 0.500000 0.673395
O O9 0.336755 0.700427 0.712272
O O10 0.189019 0.738484 0.559065
O O11 0.154529 0.740392 0.756380
O O12 0.544506 0.500000 0.196987
O O13 0.552174 0.260824 0.089856
O O14 0.000000 0.780605 0.500000
O O15 0.878596 0.000000 0.479180
O O16 0.712490 0.138164 0.115778
O O17 0.570710 0.000000 0.007538
O O18 0.876055 0.000000 0.157068
O O19 0.849042 0.233404 0.029898
O O20 0.158998 0.500000 0.057729
O O21 0.000000 0.366093 0.000000
#
# Coordination Sequence:
#
# PCOD8061824 Si02
#       8
#     4   4   4   4   4   4   4   4
#     4  10  22  42  63  87 120 156 201 252 300 357
#     4  10  19  34  55  81 114 155 197 242 296 350
#     4  10  22  40  60  86 123 158 197 246 300 357
#     4  10  21  34  52  83 118 156 197 239 289 348
#     4  10  23  43  67  93 115 147 201 255 300 355
#     4   9  17  31  51  78 114 154 195 236 283 343
#     4  10  19  35  59  85 116 157 199 243 294 344
#     4  11  24  38  55  86 125 159 195 238 297 365
#
# _framework density 20.058651000000001
#
# number of rings (size 3 to 8) (size 9 to 14) (size 15 to 20)
#    0.000    2.000    1.250    1.875    1.750    6.250 
#    0.000    0.625    0.000    3.750    0.000    0.000 
#    0.000    0.000    0.000    0.000    0.000    0.000 
#
# Total GULP energy -396599.855277 kJ/mol
# GULP energy per Si atom -12393.745477 kJ/mol
# Density = 2.001300 g / cm^3
# Si number density = 20.058651 Si / 1000 Ang^3
#
#
#
# Elastic Constant Matrix: (Units=GPa)
#
#
# Indices 1 2 3 4 5 6 
#
# 1 98.0875 51.0711 46.8286 0.0000 -12.7572 0.0000
# 2 51.0711 124.9710 59.4817 0.0000 -3.0184 0.0000
# 3 46.8286 59.4817 86.8231 0.0000 -6.8894 0.0000
# 4 0.0000 0.0000 0.0000 23.6714 0.0000 10.8232
# 5 -12.7572 -3.0184 -6.8894 0.0000 28.9609 0.0000
# 6 0.0000 0.0000 0.0000 10.8232 0.0000 28.9303
#
#
#
# Elastic Compliance Matrix: (Units=1/GPa)
#
#
# Indices 1 2 3 4 5 6 
#
# 1 0.015286 -0.003549 -0.005410 0.000000 0.005077 0.000000
# 2 -0.003549 0.012712 -0.006945 0.000000 -0.001891 0.000000
# 3 -0.005410 -0.006945 0.019311 0.000000 0.001487 0.000000
# 4 0.000000 0.000000 0.000000 0.050962 0.000000 -0.019066
# 5 0.005077 -0.001891 0.001487 0.000000 0.036922 0.000000
# 6 0.000000 0.000000 0.000000 -0.019066 0.000000 0.041699
#
#
# Mechanical properties :
#
#
# Convention : Reuss Voigt Hill
#
# Bulk Modulus (GPa) = 64.51060 69.40493 66.95776
# Shear Modulus (GPa) = 23.37888 26.47922 24.92905
#
# Velocity S-wave (km/s) = 3.41768 3.63725 3.52917
# Velocity P-wave (km/s) = 6.91411 7.23295 7.07532
#
# Compressibility (1/GPa) = 0.01550133
#
# Stress axis : x y z
#
# Youngs Moduli (GPa) = 65.41861 78.66588 51.78268
#
# Poissons Ratio (x) = 0.27920 0.28016
# Poissons Ratio (y) = 0.23218 0.35961
# Poissons Ratio (z) = 0.35394 0.54630
#
# Static dielectric constant tensor:
#      x y z
#    x 3.347070 0.000000 -0.001630 
#    y 0.000000 3.893570 0.000000 
#    z -0.001630 0.000000 3.403620 
# 
# 
# High freq. dielectric constant tensor:
#      x y z
#    x 1.789470 0.000000 -0.000360 
#    y 0.000000 1.785290 0.000000 
#    z -0.000360 0.000000 1.758570 
# 
# From -- ./inp_files/49774.got.cif
#   From: 2010.06.25/outbox.cif.g09.slc.cpg/sg10_25_cif.got.tgz:49774.got - 2010.06.27 22:07:45.
