data_PCOD8061931
_publ_section_title
;
Structure prediction by ZEFSAII (Michael W. Deem and Ramdas Pophale) SiO2 
 PCOD8061931
Probable space group: P 2/M
;
_chemical_formula_sum "Si O2"
_cell_formula_units_Z 24
_cell_length_a 15.089762
_cell_length_b 10.351277
_cell_length_c 6.846093
_cell_angle_alpha 90.000000
_cell_angle_beta 109.862562
_cell_angle_gamma 90.000000
_cell_volume 1005.732970
_symmetry_space_group_name_H-M "P 2/M"
_symmetry_group_IT_number 10
_symmetry_cell_setting 'monoclinic'
loop_
_space_group_symop_operation_xyz
x,y,z
-x,y,-z
-x,-y,-z
x,-y,z
loop_
_atom_site_type_symbol
_atom_site_label
_atom_site_fract_x
_atom_site_fract_y
_atom_site_fract_z
Si Si1 0.376829 0.643974 0.233076
Si Si2 0.274655 0.142689 0.671270
Si Si3 0.954637 0.359762 0.756278
Si Si4 0.421150 0.645895 0.722084
Si Si5 0.791697 0.210685 0.778105
Si Si6 0.094028 0.856454 0.779928
O O1 0.344082 0.500000 0.156724
O O2 0.404018 0.653255 0.479445
O O3 0.467098 0.679222 0.162677
O O4 0.288445 0.738249 0.130981
O O5 0.354658 0.249675 0.780342
O O6 0.256876 0.124777 0.425257
O O7 0.177853 0.186254 0.700014
O O8 0.306101 0.000000 0.771881
O O9 0.961862 0.500000 0.654505
O O10 0.010160 0.246267 0.682468
O O11 0.844232 0.326175 0.700013
O O12 0.000000 0.373598 0.000000
O O13 0.399384 0.500000 0.781314
O O14 0.868573 0.137158 0.967535
O O15 0.055962 0.000000 0.701302
#
# Coordination Sequence:
#
# PCOD8061931 Si02
#       6
#     4   4   4   4   4   4
#     4   8  14  28  52  79 106 136 171 212 259 310
#     4  10  21  36  54  78 106 138 176 215 256 306
#     4   9  19  35  56  81 107 136 173 217 261 305
#     4   8  15  30  52  78 106 137 172 212 259 307
#     4  10  19  34  57  79 103 137 175 212 259 310
#     4  10  22  38  54  75 107 141 173 214 261 308
#
# _framework density 23.863191
#
# number of rings (size 3 to 8) (size 9 to 14) (size 15 to 20)
#    0.000    2.833    0.000    2.000    0.000    6.333 
#    0.000   10.833    0.000    4.000    0.000    0.000 
#    0.000    0.000    0.000    0.000    0.000    0.000 
#
# Total GULP energy -297434.970304 kJ/mol
# GULP energy per Si atom -12393.123763 kJ/mol
# Density = 2.380888 g / cm^3
# Si number density = 23.863191 Si / 1000 Ang^3
#
#
#
# Elastic Constant Matrix: (Units=GPa)
#
#
# Indices 1 2 3 4 5 6 
#
# 1 174.3994 98.4562 -3.2585 0.0000 -4.2078 0.0000
# 2 98.4562 157.2894 -7.9811 0.0000 1.0656 0.0000
# 3 -3.2585 -7.9811 25.5885 0.0000 1.8115 0.0000
# 4 0.0000 0.0000 0.0000 -18.6127 0.0000 -15.7323
# 5 -4.2078 1.0656 1.8115 0.0000 32.8907 0.0000
# 6 0.0000 0.0000 0.0000 -15.7323 0.0000 29.1422
#
#
#
# Elastic Compliance Matrix: (Units=1/GPa)
#
#
# Indices 1 2 3 4 5 6 
#
# 1 0.008938 -0.005640 -0.000718 0.000000 0.001366 0.000000
# 2 -0.005640 0.010023 0.002492 0.000000 -0.001184 0.000000
# 3 -0.000718 0.002492 0.039934 0.000000 -0.002372 0.000000
# 4 0.000000 0.000000 0.000000 -0.036892 0.000000 -0.019916
# 5 0.001366 -0.001184 -0.002372 0.000000 0.030747 0.000000
# 6 0.000000 0.000000 0.000000 -0.019916 0.000000 0.023563
#
#
# Mechanical properties :
#
#
# Convention : Reuss Voigt Hill
#
# Bulk Modulus (GPa) = 19.54600 59.07895 39.31247
# Shear Modulus (GPa) = 49.45683 26.68809 38.07246
#
# Velocity S-wave (km/s) = 4.55743 3.34785 3.99864
# Velocity P-wave (km/s) = 5.99184 6.30517 6.15050
#
# Compressibility (1/GPa) = 0.05116137
#
# Stress axis : x y z
#
# Youngs Moduli (GPa) = 111.88578 99.77336 25.04151
#
# Poissons Ratio (x) = 0.56275 0.01797
# Poissons Ratio (y) = 0.63107 -0.06239
# Poissons Ratio (z) = 0.08031 -0.24860
#
# Static dielectric constant tensor:
#      x y z
#    x 4.569060 0.000000 0.083240 
#    y 0.000000 4.275910 0.000000 
#    z 0.083240 0.000000 4.020380 
# 
# 
# High freq. dielectric constant tensor:
#      x y z
#    x 1.947380 0.000000 -0.007860 
#    y 0.000000 1.928330 0.000000 
#    z -0.007860 0.000000 1.944330 
# 
# From -- ./inp_files/27993.got.cif
#   From: 2010.06.25/outbox.cif.g09.slc.cpg/sg10_14_cif.got.tgz:27993.got - 2010.06.27 22:07:45.
