data_PCOD8061200
_publ_section_title
;
Structure prediction by ZEFSAII (Michael W. Deem and Ramdas Pophale) SiO2 
 PCOD8061200
Probable space group: P 2/M
;
_chemical_formula_sum "Si O2"
_cell_formula_units_Z 28
_cell_length_a 14.961523
_cell_length_b 9.743809
_cell_length_c 13.612014
_cell_angle_alpha 90.000000
_cell_angle_beta 133.412621
_cell_angle_gamma 90.000000
_cell_volume 1441.506886
_symmetry_space_group_name_H-M "P 2/M"
_symmetry_group_IT_number 10
_symmetry_cell_setting 'monoclinic'
loop_
_space_group_symop_operation_xyz
x,y,z
-x,y,-z
-x,-y,-z
x,-y,z
loop_
_atom_site_type_symbol
_atom_site_label
_atom_site_fract_x
_atom_site_fract_y
_atom_site_fract_z
Si Si1 0.060301 0.160211 0.327827
Si Si2 0.216151 0.840478 0.842395
Si Si3 0.207529 0.153663 0.619531
Si Si4 0.571991 0.652036 0.959099
Si Si5 0.393153 0.149382 0.341207
Si Si6 0.251922 0.657804 0.368456
Si Si7 0.428261 0.260993 0.673046
O O1 0.099642 0.210977 0.467173
O O2 0.129556 0.257511 0.303099
O O3 0.915209 0.179193 0.204532
O O4 0.099480 0.000000 0.342384
O O5 0.212963 0.773213 0.729836
O O6 0.255498 0.000000 0.871819
O O7 0.315658 0.754832 0.979328
O O8 0.335780 0.156535 0.657103
O O9 0.171677 0.000000 0.619697
O O10 0.623260 0.500000 0.020029
O O11 0.481613 0.639711 0.797162
O O12 0.500000 0.709291 0.000000
O O13 0.500000 0.136076 0.500000
O O14 0.301630 0.270151 0.306632
O O15 0.454840 0.182054 0.283356
O O16 0.325873 0.000000 0.282913
O O17 0.218616 0.500000 0.319623
O O18 0.353878 0.657889 0.532223
#
# Coordination Sequence:
#
# PCOD8061200 Si02
#       7
#     4   4   4   4   4   4   4
#     4   9  18  33  53  76 104 136 173 221 273 314
#     4  10  20  34  53  76 102 138 183 224 259 305
#     4   9  16  29  51  77 104 134 172 219 267 313
#     4  11  23  37  51  72 109 152 184 215 255 303
#     4   9  18  32  53  81 109 136 170 216 272 323
#     4  10  20  33  54  81 108 138 174 218 267 321
#     4  10  19  33  53  77 109 143 179 216 259 310
#
# _framework density 19.424119000000001
#
# number of rings (size 3 to 8) (size 9 to 14) (size 15 to 20)
#    0.000    2.286    1.429    1.714    0.000   10.286 
#    0.000    0.000    0.000    3.429    0.000    5.000 
#    0.000    0.000    0.000    0.000    0.000    0.000 
#
# Total GULP energy -347016.304662 kJ/mol
# GULP energy per Si atom -12393.439452 kJ/mol
# Density = 1.937991 g / cm^3
# Si number density = 19.424119 Si / 1000 Ang^3
#
#
#
# Elastic Constant Matrix: (Units=GPa)
#
#
# Indices 1 2 3 4 5 6 
#
# 1 98.6519 46.6508 25.3232 0.0000 6.9562 0.0000
# 2 46.6508 108.7430 19.5043 0.0000 13.8655 0.0000
# 3 25.3232 19.5043 50.5737 0.0000 12.6949 0.0000
# 4 0.0000 0.0000 0.0000 13.3057 0.0000 4.5338
# 5 6.9562 13.8655 12.6949 0.0000 25.0471 0.0000
# 6 0.0000 0.0000 0.0000 4.5338 0.0000 20.5533
#
#
#
# Elastic Compliance Matrix: (Units=1/GPa)
#
#
# Indices 1 2 3 4 5 6 
#
# 1 0.013852 -0.005203 -0.005370 0.000000 0.001755 0.000000
# 2 -0.005203 0.012207 -0.000881 0.000000 -0.004866 0.000000
# 3 -0.005370 -0.000881 0.025556 0.000000 -0.010974 0.000000
# 4 0.000000 0.000000 0.000000 0.081264 0.000000 -0.017926
# 5 0.001755 -0.004866 -0.010974 0.000000 0.047693 0.000000
# 6 0.000000 0.000000 0.000000 -0.017926 0.000000 0.052608
#
#
# Mechanical properties :
#
#
# Convention : Reuss Voigt Hill
#
# Bulk Modulus (GPa) = 34.83461 48.99169 41.91315
# Shear Modulus (GPa) = 18.82136 22.88058 20.85097
#
# Velocity S-wave (km/s) = 3.11620 3.43585 3.27992
# Velocity P-wave (km/s) = 5.56060 6.40444 5.99738
#
# Compressibility (1/GPa) = 0.02870708
#
# Stress axis : x y z
#
# Youngs Moduli (GPa) = 72.19328 81.92343 39.12940
#
# Poissons Ratio (x) = 0.42625 0.21011
# Poissons Ratio (y) = 0.37562 0.03447
# Poissons Ratio (z) = 0.38766 0.07217
#
# Static dielectric constant tensor:
#      x y z
#    x 3.642330 0.000000 -0.100210 
#    y 0.000000 3.344000 0.000000 
#    z -0.100210 0.000000 3.274630 
# 
# 
# High freq. dielectric constant tensor:
#      x y z
#    x 1.756640 0.000000 -0.002140 
#    y 0.000000 1.738150 0.000000 
#    z -0.002140 0.000000 1.722870 
# 
# From -- ./inp_files/50100.got.cif
#   From: 2010.06.25/outbox.cif.g09.slc.cpg/sg10_26_cif.got.tgz:50100.got - 2010.06.27 22:07:45.
