data_PCOD8061199
_publ_section_title
;
Structure prediction by ZEFSAII (Michael W. Deem and Ramdas Pophale) SiO2 
 PCOD8061199
Probable space group: P 2/M
;
_chemical_formula_sum "Si O2"
_cell_formula_units_Z 32
_cell_length_a 5.074107
_cell_length_b 11.066334
_cell_length_c 29.608810
_cell_angle_alpha 90.000000
_cell_angle_beta 89.238868
_cell_angle_gamma 90.000000
_cell_volume 1662.440179
_symmetry_space_group_name_H-M "P 2/M"
_symmetry_group_IT_number 10
_symmetry_cell_setting 'monoclinic'
loop_
_space_group_symop_operation_xyz
x,y,z
-x,y,-z
-x,-y,-z
x,-y,z
loop_
_atom_site_type_symbol
_atom_site_label
_atom_site_fract_x
_atom_site_fract_y
_atom_site_fract_z
Si Si1 0.043742 0.633270 0.576793
Si Si2 0.539959 0.857287 0.893555
Si Si3 0.464008 0.870014 0.642219
Si Si4 0.023625 0.137990 0.950717
Si Si5 0.541580 0.358908 0.823761
Si Si6 0.458604 0.769581 0.450243
Si Si7 0.034176 0.258706 0.331295
Si Si8 0.039499 0.364335 0.765213
O O1 0.968240 0.500000 0.561287
O O2 0.337993 0.660041 0.558852
O O3 0.032894 0.638071 0.631750
O O4 0.840746 0.724651 0.553971
O O5 0.317873 0.847337 0.932176
O O6 0.474110 0.751805 0.857700
O O7 0.813774 0.812095 0.914950
O O8 0.549842 0.000000 0.875472
O O9 0.485344 0.870191 0.587679
O O10 0.161130 0.851196 0.656737
O O11 0.658108 0.773327 0.664492
O O12 0.551314 0.000000 0.659937
O O13 0.939789 0.000000 0.957605
O O14 0.000000 0.202755 0.000000
O O15 0.536598 0.500000 0.843312
O O16 0.329921 0.349338 0.784447
O O17 0.826873 0.325357 0.803244
O O18 0.500000 0.825059 0.500000
O O19 0.981748 0.288844 0.279900
O O20 0.977600 0.500000 0.750884
#
# Coordination Sequence:
#
# PCOD8061199 Si02
#       8
#     4   4   4   4   4   4   4   4
#     4  10  20  33  51  75 102 128 154 197 256 301
#     4  10  19  33  53  77 109 142 177 225 272 314
#     4  10  21  37  54  73 100 131 163 203 253 299
#     4   9  17  30  52  80 106 139 184 228 269 315
#     4  10  21  36  55  79 108 145 182 216 263 318
#     4  10  21  34  50  73  98 129 167 198 231 293
#     4  10  20  36  56  77  99 125 167 211 249 299
#     4  10  20  36  57  78 102 134 174 213 250 306
#
# _framework density 19.248813999999999
#
# number of rings (size 3 to 8) (size 9 to 14) (size 15 to 20)
#    0.000    2.125    0.000    3.375    0.000    3.250 
#    0.000    7.500    0.000    6.750    0.000    0.000 
#    0.000    0.000    0.000    0.000    0.000    0.000 
#
# Total GULP energy -396540.143130 kJ/mol
# GULP energy per Si atom -12391.879473 kJ/mol
# Density = 1.920500 g / cm^3
# Si number density = 19.248814 Si / 1000 Ang^3
#
#
#
# Elastic Constant Matrix: (Units=GPa)
#
#
# Indices 1 2 3 4 5 6 
#
# 1 84.2107 11.0161 5.9769 0.0000 2.6786 0.0000
# 2 11.0161 66.9197 30.0231 0.0000 1.0913 0.0000
# 3 5.9769 30.0231 80.8318 0.0000 9.7105 0.0000
# 4 0.0000 0.0000 0.0000 4.5424 0.0000 6.6577
# 5 2.6786 1.0913 9.7105 0.0000 24.5701 0.0000
# 6 0.0000 0.0000 0.0000 6.6577 0.0000 9.6061
#
#
#
# Elastic Compliance Matrix: (Units=1/GPa)
#
#
# Indices 1 2 3 4 5 6 
#
# 1 0.012174 -0.001976 -0.000018 0.000000 -0.001232 0.000000
# 2 -0.001976 0.018339 -0.006922 0.000000 0.002137 0.000000
# 3 -0.000018 -0.006922 0.015650 0.000000 -0.005876 0.000000
# 4 0.000000 0.000000 0.000000-13.896397 0.000000 9.631243
# 5 -0.001232 0.002137 -0.005876 0.000000 0.043061 0.000000
# 6 0.000000 0.000000 0.000000 9.631243 0.000000 -6.571072
#
#
# Mechanical properties :
#
#
# Convention : Reuss Voigt Hill
#
# Bulk Modulus (GPa) = 35.29794 36.22161 35.75978
# Shear Modulus (GPa) = -0.24569 20.07345 9.91388
#
# Velocity S-wave (km/s) = -0.35765 3.23281 2.27191
# Velocity P-wave (km/s) = 4.26696 5.72653 5.04976
#
# Compressibility (1/GPa) = 0.02833026
#
# Stress axis : x y z
#
# Youngs Moduli (GPa) = 82.14272 54.52765 63.89898
#
# Poissons Ratio (x) = 0.10773 0.00117
# Poissons Ratio (y) = 0.16229 0.44233
# Poissons Ratio (z) = 0.00150 0.37746
#
# Static dielectric constant tensor:
#      x y z
#    x 3.625300 0.000000 0.019720 
#    y 0.000000 3.267540 0.000000 
#    z 0.019720 0.000000 3.437900 
# 
# 
# High freq. dielectric constant tensor:
#      x y z
#    x 1.771190 0.000000 0.001480 
#    y 0.000000 1.717850 0.000000 
#    z 0.001480 0.000000 1.739110 
# 
# From -- ./inp_files/87462.got.cif
#   From: 2010.06.25/outbox.cif.g09.slc.cpg/sg10_44_cif.got.tgz:87462.got - 2010.06.27 22:07:45.
