data_PCOD8061999
_publ_section_title
;
Structure prediction by ZEFSAII (Michael W. Deem and Ramdas Pophale) SiO2 
 PCOD8061999
Probable space group: P 2/M
;
_chemical_formula_sum "Si O2"
_cell_formula_units_Z 32
_cell_length_a 25.178240
_cell_length_b 9.333879
_cell_length_c 19.576300
_cell_angle_alpha 90.000000
_cell_angle_beta 22.147918
_cell_angle_gamma 90.000000
_cell_volume 1734.436322
_symmetry_space_group_name_H-M "P 2/M"
_symmetry_group_IT_number 10
_symmetry_cell_setting 'monoclinic'
loop_
_space_group_symop_operation_xyz
x,y,z
-x,y,-z
-x,-y,-z
x,-y,z
loop_
_atom_site_type_symbol
_atom_site_label
_atom_site_fract_x
_atom_site_fract_y
_atom_site_fract_z
Si Si1 0.641325 0.164115 0.012695
Si Si2 0.867790 0.333859 0.475095
Si Si3 0.366869 0.835042 0.821866
Si Si4 0.887602 0.670023 0.080197
Si Si5 0.425137 0.662096 0.516900
Si Si6 0.955485 0.160816 0.630482
Si Si7 0.547550 0.668836 0.868028
Si Si8 0.096913 0.332039 0.092633
O O1 0.799596 0.225748 0.822124
O O2 0.637753 0.000000 0.991311
O O3 0.587010 0.178088 0.154559
O O4 0.547812 0.258239 0.074773
O O5 0.873999 0.500000 0.485756
O O6 0.935986 0.254621 0.457179
O O7 0.706770 0.282377 0.661683
O O8 0.950617 0.300556 0.306109
O O9 0.495740 0.767586 0.627707
O O10 0.345954 0.000000 0.825108
O O11 0.221685 0.752605 0.980950
O O12 0.894568 0.500000 0.073061
O O13 0.732876 0.721838 0.286547
O O14 0.000000 0.735211 0.000000
O O15 0.921904 0.723381 0.962598
O O16 0.500000 0.664067 0.500000
O O17 0.425795 0.500000 0.486581
O O18 0.000000 0.162267 0.500000
O O19 0.956694 0.000000 0.659433
O O20 0.528329 0.500000 0.883621
O O21 0.500000 0.720195 0.000000
O O22 0.136600 0.500000 0.046931
#
# Coordination Sequence:
#
# PCOD8061999 Si02
#       8
#     4   4   4   4   4   4   4   4
#     4  10  22  38  55  81 112 146 191 233 275 334
#     4  10  21  35  56  84 111 145 188 232 283 340
#     4  11  22  36  56  83 115 147 185 234 283 328
#     4   9  18  33  55  82 111 142 181 230 274 322
#     4  10  19  34  57  84 110 145 190 228 273 332
#     4  10  20  35  56  81 109 143 186 231 274 329
#     4  10  22  39  57  83 119 152 185 231 287 342
#     4  10  19  35  57  81 110 143 185 232 281 334
#
# _framework density 18.449798000000001
#
# number of rings (size 3 to 8) (size 9 to 14) (size 15 to 20)
#    0.000    2.000    2.500    1.125    0.000    3.750 
#    0.000    2.500    0.000    1.500    0.000    0.000 
#    0.000    0.000    0.000    0.000    0.000    0.000 
#
# Total GULP energy -396856.970031 kJ/mol
# GULP energy per Si atom -12401.780313 kJ/mol
# Density = 1.840781 g / cm^3
# Si number density = 18.449798 Si / 1000 Ang^3
#
#
#
# Elastic Constant Matrix: (Units=GPa)
#
#
# Indices 1 2 3 4 5 6 
#
# 1 107.8517 39.3038 46.4355 0.0000 -5.6683 0.0000
# 2 39.3038 50.1381 37.0635 0.0000 1.0630 0.0000
# 3 46.4355 37.0635 120.2999 0.0000 3.7629 0.0000
# 4 0.0000 0.0000 0.0000 21.7993 0.0000 8.1038
# 5 -5.6683 1.0630 3.7629 0.0000 33.5962 0.0000
# 6 0.0000 0.0000 0.0000 8.1038 0.0000 42.9587
#
#
#
# Elastic Compliance Matrix: (Units=1/GPa)
#
#
# Indices 1 2 3 4 5 6 
#
# 1 0.013831 -0.008922 -0.002681 0.000000 0.002916 0.000000
# 2 -0.008922 0.031583 -0.006230 0.000000 -0.001807 0.000000
# 3 -0.002681 -0.006230 0.011314 0.000000 -0.001522 0.000000
# 4 0.000000 0.000000 0.000000 0.049332 0.000000 -0.009306
# 5 0.002916 -0.001807 -0.001522 0.000000 0.030485 0.000000
# 6 0.000000 0.000000 0.000000 -0.009306 0.000000 0.025034
#
#
# Mechanical properties :
#
#
# Convention : Reuss Voigt Hill
#
# Bulk Modulus (GPa) = 47.47929 58.21060 52.84494
# Shear Modulus (GPa) = 24.47780 30.03664 27.25722
#
# Velocity S-wave (km/s) = 3.64637 4.03925 3.84783
# Velocity P-wave (km/s) = 6.59684 7.30571 6.96030
#
# Compressibility (1/GPa) = 0.02106181
#
# Stress axis : x y z
#
# Youngs Moduli (GPa) = 72.30098 31.66279 88.38222
#
# Poissons Ratio (x) = 0.28250 0.23696
# Poissons Ratio (y) = 0.64508 0.55062
# Poissons Ratio (z) = 0.19385 0.19726
#
# Static dielectric constant tensor:
#      x y z
#    x 3.398820 0.000000 0.049060 
#    y 0.000000 3.285930 0.000000 
#    z 0.049060 0.000000 3.688920 
# 
# 
# High freq. dielectric constant tensor:
#      x y z
#    x 1.716920 0.000000 0.006470 
#    y 0.000000 1.696630 0.000000 
#    z 0.006470 0.000000 1.731190 
# 
# From -- ./inp_files/86901.got.cif
#   From: 2010.06.25/outbox.cif.g09.slc.cpg/sg10_44_cif.got.tgz:86901.got - 2010.06.27 22:07:45.
