data_PCOD8061870
_publ_section_title
;
Structure prediction by ZEFSAII (Michael W. Deem and Ramdas Pophale) SiO2 
 PCOD8061870
Probable space group: P 2/M
;
_chemical_formula_sum "Si O2"
_cell_formula_units_Z 24
_cell_length_a 14.049495
_cell_length_b 9.246165
_cell_length_c 9.963556
_cell_angle_alpha 90.000000
_cell_angle_beta 90.313838
_cell_angle_gamma 90.000000
_cell_volume 1294.285853
_symmetry_space_group_name_H-M "P 2/M"
_symmetry_group_IT_number 10
_symmetry_cell_setting 'monoclinic'
loop_
_space_group_symop_operation_xyz
x,y,z
-x,y,-z
-x,-y,-z
x,-y,z
loop_
_atom_site_type_symbol
_atom_site_label
_atom_site_fract_x
_atom_site_fract_y
_atom_site_fract_z
Si Si1 0.707458 0.830658 0.771329
Si Si2 0.890725 0.828687 0.344989
Si Si3 0.899531 0.829324 0.649359
Si Si4 0.606468 0.831830 0.042289
Si Si5 0.396076 0.332579 0.459250
Si Si6 0.288343 0.668333 0.729981
O O1 0.815654 0.774230 0.747035
O O2 0.634974 0.754183 0.671258
O O3 0.699660 0.000000 0.741464
O O4 0.679007 0.794446 0.922729
O O5 0.879616 0.774621 0.498396
O O6 0.813676 0.746076 0.253370
O O7 0.996491 0.780019 0.296559
O O8 0.874370 0.000000 0.329228
O O9 0.902027 0.000000 0.641625
O O10 0.635111 0.736268 0.169060
O O11 0.611861 0.000000 0.082051
O O12 0.500000 0.788626 0.000000
O O13 0.500000 0.275638 0.500000
O O14 0.400141 0.500000 0.419459
O O15 0.323924 0.303798 0.579848
O O16 0.277752 0.500000 0.762883
#
# Coordination Sequence:
#
# PCOD8061870 Si02
#       6
#     4   4   4   4   4   4
#     4  10  19  34  56  80 103 132 176 221 261 308
#     4   9  16  31  55  79 106 136 169 215 266 311
#     4   8  15  29  53  82 105 132 170 215 266 311
#     4  10  22  38  55  77 106 141 179 218 262 311
#     4  10  21  35  51  75 106 137 173 216 261 312
#     4  11  22  35  53  79 108 141 178 213 259 316
#
# _framework density 18.543043000000001
#
# number of rings (size 3 to 8) (size 9 to 14) (size 15 to 20)
#    0.000    2.333    1.667    2.500    0.000    2.000 
#    0.000    3.333    0.000    5.000    0.000    0.000 
#    0.000    0.000    0.000    0.000    0.000    0.000 
#
# Total GULP energy -297582.657917 kJ/mol
# GULP energy per Si atom -12399.277413 kJ/mol
# Density = 1.850084 g / cm^3
# Si number density = 18.543043 Si / 1000 Ang^3
#
#
#
# Elastic Constant Matrix: (Units=GPa)
#
#
# Indices 1 2 3 4 5 6 
#
# 1 118.1348 29.9392 9.1773 0.0000 2.5148 0.0000
# 2 29.9392 55.9097 23.6949 0.0000 11.2919 0.0000
# 3 9.1773 23.6949 31.0297 0.0000 6.3351 0.0000
# 4 0.0000 0.0000 0.0000 16.1204 0.0000 -3.4800
# 5 2.5148 11.2919 6.3351 0.0000 33.2205 0.0000
# 6 0.0000 0.0000 0.0000 -3.4800 0.0000 10.1702
#
#
#
# Elastic Compliance Matrix: (Units=1/GPa)
#
#
# Indices 1 2 3 4 5 6 
#
# 1 0.009885 -0.006173 0.001576 0.000000 0.001049 0.000000
# 2 -0.006173 0.031244 -0.020769 0.000000 -0.006192 0.000000
# 3 0.001576 -0.020769 0.048075 0.000000 -0.002228 0.000000
# 4 0.000000 0.000000 0.000000 0.066981 0.000000 0.022919
# 5 0.001049 -0.006192 -0.002228 0.000000 0.032552 0.000000
# 6 0.000000 0.000000 0.000000 0.022919 0.000000 0.106169
#
#
# Mechanical properties :
#
#
# Convention : Reuss Voigt Hill
#
# Bulk Modulus (GPa) = 25.99240 36.74410 31.36825
# Shear Modulus (GPa) = 13.94853 21.38642 17.66747
#
# Velocity S-wave (km/s) = 2.74565 3.39977 3.09007
# Velocity P-wave (km/s) = 4.90909 5.93884 5.44835
#
# Compressibility (1/GPa) = 0.03847279
#
# Stress axis : x y z
#
# Youngs Moduli (GPa) = 101.16774 32.00605 20.80080
#
# Poissons Ratio (x) = 0.19757 -0.03279
# Poissons Ratio (y) = 0.62451 0.43200
# Poissons Ratio (z) = -0.15946 0.66472
#
# Static dielectric constant tensor:
#      x y z
#    x 3.827890 0.000000 -0.192660 
#    y 0.000000 3.148380 0.000000 
#    z -0.192660 0.000000 3.209880 
# 
# 
# High freq. dielectric constant tensor:
#      x y z
#    x 1.739700 0.000000 -0.002860 
#    y 0.000000 1.695870 0.000000 
#    z -0.002860 0.000000 1.698240 
# 
# From -- ./inp_files/27192.got.cif
#   From: 2010.06.25/outbox.cif.g09.slc.cpg/sg10_14_cif.got.tgz:27192.got - 2010.06.27 22:07:45.
