data_PCOD8061446
_publ_section_title
;
Structure prediction by ZEFSAII (Michael W. Deem and Ramdas Pophale) SiO2 
 PCOD8061446
Probable space group: P 2/M
;
_chemical_formula_sum "Si O2"
_cell_formula_units_Z 32
_cell_length_a 14.446423
_cell_length_b 8.991283
_cell_length_c 12.745066
_cell_angle_alpha 90.000000
_cell_angle_beta 94.838615
_cell_angle_gamma 90.000000
_cell_volume 1649.580813
_symmetry_space_group_name_H-M "P 2/M"
_symmetry_group_IT_number 10
_symmetry_cell_setting 'monoclinic'
loop_
_space_group_symop_operation_xyz
x,y,z
-x,y,-z
-x,-y,-z
x,-y,z
loop_
_atom_site_type_symbol
_atom_site_label
_atom_site_fract_x
_atom_site_fract_y
_atom_site_fract_z
Si Si1 0.226970 0.175299 0.366493
Si Si2 0.902686 0.822997 0.035230
Si Si3 0.256211 0.822970 0.134708
Si Si4 0.462823 0.822647 0.107958
Si Si5 0.833386 0.824818 0.251216
Si Si6 0.600081 0.176116 0.488058
Si Si7 0.629073 0.824547 0.262256
Si Si8 0.108241 0.331529 0.529234
O O1 0.219342 0.228378 0.245418
O O2 0.329849 0.222105 0.413654
O O3 0.152254 0.253735 0.432320
O O4 0.210661 0.000000 0.375975
O O5 0.816994 0.760722 0.957621
O O6 0.901903 0.000000 0.028735
O O7 0.891859 0.771777 0.155239
O O8 0.000000 0.759588 0.000000
O O9 0.359585 0.758747 0.121431
O O10 0.261053 0.000000 0.131008
O O11 0.538034 0.756767 0.197481
O O12 0.459237 0.000000 0.112093
O O13 0.500000 0.766916 0.000000
O O14 0.725970 0.783467 0.215134
O O15 0.868572 0.746750 0.359128
O O16 0.843966 0.000000 0.271501
O O17 0.500000 0.248634 0.500000
O O18 0.637103 0.238433 0.380967
O O19 0.590984 0.000000 0.481263
O O20 0.615626 0.000000 0.261458
O O21 0.144410 0.500000 0.539066
O O22 0.000000 0.323587 0.500000
#
# Coordination Sequence:
#
# PCOD8061446 Si02
#       8
#     4   4   4   4   4   4   4   4
#     4  10  19  33  55  82 110 142 180 218 263 322
#     4   9  18  30  46  74 109 139 168 216 272 311
#     4   9  17  28  44  75 113 144 177 216 261 315
#     4   9  15  23  38  65 107 149 174 205 261 316
#     4  10  19  34  57  81 105 135 176 218 262 321
#     4   9  15  24  41  71 107 136 165 207 255 300
#     4   9  15  24  40  67  98 130 168 207 249 298
#     4  11  25  41  56  76 105 140 179 227 279 323
#
# _framework density 19.398869000000001
#
# number of rings (size 3 to 8) (size 9 to 14) (size 15 to 20)
#    0.000    2.500    1.250    1.875    1.750    7.000 
#    0.000    0.000    0.000    1.500    0.000    0.000 
#    0.000    2.000    0.000    0.000    0.000    0.000 
#
# Total GULP energy -396631.930956 kJ/mol
# GULP energy per Si atom -12394.747842 kJ/mol
# Density = 1.935472 g / cm^3
# Si number density = 19.398869 Si / 1000 Ang^3
#
#
#
# Elastic Constant Matrix: (Units=GPa)
#
#
# Indices 1 2 3 4 5 6 
#
# 1 122.1368 23.3268 60.5962 0.0000 -9.8150 0.0000
# 2 23.3268 27.7519 26.3107 0.0000 -2.3149 0.0000
# 3 60.5962 26.3107 148.7310 0.0000 -8.7783 0.0000
# 4 0.0000 0.0000 0.0000 1.3008 0.0000 2.2413
# 5 -9.8150 -2.3149 -8.7783 0.0000 40.6512 0.0000
# 6 0.0000 0.0000 0.0000 2.2413 0.0000 5.3217
#
#
#
# Elastic Compliance Matrix: (Units=1/GPa)
#
#
# Indices 1 2 3 4 5 6 
#
# 1 0.011146 -0.006030 -0.003379 0.000000 0.001618 0.000000
# 2 -0.006030 0.046584 -0.005787 0.000000 -0.000053 0.000000
# 3 -0.003379 -0.005787 0.009173 0.000000 0.000836 0.000000
# 4 0.000000 0.000000 0.000000 2.802865 0.000000 -1.180477
# 5 0.001618 -0.000053 0.000836 0.000000 0.025168 0.000000
# 6 0.000000 0.000000 0.000000 -1.180477 0.000000 0.685088
#
#
# Mechanical properties :
#
#
# Convention : Reuss Voigt Hill
#
# Bulk Modulus (GPa) = 27.38894 57.67637 42.53265
# Shear Modulus (GPa) = 1.38023 22.01379 11.69701
#
# Velocity S-wave (km/s) = 0.84442 3.37233 2.45822
# Velocity P-wave (km/s) = 3.88590 6.70521 5.47997
#
# Compressibility (1/GPa) = 0.03651109
#
# Stress axis : x y z
#
# Youngs Moduli (GPa) = 89.72190 21.46643 109.01360
#
# Poissons Ratio (x) = 0.12945 0.36832
# Poissons Ratio (y) = 0.54104 0.63088
# Poissons Ratio (z) = 0.30314 0.12423
#
# Static dielectric constant tensor:
#      x y z
#    x 3.836460 0.000000 -0.049050 
#    y 0.000000 2.846950 0.000000 
#    z -0.049050 0.000000 3.855450 
# 
# 
# High freq. dielectric constant tensor:
#      x y z
#    x 1.773000 0.000000 -0.001550 
#    y 0.000000 1.668010 0.000000 
#    z -0.001550 0.000000 1.771920 
# 
# From -- ./inp_files/49924.got.cif
#   From: 2010.06.25/outbox.cif.g09.slc.cpg/sg10_25_cif.got.tgz:49924.got - 2010.06.27 22:07:45.
