data_PCOD8061641
_publ_section_title
;
Structure prediction by ZEFSAII (Michael W. Deem and Ramdas Pophale) SiO2 
 PCOD8061641
Probable space group: P 2/M
;
_chemical_formula_sum "Si O2"
_cell_formula_units_Z 28
_cell_length_a 14.250187
_cell_length_b 8.445101
_cell_length_c 17.678458
_cell_angle_alpha 90.000000
_cell_angle_beta 136.728102
_cell_angle_gamma 90.000000
_cell_volume 1458.319705
_symmetry_space_group_name_H-M "P 2/M"
_symmetry_group_IT_number 10
_symmetry_cell_setting 'monoclinic'
loop_
_space_group_symop_operation_xyz
x,y,z
-x,y,-z
-x,-y,-z
x,-y,z
loop_
_atom_site_type_symbol
_atom_site_label
_atom_site_fract_x
_atom_site_fract_y
_atom_site_fract_z
Si Si1 0.796411 0.316657 0.593815
Si Si2 0.366069 0.815428 0.633616
Si Si3 0.874659 0.187560 0.074816
Si Si4 0.912357 0.815422 0.263662
Si Si5 0.148308 0.683629 0.616608
Si Si6 0.673159 0.812057 0.830856
Si Si7 0.182258 0.812088 0.235504
O O1 0.836649 0.500000 0.613659
O O2 0.672768 0.281047 0.464277
O O3 0.750604 0.267986 0.651177
O O4 0.925322 0.213993 0.641849
O O5 0.263590 0.783898 0.642261
O O6 0.516705 0.756882 0.746883
O O7 0.367502 0.000000 0.614417
O O8 0.848336 0.241998 0.146003
O O9 0.024535 0.243598 0.135427
O O10 0.870114 0.000000 0.069031
O O11 0.759347 0.260460 0.951839
O O12 0.839611 0.716211 0.286968
O O13 0.886223 0.000000 0.262990
O O14 0.172162 0.500000 0.612749
O O15 0.000000 0.739487 0.500000
O O16 0.736588 0.748567 0.789660
O O17 0.686376 0.000000 0.840070
O O18 0.193239 0.000000 0.251136
#
# Coordination Sequence:
#
# PCOD8061641 Si02
#       7
#     4   4   4   4   4   4   4
#     4  11  21  34  51  76 111 144 176 219 268 316
#     4  11  22  35  54  79 108 141 179 221 264 316
#     4   8  15  30  55  85 110 134 172 221 268 307
#     4  10  19  33  58  86 107 133 174 223 266 311
#     4  11  22  36  56  80 107 141 175 215 266 321
#     4   9  18  33  54  81 110 140 177 223 267 307
#     4   9  17  32  57  83 106 138 181 223 262 309
#
# _framework density 19.20018
#
# number of rings (size 3 to 8) (size 9 to 14) (size 15 to 20)
#    0.000    2.143    1.429    3.857    0.000    2.857 
#    0.000    5.000    0.000   20.571    0.000    0.000 
#    0.000    0.000    0.000    0.000    0.000    0.000 
#
# Total GULP energy -347225.168323 kJ/mol
# GULP energy per Si atom -12400.898869 kJ/mol
# Density = 1.915648 g / cm^3
# Si number density = 19.200180 Si / 1000 Ang^3
#
#
#
# Elastic Constant Matrix: (Units=GPa)
#
#
# Indices 1 2 3 4 5 6 
#
# 1 121.5404 13.3073 83.4333 0.0000 -12.8247 0.0000
# 2 13.3073 35.4526 18.3849 0.0000 -2.8419 0.0000
# 3 83.4333 18.3849 134.3967 0.0000 -9.7078 0.0000
# 4 0.0000 0.0000 0.0000 7.6370 0.0000 -1.9271
# 5 -12.8247 -2.8419 -9.7078 0.0000 29.4396 0.0000
# 6 0.0000 0.0000 0.0000 -1.9271 0.0000 11.8585
#
#
#
# Elastic Compliance Matrix: (Units=1/GPa)
#
#
# Indices 1 2 3 4 5 6 
#
# 1 0.014692 -0.000687 -0.008778 0.000000 0.003439 0.000000
# 2 -0.000687 0.030466 -0.003637 0.000000 0.001443 0.000000
# 3 -0.008778 -0.003637 0.013405 0.000000 0.000245 0.000000
# 4 0.000000 0.000000 0.000000 0.136541 0.000000 0.022189
# 5 0.003439 0.001443 0.000245 0.000000 0.035686 0.000000
# 6 0.000000 0.000000 0.000000 0.022189 0.000000 0.087933
#
#
# Mechanical properties :
#
#
# Convention : Reuss Voigt Hill
#
# Bulk Modulus (GPa) = 30.90312 57.96008 44.43160
# Shear Modulus (GPa) = 14.05623 21.53796 17.79710
#
# Velocity S-wave (km/s) = 2.70865 3.35290 3.04784
# Velocity P-wave (km/s) = 5.09044 6.72622 5.96467
#
# Compressibility (1/GPa) = 0.03235919
#
# Stress axis : x y z
#
# Youngs Moduli (GPa) = 68.06527 32.82323 74.59644
#
# Poissons Ratio (x) = 0.02254 0.65483
# Poissons Ratio (y) = 0.04674 0.27132
# Poissons Ratio (z) = 0.59750 0.11938
#
# Static dielectric constant tensor:
#      x y z
#    x 3.495390 0.000000 -0.193690 
#    y 0.000000 3.179470 0.000000 
#    z -0.193690 0.000000 3.774900 
# 
# 
# High freq. dielectric constant tensor:
#      x y z
#    x 1.742140 0.000000 -0.018880 
#    y 0.000000 1.721520 0.000000 
#    z -0.018880 0.000000 1.744380 
# 
# From -- ./inp_files/77712.got.cif
#   From: 2010.06.25/outbox.cif.g09.slc.cpg/sg10_39_cif.got.tgz:77712.got - 2010.06.27 22:07:45.
