data_PCOD8061917
_publ_section_title
;
Structure prediction by ZEFSAII (Michael W. Deem and Ramdas Pophale) SiO2 
 PCOD8061917
Probable space group: P 2/M
;
_chemical_formula_sum "Si O2"
_cell_formula_units_Z 28
_cell_length_a 28.944323
_cell_length_b 11.131313
_cell_length_c 22.821384
_cell_angle_alpha 90.000000
_cell_angle_beta 11.364081
_cell_angle_gamma 90.000000
_cell_volume 1448.812760
_symmetry_space_group_name_H-M "P 2/M"
_symmetry_group_IT_number 10
_symmetry_cell_setting 'monoclinic'
loop_
_space_group_symop_operation_xyz
x,y,z
-x,y,-z
-x,-y,-z
x,-y,z
loop_
_atom_site_type_symbol
_atom_site_label
_atom_site_fract_x
_atom_site_fract_y
_atom_site_fract_z
Si Si1 0.009007 0.000000 0.586370
Si Si2 0.457991 0.361650 0.716172
Si Si3 0.653208 0.246864 0.675874
Si Si4 0.609479 0.000000 0.985906
Si Si5 0.175553 0.638620 0.236666
Si Si6 0.969569 0.246867 0.701340
Si Si7 0.687404 0.357814 0.312599
Si Si8 0.154635 0.638348 0.671207
O O1 0.984022 0.111594 0.660743
O O2 0.257072 0.000000 0.242923
O O3 0.796808 0.000000 0.804791
O O4 0.375154 0.500000 0.808511
O O5 0.620883 0.314645 0.460502
O O6 0.601261 0.353726 0.598108
O O7 0.237674 0.270913 0.994014
O O8 0.563094 0.111591 0.792129
O O9 0.835592 0.270914 0.396087
O O10 0.783259 0.280026 0.575104
O O11 0.437480 0.332713 0.930060
O O12 0.144561 0.500000 0.283163
O O13 0.092303 0.667281 0.275250
O O14 0.000000 0.707606 0.500000
O O15 0.500000 0.304159 0.500000
O O16 0.682822 0.500000 0.317188
O O17 0.946422 0.314650 0.972199
O O18 0.109808 0.500000 0.706529
#
# Coordination Sequence:
#
# PCOD8061917 Si02
#       8
#     2   4   4   2   4   4   4   4
#     4  11  23  43  67  87 113 152 202 259 309 356
#     4  10  19  34  56  84 121 161 199 242 295 355
#     4  12  24  39  62  89 118 156 201 250 301 354
#     4  11  23  43  67  87 113 152 202 259 309 356
#     4  11  24  41  59  84 120 156 192 241 302 368
#     4  12  24  39  62  89 118 156 201 250 301 354
#     4   9  17  29  49  82 119 156 199 242 289 348
#     4  10  19  34  56  84 121 161 199 242 295 355
#
# _framework density 19.326167999999999
#
# number of rings (size 3 to 8) (size 9 to 14) (size 15 to 20)
#    0.000    1.286    2.857    3.429    0.000    8.000 
#    0.000    1.429    0.000    0.857    0.000    6.000 
#    0.000    0.000    0.000    0.000    0.000    0.000 
#
# Total GULP energy -347085.936794 kJ/mol
# GULP energy per Si atom -12395.926314 kJ/mol
# Density = 1.928218 g / cm^3
# Si number density = 19.326168 Si / 1000 Ang^3
#
#
#
# Elastic Constant Matrix: (Units=GPa)
#
#
# Indices 1 2 3 4 5 6 
#
# 1 113.3543 41.7531 78.3395 0.0000 -7.4197 0.0000
# 2 41.7531 77.3145 48.2501 0.0000 11.7554 0.0000
# 3 78.3395 48.2501 114.5774 0.0000 9.7221 0.0000
# 4 0.0000 0.0000 0.0000 26.1127 0.0000 9.0764
# 5 -7.4197 11.7554 9.7221 0.0000 46.4578 0.0000
# 6 0.0000 0.0000 0.0000 9.0764 0.0000 21.1277
#
#
#
# Elastic Compliance Matrix: (Units=1/GPa)
#
#
# Indices 1 2 3 4 5 6 
#
# 1 0.018785 -0.003751 -0.011809 0.000000 0.006421 0.000000
# 2 -0.003751 0.018699 -0.004945 0.000000 -0.004296 0.000000
# 3 -0.011809 -0.004945 0.019281 0.000000 -0.004669 0.000000
# 4 0.000000 0.000000 0.000000 0.045018 0.000000 -0.019340
# 5 0.006421 -0.004296 -0.004669 0.000000 0.024615 0.000000
# 6 0.000000 0.000000 0.000000 -0.019340 0.000000 0.055639
#
#
# Mechanical properties :
#
#
# Convention : Reuss Voigt Hill
#
# Bulk Modulus (GPa) = 63.47542 71.32573 67.40057
# Shear Modulus (GPa) = 21.90111 27.86654 24.88382
#
# Velocity S-wave (km/s) = 3.37001 3.80136 3.59217
# Velocity P-wave (km/s) = 6.93240 7.50024 7.22190
#
# Compressibility (1/GPa) = 0.01575413
#
# Stress axis : x y z
#
# Youngs Moduli (GPa) = 53.23358 53.47767 51.86587
#
# Poissons Ratio (x) = 0.20061 0.61248
# Poissons Ratio (y) = 0.19970 0.25649
# Poissons Ratio (z) = 0.62863 0.26446
#
# Static dielectric constant tensor:
#      x y z
#    x 3.810150 0.000000 0.085300 
#    y 0.000000 3.285930 0.000000 
#    z 0.085300 0.000000 3.857240 
# 
# 
# High freq. dielectric constant tensor:
#      x y z
#    x 1.766590 0.000000 0.001160 
#    y 0.000000 1.712260 0.000000 
#    z 0.001160 0.000000 1.767220 
# 
# From -- ./inp_files/91444.got.cif
#   From: 2010.06.25/outbox.cif.g09.slc.cpg/sg10_46_cif.got.tgz:91444.got - 2010.06.27 22:07:45.
