data_PCOD8061455
_publ_section_title
;
Structure prediction by ZEFSAII (Michael W. Deem and Ramdas Pophale) SiO2 
 PCOD8061455
Probable space group: P 2/M
;
_chemical_formula_sum "Si O2"
_cell_formula_units_Z 28
_cell_length_a 9.965875
_cell_length_b 8.592248
_cell_length_c 29.864983
_cell_angle_alpha 90.000000
_cell_angle_beta 146.219021
_cell_angle_gamma 90.000000
_cell_volume 1421.918492
_symmetry_space_group_name_H-M "P 2/M"
_symmetry_group_IT_number 10
_symmetry_cell_setting 'monoclinic'
loop_
_space_group_symop_operation_xyz
x,y,z
-x,y,-z
-x,-y,-z
x,-y,z
loop_
_atom_site_type_symbol
_atom_site_label
_atom_site_fract_x
_atom_site_fract_y
_atom_site_fract_z
Si Si1 0.403931 0.819614 0.670209
Si Si2 0.428469 0.319689 0.835717
Si Si3 0.929903 0.819751 0.676954
Si Si4 0.156068 0.824661 0.998636
Si Si5 0.512891 0.680812 0.400549
Si Si6 0.263285 0.319484 0.167135
Si Si7 0.057157 0.680847 0.414351
O O1 0.386809 0.718930 0.620591
O O2 0.642917 0.775642 0.764198
O O3 0.171066 0.783571 0.635453
O O4 0.411417 0.000000 0.659740
O O5 0.365543 0.500000 0.823837
O O6 0.185472 0.220434 0.770047
O O7 0.595183 0.266310 0.923377
O O8 0.560530 0.286364 0.825541
O O9 0.724636 0.781996 0.656235
O O10 0.877613 0.716226 0.618768
O O11 0.923320 0.000000 0.662043
O O12 0.213490 0.000000 0.999165
O O13 0.000000 0.823754 0.000000
O O14 0.007463 0.737348 0.918636
O O15 0.447672 0.500000 0.385936
O O16 0.716521 0.727365 0.492665
O O17 0.256623 0.500000 0.177596
O O18 0.989062 0.500000 0.400633
#
# Coordination Sequence:
#
# PCOD8061455 Si02
#       7
#     4   4   4   4   4   4   4
#     4  12  24  38  60  88 119 152 193 244 294 342
#     4  10  19  33  55  82 115 153 194 234 283 344
#     4  12  24  38  60  88 119 152 193 244 294 342
#     4   9  17  29  49  80 117 148 185 238 290 333
#     4  11  25  43  61  82 115 156 197 239 291 353
#     4  10  19  33  55  82 115 153 194 234 283 344
#     4  11  23  41  63  86 113 152 197 241 291 349
#
# _framework density 19.691704999999999
#
# number of rings (size 3 to 8) (size 9 to 14) (size 15 to 20)
#    0.000    1.286    1.429    5.571    0.000    8.571 
#    0.000    0.000    0.000    0.857    0.000    6.000 
#    0.000    0.000    0.000    0.000    0.000    0.000 
#
# Total GULP energy -347397.139857 kJ/mol
# GULP energy per Si atom -12407.040709 kJ/mol
# Density = 1.964689 g / cm^3
# Si number density = 19.691705 Si / 1000 Ang^3
#
#
#
# Elastic Constant Matrix: (Units=GPa)
#
#
# Indices 1 2 3 4 5 6 
#
# 1 42.6807 15.0516 14.4798 0.0000 -0.5447 0.0000
# 2 15.0516 82.9747 52.0406 0.0000 3.4688 0.0000
# 3 14.4798 52.0406 121.6313 0.0000 11.0914 0.0000
# 4 0.0000 0.0000 0.0000 28.0809 0.0000 -2.4354
# 5 -0.5447 3.4688 11.0914 0.0000 8.5052 0.0000
# 6 0.0000 0.0000 0.0000 -2.4354 0.0000 26.7310
#
#
#
# Elastic Compliance Matrix: (Units=1/GPa)
#
#
# Indices 1 2 3 4 5 6 
#
# 1 0.025453 -0.003593 -0.002015 0.000000 0.005723 0.000000
# 2 -0.003593 0.017038 -0.007045 0.000000 0.002009 0.000000
# 3 -0.002015 -0.007045 0.012741 0.000000 -0.013870 0.000000
# 4 0.000000 0.000000 0.000000 0.035895 0.000000 0.003270
# 5 0.005723 0.002009 -0.013870 0.000000 0.135210 0.000000
# 6 0.000000 0.000000 0.000000 0.003270 0.000000 0.037708
#
#
# Mechanical properties :
#
#
# Convention : Reuss Voigt Hill
#
# Bulk Modulus (GPa) = 33.41534 45.60341 39.50937
# Shear Modulus (GPa) = 16.70413 23.71106 20.20759
#
# Velocity S-wave (km/s) = 2.91569 3.47380 3.20691
# Velocity P-wave (km/s) = 5.32363 6.26887 5.81549
#
# Compressibility (1/GPa) = 0.02992638
#
# Stress axis : x y z
#
# Youngs Moduli (GPa) = 39.28747 58.69077 78.48872
#
# Poissons Ratio (x) = 0.21087 0.15814
# Poissons Ratio (y) = 0.14115 0.55299
# Poissons Ratio (z) = 0.07916 0.41350
#
# Static dielectric constant tensor:
#      x y z
#    x 3.193220 0.000000 0.037950 
#    y 0.000000 3.616750 0.000000 
#    z 0.037950 0.000000 3.797540 
# 
# 
# High freq. dielectric constant tensor:
#      x y z
#    x 1.728100 0.000000 0.003980 
#    y 0.000000 1.780820 0.000000 
#    z 0.003980 0.000000 1.784840 
# 
# From -- ./inp_files/92075.got.cif
#   From: 2010.06.25/outbox.cif.g09.slc.cpg/sg10_47_cif.got.tgz:92075.got - 2010.06.27 22:07:45.
