data_PCOD8061895
_publ_section_title
;
Structure prediction by ZEFSAII (Michael W. Deem and Ramdas Pophale) SiO2 
 PCOD8061895
Probable space group: P 2/M
;
_chemical_formula_sum "Si O2"
_cell_formula_units_Z 32
_cell_length_a 16.103813
_cell_length_b 8.877005
_cell_length_c 24.625792
_cell_angle_alpha 90.000000
_cell_angle_beta 26.650691
_cell_angle_gamma 90.000000
_cell_volume 1579.051318
_symmetry_space_group_name_H-M "P 2/M"
_symmetry_group_IT_number 10
_symmetry_cell_setting 'monoclinic'
loop_
_space_group_symop_operation_xyz
x,y,z
-x,y,-z
-x,-y,-z
x,-y,z
loop_
_atom_site_type_symbol
_atom_site_label
_atom_site_fract_x
_atom_site_fract_y
_atom_site_fract_z
Si Si1 0.851891 0.822470 0.545457
Si Si2 0.881650 0.677260 0.231215
Si Si3 0.730027 0.178296 0.006166
Si Si4 0.555928 0.178472 0.218546
Si Si5 0.556262 0.676562 0.906975
Si Si6 0.718722 0.329198 0.439368
Si Si7 0.615649 0.821720 0.305087
Si Si8 0.981107 0.329548 0.650900
O O1 0.647949 0.756813 0.676746
O O2 0.000000 0.747939 0.500000
O O3 0.906317 0.782584 0.452804
O O4 0.851446 0.000000 0.552681
O O5 0.905002 0.500000 0.211201
O O6 0.745736 0.717528 0.360847
O O7 0.793251 0.746595 0.228935
O O8 0.082787 0.746569 0.124100
O O9 0.748065 0.000000 0.991231
O O10 0.694318 0.228915 0.089725
O O11 0.559389 0.230357 0.069108
O O12 0.617296 0.238528 0.241923
O O13 0.543613 0.000000 0.229080
O O14 0.521619 0.500000 0.917698
O O15 0.769853 0.722715 0.776658
O O16 0.500000 0.725522 0.000000
O O17 0.642031 0.500000 0.488378
O O18 0.573426 0.221636 0.553903
O O19 0.922887 0.317337 0.346420
O O20 0.638093 0.000000 0.294603
O O21 0.994869 0.500000 0.620654
#
# Coordination Sequence:
#
# PCOD8061895 Si02
#       8
#     4   4   4   4   4   4   4   4
#     4  10  19  34  56  81 112 152 192 231 288 351
#     4  11  24  42  62  86 120 159 198 246 308 363
#     4  11  23  41  63  88 118 156 207 253 295 353
#     4   9  20  38  58  84 121 159 191 243 308 354
#     4  10  21  39  60  84 121 165 201 241 299 356
#     4  10  21  39  61  87 121 158 194 242 302 362
#     4  11  22  39  63  90 120 155 199 248 301 358
#     4  10  20  34  56  85 114 149 194 236 285 347
#
# _framework density 20.265332000000001
#
# number of rings (size 3 to 8) (size 9 to 14) (size 15 to 20)
#    0.000    1.750    1.250    3.000    0.000    7.000 
#    0.000    7.500    0.000    0.000    0.000    0.000 
#    0.000    0.000    0.000    0.000    0.000    0.000 
#
# Total GULP energy -396849.102885 kJ/mol
# GULP energy per Si atom -12401.534465 kJ/mol
# Density = 2.021921 g / cm^3
# Si number density = 20.265332 Si / 1000 Ang^3
#
#
#
# Elastic Constant Matrix: (Units=GPa)
#
#
# Indices 1 2 3 4 5 6 
#
# 1 103.6522 31.1207 15.3313 0.0000 3.4607 0.0000
# 2 31.1207 55.8895 27.0901 0.0000 2.6089 0.0000
# 3 15.3313 27.0901 77.7669 0.0000 2.7666 0.0000
# 4 0.0000 0.0000 0.0000 23.6842 0.0000 -2.9468
# 5 3.4607 2.6089 2.7666 0.0000 39.7622 0.0000
# 6 0.0000 0.0000 0.0000 -2.9468 0.0000 33.3130
#
#
#
# Elastic Compliance Matrix: (Units=1/GPa)
#
#
# Indices 1 2 3 4 5 6 
#
# 1 0.011598 -0.006416 -0.000031 0.000000 -0.000586 0.000000
# 2 -0.006416 0.025108 -0.007461 0.000000 -0.000570 0.000000
# 3 -0.000031 -0.007461 0.015485 0.000000 -0.000585 0.000000
# 4 0.000000 0.000000 0.000000 0.042692 0.000000 0.003776
# 5 -0.000586 -0.000570 -0.000585 0.000000 0.025279 0.000000
# 6 0.000000 0.000000 0.000000 0.003776 0.000000 0.030352
#
#
# Mechanical properties :
#
#
# Convention : Reuss Voigt Hill
#
# Bulk Modulus (GPa) = 41.02483 42.71032 41.86757
# Shear Modulus (GPa) = 26.81611 30.26965 28.54288
#
# Velocity S-wave (km/s) = 3.64160 3.86899 3.75701
# Velocity P-wave (km/s) = 6.16193 6.40938 6.28687
#
# Compressibility (1/GPa) = 0.02437548
#
# Stress axis : x y z
#
# Youngs Moduli (GPa) = 86.22122 39.82773 64.57882
#
# Poissons Ratio (x) = 0.25553 0.00198
# Poissons Ratio (y) = 0.55318 0.48184
# Poissons Ratio (z) = 0.00264 0.29717
#
# Static dielectric constant tensor:
#      x y z
#    x 3.939780 0.000000 -0.041220 
#    y 0.000000 3.445370 0.000000 
#    z -0.041220 0.000000 3.710600 
# 
# 
# High freq. dielectric constant tensor:
#      x y z
#    x 1.807540 0.000000 -0.004650 
#    y 0.000000 1.772620 0.000000 
#    z -0.004650 0.000000 1.795070 
# 
# From -- ./inp_files/71507.got.cif
#   From: 2010.06.25/outbox.cif.g09.slc.cpg/sg10_36_cif.got.tgz:71507.got - 2010.06.27 22:07:45.
