data_PCOD8061952
_publ_section_title
;
Structure prediction by ZEFSAII (Michael W. Deem and Ramdas Pophale) SiO2 
 PCOD8061952
Probable space group: P 2/M
;
_chemical_formula_sum "Si O2"
_cell_formula_units_Z 28
_cell_length_a 25.129687
_cell_length_b 9.316951
_cell_length_c 9.532787
_cell_angle_alpha 90.000000
_cell_angle_beta 40.718777
_cell_angle_gamma 90.000000
_cell_volume 1455.993154
_symmetry_space_group_name_H-M "P 2/M"
_symmetry_group_IT_number 10
_symmetry_cell_setting 'monoclinic'
loop_
_space_group_symop_operation_xyz
x,y,z
-x,y,-z
-x,-y,-z
x,-y,z
loop_
_atom_site_type_symbol
_atom_site_label
_atom_site_fract_x
_atom_site_fract_y
_atom_site_fract_z
Si Si1 0.091607 0.161816 0.336041
Si Si2 0.827419 0.332572 0.053559
Si Si3 0.193122 0.838755 0.396910
Si Si4 0.499682 0.329411 0.841377
Si Si5 0.089583 0.831317 0.866740
Si Si6 0.646224 0.667781 0.361468
Si Si7 0.656702 0.670318 0.023466
O O1 0.114582 0.164850 0.452976
O O2 0.000000 0.217634 0.500000
O O3 0.100621 0.000000 0.256668
O O4 0.152594 0.271692 0.139492
O O5 0.846886 0.500000 0.021150
O O6 0.885704 0.251267 0.043534
O O7 0.731641 0.301859 0.269247
O O8 0.158113 0.790018 0.616269
O O9 0.229248 0.000000 0.330851
O O10 0.262729 0.731945 0.208520
O O11 0.506348 0.500000 0.834369
O O12 0.575949 0.264798 0.600635
O O13 0.418566 0.280472 0.922601
O O14 0.500000 0.267547 0.000000
O O15 0.088269 0.000000 0.900412
O O16 0.000000 0.778583 0.000000
O O17 0.629743 0.500000 0.378238
O O18 0.644630 0.731800 0.205985
O O19 0.666283 0.500000 0.007728
#
# Coordination Sequence:
#
# PCOD8061952 Si02
#       7
#     4   4   4   4   4   4   4
#     4  10  20  37  60  82 108 149 196 233 270 330
#     4  11  22  35  56  87 120 146 179 236 290 335
#     4  10  21  36  57  83 111 144 188 238 280 330
#     4   9  18  31  53  83 110 144 188 226 264 326
#     4  10  22  41  60  78 108 153 199 235 275 336
#     4   9  18  33  51  80 116 146 178 220 278 335
#     4  10  19  34  57  81 112 148 181 226 279 333
#
# _framework density 19.23086
#
# number of rings (size 3 to 8) (size 9 to 14) (size 15 to 20)
#    0.000    2.143    1.429    1.714    2.000    5.143 
#    0.000    1.429    0.000    3.857    0.000    0.000 
#    0.000    0.000    0.000    0.000    0.000    0.000 
#
# Total GULP energy -347188.750417 kJ/mol
# GULP energy per Si atom -12399.598229 kJ/mol
# Density = 1.918709 g / cm^3
# Si number density = 19.230860 Si / 1000 Ang^3
#
#
#
# Elastic Constant Matrix: (Units=GPa)
#
#
# Indices 1 2 3 4 5 6 
#
# 1 97.5842 27.4070 25.7063 0.0000 -1.0253 0.0000
# 2 27.4070 32.8523 27.2225 0.0000 -4.3530 0.0000
# 3 25.7063 27.2225 93.7384 0.0000 -4.3531 0.0000
# 4 0.0000 0.0000 0.0000 26.1422 0.0000 1.9305
# 5 -1.0253 -4.3530 -4.3531 0.0000 35.0380 0.0000
# 6 0.0000 0.0000 0.0000 1.9305 0.0000 15.5759
#
#
#
# Elastic Compliance Matrix: (Units=1/GPa)
#
#
# Indices 1 2 3 4 5 6 
#
# 1 0.013442 -0.010873 -0.000577 0.000000 -0.001029 0.000000
# 2 -0.010873 0.049325 -0.011137 0.000000 0.004426 0.000000
# 3 -0.000577 -0.011137 0.014077 0.000000 0.000348 0.000000
# 4 0.000000 0.000000 0.000000 0.038606 0.000000 -0.004785
# 5 -0.001029 0.004426 0.000348 0.000000 0.029104 0.000000
# 6 0.000000 0.000000 0.000000 -0.004785 0.000000 0.064795
#
#
# Mechanical properties :
#
#
# Convention : Reuss Voigt Hill
#
# Bulk Modulus (GPa) = 31.57487 42.76073 37.16780
# Shear Modulus (GPa) = 18.86239 24.94049 21.90144
#
# Velocity S-wave (km/s) = 3.13523 3.60516 3.37838
# Velocity P-wave (km/s) = 5.43698 6.29391 5.88107
#
# Compressibility (1/GPa) = 0.03167075
#
# Stress axis : x y z
#
# Youngs Moduli (GPa) = 74.39189 20.27371 71.03975
#
# Poissons Ratio (x) = 0.22043 0.04096
# Poissons Ratio (y) = 0.80885 0.79118
# Poissons Ratio (z) = 0.04289 0.22579
#
# Static dielectric constant tensor:
#      x y z
#    x 3.600620 0.000000 0.056440 
#    y 0.000000 3.136830 0.000000 
#    z 0.056440 0.000000 3.650080 
# 
# 
# High freq. dielectric constant tensor:
#      x y z
#    x 1.760800 0.000000 0.000620 
#    y 0.000000 1.706550 0.000000 
#    z 0.000620 0.000000 1.757790 
# 
# From -- ./inp_files/36956.got.cif
#   From: 2010.06.25/outbox.cif.g09.slc.cpg/sg10_19_cif.got.tgz:36956.got - 2010.06.27 22:07:45.
