data_PCOD8061507
_publ_section_title
;
Structure prediction by ZEFSAII (Michael W. Deem and Ramdas Pophale) SiO2 
 PCOD8061507
Probable space group: P 2/M
;
_chemical_formula_sum "Si O2"
_cell_formula_units_Z 32
_cell_length_a 9.102291
_cell_length_b 22.469332
_cell_length_c 15.617211
_cell_angle_alpha 90.000000
_cell_angle_beta 148.199375
_cell_angle_gamma 90.000000
_cell_volume 1683.163020
_symmetry_space_group_name_H-M "P 2/M"
_symmetry_group_IT_number 10
_symmetry_cell_setting 'monoclinic'
loop_
_space_group_symop_operation_xyz
x,y,z
-x,y,-z
-x,-y,-z
x,-y,z
loop_
_atom_site_type_symbol
_atom_site_label
_atom_site_fract_x
_atom_site_fract_y
_atom_site_fract_z
Si Si1 0.311917 0.931004 0.982151
Si Si2 0.499914 0.264729 0.193970
Si Si3 0.894445 0.344071 0.291518
Si Si4 0.499268 0.569743 0.810495
Si Si5 0.326269 0.862621 0.157788
Si Si6 0.492991 0.353556 0.651839
Si Si7 0.670649 0.069620 0.668463
Si Si8 0.102964 0.345358 0.900814
O O1 0.990281 0.917009 0.803738
O O2 0.376413 0.000000 0.015977
O O3 0.500000 0.901170 0.000000
O O4 0.395647 0.908786 0.117367
O O5 0.773865 0.283378 0.274673
O O6 0.498875 0.195588 0.216465
O O7 0.515866 0.297368 0.291401
O O8 0.219541 0.285621 0.004701
O O9 0.770690 0.401234 0.279055
O O10 0.789431 0.345409 0.142544
O O11 0.227292 0.348860 0.458719
O O12 0.495688 0.500000 0.823327
O O13 0.492245 0.585165 0.706025
O O14 0.778100 0.597162 0.990553
O O15 0.425557 0.891018 0.297380
O O16 0.000000 0.847234 0.000000
O O17 0.770579 0.348625 0.733425
O O18 0.500000 0.088996 0.500000
O O19 0.624902 0.000000 0.668087
#
# Coordination Sequence:
#
# PCOD8061507 Si02
#       8
#     4   4   4   4   4   4   4   4
#     4   9  18  33  53  79 109 142 181 223 268 321
#     4  10  19  36  54  73 102 138 176 213 258 320
#     4  10  21  36  55  78 105 137 173 217 269 316
#     4  10  20  36  56  77 105 142 177 210 258 321
#     4  10  19  33  56  81 106 142 186 225 267 322
#     4  10  20  36  55  76 104 136 173 216 264 314
#     4   9  18  35  57  80 110 145 182 226 275 325
#     4  10  20  35  56  78 102 135 176 220 263 311
#
# _framework density 19.011825000000002
#
# number of rings (size 3 to 8) (size 9 to 14) (size 15 to 20)
#    0.000    2.500    0.000    6.000    0.000    5.500 
#    0.000    6.875    0.000    5.250    0.000    0.000 
#    0.000    0.000    0.000    0.000    0.000    0.000 
#
# Total GULP energy -396674.883586 kJ/mol
# GULP energy per Si atom -12396.090112 kJ/mol
# Density = 1.896855 g / cm^3
# Si number density = 19.011825 Si / 1000 Ang^3
#
#
#
# Elastic Constant Matrix: (Units=GPa)
#
#
# Indices 1 2 3 4 5 6 
#
# 1 102.0206 43.1636 46.9866 0.0000 -7.8666 0.0000
# 2 43.1636 94.5992 44.3448 0.0000 -7.7843 0.0000
# 3 46.9866 44.3448 112.5720 0.0000 1.0712 0.0000
# 4 0.0000 0.0000 0.0000 4.4018 0.0000 -3.4762
# 5 -7.8666 -7.7843 1.0712 0.0000 40.8032 0.0000
# 6 0.0000 0.0000 0.0000 -3.4762 0.0000 9.5301
#
#
#
# Elastic Compliance Matrix: (Units=1/GPa)
#
#
# Indices 1 2 3 4 5 6 
#
# 1 0.013565 -0.004130 -0.004053 0.000000 0.001934 0.000000
# 2 -0.004130 0.014506 -0.004010 0.000000 0.002076 0.000000
# 3 -0.004053 -0.004010 0.012172 0.000000 -0.001866 0.000000
# 4 0.000000 0.000000 0.000000 0.319098 0.000000 0.116395
# 5 0.001934 0.002076 -0.001866 0.000000 0.025326 0.000000
# 6 0.000000 0.000000 0.000000 0.116395 0.000000 0.147387
#
#
# Mechanical properties :
#
#
# Convention : Reuss Voigt Hill
#
# Bulk Modulus (GPa) = 63.06657 64.24243 63.65450
# Shear Modulus (GPa) = 8.90110 22.59350 15.74730
#
# Velocity S-wave (km/s) = 2.16611 3.45105 2.88112
# Velocity P-wave (km/s) = 6.28493 7.05293 6.67997
#
# Compressibility (1/GPa) = 0.01585626
#
# Stress axis : x y z
#
# Youngs Moduli (GPa) = 73.71695 68.93620 82.15241
#
# Poissons Ratio (x) = 0.28473 0.33300
# Poissons Ratio (y) = 0.30448 0.32944
# Poissons Ratio (z) = 0.29881 0.27644
#
# Static dielectric constant tensor:
#      x y z
#    x 3.764780 0.000000 0.284090 
#    y 0.000000 3.240990 0.000000 
#    z 0.284090 0.000000 3.877130 
# 
# 
# High freq. dielectric constant tensor:
#      x y z
#    x 1.748240 0.000000 -0.003770 
#    y 0.000000 1.716360 0.000000 
#    z -0.003770 0.000000 1.736020 
# 
# From -- ./inp_files/62717.got.cif
#   From: 2010.06.25/outbox.cif.g09.slc.cpg/sg10_32_cif.got.tgz:62717.got - 2010.06.27 22:07:45.
