data_PCOD8061058
_publ_section_title
;
Structure prediction by ZEFSAII (Michael W. Deem and Ramdas Pophale) SiO2 
 PCOD8061058
Probable space group: P 2/M
;
_chemical_formula_sum "Si O2"
_cell_formula_units_Z 24
_cell_length_a 11.770248
_cell_length_b 8.588213
_cell_length_c 20.342906
_cell_angle_alpha 90.000000
_cell_angle_beta 39.472791
_cell_angle_gamma 90.000000
_cell_volume 1307.258960
_symmetry_space_group_name_H-M "P 2/M"
_symmetry_group_IT_number 10
_symmetry_cell_setting 'monoclinic'
loop_
_space_group_symop_operation_xyz
x,y,z
-x,y,-z
-x,-y,-z
x,-y,z
loop_
_atom_site_type_symbol
_atom_site_label
_atom_site_fract_x
_atom_site_fract_y
_atom_site_fract_z
Si Si1 0.035232 0.818597 0.718627
Si Si2 0.622848 0.681567 0.383830
Si Si3 0.586733 0.178112 0.640276
Si Si4 0.334185 0.322453 0.266261
Si Si5 0.332174 0.684160 0.118564
Si Si6 0.073108 0.676569 0.561693
O O1 0.191808 0.777663 0.699988
O O2 0.072401 0.713578 0.638802
O O3 0.841229 0.770777 0.833902
O O4 0.038057 0.000000 0.699614
O O5 0.500000 0.736873 0.500000
O O6 0.665394 0.500000 0.370192
O O7 0.526798 0.715559 0.358014
O O8 0.550316 0.224432 0.732665
O O9 0.796288 0.204924 0.533241
O O10 0.534529 0.000000 0.652205
O O11 0.397974 0.500000 0.242225
O O12 0.367098 0.258814 0.177853
O O13 0.125313 0.307203 0.378892
O O14 0.297361 0.500000 0.132735
O O15 0.500000 0.734056 0.000000
O O16 0.143915 0.500000 0.521070
#
# Coordination Sequence:
#
# PCOD8061058 Si02
#       6
#     4   4   4   4   4   4
#     4  11  21  33  53  82 113 140 175 224 273 317
#     4  11  22  36  55  74 103 149 191 221 256 313
#     4  12  23  32  48  75 109 144 178 219 267 316
#     4   9  19  34  52  75 105 139 178 219 262 316
#     4   9  19  38  63  85 106 138 180 223 267 319
#     4  10  19  33  51  72 103 145 185 218 256 311
#
# _framework density 18.359024000000002
#
# number of rings (size 3 to 8) (size 9 to 14) (size 15 to 20)
#    0.000    1.667    1.667    5.500    0.000    6.333 
#    0.000    0.000    0.000    1.000    0.000    7.000 
#    0.000    0.000    0.000    0.000    0.000    0.000 
#
# Total GULP energy -297641.664526 kJ/mol
# GULP energy per Si atom -12401.736022 kJ/mol
# Density = 1.831724 g / cm^3
# Si number density = 18.359024 Si / 1000 Ang^3
#
#
#
# Elastic Constant Matrix: (Units=GPa)
#
#
# Indices 1 2 3 4 5 6 
#
# 1 107.8227 28.0482 42.6497 0.0000 -0.6730 0.0000
# 2 28.0482 65.4462 20.4062 0.0000 -7.8488 0.0000
# 3 42.6497 20.4062 85.8071 0.0000 -7.6408 0.0000
# 4 0.0000 0.0000 0.0000 16.6147 0.0000 -1.7426
# 5 -0.6730 -7.8488 -7.6408 0.0000 15.1283 0.0000
# 6 0.0000 0.0000 0.0000 -1.7426 0.0000 24.1740
#
#
#
# Elastic Compliance Matrix: (Units=1/GPa)
#
#
# Indices 1 2 3 4 5 6 
#
# 1 0.012564 -0.004156 -0.005653 0.000000 -0.004452 0.000000
# 2 -0.004156 0.018594 -0.001585 0.000000 0.008661 0.000000
# 3 -0.005653 -0.001585 0.015439 0.000000 0.006724 0.000000
# 4 0.000000 0.000000 0.000000 0.060646 0.000000 0.004372
# 5 -0.004452 0.008661 0.006724 0.000000 0.073793 0.000000
# 6 0.000000 0.000000 0.000000 0.004372 0.000000 0.041682
#
#
# Mechanical properties :
#
#
# Convention : Reuss Voigt Hill
#
# Bulk Modulus (GPa) = 41.99985 49.03158 45.51572
# Shear Modulus (GPa) = 19.72837 22.38152 21.05494
#
# Velocity S-wave (km/s) = 3.28165 3.49535 3.39018
# Velocity P-wave (km/s) = 6.10619 6.56163 6.33800
#
# Compressibility (1/GPa) = 0.02380961
#
# Stress axis : x y z
#
# Youngs Moduli (GPa) = 79.59390 53.78159 64.76907
#
# Poissons Ratio (x) = 0.22351 0.36613
# Poissons Ratio (y) = 0.33078 0.10266
# Poissons Ratio (z) = 0.44993 0.08524
#
# Static dielectric constant tensor:
#      x y z
#    x 3.426320 0.000000 -0.034930 
#    y 0.000000 3.259110 0.000000 
#    z -0.034930 0.000000 3.236020 
# 
# 
# High freq. dielectric constant tensor:
#      x y z
#    x 1.715380 0.000000 0.002970 
#    y 0.000000 1.712060 0.000000 
#    z 0.002970 0.000000 1.671910 
# 
# From -- ./inp_files/48890.got.cif
#   From: 2010.06.25/outbox.cif.g09.slc.cpg/sg10_25_cif.got.tgz:48890.got - 2010.06.27 22:07:45.
