data_PCOD8061423
_publ_section_title
;
Structure prediction by ZEFSAII (Michael W. Deem and Ramdas Pophale) SiO2 
 PCOD8061423
Probable space group: P 2/M
;
_chemical_formula_sum "Si O2"
_cell_formula_units_Z 32
_cell_length_a 21.970304
_cell_length_b 9.073080
_cell_length_c 12.071165
_cell_angle_alpha 90.000000
_cell_angle_beta 134.622329
_cell_angle_gamma 90.000000
_cell_volume 1712.651125
_symmetry_space_group_name_H-M "P 2/M"
_symmetry_group_IT_number 10
_symmetry_cell_setting 'monoclinic'
loop_
_space_group_symop_operation_xyz
x,y,z
-x,y,-z
-x,-y,-z
x,-y,z
loop_
_atom_site_type_symbol
_atom_site_label
_atom_site_fract_x
_atom_site_fract_y
_atom_site_fract_z
Si Si1 0.865816 0.167721 0.085189
Si Si2 0.790301 0.673171 0.381527
Si Si3 0.587260 0.825554 0.749250
Si Si4 0.730715 0.673400 0.062821
Si Si5 0.395882 0.174435 0.477074
Si Si6 0.094602 0.174622 0.104675
Si Si7 0.750585 0.174887 0.548018
Si Si8 0.036985 0.832728 0.431117
O O1 0.809030 0.269859 0.089677
O O2 0.964545 0.174907 0.245929
O O3 0.830997 0.000000 0.049715
O O4 0.862355 0.227869 0.955204
O O5 0.789160 0.500000 0.398877
O O6 0.746548 0.718359 0.210145
O O7 0.737499 0.750223 0.412381
O O8 0.887468 0.727365 0.509805
O O9 0.621039 0.774799 0.671123
O O10 0.489127 0.773291 0.637662
O O11 0.596093 0.000000 0.775490
O O12 0.641806 0.745558 0.912910
O O13 0.724739 0.500000 0.040284
O O14 0.323135 0.237611 0.465022
O O15 0.393613 0.000000 0.474983
O O16 0.156962 0.221087 0.284468
O O17 0.085730 0.000000 0.086547
O O18 0.000000 0.244668 0.000000
O O19 0.743601 0.000000 0.525587
O O20 0.000000 0.775290 0.500000
O O21 0.071826 0.000000 0.488488
#
# Coordination Sequence:
#
# PCOD8061423 Si02
#       8
#     4   4   4   4   4   4   4   4
#     4  10  19  33  56  81 105 135 174 220 271 321
#     4  11  24  38  51  71 107 151 185 217 264 315
#     4   9  17  34  61  86 109 133 167 216 271 327
#     4  11  23  36  50  75 109 141 176 218 265 315
#     4   8  16  33  59  89 110 132 169 218 272 320
#     4   9  17  30  51  80 109 135 166 211 265 313
#     4  10  19  34  56  78 105 140 181 221 258 310
#     4  10  19  33  55  81 103 132 181 228 263 310
#
# _framework density 18.684481999999999
#
# number of rings (size 3 to 8) (size 9 to 14) (size 15 to 20)
#    0.000    2.250    1.250    3.000    0.000    6.250 
#    0.000    5.000    0.000    5.250    0.000    0.000 
#    0.000    0.000    0.000    0.000    0.000    0.000 
#
# Total GULP energy -396811.093911 kJ/mol
# GULP energy per Si atom -12400.346685 kJ/mol
# Density = 1.864196 g / cm^3
# Si number density = 18.684482 Si / 1000 Ang^3
#
#
#
# Elastic Constant Matrix: (Units=GPa)
#
#
# Indices 1 2 3 4 5 6 
#
# 1 129.4927 33.2452 58.7456 0.0000 -5.9118 0.0000
# 2 33.2452 43.1069 39.8669 0.0000 -4.3119 0.0000
# 3 58.7456 39.8669 114.5712 0.0000 -7.0599 0.0000
# 4 0.0000 0.0000 0.0000 20.6955 0.0000 -1.6604
# 5 -5.9118 -4.3119 -7.0599 0.0000 32.0040 0.0000
# 6 0.0000 0.0000 0.0000 -1.6604 0.0000 10.7441
#
#
#
# Elastic Compliance Matrix: (Units=1/GPa)
#
#
# Indices 1 2 3 4 5 6 
#
# 1 0.010673 -0.004643 -0.003826 0.000000 0.000502 0.000000
# 2 -0.004643 0.036354 -0.010159 0.000000 0.001799 0.000000
# 3 -0.003826 -0.010159 0.014291 0.000000 0.001077 0.000000
# 4 0.000000 0.000000 0.000000 0.048926 0.000000 0.007561
# 5 0.000502 0.001799 0.001077 0.000000 0.031819 0.000000
# 6 0.000000 0.000000 0.000000 0.007561 0.000000 0.094243
#
#
# Mechanical properties :
#
#
# Convention : Reuss Voigt Hill
#
# Bulk Modulus (GPa) = 41.55681 61.20958 51.38320
# Shear Modulus (GPa) = 17.75684 23.04293 20.39989
#
# Velocity S-wave (km/s) = 3.08612 3.51560 3.30784
# Velocity P-wave (km/s) = 5.91511 7.02210 6.49224
#
# Compressibility (1/GPa) = 0.02406345
#
# Stress axis : x y z
#
# Youngs Moduli (GPa) = 93.69418 27.50758 69.97303
#
# Poissons Ratio (x) = 0.12771 0.26773
# Poissons Ratio (y) = 0.43498 0.71082
# Poissons Ratio (z) = 0.35849 0.27944
#
# Static dielectric constant tensor:
#      x y z
#    x 3.636200 0.000000 -0.041070 
#    y 0.000000 3.075300 0.000000 
#    z -0.041070 0.000000 3.552140 
# 
# 
# High freq. dielectric constant tensor:
#      x y z
#    x 1.727140 0.000000 -0.004710 
#    y 0.000000 1.687320 0.000000 
#    z -0.004710 0.000000 1.732650 
# 
# From -- ./inp_files/55340.got.cif
#   From: 2010.06.25/outbox.cif.g09.slc.cpg/sg10_28_cif.got.tgz:55340.got - 2010.06.27 22:07:45.
