data_PCOD8061982
_publ_section_title
;
Structure prediction by ZEFSAII (Michael W. Deem and Ramdas Pophale) SiO2 
 PCOD8061982
Probable space group: P 2/M
;
_chemical_formula_sum "Si O2"
_cell_formula_units_Z 32
_cell_length_a 19.835389
_cell_length_b 9.329508
_cell_length_c 24.716943
_cell_angle_alpha 90.000000
_cell_angle_beta 22.956670
_cell_angle_gamma 90.000000
_cell_volume 1784.011587
_symmetry_space_group_name_H-M "P 2/M"
_symmetry_group_IT_number 10
_symmetry_cell_setting 'monoclinic'
loop_
_space_group_symop_operation_xyz
x,y,z
-x,y,-z
-x,-y,-z
x,-y,z
loop_
_atom_site_type_symbol
_atom_site_label
_atom_site_fract_x
_atom_site_fract_y
_atom_site_fract_z
Si Si1 0.666232 0.162073 0.839186
Si Si2 0.371675 0.332183 0.854216
Si Si3 0.154878 0.167299 0.847458
Si Si4 0.024276 0.333022 0.846148
Si Si5 0.824464 0.665403 0.381861
Si Si6 0.531437 0.665453 0.096828
Si Si7 0.852491 0.335449 0.785647
Si Si8 0.497255 0.831341 0.659901
O O1 0.622698 0.241288 0.815184
O O2 0.824132 0.239431 0.753268
O O3 0.721033 0.000000 0.785822
O O4 0.500000 0.170523 0.000000
O O5 0.386261 0.500000 0.830079
O O6 0.456572 0.296676 0.849087
O O7 0.478399 0.242661 0.731853
O O8 0.172849 0.282038 0.000839
O O9 0.333970 0.206059 0.743463
O O10 0.147909 0.248863 0.795776
O O11 0.135920 0.000000 0.849471
O O12 0.000000 0.222198 0.000000
O O13 0.042407 0.500000 0.845186
O O14 0.082225 0.296357 0.742953
O O15 0.764039 0.500000 0.427320
O O16 0.662867 0.769406 0.507175
O O17 0.957227 0.695896 0.332419
O O18 0.485055 0.500000 0.121840
O O19 0.715175 0.702525 0.933915
O O20 0.831509 0.500000 0.783656
O O21 0.518359 0.000000 0.652991
#
# Coordination Sequence:
#
# PCOD8061982 Si02
#       8
#     4   4   4   4   4   4   4   4
#     4   9  17  27  42  73 112 143 175 216 260 309
#     4  10  19  34  57  83 108 137 179 228 272 316
#     4  10  21  38  56  77 109 146 181 220 267 323
#     4  10  20  35  59  86 107 135 180 229 273 317
#     4  10  21  38  57  81 112 142 179 226 273 321
#     4   9  16  29  51  78 106 137 176 220 266 317
#     4   9  16  30  52  75 104 142 177 215 265 319
#     4  11  24  39  55  78 109 146 184 219 267 329
#
# _framework density 17.937104000000001
#
# number of rings (size 3 to 8) (size 9 to 14) (size 15 to 20)
#    0.000    2.250    2.500    0.750    0.000    4.750 
#    0.000    2.500    0.000    0.750    0.000    5.250 
#    0.000    0.000    0.000    0.000    0.000    0.000 
#
# Total GULP energy -396892.534640 kJ/mol
# GULP energy per Si atom -12402.891707 kJ/mol
# Density = 1.789628 g / cm^3
# Si number density = 17.937104 Si / 1000 Ang^3
#
#
#
# Elastic Constant Matrix: (Units=GPa)
#
#
# Indices 1 2 3 4 5 6 
#
# 1 114.9195 57.4382 23.0288 0.0000 -12.2667 0.0000
# 2 57.4382 73.5976 25.6279 0.0000 -7.3015 0.0000
# 3 23.0288 25.6279 54.1263 0.0000 -6.1372 0.0000
# 4 0.0000 0.0000 0.0000 26.2835 0.0000 -2.0054
# 5 -12.2667 -7.3015 -6.1372 0.0000 20.2898 0.0000
# 6 0.0000 0.0000 0.0000 -2.0054 0.0000 20.2195
#
#
#
# Elastic Compliance Matrix: (Units=1/GPa)
#
#
# Indices 1 2 3 4 5 6 
#
# 1 0.014746 -0.010819 -0.000603 0.000000 0.004840 0.000000
# 2 -0.010819 0.024472 -0.006966 0.000000 0.000159 0.000000
# 3 -0.000603 -0.006966 0.022475 0.000000 0.003927 0.000000
# 4 0.000000 0.000000 0.000000 0.038337 0.000000 0.003802
# 5 0.004840 0.000159 0.003927 0.000000 0.053457 0.000000
# 6 0.000000 0.000000 0.000000 0.003802 0.000000 0.049834
#
#
# Mechanical properties :
#
#
# Convention : Reuss Voigt Hill
#
# Bulk Modulus (GPa) = 40.13059 50.53701 45.33380
# Shear Modulus (GPa) = 20.12856 22.46180 21.29518
#
# Velocity S-wave (km/s) = 3.35352 3.54256 3.44934
# Velocity P-wave (km/s) = 6.11689 6.70587 6.41814
#
# Compressibility (1/GPa) = 0.02491864
#
# Stress axis : x y z
#
# Youngs Moduli (GPa) = 67.81314 40.86292 44.49290
#
# Poissons Ratio (x) = 0.44208 0.02682
# Poissons Ratio (y) = 0.73364 0.30995
# Poissons Ratio (z) = 0.04088 0.28466
#
# Static dielectric constant tensor:
#      x y z
#    x 3.386760 0.000000 -0.117260 
#    y 0.000000 3.284880 0.000000 
#    z -0.117260 0.000000 3.060590 
# 
# 
# High freq. dielectric constant tensor:
#      x y z
#    x 1.704790 0.000000 -0.009790 
#    y 0.000000 1.691680 0.000000 
#    z -0.009790 0.000000 1.666040 
# 
# From -- ./inp_files/93594.got.cif
#   From: 2010.06.25/outbox.cif.g09.slc.cpg/sg10_47_cif.got.tgz:93594.got - 2010.06.27 22:07:45.
