data_PCOD8061072
_publ_section_title
;
Structure prediction by ZEFSAII (Michael W. Deem and Ramdas Pophale) SiO2 
 PCOD8061072
Probable space group: P 2/M
;
_chemical_formula_sum "Si O2"
_cell_formula_units_Z 30
_cell_length_a 11.879610
_cell_length_b 18.204925
_cell_length_c 14.888282
_cell_angle_alpha 90.000000
_cell_angle_beta 28.835175
_cell_angle_gamma 90.000000
_cell_volume 1552.906580
_symmetry_space_group_name_H-M "P 2/M"
_symmetry_group_IT_number 10
_symmetry_cell_setting 'monoclinic'
loop_
_space_group_symop_operation_xyz
x,y,z
-x,y,-z
-x,-y,-z
x,-y,z
loop_
_atom_site_type_symbol
_atom_site_label
_atom_site_fract_x
_atom_site_fract_y
_atom_site_fract_z
Si Si1 0.242587 0.289821 0.380435
Si Si2 0.803824 0.916162 0.700430
Si Si3 0.000000 0.690627 0.000000
Si Si4 0.739467 0.231642 0.021213
Si Si5 0.232637 0.582357 0.710240
Si Si6 0.726745 0.084310 0.954054
Si Si7 0.701663 0.416779 0.786725
Si Si8 0.990127 0.664022 0.295012
O O1 0.457109 0.233498 0.217756
O O2 0.338485 0.367592 0.273635
O O3 0.212689 0.292016 0.510168
O O4 0.000000 0.264322 0.500000
O O5 0.864249 0.907467 0.763527
O O6 0.000000 0.875785 0.500000
O O7 0.803006 0.000000 0.671907
O O8 0.540699 0.889585 0.869677
O O9 0.141646 0.740198 0.970835
O O10 0.189985 0.638169 0.821058
O O11 0.827295 0.146598 0.950678
O O12 0.825688 0.278746 0.875009
O O13 0.500000 0.584321 0.500000
O O14 0.151936 0.500000 0.792593
O O15 0.089713 0.607632 0.724030
O O16 0.753428 0.000000 0.971274
O O17 0.738600 0.500000 0.728165
O O18 0.924892 0.385699 0.681469
O O19 0.500000 0.410109 0.000000
#
# Coordination Sequence:
#
# PCOD8061072 Si02
#       8
#     4   4   2   4   4   4   4   4
#     4  10  22  35  54  80 110 146 181 217 270 325
#     4   8  15  29  49  77 111 139 164 202 258 319
#     4  10  23  40  57  76 106 148 180 224 279 320
#     4  11  22  39  55  76 109 140 184 229 270 326
#     4  10  20  36  58  81 105 134 182 234 270 313
#     4   9  19  33  53  79 108 140 175 218 265 318
#     4  10  19  33  51  76 111 145 176 212 256 312
#     4  10  21  35  54  77 107 145 180 217 270 323
#
# _framework density 19.318611000000001
#
# number of rings (size 3 to 8) (size 9 to 14) (size 15 to 20)
#    0.000    2.267    1.333    2.200    0.000    8.800 
#    0.000    1.000    0.000    0.000    0.000    0.000 
#    0.000   10.133    0.000    0.000    0.000    0.000 
#
# Total GULP energy -371660.197824 kJ/mol
# GULP energy per Si atom -12388.673261 kJ/mol
# Density = 1.927464 g / cm^3
# Si number density = 19.318611 Si / 1000 Ang^3
#
#
#
# Elastic Constant Matrix: (Units=GPa)
#
#
# Indices 1 2 3 4 5 6 
#
# 1 61.6353 44.8153 25.8329 0.0000 12.8777 0.0000
# 2 44.8153 122.6793 34.4209 0.0000 5.9167 0.0000
# 3 25.8329 34.4209 111.3912 0.0000 14.4060 0.0000
# 4 0.0000 0.0000 0.0000 11.7174 0.0000 1.7698
# 5 12.8777 5.9167 14.4060 0.0000 26.9396 0.0000
# 6 0.0000 0.0000 0.0000 1.7698 0.0000 19.9156
#
#
#
# Elastic Compliance Matrix: (Units=1/GPa)
#
#
# Indices 1 2 3 4 5 6 
#
# 1 0.024836 -0.008047 -0.002112 0.000000 -0.008975 0.000000
# 2 -0.008047 0.011539 -0.002008 0.000000 0.002386 0.000000
# 3 -0.002112 -0.002008 0.010636 0.000000 -0.004237 0.000000
# 4 0.000000 0.000000 0.000000 0.086504 0.000000 -0.007687
# 5 -0.008975 0.002386 -0.004237 0.000000 0.043152 0.000000
# 6 0.000000 0.000000 0.000000 -0.007687 0.000000 0.050895
#
#
# Mechanical properties :
#
#
# Convention : Reuss Voigt Hill
#
# Bulk Modulus (GPa) = 44.09989 56.20488 50.15238
# Shear Modulus (GPa) = 19.27106 24.42362 21.84734
#
# Velocity S-wave (km/s) = 3.16181 3.55949 3.36653
# Velocity P-wave (km/s) = 6.01719 6.78602 6.41314
#
# Compressibility (1/GPa) = 0.02267579
#
# Stress axis : x y z
#
# Youngs Moduli (GPa) = 40.26379 86.65989 94.02289
#
# Poissons Ratio (x) = 0.69737 0.19861
# Poissons Ratio (y) = 0.32401 0.18881
# Poissons Ratio (z) = 0.08505 0.17402
#
# Static dielectric constant tensor:
#      x y z
#    x 3.168810 0.000000 0.271410 
#    y 0.000000 3.538470 0.000000 
#    z 0.271410 0.000000 4.094210 
# 
# 
# High freq. dielectric constant tensor:
#      x y z
#    x 1.711450 0.000000 0.018390 
#    y 0.000000 1.753200 0.000000 
#    z 0.018390 0.000000 1.769790 
# 
# From -- ./inp_files/65457.got.cif
#   From: 2010.06.25/outbox.cif.g09.slc.cpg/sg10_33_cif.got.tgz:65457.got - 2010.06.27 22:07:45.
