data_PCOD8061488
_publ_section_title
;
Structure prediction by ZEFSAII (Michael W. Deem and Ramdas Pophale) SiO2 
 PCOD8061488
Probable space group: P 2/M
;
_chemical_formula_sum "Si O2"
_cell_formula_units_Z 32
_cell_length_a 21.020696
_cell_length_b 9.603583
_cell_length_c 12.753947
_cell_angle_alpha 90.000000
_cell_angle_beta 136.782365
_cell_angle_gamma 90.000000
_cell_volume 1763.074376
_symmetry_space_group_name_H-M "P 2/M"
_symmetry_group_IT_number 10
_symmetry_cell_setting 'monoclinic'
loop_
_space_group_symop_operation_xyz
x,y,z
-x,y,-z
-x,-y,-z
x,-y,z
loop_
_atom_site_type_symbol
_atom_site_label
_atom_site_fract_x
_atom_site_fract_y
_atom_site_fract_z
Si Si1 0.599900 0.663529 0.654712
Si Si2 0.858003 0.844869 0.226893
Si Si3 0.788475 0.336262 0.780732
Si Si4 0.133302 0.339839 0.343871
Si Si5 0.593418 0.163359 0.065495
Si Si6 0.206807 0.165426 0.625668
Si Si7 0.647411 0.154021 0.903969
Si Si8 0.078744 0.659219 0.877589
O O1 0.500000 0.722588 0.500000
O O2 0.595311 0.500000 0.667364
O O3 0.679926 0.702205 0.666641
O O4 0.624961 0.729072 0.794547
O O5 0.854818 0.798465 0.345076
O O6 0.919200 0.741518 0.230075
O O7 0.901088 0.000000 0.270031
O O8 0.754977 0.845589 0.058948
O O9 0.806251 0.500000 0.801434
O O10 0.820138 0.277604 0.706066
O O11 0.849997 0.275347 0.950981
O O12 0.163434 0.500000 0.400371
O O13 0.164492 0.245379 0.477251
O O14 0.023190 0.329473 0.195914
O O15 0.687741 0.221728 0.231537
O O16 0.593598 0.000000 0.087265
O O17 0.500000 0.233500 0.000000
O O18 0.590041 0.194513 0.938220
O O19 0.205193 0.000000 0.603897
O O20 0.618473 0.000000 0.828703
O O21 0.105556 0.500000 0.884365
#
# Coordination Sequence:
#
# PCOD8061488 Si02
#       8
#     4   4   4   4   4   4   4   4
#     4  10  20  33  51  76 103 133 166 202 253 309
#     4   9  18  33  53  75 102 134 166 208 257 305
#     4   9  18  35  54  72 101 137 170 209 255 301
#     4  10  21  35  52  75 103 135 173 215 253 299
#     4   8  15  30  53  76  98 131 173 209 245 299
#     4   9  19  35  52  74 106 139 168 204 260 312
#     4   9  17  31  51  74  99 128 166 210 250 292
#     4  10  19  33  56  78  95 130 180 215 249 302
#
# _framework density 18.150113999999999
#
# number of rings (size 3 to 8) (size 9 to 14) (size 15 to 20)
#    0.000    2.750    1.250    1.875    0.000    4.250 
#    0.000    5.625    0.000    2.250    0.000    0.000 
#    0.000    0.000    0.000    0.000    0.000    0.000 
#
# Total GULP energy -396679.351705 kJ/mol
# GULP energy per Si atom -12396.229741 kJ/mol
# Density = 1.810880 g / cm^3
# Si number density = 18.150114 Si / 1000 Ang^3
#
#
#
# Elastic Constant Matrix: (Units=GPa)
#
#
# Indices 1 2 3 4 5 6 
#
# 1 126.9774 37.6658 47.1610 0.0000 -8.3199 0.0000
# 2 37.6658 40.0742 32.7199 0.0000 -7.7623 0.0000
# 3 47.1610 32.7199 82.9657 0.0000 -16.0716 0.0000
# 4 0.0000 0.0000 0.0000 32.3215 0.0000 -10.1235
# 5 -8.3199 -7.7623 -16.0716 0.0000 23.8617 0.0000
# 6 0.0000 0.0000 0.0000 -10.1235 0.0000 27.7194
#
#
#
# Elastic Compliance Matrix: (Units=1/GPa)
#
#
# Indices 1 2 3 4 5 6 
#
# 1 0.011543 -0.008154 -0.003542 0.000000 -0.001013 0.000000
# 2 -0.008154 0.042697 -0.011574 0.000000 0.003251 0.000000
# 3 -0.003542 -0.011574 0.020313 0.000000 0.008681 0.000000
# 4 0.000000 0.000000 0.000000 0.034935 0.000000 0.012759
# 5 -0.001013 0.003251 0.008681 0.000000 0.048459 0.000000
# 6 0.000000 0.000000 0.000000 0.012759 0.000000 0.040735
#
#
# Mechanical properties :
#
#
# Convention : Reuss Voigt Hill
#
# Bulk Modulus (GPa) = 35.69755 53.90119 44.79937
# Shear Modulus (GPa) = 19.64156 25.61189 22.62672
#
# Velocity S-wave (km/s) = 3.29321 3.76056 3.53461
# Velocity P-wave (km/s) = 5.84559 6.97263 6.43384
#
# Compressibility (1/GPa) = 0.02801313
#
# Stress axis : x y z
#
# Youngs Moduli (GPa) = 86.63003 23.42071 49.22920
#
# Poissons Ratio (x) = 0.19096 0.17439
# Poissons Ratio (y) = 0.70635 0.56979
# Poissons Ratio (z) = 0.30688 0.27108
#
# Static dielectric constant tensor:
#      x y z
#    x 3.771860 0.000000 0.019540 
#    y 0.000000 3.244600 0.000000 
#    z 0.019540 0.000000 3.426820 
# 
# 
# High freq. dielectric constant tensor:
#      x y z
#    x 1.714790 0.000000 0.000170 
#    y 0.000000 1.670020 0.000000 
#    z 0.000170 0.000000 1.698370 
# 
# From -- ./inp_files/53519.got.cif
#   From: 2010.06.25/outbox.cif.g09.slc.cpg/sg10_27_cif.got.tgz:53519.got - 2010.06.27 22:07:45.
