data_PCOD8061639
_publ_section_title
;
Structure prediction by ZEFSAII (Michael W. Deem and Ramdas Pophale) SiO2 
 PCOD8061639
Probable space group: P 2/M
;
_chemical_formula_sum "Si O2"
_cell_formula_units_Z 28
_cell_length_a 29.490862
_cell_length_b 9.255252
_cell_length_c 29.528969
_cell_angle_alpha 90.000000
_cell_angle_beta 170.104493
_cell_angle_gamma 90.000000
_cell_volume 1385.090690
_symmetry_space_group_name_H-M "P 2/M"
_symmetry_group_IT_number 10
_symmetry_cell_setting 'monoclinic'
loop_
_space_group_symop_operation_xyz
x,y,z
-x,y,-z
-x,-y,-z
x,-y,z
loop_
_atom_site_type_symbol
_atom_site_label
_atom_site_fract_x
_atom_site_fract_y
_atom_site_fract_z
Si Si1 0.232787 0.500000 0.764965
Si Si2 0.331681 0.169727 0.570506
Si Si3 0.452377 0.167286 0.502369
Si Si4 0.141762 0.324459 0.942394
Si Si5 0.767365 0.000000 0.235786
Si Si6 0.090703 0.169242 0.984029
Si Si7 0.808532 0.751218 0.206324
Si Si8 0.336633 0.166468 0.682009
O O1 0.215288 0.623285 0.783427
O O2 0.000000 0.500000 0.500000
O O3 0.500000 0.500000 0.000000
O O4 0.371763 0.178017 0.663264
O O5 0.060274 0.252266 0.291938
O O6 0.323956 0.000000 0.547188
O O7 0.569355 0.256175 0.780847
O O8 0.500000 0.240927 0.500000
O O9 0.153650 0.193364 0.222953
O O10 0.525636 0.000000 0.570225
O O11 0.651249 0.228454 0.736023
O O12 0.146221 0.500000 0.942717
O O13 0.045804 0.273108 0.897191
O O14 0.786617 0.127641 0.220977
O O15 0.000000 0.000000 0.500000
O O16 0.500000 0.000000 0.000000
O O17 0.112522 0.000000 0.990631
O O18 0.078030 0.750190 0.443527
O O19 0.581489 0.753800 0.945544
O O20 0.322500 0.000000 0.683733
#
# Coordination Sequence:
#
# PCOD8061639 Si02
#       8
#     2   4   4   4   2   4   4   4
#     4  12  26  46  62  88 130 168 204 242 296 358
#     4  11  24  44  71  94 127 168 213 264 321 393
#     4   9  17  30  52  86 119 154 208 270 315 361
#     4  12  25  43  62  97 133 168 214 269 326 380
#     4  12  22  36  62  94 120 156 200 248 294 348
#     4  10  19  33  58  84 118 165 211 257 315 381
#     4  12  23  42  65  93 125 160 203 247 301 359
#     4  11  22  43  67  96 122 155 202 256 308 362
#
# _framework density 20.215281000000001
#
# number of rings (size 3 to 8) (size 9 to 14) (size 15 to 20)
#    0.000    1.000    1.429    6.429    0.000    5.143 
#    7.714    0.000    0.000    2.571    0.000    0.000 
#    0.000    0.000    0.000    0.000    0.000    0.000 
#
# Total GULP energy -347077.825010 kJ/mol
# GULP energy per Si atom -12395.636608 kJ/mol
# Density = 2.016927 g / cm^3
# Si number density = 20.215281 Si / 1000 Ang^3
#
#
#
# Elastic Constant Matrix: (Units=GPa)
#
#
# Indices 1 2 3 4 5 6 
#
# 1 100.6521 40.2814 26.4038 0.0000 -1.9739 0.0000
# 2 40.2814 128.9022 28.9966 0.0000 -1.3665 0.0000
# 3 26.4038 28.9966 131.0702 0.0000 -3.7402 0.0000
# 4 0.0000 0.0000 0.0000 27.8447 0.0000 -2.2450
# 5 -1.9739 -1.3665 -3.7402 0.0000 46.0918 0.0000
# 6 0.0000 0.0000 0.0000 -2.2450 0.0000 23.1981
#
#
#
# Elastic Compliance Matrix: (Units=1/GPa)
#
#
# Indices 1 2 3 4 5 6 
#
# 1 0.011679 -0.003283 -0.001619 0.000000 0.000271 0.000000
# 2 -0.003283 0.009087 -0.001349 0.000000 0.000019 0.000000
# 3 -0.001619 -0.001349 0.008270 0.000000 0.000562 0.000000
# 4 0.000000 0.000000 0.000000 0.036196 0.000000 0.003503
# 5 0.000271 0.000019 0.000562 0.000000 0.021754 0.000000
# 6 0.000000 0.000000 0.000000 0.003503 0.000000 0.043446
#
#
# Mechanical properties :
#
#
# Convention : Reuss Voigt Hill
#
# Bulk Modulus (GPa) = 60.47299 61.33203 60.90251
# Shear Modulus (GPa) = 33.68292 37.08977 35.38635
#
# Velocity S-wave (km/s) = 4.08635 4.28803 4.18841
# Velocity P-wave (km/s) = 7.22799 7.41091 7.32002
#
# Compressibility (1/GPa) = 0.01653631
#
# Stress axis : x y z
#
# Youngs Moduli (GPa) = 85.62462 110.04524 120.91964
#
# Poissons Ratio (x) = 0.36123 0.19574
# Poissons Ratio (y) = 0.28107 0.16306
# Poissons Ratio (z) = 0.13860 0.14840
#
# Static dielectric constant tensor:
#      x y z
#    x 3.887770 0.000000 -0.085800 
#    y 0.000000 3.612780 0.000000 
#    z -0.085800 0.000000 3.847320 
# 
# 
# High freq. dielectric constant tensor:
#      x y z
#    x 1.811460 0.000000 -0.002570 
#    y 0.000000 1.769500 0.000000 
#    z -0.002570 0.000000 1.808820 
# 
# From -- ./inp_files/95973.got.cif
#   From: 2010.06.25/outbox.cif.g09.slc.cpg/sg10_48_cif.got.tgz:95973.got - 2010.06.27 22:07:45.
