data_PCOD8061024
_publ_section_title
;
Structure prediction by ZEFSAII (Michael W. Deem and Ramdas Pophale) SiO2 
 PCOD8061024
Probable space group: P 2/M
;
_chemical_formula_sum "Si O2"
_cell_formula_units_Z 24
_cell_length_a 23.352705
_cell_length_b 8.819153
_cell_length_c 11.582783
_cell_angle_alpha 90.000000
_cell_angle_beta 149.415456
_cell_angle_gamma 90.000000
_cell_volume 1213.757566
_symmetry_space_group_name_H-M "P 2/M"
_symmetry_group_IT_number 10
_symmetry_cell_setting 'monoclinic'
loop_
_space_group_symop_operation_xyz
x,y,z
-x,y,-z
-x,-y,-z
x,-y,z
loop_
_atom_site_type_symbol
_atom_site_label
_atom_site_fract_x
_atom_site_fract_y
_atom_site_fract_z
Si Si1 0.310234 0.178862 0.888585
Si Si2 0.884082 0.821552 0.839051
Si Si3 0.447160 0.821479 0.646208
Si Si4 0.672261 0.819794 0.338371
Si Si5 0.764281 0.822074 0.861416
Si Si6 0.129068 0.320806 0.729657
O O1 0.339530 0.242127 0.811801
O O2 0.199120 0.261182 0.741691
O O3 0.285780 0.000000 0.846652
O O4 0.422949 0.216591 0.160303
O O5 0.789451 0.756211 0.590697
O O6 0.857009 0.785573 0.925001
O O7 0.889857 0.000000 0.830939
O O8 0.000000 0.743710 0.000000
O O9 0.422097 0.761793 0.733840
O O10 0.358160 0.760202 0.396052
O O11 0.425889 0.000000 0.612884
O O12 0.667866 0.000000 0.324789
O O13 0.758494 0.000000 0.881312
O O14 0.803805 0.733724 0.041991
O O15 0.127775 0.500000 0.725244
O O16 0.000000 0.258882 0.500000
#
# Coordination Sequence:
#
# PCOD8061024 Si02
#       6
#     4   4   4   4   4   4
#     4  10  19  32  57  85 108 139 179 214 251 314
#     4   8  14  24  44  78 111 133 161 211 261 296
#     4   8  15  30  53  87 119 135 158 212 274 311
#     4   8  14  25  46  81 117 140 160 200 262 319
#     4   9  18  34  57  80 106 137 173 216 259 313
#     4  11  26  43  53  67 102 145 182 226 272 307
#
# _framework density 19.773306999999999
#
# number of rings (size 3 to 8) (size 9 to 14) (size 15 to 20)
#    0.000    3.000    0.000    3.000    2.333    4.000 
#    0.000    4.167    0.000    6.500    0.000    0.000 
#    0.000    0.000    0.000    0.000    0.000    0.000 
#
# Total GULP energy -297315.014675 kJ/mol
# GULP energy per Si atom -12388.125611 kJ/mol
# Density = 1.972830 g / cm^3
# Si number density = 19.773307 Si / 1000 Ang^3
#
#
#
# Elastic Constant Matrix: (Units=GPa)
#
#
# Indices 1 2 3 4 5 6 
#
# 1 82.5775 20.1542 66.6277 0.0000 7.8602 0.0000
# 2 20.1542 27.8691 24.6214 0.0000 1.0320 0.0000
# 3 66.6277 24.6214 114.0983 0.0000 10.4348 0.0000
# 4 0.0000 0.0000 0.0000 7.7604 0.0000 10.5592
# 5 7.8602 1.0320 10.4348 0.0000 38.3880 0.0000
# 6 0.0000 0.0000 0.0000 10.5592 0.0000 -1.0445
#
#
#
# Elastic Compliance Matrix: (Units=1/GPa)
#
#
# Indices 1 2 3 4 5 6 
#
# 1 0.023767 -0.006158 -0.012429 0.000000 -0.001322 0.000000
# 2 -0.006158 0.046008 -0.006496 0.000000 0.001790 0.000000
# 3 -0.012429 -0.006496 0.017613 0.000000 -0.002068 0.000000
# 4 0.000000 0.000000 0.000000 0.008733 0.000000 0.088286
# 5 -0.001322 0.001790 -0.002068 0.000000 0.026835 0.000000
# 6 0.000000 0.000000 0.000000 0.088286 0.000000 -0.064884
#
#
# Mechanical properties :
#
#
# Convention : Reuss Voigt Hill
#
# Bulk Modulus (GPa) = 26.86555 49.70572 38.28563
# Shear Modulus (GPa) = 41.44429 16.56356 29.00392
#
# Velocity S-wave (km/s) = 4.58314 2.89740 3.83407
# Velocity P-wave (km/s) = 6.45161 6.03205 6.24535
#
# Compressibility (1/GPa) = 0.03722239
#
# Stress axis : x y z
#
# Youngs Moduli (GPa) = 42.07528 21.73542 56.77601
#
# Poissons Ratio (x) = 0.13385 0.70566
# Poissons Ratio (y) = 0.25910 0.36880
# Poissons Ratio (z) = 0.52295 0.14119
#
# Static dielectric constant tensor:
#      x y z
#    x 3.765980 0.000000 0.194940 
#    y 0.000000 2.917300 0.000000 
#    z 0.194940 0.000000 4.136130 
# 
# 
# High freq. dielectric constant tensor:
#      x y z
#    x 1.775670 0.000000 0.005680 
#    y 0.000000 1.694670 0.000000 
#    z 0.005680 0.000000 1.787080 
# 
# From -- ./inp_files/56690.got.cif
#   From: 2010.06.25/outbox.cif.g09.slc.cpg/sg10_29_cif.got.tgz:56690.got - 2010.06.27 22:07:45.
