data_PCOD8061668
_publ_section_title
;
Structure prediction by ZEFSAII (Michael W. Deem and Ramdas Pophale) SiO2 
 PCOD8061668
Probable space group: P 2/M
;
_chemical_formula_sum "Si O2"
_cell_formula_units_Z 26
_cell_length_a 19.640101
_cell_length_b 16.233581
_cell_length_c 5.135209
_cell_angle_alpha 90.000000
_cell_angle_beta 117.562910
_cell_angle_gamma 90.000000
_cell_volume 1451.431459
_symmetry_space_group_name_H-M "P 2/M"
_symmetry_group_IT_number 10
_symmetry_cell_setting 'monoclinic'
loop_
_space_group_symop_operation_xyz
x,y,z
-x,y,-z
-x,-y,-z
x,-y,z
loop_
_atom_site_type_symbol
_atom_site_label
_atom_site_fract_x
_atom_site_fract_y
_atom_site_fract_z
Si Si1 0.299504 0.809767 0.151344
Si Si2 0.500000 0.164561 0.000000
Si Si3 0.782178 0.655443 0.903675
Si Si4 0.304826 0.594943 0.760833
Si Si5 0.661240 0.094295 0.296435
Si Si6 0.430160 0.701746 0.234864
Si Si7 0.952337 0.596816 0.165331
O O1 0.224064 0.752664 0.036468
O O2 0.295344 0.879419 0.363522
O O3 0.368700 0.743491 0.323131
O O4 0.307159 0.849719 0.881080
O O5 0.570966 0.105040 0.194776
O O6 0.474894 0.221823 0.190356
O O7 0.735690 0.634076 0.560230
O O8 0.750754 0.600864 0.087526
O O9 0.871152 0.640966 0.015538
O O10 0.323846 0.500000 0.738774
O O11 0.385491 0.642464 0.954875
O O12 0.680034 0.000000 0.266179
O O13 0.500000 0.651580 0.500000
O O14 0.936930 0.500000 0.136540
O O15 0.000000 0.624926 0.500000
O O16 0.000000 0.625465 0.000000
#
# Coordination Sequence:
#
# PCOD8061668 Si02
#       7
#     4   2   4   4   4   4   4
#     4  10  21  36  53  76 100 142 175 211 267 323
#     4  10  19  34  49  72  98 138 170 218 283 334
#     4  11  21  39  57  76 110 146 178 214 261 325
#     4  11  23  35  53  76 100 142 192 232 269 300
#     4  11  21  34  53  78 104 128 172 223 270 326
#     4  10  20  34  52  68 101 140 187 231 271 314
#     4  10  20  33  54  84 114 141 170 211 258 301
#
# _framework density 17.913350000000001
#
# number of rings (size 3 to 8) (size 9 to 14) (size 15 to 20)
#    0.000    1.538    1.538    5.769    2.154    1.538 
#    0.000    2.692    0.000    0.000    0.000    0.000 
#    0.000   12.308    0.000    0.000    0.000    0.000 
#
# Total GULP energy -322325.617494 kJ/mol
# GULP energy per Si atom -12397.139134 kJ/mol
# Density = 1.787258 g / cm^3
# Si number density = 17.913350 Si / 1000 Ang^3
#
#
#
# Elastic Constant Matrix: (Units=GPa)
#
#
# Indices 1 2 3 4 5 6 
#
# 1 88.1174 37.6589 51.2434 0.0000 -1.8739 0.0000
# 2 37.6589 95.5642 36.0900 0.0000 6.7798 0.0000
# 3 51.2434 36.0900 106.6533 0.0000 -7.9236 0.0000
# 4 0.0000 0.0000 0.0000 14.3692 0.0000 -2.2668
# 5 -1.8739 6.7798 -7.9236 0.0000 30.4429 0.0000
# 6 0.0000 0.0000 0.0000 -2.2668 0.0000 27.6057
#
#
#
# Elastic Compliance Matrix: (Units=1/GPa)
#
#
# Indices 1 2 3 4 5 6 
#
# 1 0.017083 -0.004189 -0.006774 0.000000 0.000222 0.000000
# 2 -0.004189 0.013472 -0.002843 0.000000 -0.003998 0.000000
# 3 -0.006774 -0.002843 0.013877 0.000000 0.003828 0.000000
# 4 0.000000 0.000000 0.000000 0.070506 0.000000 0.005789
# 5 0.000222 -0.003998 0.003828 0.000000 0.034749 0.000000
# 6 0.000000 0.000000 0.000000 0.005789 0.000000 0.036700
#
#
# Mechanical properties :
#
#
# Convention : Reuss Voigt Hill
#
# Bulk Modulus (GPa) = 59.45249 60.03548 59.74399
# Shear Modulus (GPa) = 22.76804 25.50641 24.13722
#
# Velocity S-wave (km/s) = 3.56899 3.77752 3.67474
# Velocity P-wave (km/s) = 7.08834 7.25351 7.17140
#
# Compressibility (1/GPa) = 0.01682015
#
# Stress axis : x y z
#
# Youngs Moduli (GPa) = 58.53864 74.22563 72.06118
#
# Poissons Ratio (x) = 0.31096 0.48811
# Poissons Ratio (y) = 0.24524 0.20487
# Poissons Ratio (z) = 0.39652 0.21103
#
# Static dielectric constant tensor:
#      x y z
#    x 3.456270 0.000000 -0.029340 
#    y 0.000000 3.205850 0.000000 
#    z -0.029340 0.000000 3.344240 
# 
# 
# High freq. dielectric constant tensor:
#      x y z
#    x 1.681640 0.000000 -0.019110 
#    y 0.000000 1.675240 0.000000 
#    z -0.019110 0.000000 1.698400 
# 
# From -- ./inp_files/12634.got.cif
#   From: 2010.06.25/outbox.cif.g09.slc.cpg/sg10_7_cif.got.tgz:12634.got - 2010.06.27 22:07:45.
