data_PCOD8061290
_publ_section_title
;
Structure prediction by ZEFSAII (Michael W. Deem and Ramdas Pophale) SiO2 
 PCOD8061290
Probable space group: P 2/M
;
_chemical_formula_sum "Si O2"
_cell_formula_units_Z 32
_cell_length_a 14.785116
_cell_length_b 8.741018
_cell_length_c 25.319386
_cell_angle_alpha 90.000000
_cell_angle_beta 148.559958
_cell_angle_gamma 90.000000
_cell_volume 1706.799538
_symmetry_space_group_name_H-M "P 2/M"
_symmetry_group_IT_number 10
_symmetry_cell_setting 'monoclinic'
loop_
_space_group_symop_operation_xyz
x,y,z
-x,y,-z
-x,-y,-z
x,-y,z
loop_
_atom_site_type_symbol
_atom_site_label
_atom_site_fract_x
_atom_site_fract_y
_atom_site_fract_z
Si Si1 0.899990 0.819808 0.326083
Si Si2 0.327419 0.823001 0.381049
Si Si3 0.005291 0.319890 0.736209
Si Si4 0.195661 0.679244 0.533651
Si Si5 0.500507 0.825166 0.638526
Si Si6 0.527156 0.320706 0.156130
Si Si7 0.350483 0.680391 0.963108
Si Si8 0.464368 0.825770 0.734463
O O1 0.985667 0.767516 0.314245
O O2 0.702603 0.768090 0.231036
O O3 0.005678 0.743206 0.426776
O O4 0.912860 0.000000 0.337683
O O5 0.500000 0.789114 0.500000
O O6 0.362137 0.774896 0.337252
O O7 0.174263 0.716362 0.324616
O O8 0.272489 0.000000 0.358499
O O9 0.018864 0.500000 0.732018
O O10 0.162093 0.259615 0.851582
O O11 0.185661 0.500000 0.538200
O O12 0.326596 0.720637 0.549955
O O13 0.272185 0.759463 0.624817
O O14 0.580617 0.812040 0.738414
O O15 0.441777 0.000000 0.598042
O O16 0.565571 0.500000 0.173753
O O17 0.452670 0.270942 0.176270
O O18 0.386216 0.273366 0.041700
O O19 0.354898 0.500000 0.958690
O O20 0.500000 0.752021 0.000000
O O21 0.445106 0.000000 0.743639
#
# Coordination Sequence:
#
# PCOD8061290 Si02
#       8
#     4   4   4   4   4   4   4   4
#     4  12  23  35  51  77 114 151 185 230 284 339
#     4  10  20  35  57  84 116 153 187 226 284 345
#     4  11  22  37  58  86 115 149 191 236 282 337
#     4  10  19  33  54  79 108 144 188 232 275 331
#     4   8  17  34  53  75 111 149 178 221 280 333
#     4  11  21  36  59  82 105 143 192 235 281 337
#     4   9  18  37  60  81 112 148 183 234 295 337
#     4   9  19  36  54  79 112 149 186 228 283 338
#
# _framework density 18.748539999999998
#
# number of rings (size 3 to 8) (size 9 to 14) (size 15 to 20)
#    0.750    1.250    1.250    3.750    0.000    2.250 
#    0.000    5.625    0.000    0.750    0.000    5.250 
#    0.000    0.000    0.000    0.000    0.000    0.000 
#
# Total GULP energy -396609.615620 kJ/mol
# GULP energy per Si atom -12394.050488 kJ/mol
# Density = 1.870587 g / cm^3
# Si number density = 18.748540 Si / 1000 Ang^3
#
#
#
# Elastic Constant Matrix: (Units=GPa)
#
#
# Indices 1 2 3 4 5 6 
#
# 1 85.5738 5.5328 16.2740 0.0000 -13.9278 0.0000
# 2 5.5328 64.8162 10.1641 0.0000 -6.9665 0.0000
# 3 16.2740 10.1641 74.3139 0.0000 -16.5310 0.0000
# 4 0.0000 0.0000 0.0000 12.0000 0.0000 -2.9307
# 5 -13.9278 -6.9665 -16.5310 0.0000 32.1618 0.0000
# 6 0.0000 0.0000 0.0000 -2.9307 0.0000 28.9773
#
#
#
# Elastic Compliance Matrix: (Units=1/GPa)
#
#
# Indices 1 2 3 4 5 6 
#
# 1 0.012781 -0.000327 -0.001737 0.000000 0.004571 0.000000
# 2 -0.000327 0.015970 -0.001552 0.000000 0.002520 0.000000
# 3 -0.001737 -0.001552 0.015589 0.000000 0.006924 0.000000
# 4 0.000000 0.000000 0.000000 0.085444 0.000000 0.008642
# 5 0.004571 0.002520 0.006924 0.000000 0.037177 0.000000
# 6 0.000000 0.000000 0.000000 0.008642 0.000000 0.035384
#
#
# Mechanical properties :
#
#
# Convention : Reuss Voigt Hill
#
# Bulk Modulus (GPa) = 26.94857 32.07174 29.51016
# Shear Modulus (GPa) = 22.52770 27.47668 25.00219
#
# Velocity S-wave (km/s) = 3.47013 3.83239 3.65575
# Velocity P-wave (km/s) = 5.51911 6.06022 5.79599
#
# Compressibility (1/GPa) = 0.03710772
#
# Stress axis : x y z
#
# Youngs Moduli (GPa) = 78.23883 62.61584 64.14578
#
# Poissons Ratio (x) = 0.02049 0.11145
# Poissons Ratio (y) = 0.02561 0.09956
# Poissons Ratio (z) = 0.13593 0.09719
#
# Static dielectric constant tensor:
#      x y z
#    x 3.527020 0.000000 -0.255090 
#    y 0.000000 3.337210 0.000000 
#    z -0.255090 0.000000 3.372540 
# 
# 
# High freq. dielectric constant tensor:
#      x y z
#    x 1.726400 0.000000 -0.021700 
#    y 0.000000 1.723810 0.000000 
#    z -0.021700 0.000000 1.703740 
# 
# From -- ./inp_files/93133.got.cif
#   From: 2010.06.25/outbox.cif.g09.slc.cpg/sg10_47_cif.got.tgz:93133.got - 2010.06.27 22:07:45.
