data_PCOD8061838
_publ_section_title
;
Structure prediction by ZEFSAII (Michael W. Deem and Ramdas Pophale) SiO2 
 PCOD8061838
Probable space group: P 2/M
;
_chemical_formula_sum "Si O2"
_cell_formula_units_Z 20
_cell_length_a 14.484966
_cell_length_b 17.861472
_cell_length_c 12.342657
_cell_angle_alpha 90.000000
_cell_angle_beta 160.253085
_cell_angle_gamma 90.000000
_cell_volume 1078.916739
_symmetry_space_group_name_H-M "P 2/M"
_symmetry_group_IT_number 10
_symmetry_cell_setting 'monoclinic'
loop_
_space_group_symop_operation_xyz
x,y,z
-x,y,-z
-x,-y,-z
x,-y,z
loop_
_atom_site_type_symbol
_atom_site_label
_atom_site_fract_x
_atom_site_fract_y
_atom_site_fract_z
Si Si1 0.305354 0.000000 0.884159
Si Si2 0.196052 0.083552 0.122673
Si Si3 0.460216 0.838825 0.084275
Si Si4 0.800226 0.662510 0.880118
Si Si5 0.942563 0.794406 0.195241
Si Si6 0.202968 0.500000 0.126355
O O1 0.000000 0.000000 0.500000
O O2 0.500000 0.000000 0.000000
O O3 0.380592 0.924187 0.031989
O O4 0.500000 0.081473 0.500000
O O5 0.097182 0.000000 0.980250
O O6 0.190805 0.135938 0.013299
O O7 0.000000 0.116304 0.000000
O O8 0.735678 0.809335 0.443154
O O9 0.500000 0.829336 0.000000
O O10 0.207547 0.789843 0.852833
O O11 0.500000 0.677505 0.500000
O O12 0.832695 0.579908 0.973956
O O13 0.881647 0.718531 0.064674
O O14 0.000000 0.672347 0.000000
O O15 0.500000 0.500000 0.500000
O O16 0.000000 0.500000 0.000000
#
# Coordination Sequence:
#
# PCOD8061838 Si02
#       6
#     2   4   4   4   4   2
#     4  10  20  38  56  70  94 130 174 236 282 310
#     4  10  21  35  49  70 103 136 170 207 248 310
#     4  11  24  38  54  76 103 134 182 234 280 313
#     4  10  19  34  55  84 116 142 175 213 260 322
#     4  12  22  34  57  78 103 142 179 217 274 313
#     4   8  16  30  52  80 113 144 167 210 262 310
#
# _framework density 18.537110999999999
#
# number of rings (size 3 to 8) (size 9 to 14) (size 15 to 20)
#    0.000    1.600    0.000    6.600    2.800    0.000 
#    0.000    0.000    0.000    0.000    0.000    4.200 
#    0.000    0.000    0.000    0.000    0.000    0.000 
#
# Total GULP energy -247804.550105 kJ/mol
# GULP energy per Si atom -12390.227505 kJ/mol
# Density = 1.849492 g / cm^3
# Si number density = 18.537111 Si / 1000 Ang^3
#
#
#
# Elastic Constant Matrix: (Units=GPa)
#
#
# Indices 1 2 3 4 5 6 
#
# 1 93.5029 46.3196 23.1455 0.0000 17.5402 0.0000
# 2 46.3196 140.3009 49.3704 0.0000 -9.2413 0.0000
# 3 23.1455 49.3704 100.8892 0.0000 21.7289 0.0000
# 4 0.0000 0.0000 0.0000 23.1698 0.0000 6.2758
# 5 17.5402 -9.2413 21.7289 0.0000 36.8250 0.0000
# 6 0.0000 0.0000 0.0000 6.2758 0.0000 5.7825
#
#
#
# Elastic Compliance Matrix: (Units=1/GPa)
#
#
# Indices 1 2 3 4 5 6 
#
# 1 0.015224 -0.006268 0.001690 0.000000 -0.009821 0.000000
# 2 -0.006268 0.012209 -0.006690 0.000000 0.009997 0.000000
# 3 0.001690 -0.006690 0.015274 0.000000 -0.011496 0.000000
# 4 0.000000 0.000000 0.000000 0.061130 0.000000 -0.066346
# 5 -0.009821 0.009997 -0.011496 0.000000 0.041125 0.000000
# 6 0.000000 0.000000 0.000000 -0.066346 0.000000 0.244943
#
#
# Mechanical properties :
#
#
# Convention : Reuss Voigt Hill
#
# Bulk Modulus (GPa) = 49.57460 63.59598 56.58529
# Shear Modulus (GPa) = 11.92850 27.54595 19.73722
#
# Velocity S-wave (km/s) = 2.53947 3.85904 3.26658
# Velocity P-wave (km/s) = 5.94979 7.36465 6.69470
#
# Compressibility (1/GPa) = 0.02017162
#
# Stress axis : x y z
#
# Youngs Moduli (GPa) = 65.68682 81.90522 65.47155
#
# Poissons Ratio (x) = 0.51334 -0.11063
# Poissons Ratio (y) = 0.41169 0.43799
# Poissons Ratio (z) = -0.11099 0.54793
#
# Static dielectric constant tensor:
#      x y z
#    x 3.445730 0.000000 0.290290 
#    y 0.000000 3.440600 0.000000 
#    z 0.290290 0.000000 3.335820 
# 
# 
# High freq. dielectric constant tensor:
#      x y z
#    x 1.719470 0.000000 0.034870 
#    y 0.000000 1.711330 0.000000 
#    z 0.034870 0.000000 1.719080 
# 
# From -- ./inp_files/51855.got.cif
#   From: 2010.06.25/outbox.cif.g09.slc.cpg/sg10_26_cif.got.tgz:51855.got - 2010.06.27 22:07:45.
