data_PCOD8061492
_publ_section_title
;
Structure prediction by ZEFSAII (Michael W. Deem and Ramdas Pophale) SiO2 
 PCOD8061492
Probable space group: P 2/M
;
_chemical_formula_sum "Si O2"
_cell_formula_units_Z 24
_cell_length_a 19.138939
_cell_length_b 9.182838
_cell_length_c 14.677952
_cell_angle_alpha 90.000000
_cell_angle_beta 31.503546
_cell_angle_gamma 90.000000
_cell_volume 1347.997864
_symmetry_space_group_name_H-M "P 2/M"
_symmetry_group_IT_number 10
_symmetry_cell_setting 'monoclinic'
loop_
_space_group_symop_operation_xyz
x,y,z
-x,y,-z
-x,-y,-z
x,-y,z
loop_
_atom_site_type_symbol
_atom_site_label
_atom_site_fract_x
_atom_site_fract_y
_atom_site_fract_z
Si Si1 0.336815 0.670538 0.431658
Si Si2 0.382897 0.830579 0.561225
Si Si3 0.106109 0.169887 0.957671
Si Si4 0.081018 0.168749 0.499279
Si Si5 0.616805 0.169527 0.802059
Si Si6 0.032893 0.330058 0.732598
O O1 0.366326 0.500000 0.396785
O O2 0.404504 0.739541 0.445340
O O3 0.402110 0.740900 0.269615
O O4 0.179164 0.705488 0.610007
O O5 0.500000 0.792201 0.500000
O O6 0.249023 0.782967 0.761230
O O7 0.379503 0.000000 0.538087
O O8 0.097842 0.000000 0.990686
O O9 0.000000 0.215599 0.000000
O O10 0.078830 0.259034 0.079460
O O11 0.239139 0.202446 0.311927
O O12 0.017440 0.262888 0.650154
O O13 0.000000 0.215059 0.500000
O O14 0.058531 0.000000 0.547627
O O15 0.602534 0.000000 0.793683
O O16 0.500000 0.220331 0.000000
O O17 0.005511 0.500000 0.756334
#
# Coordination Sequence:
#
# PCOD8061492 Si02
#       6
#     4   4   4   4   4   4
#     4  10  20  34  54  78 106 140 174 211 257 310
#     4  10  21  37  55  77 105 137 173 216 262 304
#     4  10  19  33  56  80 101 132 176 218 253 300
#     4   9  18  34  55  77 103 134 170 215 261 303
#     4   9  18  34  56  78 100 132 175 217 255 302
#     4  10  20  33  53  80 107 138 174 212 256 307
#
# _framework density 17.804182000000001
#
# number of rings (size 3 to 8) (size 9 to 14) (size 15 to 20)
#    0.000    2.333    1.667    1.000    0.000    3.333 
#    3.000    0.000    0.000    0.000    0.000    0.000 
#    0.000    0.000    0.000    0.000    0.000    0.000 
#
# Total GULP energy -297687.176591 kJ/mol
# GULP energy per Si atom -12403.632358 kJ/mol
# Density = 1.776366 g / cm^3
# Si number density = 17.804182 Si / 1000 Ang^3
#
#
#
# Elastic Constant Matrix: (Units=GPa)
#
#
# Indices 1 2 3 4 5 6 
#
# 1 135.4311 66.6140 80.9297 0.0000 15.5289 0.0000
# 2 66.6140 76.9850 53.7331 0.0000 17.3511 0.0000
# 3 80.9297 53.7331 128.1136 0.0000 15.5240 0.0000
# 4 0.0000 0.0000 0.0000 -142.2107 0.0000 118.8132
# 5 15.5289 17.3511 15.5240 0.0000 27.5391 0.0000
# 6 0.0000 0.0000 0.0000 118.8132 0.0000 -96.9156
#
#
#
# Elastic Compliance Matrix: (Units=1/GPa)
#
#
# Indices 1 2 3 4 5 6 
#
# 1 0.015461 -0.009380 -0.005895 0.000000 0.000514 0.000000
# 2 -0.009380 0.025743 -0.003807 0.000000 -0.008784 0.000000
# 3 -0.005895 -0.003807 0.013345 0.000000 -0.001799 0.000000
# 4 0.000000 0.000000 0.000000 0.290043 0.000000 0.355576
# 5 0.000514 -0.008784 -0.001799 0.000000 0.042571 0.000000
# 6 0.000000 0.000000 0.000000 0.355576 0.000000 0.425599
#
#
# Mechanical properties :
#
#
# Convention : Reuss Voigt Hill
#
# Bulk Modulus (GPa) = 61.03549 82.56480 71.80014
# Shear Modulus (GPa) = 5.83849 -33.03390 -13.59771
#
# Velocity S-wave (km/s) = 1.81284 -4.31211 -2.76658
# Velocity P-wave (km/s) = 6.22397 4.65641 5.49636
#
# Compressibility (1/GPa) = 0.01638391
#
# Stress axis : x y z
#
# Youngs Moduli (GPa) = 64.67823 38.84580 74.93690
#
# Poissons Ratio (x) = 0.36436 0.44177
# Poissons Ratio (y) = 0.60665 0.28532
# Poissons Ratio (z) = 0.38129 0.14791
#
# Static dielectric constant tensor:
#      x y z
#    x 3.209100 0.000000 0.043510 
#    y 0.000000 3.211030 0.000000 
#    z 0.043510 0.000000 3.226370 
# 
# 
# High freq. dielectric constant tensor:
#      x y z
#    x 1.685720 0.000000 0.009610 
#    y 0.000000 1.686840 0.000000 
#    z 0.009610 0.000000 1.684570 
# 
# From -- ./inp_files/52624.got.cif
#   From: 2010.06.25/outbox.cif.g09.slc.cpg/sg10_27_cif.got.tgz:52624.got - 2010.06.27 22:07:45.
