data_PCOD8061084
_publ_section_title
;
Structure prediction by ZEFSAII (Michael W. Deem and Ramdas Pophale) SiO2 
 PCOD8061084
Probable space group: P 2/M
;
_chemical_formula_sum "Si O2"
_cell_formula_units_Z 28
_cell_length_a 16.942583
_cell_length_b 7.788118
_cell_length_c 21.045100
_cell_angle_alpha 90.000000
_cell_angle_beta 33.761951
_cell_angle_gamma 90.000000
_cell_volume 1543.254847
_symmetry_space_group_name_H-M "P 2/M"
_symmetry_group_IT_number 10
_symmetry_cell_setting 'monoclinic'
loop_
_space_group_symop_operation_xyz
x,y,z
-x,y,-z
-x,-y,-z
x,-y,z
loop_
_atom_site_type_symbol
_atom_site_label
_atom_site_fract_x
_atom_site_fract_y
_atom_site_fract_z
Si Si1 0.634849 0.202692 0.369622
Si Si2 0.905812 0.202575 0.004916
Si Si3 0.035301 0.800220 0.654671
Si Si4 0.067675 0.500000 0.356015
Si Si5 0.397658 0.307053 0.749735
Si Si6 0.315728 0.190092 0.389630
Si Si7 0.070445 0.203207 0.773785
Si Si8 0.775893 0.500000 0.625991
O O1 0.500000 0.261105 0.500000
O O2 0.633657 0.295553 0.303406
O O3 0.771537 0.268417 0.316477
O O4 0.638077 0.000000 0.355044
O O5 0.741885 0.252029 0.118632
O O6 0.923084 0.000000 0.994727
O O7 0.000000 0.280029 0.000000
O O8 0.963728 0.275960 0.898982
O O9 0.196612 0.773013 0.522753
O O10 0.026296 0.734943 0.733331
O O11 0.928744 0.675165 0.687746
O O12 0.988518 0.000000 0.677929
O O13 0.204555 0.500000 0.310780
O O14 0.927427 0.500000 0.491714
O O15 0.437719 0.500000 0.741389
O O16 0.531041 0.190335 0.679449
O O17 0.308983 0.328696 0.337527
O O18 0.291727 0.000000 0.376470
O O19 0.070237 0.000000 0.774388
#
# Coordination Sequence:
#
# PCOD8061084 Si02
#       8
#     4   4   4   2   4   4   4   2
#     4  10  19  33  52  72  97 136 182 218 259 312
#     4  10  19  35  54  69  94 138 187 229 268 305
#     4   9  18  33  53  80 109 140 176 213 261 316
#     4   9  18  32  54  80 113 144 162 210 259 319
#     4  12  23  34  48  73 108 138 180 227 264 314
#     4  10  19  34  55  77 109 144 174 216 263 313
#     4   9  17  32  51  72 100 135 181 225 257 306
#     4   9  18  34  52  82 113 136 176 204 255 325
#
# _framework density 18.143471000000002
#
# number of rings (size 3 to 8) (size 9 to 14) (size 15 to 20)
#    0.000    2.143    2.143    2.143    0.000    3.429 
#    2.571    2.857    0.000    0.000    0.000    2.000 
#    0.000    4.571    0.000    0.000    0.000    0.000 
#
# Total GULP energy -347159.185234 kJ/mol
# GULP energy per Si atom -12398.542330 kJ/mol
# Density = 1.810218 g / cm^3
# Si number density = 18.143471 Si / 1000 Ang^3
#
#
#
# Elastic Constant Matrix: (Units=GPa)
#
#
# Indices 1 2 3 4 5 6 
#
# 1 113.3762 47.4284 38.7731 0.0000 28.7946 0.0000
# 2 47.4284 68.5952 21.8248 0.0000 13.7886 0.0000
# 3 38.7731 21.8248 100.0975 0.0000 16.2591 0.0000
# 4 0.0000 0.0000 0.0000 11.2337 0.0000 0.6915
# 5 28.7946 13.7886 16.2591 0.0000 15.3275 0.0000
# 6 0.0000 0.0000 0.0000 0.6915 0.0000 24.3284
#
#
#
# Elastic Compliance Matrix: (Units=1/GPa)
#
#
# Indices 1 2 3 4 5 6 
#
# 1 0.019735 -0.007391 -0.001318 0.000000 -0.029028 0.000000
# 2 -0.007391 0.020765 -0.001070 0.000000 -0.003660 0.000000
# 3 -0.001318 -0.001070 0.012294 0.000000 -0.009603 0.000000
# 4 0.000000 0.000000 0.000000 0.089174 0.000000 -0.002535
# 5 -0.029028 -0.003660 -0.009603 0.000000 0.133254 0.000000
# 6 0.000000 0.000000 0.000000 -0.002535 0.000000 0.041176
#
#
# Mechanical properties :
#
#
# Convention : Reuss Voigt Hill
#
# Bulk Modulus (GPa) = 30.08791 55.34682 42.71737
# Shear Modulus (GPa) = 14.40784 21.78078 18.09431
#
# Velocity S-wave (km/s) = 2.82105 3.46855 3.16142
# Velocity P-wave (km/s) = 5.21827 6.82733 6.07630
#
# Compressibility (1/GPa) = 0.03323594
#
# Stress axis : x y z
#
# Youngs Moduli (GPa) = 50.67121 48.15848 81.34162
#
# Poissons Ratio (x) = 0.35594 0.10720
# Poissons Ratio (y) = 0.37451 0.08704
# Poissons Ratio (z) = 0.06678 0.05153
#
# Static dielectric constant tensor:
#      x y z
#    x 3.367500 0.000000 0.137040 
#    y 0.000000 3.300340 0.000000 
#    z 0.137040 0.000000 3.372280 
# 
# 
# High freq. dielectric constant tensor:
#      x y z
#    x 1.684700 0.000000 0.006180 
#    y 0.000000 1.703670 0.000000 
#    z 0.006180 0.000000 1.681920 
# 
# From -- ./inp_files/77740.got.cif
#   From: 2010.06.25/outbox.cif.g09.slc.cpg/sg10_39_cif.got.tgz:77740.got - 2010.06.27 22:07:45.
