data_PCOD8061260
_publ_section_title
;
Structure prediction by ZEFSAII (Michael W. Deem and Ramdas Pophale) SiO2 
 PCOD8061260
Probable space group: P 2/M
;
_chemical_formula_sum "Si O2"
_cell_formula_units_Z 28
_cell_length_a 11.763337
_cell_length_b 9.585197
_cell_length_c 15.633322
_cell_angle_alpha 90.000000
_cell_angle_beta 123.284396
_cell_angle_gamma 90.000000
_cell_volume 1473.556244
_symmetry_space_group_name_H-M "P 2/M"
_symmetry_group_IT_number 10
_symmetry_cell_setting 'monoclinic'
loop_
_space_group_symop_operation_xyz
x,y,z
-x,y,-z
-x,-y,-z
x,-y,z
loop_
_atom_site_type_symbol
_atom_site_label
_atom_site_fract_x
_atom_site_fract_y
_atom_site_fract_z
Si Si1 0.914147 0.161707 0.382848
Si Si2 0.348532 0.159417 0.452902
Si Si3 0.812955 0.341668 0.743130
Si Si4 0.907850 0.660751 0.216208
Si Si5 0.621627 0.336047 0.814573
Si Si6 0.638014 0.334049 0.013743
Si Si7 0.369530 0.157133 0.655371
O O1 0.955352 0.251764 0.317853
O O2 0.753861 0.185516 0.331265
O O3 0.000000 0.213895 0.500000
O O4 0.948070 0.000000 0.378439
O O5 0.500000 0.216839 0.500000
O O6 0.244222 0.247578 0.355519
O O7 0.309172 0.176029 0.535559
O O8 0.338440 0.000000 0.417559
O O9 0.769671 0.500000 0.705089
O O10 0.753069 0.298381 0.811016
O O11 0.976496 0.325969 0.809583
O O12 0.889365 0.500000 0.236620
O O13 0.767908 0.722296 0.119744
O O14 0.592011 0.500000 0.804230
O O15 0.489360 0.264774 0.720678
O O16 0.647779 0.278463 0.920689
O O17 0.639776 0.500000 0.015147
O O18 0.500000 0.276242 0.000000
O O19 0.426640 0.000000 0.689964
#
# Coordination Sequence:
#
# PCOD8061260 Si02
#       7
#     4   4   4   4   4   4   4
#     4  10  21  37  56  78 107 141 177 218 265 318
#     4  10  19  33  54  77 105 145 182 212 258 318
#     4  10  21  34  51  80 112 141 176 221 267 312
#     4  10  21  37  56  79 109 142 179 221 265 316
#     4  10  20  34  54  79 106 139 177 217 266 316
#     4   9  18  34  56  79 103 136 179 223 266 315
#     4  10  20  34  53  79 107 137 177 222 266 314
#
# _framework density 19.001650000000001
#
# number of rings (size 3 to 8) (size 9 to 14) (size 15 to 20)
#    0.000    2.143    1.429    1.714    0.000    5.143 
#    0.000    3.571    0.000    2.571    0.000    3.000 
#    0.000    0.000    0.000    0.000    0.000    0.000 
#
# Total GULP energy -347235.957501 kJ/mol
# GULP energy per Si atom -12401.284196 kJ/mol
# Density = 1.895840 g / cm^3
# Si number density = 19.001650 Si / 1000 Ang^3
#
#
#
# Elastic Constant Matrix: (Units=GPa)
#
#
# Indices 1 2 3 4 5 6 
#
# 1 119.9576 34.4160 59.1056 0.0000 -5.4466 0.0000
# 2 34.4160 45.7145 40.0385 0.0000 -1.5299 0.0000
# 3 59.1056 40.0385 116.0114 0.0000 -2.8319 0.0000
# 4 0.0000 0.0000 0.0000 -48.8179 0.0000 -14.0603
# 5 -5.4466 -1.5299 -2.8319 0.0000 34.0104 0.0000
# 6 0.0000 0.0000 0.0000 -14.0603 0.0000 19.7608
#
#
#
# Elastic Compliance Matrix: (Units=1/GPa)
#
#
# Indices 1 2 3 4 5 6 
#
# 1 0.012009 -0.005255 -0.004273 0.000000 0.001331 0.000000
# 2 -0.005255 0.033660 -0.008941 0.000000 -0.000072 0.000000
# 3 -0.004273 -0.008941 0.013884 0.000000 0.000070 0.000000
# 4 0.000000 0.000000 0.000000 -0.017000 0.000000 -0.012096
# 5 0.001331 -0.000072 0.000070 0.000000 0.029618 0.000000
# 6 0.000000 0.000000 0.000000 -0.012096 0.000000 0.041998
#
#
# Mechanical properties :
#
#
# Convention : Reuss Voigt Hill
#
# Bulk Modulus (GPa) = 44.21635 60.97819 52.59727
# Shear Modulus (GPa) = 31.51675 10.86556 21.19116
#
# Velocity S-wave (km/s) = 4.07705 2.39387 3.34312
# Velocity P-wave (km/s) = 6.74414 6.30884 6.53012
#
# Compressibility (1/GPa) = 0.02261607
#
# Stress axis : x y z
#
# Youngs Moduli (GPa) = 83.26753 29.70920 72.02403
#
# Poissons Ratio (x) = 0.15611 0.30773
# Poissons Ratio (y) = 0.43754 0.64400
# Poissons Ratio (z) = 0.35577 0.26564
#
# Static dielectric constant tensor:
#      x y z
#    x 3.716900 0.000000 -0.084530 
#    y 0.000000 3.254130 0.000000 
#    z -0.084530 0.000000 3.388170 
# 
# 
# High freq. dielectric constant tensor:
#      x y z
#    x 1.758040 0.000000 -0.004210 
#    y 0.000000 1.713760 0.000000 
#    z -0.004210 0.000000 1.728290 
# 
# From -- ./inp_files/63395.got.cif
#   From: 2010.06.25/outbox.cif.g09.slc.cpg/sg10_32_cif.got.tgz:63395.got - 2010.06.27 22:07:45.
