data_PCOD8061671
_publ_section_title
;
Structure prediction by ZEFSAII (Michael W. Deem and Ramdas Pophale) SiO2 
 PCOD8061671
Probable space group: P 2/M
;
_chemical_formula_sum "Si O2"
_cell_formula_units_Z 32
_cell_length_a 10.041822
_cell_length_b 13.469167
_cell_length_c 29.331837
_cell_angle_alpha 90.000000
_cell_angle_beta 151.304177
_cell_angle_gamma 90.000000
_cell_volume 1904.925917
_symmetry_space_group_name_H-M "P 2/M"
_symmetry_group_IT_number 10
_symmetry_cell_setting 'monoclinic'
loop_
_space_group_symop_operation_xyz
x,y,z
-x,y,-z
-x,-y,-z
x,-y,z
loop_
_atom_site_type_symbol
_atom_site_label
_atom_site_fract_x
_atom_site_fract_y
_atom_site_fract_z
Si Si1 0.398667 0.617287 0.900723
Si Si2 0.064491 0.617757 0.888618
Si Si3 0.001639 0.385962 0.599533
Si Si4 0.869042 0.887746 0.412067
Si Si5 0.465560 0.302547 0.393482
Si Si6 0.498593 0.297271 0.701455
Si Si7 0.429116 0.888654 0.530616
Si Si8 0.051762 0.385458 0.715165
O O1 0.367617 0.500000 0.890258
O O2 0.203291 0.654118 0.883152
O O3 0.286192 0.662862 0.819007
O O4 0.720182 0.644949 0.005985
O O5 0.997280 0.500000 0.868038
O O6 0.788889 0.682891 0.814456
O O7 0.906832 0.500000 0.574111
O O8 0.281721 0.377336 0.655005
O O9 0.051413 0.337821 0.664680
O O10 0.769378 0.323094 0.504357
O O11 0.613222 0.814555 0.323813
O O12 0.000000 0.855222 0.500000
O O13 0.099360 0.880238 0.441544
O O14 0.752102 0.000000 0.380405
O O15 0.453707 0.322363 0.336765
O O16 0.401725 0.186997 0.386101
O O17 0.248483 0.374517 0.352368
O O18 0.500000 0.860983 0.500000
O O19 0.532095 0.000000 0.572961
O O20 0.122232 0.500000 0.729941
#
# Coordination Sequence:
#
# PCOD8061671 Si02
#       8
#     4   4   4   4   4   4   4   4
#     4   8  15  31  52  71  91 124 167 214 254 283
#     4   9  17  30  50  74  98 122 165 216 248 287
#     4  11  23  33  43  68 106 136 164 200 239 290
#     4  10  19  34  50  68  99 133 165 201 241 291
#     4  12  21  32  49  70  99 138 170 195 234 293
#     4  12  21  32  48  74  98 133 166 200 248 292
#     4  10  20  34  52  72  95 128 170 211 243 278
#     4  10  20  34  50  69  97 135 171 202 244 293
#
# _framework density 16.798552999999998
#
# number of rings (size 3 to 8) (size 9 to 14) (size 15 to 20)
#    0.000    1.750    3.750    3.000    0.000    3.000 
#    0.000    0.625    0.000    3.000    0.000    2.625 
#    0.000    1.000    0.000    0.000    0.000    0.000 
#
# Total GULP energy -396683.797060 kJ/mol
# GULP energy per Si atom -12396.368658 kJ/mol
# Density = 1.676032 g / cm^3
# Si number density = 16.798553 Si / 1000 Ang^3
#
#
#
# Elastic Constant Matrix: (Units=GPa)
#
#
# Indices 1 2 3 4 5 6 
#
# 1 88.2119 10.1671 21.8384 0.0000 5.5383 0.0000
# 2 10.1671 46.3393 17.9952 0.0000 7.0062 0.0000
# 3 21.8384 17.9952 96.8487 0.0000 15.1495 0.0000
# 4 0.0000 0.0000 0.0000 17.1237 0.0000 4.0847
# 5 5.5383 7.0062 15.1495 0.0000 13.7362 0.0000
# 6 0.0000 0.0000 0.0000 4.0847 0.0000 16.7991
#
#
#
# Elastic Compliance Matrix: (Units=1/GPa)
#
#
# Indices 1 2 3 4 5 6 
#
# 1 0.012164 -0.001563 -0.002187 0.000000 -0.001695 0.000000
# 2 -0.001563 0.024326 -0.002810 0.000000 -0.008678 0.000000
# 3 -0.002187 -0.002810 0.013267 0.000000 -0.012317 0.000000
# 4 0.000000 0.000000 0.000000 0.061994 0.000000 -0.015074
# 5 -0.001695 -0.008678 -0.012317 0.000000 0.091494 0.000000
# 6 0.000000 0.000000 0.000000 -0.015074 0.000000 0.063192
#
#
# Mechanical properties :
#
#
# Convention : Reuss Voigt Hill
#
# Bulk Modulus (GPa) = 27.29495 36.82238 32.05867
# Shear Modulus (GPa) = 17.13663 21.62509 19.38086
#
# Velocity S-wave (km/s) = 3.19740 3.59181 3.40033
# Velocity P-wave (km/s) = 5.46945 6.25852 5.87724
#
# Compressibility (1/GPa) = 0.03663681
#
# Stress axis : x y z
#
# Youngs Moduli (GPa) = 82.20678 41.10778 75.37239
#
# Poissons Ratio (x) = 0.06426 0.16487
# Poissons Ratio (y) = 0.12851 0.21180
# Poissons Ratio (z) = 0.17982 0.11551
#
# Static dielectric constant tensor:
#      x y z
#    x 3.289740 0.000000 -0.154390 
#    y 0.000000 3.038870 0.000000 
#    z -0.154390 0.000000 3.231650 
# 
# 
# High freq. dielectric constant tensor:
#      x y z
#    x 1.654600 0.000000 -0.000980 
#    y 0.000000 1.623510 0.000000 
#    z -0.000980 0.000000 1.625980 
# 
# From -- ./inp_files/29477.got.cif
#   From: 2010.06.25/outbox.cif.g09.slc.cpg/sg10_15_cif.got.tgz:29477.got - 2010.06.27 22:07:45.
