data_PCOD8061026
_publ_section_title
;
Structure prediction by ZEFSAII (Michael W. Deem and Ramdas Pophale) SiO2 
 PCOD8061026
Probable space group: P 2/M
;
_chemical_formula_sum "Si O2"
_cell_formula_units_Z 32
_cell_length_a 14.484487
_cell_length_b 8.966530
_cell_length_c 23.490347
_cell_angle_alpha 90.000000
_cell_angle_beta 148.159663
_cell_angle_gamma 90.000000
_cell_volume 1609.473674
_symmetry_space_group_name_H-M "P 2/M"
_symmetry_group_IT_number 10
_symmetry_cell_setting 'monoclinic'
loop_
_space_group_symop_operation_xyz
x,y,z
-x,y,-z
-x,-y,-z
x,-y,z
loop_
_atom_site_type_symbol
_atom_site_label
_atom_site_fract_x
_atom_site_fract_y
_atom_site_fract_z
Si Si1 0.950454 0.674771 0.263274
Si Si2 0.799802 0.676358 0.403931
Si Si3 0.431228 0.674624 0.902943
Si Si4 0.580278 0.324108 0.599337
Si Si5 0.031548 0.322948 0.181698
Si Si6 0.258525 0.676239 0.501724
Si Si7 0.501513 0.825618 0.825090
Si Si8 0.115238 0.825834 0.006796
O O1 0.984198 0.500000 0.275916
O O2 0.775520 0.709778 0.206758
O O3 0.940389 0.732907 0.192740
O O4 0.112377 0.746779 0.382987
O O5 0.773900 0.500000 0.384344
O O6 0.754752 0.741169 0.442231
O O7 0.669958 0.750906 0.291162
O O8 0.000000 0.722744 0.500000
O O9 0.471986 0.500000 0.916644
O O10 0.527491 0.760850 0.902399
O O11 0.500000 0.730857 0.000000
O O12 0.500000 0.252954 0.500000
O O13 0.596517 0.500000 0.599099
O O14 0.770507 0.260351 0.712849
O O15 0.452158 0.280678 0.583365
O O16 0.022368 0.500000 0.169827
O O17 0.939811 0.252241 0.079850
O O18 0.228003 0.500000 0.487549
O O19 0.675641 0.793431 0.877948
O O20 0.467763 0.000000 0.812537
O O21 0.078523 0.000000 0.981162
O O22 0.000000 0.763754 0.000000
#
# Coordination Sequence:
#
# PCOD8061026 Si02
#       8
#     4   4   4   4   4   4   4   4
#     4   9  16  29  51  82 116 145 172 214 277 343
#     4  10  21  37  59  86 116 151 189 232 284 339
#     4  10  20  35  58  85 113 144 182 231 287 341
#     4   9  15  26  46  81 119 143 167 218 283 333
#     4  10  19  32  57  88 113 140 184 235 280 328
#     4   9  16  27  47  76 111 145 177 213 268 335
#     4  11  24  41  60  82 112 152 196 240 284 337
#     4  10  24  44  59  74 107 156 197 232 286 344
#
# _framework density 19.882277999999999
#
# number of rings (size 3 to 8) (size 9 to 14) (size 15 to 20)
#    0.000    2.250    1.250    1.875    1.750    4.750 
#    0.000    0.625    0.000    1.125    0.000    0.000 
#    0.000    0.000    0.000    0.000    0.000    0.000 
#
# Total GULP energy -396674.969517 kJ/mol
# GULP energy per Si atom -12396.092797 kJ/mol
# Density = 1.983702 g / cm^3
# Si number density = 19.882278 Si / 1000 Ang^3
#
#
#
# Elastic Constant Matrix: (Units=GPa)
#
#
# Indices 1 2 3 4 5 6 
#
# 1 142.1039 32.1290 40.2884 0.0000 -5.8654 0.0000
# 2 32.1290 34.4612 31.0489 0.0000 1.6068 0.0000
# 3 40.2884 31.0489 103.5191 0.0000 -3.2363 0.0000
# 4 0.0000 0.0000 0.0000 4.5523 0.0000 7.4339
# 5 -5.8654 1.6068 -3.2363 0.0000 34.5336 0.0000
# 6 0.0000 0.0000 0.0000 7.4339 0.0000 12.3154
#
#
#
# Elastic Compliance Matrix: (Units=1/GPa)
#
#
# Indices 1 2 3 4 5 6 
#
# 1 0.009162 -0.007486 -0.001265 0.000000 0.001786 0.000000
# 2 -0.007486 0.046187 -0.011079 0.000000 -0.004459 0.000000
# 3 -0.001265 -0.011079 0.013524 0.000000 0.001568 0.000000
# 4 0.000000 0.000000 0.000000 15.375793 0.000000 -9.281229
# 5 0.001786 -0.004459 0.001568 0.000000 0.029615 0.000000
# 6 0.000000 0.000000 0.000000 -9.281229 0.000000 5.683591
#
#
# Mechanical properties :
#
#
# Convention : Reuss Voigt Hill
#
# Bulk Modulus (GPa) = 34.22969 54.11299 44.17134
# Shear Modulus (GPa) = 0.23577 22.05479 11.14528
#
# Velocity S-wave (km/s) = 0.34473 3.33418 2.37019
# Velocity P-wave (km/s) = 4.17277 6.48831 5.45482
#
# Compressibility (1/GPa) = 0.02921440
#
# Stress axis : x y z
#
# Youngs Moduli (GPa) = 109.14844 21.65098 73.94103
#
# Poissons Ratio (x) = 0.16207 0.09351
# Poissons Ratio (y) = 0.81705 0.81921
# Poissons Ratio (z) = 0.13803 0.23988
#
# Static dielectric constant tensor:
#      x y z
#    x 3.915990 0.000000 0.090080 
#    y 0.000000 3.069550 0.000000 
#    z 0.090080 0.000000 3.763170 
# 
# 
# High freq. dielectric constant tensor:
#      x y z
#    x 1.793940 0.000000 0.005080 
#    y 0.000000 1.714510 0.000000 
#    z 0.005080 0.000000 1.787850 
# 
# From -- ./inp_files/89595.got.cif
#   From: 2010.06.25/outbox.cif.g09.slc.cpg/sg10_45_cif.got.tgz:89595.got - 2010.06.27 22:07:45.
