data_PCOD8061621
_publ_section_title
;
Structure prediction by ZEFSAII (Michael W. Deem and Ramdas Pophale) SiO2 
 PCOD8061621
Probable space group: P 2/M
;
_chemical_formula_sum "Si O2"
_cell_formula_units_Z 20
_cell_length_a 7.772469
_cell_length_b 8.961647
_cell_length_c 20.905906
_cell_angle_alpha 90.000000
_cell_angle_beta 43.215640
_cell_angle_gamma 90.000000
_cell_volume 997.115279
_symmetry_space_group_name_H-M "P 2/M"
_symmetry_group_IT_number 10
_symmetry_cell_setting 'monoclinic'
loop_
_space_group_symop_operation_xyz
x,y,z
-x,y,-z
-x,-y,-z
x,-y,z
loop_
_atom_site_type_symbol
_atom_site_label
_atom_site_fract_x
_atom_site_fract_y
_atom_site_fract_z
Si Si1 0.112338 0.173289 0.784415
Si Si2 0.238244 0.173486 0.891653
Si Si3 0.743603 0.673654 0.795236
Si Si4 0.360044 0.825462 0.413263
Si Si5 0.015527 0.675140 0.402865
O O1 0.181042 0.234724 0.836093
O O2 0.343822 0.202831 0.673586
O O3 0.868579 0.258479 0.824756
O O4 0.043285 0.000000 0.807389
O O5 0.471109 0.258252 0.858968
O O6 0.308395 0.000000 0.869629
O O7 0.000000 0.205594 0.000000
O O8 0.708044 0.500000 0.815491
O O9 0.926964 0.709453 0.686252
O O10 0.257562 0.742995 0.504809
O O11 0.225257 0.757346 0.387897
O O12 0.297298 0.000000 0.434116
O O13 0.021315 0.500000 0.416516
#
# Coordination Sequence:
#
# PCOD8061621 Si02
#       5
#     4   4   4   4   4
#     4  10  22  39  61  89 119 154 197 244 293 348
#     4  10  22  43  68  89 114 151 196 248 301 351
#     4  11  24  39  60  89 122 160 195 238 294 353
#     4  10  19  33  57  86 115 154 199 243 288 335
#     4  10  20  34  54  83 119 159 196 234 287 347
#
# _framework density 20.057862
#
# number of rings (size 3 to 8) (size 9 to 14) (size 15 to 20)
#    0.000    1.800    2.000    3.000    0.000    6.800 
#    0.000    8.000    0.000    0.000    0.000    0.000 
#    0.000    0.000    0.000    0.000    0.000    0.000 
#
# Total GULP energy -248050.111894 kJ/mol
# GULP energy per Si atom -12402.505595 kJ/mol
# Density = 2.001221 g / cm^3
# Si number density = 20.057862 Si / 1000 Ang^3
#
#
#
# Elastic Constant Matrix: (Units=GPa)
#
#
# Indices 1 2 3 4 5 6 
#
# 1 127.2586 51.4539 46.8267 0.0000 -22.4975 0.0000
# 2 51.4539 87.9732 45.0945 0.0000 -14.4927 0.0000
# 3 46.8267 45.0945 80.0951 0.0000 -8.9776 0.0000
# 4 0.0000 0.0000 0.0000 25.6930 0.0000 9.8169
# 5 -22.4975 -14.4927 -8.9776 0.0000 15.9473 0.0000
# 6 0.0000 0.0000 0.0000 9.8169 0.0000 -19.9998
#
#
#
# Elastic Compliance Matrix: (Units=1/GPa)
#
#
# Indices 1 2 3 4 5 6 
#
# 1 0.013087 -0.003281 -0.004343 0.000000 0.013036 0.000000
# 2 -0.003281 0.018483 -0.007604 0.000000 0.007888 0.000000
# 3 -0.004343 -0.007604 0.019046 0.000000 -0.002315 0.000000
# 4 0.000000 0.000000 0.000000 0.032774 0.000000 0.016087
# 5 0.013036 0.007888 -0.002315 0.000000 0.086963 0.000000
# 6 0.000000 0.000000 0.000000 0.016087 0.000000 -0.042104
#
#
# Mechanical properties :
#
#
# Convention : Reuss Voigt Hill
#
# Bulk Modulus (GPa) = 49.60122 64.67522 57.13822
# Shear Modulus (GPa) = 30.22513 14.45823 22.34168
#
# Velocity S-wave (km/s) = 3.88609 2.68773 3.34108
# Velocity P-wave (km/s) = 6.70211 6.47659 6.59032
#
# Compressibility (1/GPa) = 0.02016079
#
# Stress axis : x y z
#
# Youngs Moduli (GPa) = 76.41071 54.10303 52.50459
#
# Poissons Ratio (x) = 0.17749 0.22803
# Poissons Ratio (y) = 0.25067 0.39925
# Poissons Ratio (z) = 0.33185 0.41141
#
# Static dielectric constant tensor:
#      x y z
#    x 3.471650 0.000000 0.071410 
#    y 0.000000 3.639100 0.000000 
#    z 0.071410 0.000000 3.774890 
# 
# 
# High freq. dielectric constant tensor:
#      x y z
#    x 1.776630 0.000000 -0.001150 
#    y 0.000000 1.784160 0.000000 
#    z -0.001150 0.000000 1.786760 
# 
# From -- ./inp_files/26861.got.cif
#   From: 2010.06.25/outbox.cif.g09.slc.cpg/sg10_14_cif.got.tgz:26861.got - 2010.06.27 22:07:45.
