data_PCOD8061118
_publ_section_title
;
Structure prediction by ZEFSAII (Michael W. Deem and Ramdas Pophale) SiO2 
 PCOD8061118
Probable space group: P 2/M
;
_chemical_formula_sum "Si O2"
_cell_formula_units_Z 26
_cell_length_a 5.040747
_cell_length_b 30.470270
_cell_length_c 9.308500
_cell_angle_alpha 90.000000
_cell_angle_beta 119.731527
_cell_angle_gamma 90.000000
_cell_volume 1241.509635
_symmetry_space_group_name_H-M "P 2/M"
_symmetry_group_IT_number 10
_symmetry_cell_setting 'monoclinic'
loop_
_space_group_symop_operation_xyz
x,y,z
-x,y,-z
-x,-y,-z
x,-y,z
loop_
_atom_site_type_symbol
_atom_site_label
_atom_site_fract_x
_atom_site_fract_y
_atom_site_fract_z
Si Si1 0.357051 0.000000 0.115004
Si Si2 0.098148 0.325821 0.690191
Si Si3 0.141192 0.773533 0.694883
Si Si4 0.288055 0.627552 0.180975
Si Si5 0.643928 0.094413 0.882921
Si Si6 0.638689 0.177868 0.695055
Si Si7 0.655515 0.451347 0.389956
O O1 0.461887 0.953283 0.213108
O O2 0.500000 0.000000 0.000000
O O3 0.000000 0.000000 0.000000
O O4 0.093528 0.275510 0.741167
O O5 0.445372 0.341586 0.810201
O O6 0.000000 0.330422 0.500000
O O7 0.840986 0.353489 0.704674
O O8 0.493982 0.786519 0.766698
O O9 0.000000 0.778917 0.500000
O O10 0.991072 0.807468 0.769703
O O11 0.445933 0.579995 0.237203
O O12 0.000000 0.623858 0.000000
O O13 0.570240 0.130408 0.743269
O O14 0.500000 0.104603 0.000000
O O15 0.000000 0.093906 0.000000
O O16 0.500000 0.179125 0.500000
O O17 0.500000 0.455226 0.500000
O O18 0.671967 0.500000 0.322577
O O19 0.000000 0.432146 0.500000
#
# Coordination Sequence:
#
# PCOD8061118 Si02
#       7
#     2   4   4   4   4   4   4
#     4   8  16  30  49  70  99 136 174 214 256 316
#     4  11  22  40  63  82 107 153 203 233 265 334
#     4   9  19  35  56  78 103 140 185 226 268 322
#     4  12  24  38  58  89 124 150 180 234 297 337
#     4  10  19  33  52  76 103 137 178 217 264 322
#     4  10  19  34  54  78 106 136 174 225 278 324
#     4  10  21  39  63  88 114 150 196 235 269 328
#
# _framework density 20.942243999999999
#
# number of rings (size 3 to 8) (size 9 to 14) (size 15 to 20)
#    0.000    1.846    0.000    5.077    0.000    2.769 
#    0.000    8.077    0.000    4.615    0.000    9.692 
#    0.000    0.000    0.000    0.000    0.000    0.000 
#
# Total GULP energy -322120.518338 kJ/mol
# GULP energy per Si atom -12389.250705 kJ/mol
# Density = 2.089458 g / cm^3
# Si number density = 20.942244 Si / 1000 Ang^3
#
#
#
# Elastic Constant Matrix: (Units=GPa)
#
#
# Indices 1 2 3 4 5 6 
#
# 1 155.2347 55.0186 25.3078 0.0000 -2.5483 0.0000
# 2 55.0186 155.3601 35.6969 0.0000 -6.9642 0.0000
# 3 25.3078 35.6969 42.7949 0.0000 4.3548 0.0000
# 4 0.0000 0.0000 0.0000 20.2090 0.0000 0.1116
# 5 -2.5483 -6.9642 4.3548 0.0000 27.5772 0.0000
# 6 0.0000 0.0000 0.0000 0.1116 0.0000 34.7695
#
#
#
# Elastic Compliance Matrix: (Units=1/GPa)
#
#
# Indices 1 2 3 4 5 6 
#
# 1 0.007638 -0.002007 -0.002910 0.000000 0.000659 0.000000
# 2 -0.002007 0.008761 -0.006431 0.000000 0.003043 0.000000
# 3 -0.002910 -0.006431 0.031146 0.000000 -0.006811 0.000000
# 4 0.000000 0.000000 0.000000 0.049484 0.000000 -0.000159
# 5 0.000659 0.003043 -0.006811 0.000000 0.038167 0.000000
# 6 0.000000 0.000000 0.000000 -0.000159 0.000000 0.028761
#
#
# Mechanical properties :
#
#
# Convention : Reuss Voigt Hill
#
# Bulk Modulus (GPa) = 40.24242 65.04850 52.64546
# Shear Modulus (GPa) = 25.64935 32.33555 28.99245
#
# Velocity S-wave (km/s) = 3.50346 3.93368 3.72479
# Velocity P-wave (km/s) = 5.96852 7.19445 6.60997
#
# Compressibility (1/GPa) = 0.02484940
#
# Stress axis : x y z
#
# Youngs Moduli (GPa) = 130.91776 114.13707 32.10711
#
# Poissons Ratio (x) = 0.22905 0.09344
# Poissons Ratio (y) = 0.26273 0.20648
# Poissons Ratio (z) = 0.38099 0.73402
#
# Static dielectric constant tensor:
#      x y z
#    x 4.258790 0.000000 -0.044740 
#    y 0.000000 4.842360 0.000000 
#    z -0.044740 0.000000 3.228310 
# 
# 
# High freq. dielectric constant tensor:
#      x y z
#    x 1.850440 0.000000 -0.006270 
#    y 0.000000 1.838750 0.000000 
#    z -0.006270 0.000000 1.766070 
# 
# From -- ./inp_files/15855.got.cif
#   From: 2010.06.25/outbox.cif.g09.slc.cpg/sg10_8_cif.got.tgz:15855.got - 2010.06.27 22:07:45.
