data_PCOD8061280
_publ_section_title
;
Structure prediction by ZEFSAII (Michael W. Deem and Ramdas Pophale) SiO2 
 PCOD8061280
Probable space group: P 2/M
;
_chemical_formula_sum "Si O2"
_cell_formula_units_Z 32
_cell_length_a 12.035801
_cell_length_b 8.989621
_cell_length_c 29.258688
_cell_angle_alpha 90.000000
_cell_angle_beta 149.383374
_cell_angle_gamma 90.000000
_cell_volume 1612.268502
_symmetry_space_group_name_H-M "P 2/M"
_symmetry_group_IT_number 10
_symmetry_cell_setting 'monoclinic'
loop_
_space_group_symop_operation_xyz
x,y,z
-x,y,-z
-x,-y,-z
x,-y,z
loop_
_atom_site_type_symbol
_atom_site_label
_atom_site_fract_x
_atom_site_fract_y
_atom_site_fract_z
Si Si1 0.919166 0.325328 0.921356
Si Si2 0.921287 0.673492 0.171912
Si Si3 0.579905 0.325893 0.665373
Si Si4 0.715362 0.174757 0.179861
Si Si5 0.254338 0.174656 0.974328
Si Si6 0.537927 0.674585 0.278891
Si Si7 0.873222 0.324568 0.323775
Si Si8 0.373316 0.677047 0.499784
O O1 0.956020 0.500000 0.925430
O O2 0.667331 0.277148 0.825325
O O3 0.055072 0.233914 0.933090
O O4 0.000000 0.278720 0.000000
O O5 0.870890 0.500000 0.157270
O O6 0.896641 0.744914 0.213115
O O7 0.750305 0.749738 0.077066
O O8 0.164221 0.706214 0.240702
O O9 0.531425 0.500000 0.645689
O O10 0.471783 0.255617 0.673206
O O11 0.480233 0.254806 0.583781
O O12 0.735209 0.236259 0.237706
O O13 0.756349 0.000000 0.193491
O O14 0.477421 0.219276 0.077821
O O15 0.232655 0.000000 0.959599
O O16 0.521467 0.500000 0.279987
O O17 0.763937 0.717948 0.333915
O O18 0.852615 0.500000 0.307048
O O19 0.122551 0.270826 0.410641
O O20 0.500000 0.740337 0.500000
O O21 0.389993 0.500000 0.505542
#
# Coordination Sequence:
#
# PCOD8061280 Si02
#       8
#     4   4   4   4   4   4   4   4
#     4  10  19  33  54  78 109 148 191 241 283 323
#     4  11  21  36  60  84 110 147 190 232 280 335
#     4   9  17  31  54  83 116 144 175 233 291 331
#     4  11  24  39  54  77 114 151 184 231 287 334
#     4  11  23  37  53  78 113 149 187 231 283 341
#     4   9  17  31  51  81 114 142 183 234 281 328
#     4  10  20  35  58  84 109 144 190 231 276 334
#     4   9  17  30  51  84 118 144 179 230 285 336
#
# _framework density 19.847811
#
# number of rings (size 3 to 8) (size 9 to 14) (size 15 to 20)
#    0.000    2.000    1.250    3.000    0.000    7.250 
#    0.000    3.125    0.000    4.125    0.000    0.875 
#    0.000    0.000    0.000    0.000    0.000    0.000 
#
# Total GULP energy -396804.718420 kJ/mol
# GULP energy per Si atom -12400.147451 kJ/mol
# Density = 1.980264 g / cm^3
# Si number density = 19.847811 Si / 1000 Ang^3
#
#
#
# Elastic Constant Matrix: (Units=GPa)
#
#
# Indices 1 2 3 4 5 6 
#
# 1 146.0196 18.0907 62.6279 0.0000 -2.9854 0.0000
# 2 18.0907 37.6512 28.7177 0.0000 3.9190 0.0000
# 3 62.6279 28.7177 118.0232 0.0000 -13.5698 0.0000
# 4 0.0000 0.0000 0.0000 10.9034 0.0000 -1.6444
# 5 -2.9854 3.9190 -13.5698 0.0000 36.9622 0.0000
# 6 0.0000 0.0000 0.0000 -1.6444 0.0000 5.6956
#
#
#
# Elastic Compliance Matrix: (Units=1/GPa)
#
#
# Indices 1 2 3 4 5 6 
#
# 1 0.008917 -0.000609 -0.004691 0.000000 -0.000938 0.000000
# 2 -0.000609 0.034299 -0.008819 0.000000 -0.006923 0.000000
# 3 -0.004691 -0.008819 0.013753 0.000000 0.005605 0.000000
# 4 0.000000 0.000000 0.000000 0.095890 0.000000 0.027686
# 5 -0.000938 -0.006923 0.005605 0.000000 0.029771 0.000000
# 6 0.000000 0.000000 0.000000 0.027686 0.000000 0.183568
#
#
# Mechanical properties :
#
#
# Convention : Reuss Voigt Hill
#
# Bulk Modulus (GPa) = 34.80568 57.84074 46.32321
# Shear Modulus (GPa) = 12.37587 23.52941 17.95264
#
# Velocity S-wave (km/s) = 2.49978 3.44683 3.01078
# Velocity P-wave (km/s) = 5.08982 6.71165 5.95619
#
# Compressibility (1/GPa) = 0.02873094
#
# Stress axis : x y z
#
# Youngs Moduli (GPa) = 112.14888 29.15539 72.71375
#
# Poissons Ratio (x) = 0.01774 0.34112
# Poissons Ratio (y) = 0.06825 0.64125
# Poissons Ratio (z) = 0.52612 0.25712
#
# Static dielectric constant tensor:
#      x y z
#    x 3.918420 0.000000 -0.141370 
#    y 0.000000 3.152680 0.000000 
#    z -0.141370 0.000000 3.707280 
# 
# 
# High freq. dielectric constant tensor:
#      x y z
#    x 1.792980 0.000000 -0.004300 
#    y 0.000000 1.725330 0.000000 
#    z -0.004300 0.000000 1.777310 
# 
# From -- ./inp_files/58195.got.cif
#   From: 2010.06.25/outbox.cif.g09.slc.cpg/sg10_30_cif.got.tgz:58195.got - 2010.06.27 22:07:45.
