data_PCOD8061155
_publ_section_title
;
Structure prediction by ZEFSAII (Michael W. Deem and Ramdas Pophale) SiO2 
 PCOD8061155
Probable space group: P 2/M
;
_chemical_formula_sum "Si O2"
_cell_formula_units_Z 28
_cell_length_a 9.078799
_cell_length_b 8.607921
_cell_length_c 29.032711
_cell_angle_alpha 90.000000
_cell_angle_beta 140.663753
_cell_angle_gamma 90.000000
_cell_volume 1438.184713
_symmetry_space_group_name_H-M "P 2/M"
_symmetry_group_IT_number 10
_symmetry_cell_setting 'monoclinic'
loop_
_space_group_symop_operation_xyz
x,y,z
-x,y,-z
-x,-y,-z
x,-y,z
loop_
_atom_site_type_symbol
_atom_site_label
_atom_site_fract_x
_atom_site_fract_y
_atom_site_fract_z
Si Si1 0.257351 0.184754 0.570211
Si Si2 0.057367 0.816545 0.152394
Si Si3 0.394598 0.181555 0.424888
Si Si4 0.566593 0.183713 0.289894
Si Si5 0.894050 0.320223 0.293446
Si Si6 0.655961 0.815944 0.997107
Si Si7 0.735507 0.817413 0.160894
O O1 0.421879 0.239966 0.568582
O O2 0.355241 0.251959 0.641883
O O3 0.000000 0.253454 0.500000
O O4 0.246007 0.000000 0.568915
O O5 0.314840 0.742479 0.216097
O O6 0.920000 0.758250 0.072447
O O7 0.914758 0.772009 0.163792
O O8 0.082689 0.000000 0.156234
O O9 0.500000 0.218319 0.500000
O O10 0.162865 0.278109 0.361413
O O11 0.336692 0.000000 0.405101
O O12 0.755205 0.223289 0.297491
O O13 0.547044 0.000000 0.288950
O O14 0.859141 0.500000 0.295500
O O15 0.795486 0.282742 0.219488
O O16 0.652228 0.000000 0.000146
O O17 0.500000 0.745083 0.000000
O O18 0.531294 0.770988 0.918689
O O19 0.753333 0.000000 0.176967
#
# Coordination Sequence:
#
# PCOD8061155 Si02
#       7
#     4   4   4   4   4   4   4
#     4   9  17  31  55  86 110 128 160 207 253 300
#     4   8  14  27  52  83 105 125 166 224 274 313
#     4  10  20  37  63  88 107 131 166 208 256 310
#     4  10  19  33  53  74 101 138 178 217 256 302
#     4  12  25  37  49  71 108 146 179 214 252 299
#     4   7  11  22  46  80 107 124 155 213 274 318
#     4   9  16  31  56  80 102 131 170 215 265 319
#
# _framework density 19.468989000000001
#
# number of rings (size 3 to 8) (size 9 to 14) (size 15 to 20)
#    0.000    2.714    0.000    4.714    0.000    4.857 
#    0.000    3.571    0.000   10.714    0.000    0.000 
#    0.000    0.000    0.000    0.000    0.000    0.000 
#
# Total GULP energy -346950.698139 kJ/mol
# GULP energy per Si atom -12391.096362 kJ/mol
# Density = 1.942468 g / cm^3
# Si number density = 19.468989 Si / 1000 Ang^3
#
#
#
# Elastic Constant Matrix: (Units=GPa)
#
#
# Indices 1 2 3 4 5 6 
#
# 1 100.7240 -0.3127 64.0779 0.0000 13.2973 0.0000
# 2 -0.3127 16.0632 18.5557 0.0000 0.7554 0.0000
# 3 64.0779 18.5557 181.7924 0.0000 16.5283 0.0000
# 4 0.0000 0.0000 0.0000 6.7662 0.0000 0.2269
# 5 13.2973 0.7554 16.5283 0.0000 29.5363 0.0000
# 6 0.0000 0.0000 0.0000 0.2269 0.0000 -3.9143
#
#
#
# Elastic Compliance Matrix: (Units=1/GPa)
#
#
# Indices 1 2 3 4 5 6 
#
# 1 0.013687 0.006394 -0.005165 0.000000 -0.003435 0.000000
# 2 0.006394 0.073717 -0.009846 0.000000 0.000746 0.000000
# 3 -0.005165 -0.009846 0.008526 0.000000 -0.002194 0.000000
# 4 0.000000 0.000000 0.000000 0.147508 0.000000 0.008550
# 5 -0.003435 0.000746 -0.002194 0.000000 0.036612 0.000000
# 6 0.000000 0.000000 0.000000 0.008550 0.000000 -0.254976
#
#
# Mechanical properties :
#
#
# Convention : Reuss Voigt Hill
#
# Bulk Modulus (GPa) = 12.70696 51.46905 32.08801
# Shear Modulus (GPa) = 72.95086 20.89487 46.92286
#
# Velocity S-wave (km/s) = 6.12794 3.27959 4.91464
# Velocity P-wave (km/s) = 7.52395 6.39021 6.98013
#
# Compressibility (1/GPa) = 0.07869701
#
# Stress axis : x y z
#
# Youngs Moduli (GPa) = 73.06107 13.56534 117.29234
#
# Poissons Ratio (x) = -0.08674 0.60579
# Poissons Ratio (y) = -0.46717 1.15486
# Poissons Ratio (z) = 0.37734 0.13356
#
# Static dielectric constant tensor:
#      x y z
#    x 3.465010 0.000000 0.188350 
#    y 0.000000 2.925920 0.000000 
#    z 0.188350 0.000000 4.282000 
# 
# 
# High freq. dielectric constant tensor:
#      x y z
#    x 1.742640 0.000000 0.005280 
#    y 0.000000 1.695740 0.000000 
#    z 0.005280 0.000000 1.790010 
# 
# From -- ./inp_files/86486.got.cif
#   From: 2010.06.25/outbox.cif.g09.slc.cpg/sg10_44_cif.got.tgz:86486.got - 2010.06.27 22:07:45.
