data_PCOD8061662
_publ_section_title
;
Structure prediction by ZEFSAII (Michael W. Deem and Ramdas Pophale) SiO2 
 PCOD8061662
Probable space group: P 2/M
;
_chemical_formula_sum "Si O2"
_cell_formula_units_Z 20
_cell_length_a 24.052065
_cell_length_b 7.625080
_cell_length_c 10.097451
_cell_angle_alpha 90.000000
_cell_angle_beta 147.649949
_cell_angle_gamma 90.000000
_cell_volume 990.913604
_symmetry_space_group_name_H-M "P 2/M"
_symmetry_group_IT_number 10
_symmetry_cell_setting 'monoclinic'
loop_
_space_group_symop_operation_xyz
x,y,z
-x,y,-z
-x,-y,-z
x,-y,z
loop_
_atom_site_type_symbol
_atom_site_label
_atom_site_fract_x
_atom_site_fract_y
_atom_site_fract_z
Si Si1 0.923253 0.197043 0.724228
Si Si2 0.566605 0.000000 0.501788
Si Si3 0.055625 0.792479 0.746509
Si Si4 0.717230 0.699928 0.720462
Si Si5 0.578301 0.000000 0.039203
Si Si6 0.286183 0.305595 0.592056
O O1 0.826386 0.317087 0.567248
O O2 0.982530 0.277820 0.717374
O O3 0.883455 0.000000 0.613117
O O4 0.000000 0.194347 0.000000
O O5 0.500000 0.000000 0.500000
O O6 0.638405 0.826853 0.639243
O O7 0.481567 0.000000 0.217276
O O8 0.000000 0.732991 0.500000
O O9 0.069400 0.000000 0.784208
O O10 0.169219 0.708189 0.985278
O O11 0.676819 0.500000 0.650777
O O12 0.722719 0.760588 0.577772
O O13 0.645470 0.824131 0.182935
O O14 0.500000 0.000000 0.000000
O O15 0.335652 0.500000 0.696389
#
# Coordination Sequence:
#
# PCOD8061662 Si02
#       6
#     4   2   4   4   2   4
#     4  10  19  33  61  92 126 167 207 250 303 372
#     4  12  28  48  70  92 128 167 212 275 332 380
#     4  10  21  37  62  94 133 176 211 249 308 385
#     4  11  23  42  69  96 127 170 216 262 323 387
#     4  12  24  44  70  91 122 165 215 275 323 371
#     4  11  23  39  67 101 130 164 216 268 318 379
#
# _framework density 20.183395000000001
#
# number of rings (size 3 to 8) (size 9 to 14) (size 15 to 20)
#    0.000    1.200    6.000    0.000    0.000    4.800 
#    0.000    2.000    0.000    0.000    0.000    0.000 
#    0.000    0.000    0.000    0.000    0.000    0.000 
#
# Total GULP energy -248048.781278 kJ/mol
# GULP energy per Si atom -12402.439064 kJ/mol
# Density = 2.013746 g / cm^3
# Si number density = 20.183395 Si / 1000 Ang^3
#
#
#
# Elastic Constant Matrix: (Units=GPa)
#
#
# Indices 1 2 3 4 5 6 
#
# 1 164.5758 44.9332 57.4333 0.0000 0.4803 0.0000
# 2 44.9332 106.2542 44.8952 0.0000 9.4121 0.0000
# 3 57.4333 44.8952 118.3042 0.0000 -2.6145 0.0000
# 4 0.0000 0.0000 0.0000 5.0383 0.0000 -1.1046
# 5 0.4803 9.4121 -2.6145 0.0000 35.6047 0.0000
# 6 0.0000 0.0000 0.0000 -1.1046 0.0000 16.2611
#
#
#
# Elastic Compliance Matrix: (Units=1/GPa)
#
#
# Indices 1 2 3 4 5 6 
#
# 1 0.007653 -0.002009 -0.002948 0.000000 0.000211 0.000000
# 2 -0.002009 0.012132 -0.003705 0.000000 -0.003452 0.000000
# 3 -0.002948 -0.003705 0.011331 0.000000 0.001851 0.000000
# 4 0.000000 0.000000 0.000000 0.201479 0.000000 0.013687
# 5 0.000211 -0.003452 0.001851 0.000000 0.029132 0.000000
# 6 0.000000 0.000000 0.000000 0.013687 0.000000 0.062426
#
#
# Mechanical properties :
#
#
# Convention : Reuss Voigt Hill
#
# Bulk Modulus (GPa) = 72.50864 75.96197 74.23531
# Shear Modulus (GPa) = 14.44773 27.50566 20.97670
#
# Velocity S-wave (km/s) = 2.67839 3.69560 3.22732
# Velocity P-wave (km/s) = 6.75040 7.47847 7.12374
#
# Compressibility (1/GPa) = 0.01379146
#
# Stress axis : x y z
#
# Youngs Moduli (GPa) = 130.66662 82.42429 88.25445
#
# Poissons Ratio (x) = 0.16563 0.26018
# Poissons Ratio (y) = 0.26257 0.32697
# Poissons Ratio (z) = 0.38522 0.30537
#
# Static dielectric constant tensor:
#      x y z
#    x 3.551330 0.000000 0.014160 
#    y 0.000000 3.681810 0.000000 
#    z 0.014160 0.000000 3.555100 
# 
# 
# High freq. dielectric constant tensor:
#      x y z
#    x 1.783230 0.000000 0.005530 
#    y 0.000000 1.791150 0.000000 
#    z 0.005530 0.000000 1.784900 
# 
# From -- ./inp_files/34090.got.cif
#   From: 2010.06.25/outbox.cif.g09.slc.cpg/sg10_18_cif.got.tgz:34090.got - 2010.06.27 22:07:45.
