data_PCOD8061035
_publ_section_title
;
Structure prediction by ZEFSAII (Michael W. Deem and Ramdas Pophale) SiO2 
 PCOD8061035
Probable space group: P 2/M
;
_chemical_formula_sum "Si O2"
_cell_formula_units_Z 32
_cell_length_a 14.347286
_cell_length_b 9.205711
_cell_length_c 14.223009
_cell_angle_alpha 90.000000
_cell_angle_beta 74.388577
_cell_angle_gamma 90.000000
_cell_volume 1809.230866
_symmetry_space_group_name_H-M "P 2/M"
_symmetry_group_IT_number 10
_symmetry_cell_setting 'monoclinic'
loop_
_space_group_symop_operation_xyz
x,y,z
-x,y,-z
-x,-y,-z
x,-y,z
loop_
_atom_site_type_symbol
_atom_site_label
_atom_site_fract_x
_atom_site_fract_y
_atom_site_fract_z
Si Si1 0.892660 0.173355 0.998424
Si Si2 0.206427 0.836726 0.792846
Si Si3 0.956701 0.163766 0.307391
Si Si4 0.627624 0.172370 0.382399
Si Si5 0.135926 0.329416 0.187686
Si Si6 0.588287 0.828829 0.599790
Si Si7 0.267336 0.332387 0.319049
Si Si8 0.106853 0.336181 0.510374
O O1 0.857760 0.247532 0.912410
O O2 0.890599 0.000000 0.985871
O O3 0.814419 0.228332 0.097872
O O4 0.000000 0.224122 0.000000
O O5 0.101366 0.835957 0.773734
O O6 0.288835 0.756498 0.707291
O O7 0.244008 0.000000 0.795861
O O8 0.883440 0.224920 0.405870
O O9 0.048166 0.268608 0.273794
O O10 0.989970 0.000000 0.323596
O O11 0.524335 0.215645 0.366862
O O12 0.634946 0.229290 0.488509
O O13 0.639228 0.000000 0.384288
O O14 0.118628 0.500000 0.176564
O O15 0.234447 0.301307 0.220424
O O16 0.638353 0.758206 0.677283
O O17 0.600299 0.000000 0.604176
O O18 0.293118 0.500000 0.324933
O O19 0.180150 0.284982 0.410568
O O20 0.129130 0.500000 0.538228
O O21 0.000000 0.323567 0.500000
#
# Coordination Sequence:
#
# PCOD8061035 Si02
#       8
#     4   4   4   4   4   4   4   4
#     4  10  19  34  52  74 101 130 170 217 258 295
#     4   9  17  30  50  73 103 132 157 202 265 310
#     4  11  20  31  49  75 101 130 169 210 249 295
#     4   8  15  30  52  79 106 132 158 202 260 305
#     4  11  22  36  50  68  99 140 175 205 250 307
#     4   9  17  31  54  80 104 128 168 210 244 300
#     4  10  21  35  50  68 100 141 172 204 252 301
#     4  10  19  33  46  63  98 139 170 197 240 297
#
# _framework density 17.687075
#
# number of rings (size 3 to 8) (size 9 to 14) (size 15 to 20)
#    0.000    2.250    2.500    2.250    0.000    3.000 
#    0.000    1.250    0.000    3.750    0.000    5.250 
#    0.000    0.000    0.000    0.000    0.000    0.000 
#
# Total GULP energy -396625.788253 kJ/mol
# GULP energy per Si atom -12394.555883 kJ/mol
# Density = 1.764682 g / cm^3
# Si number density = 17.687075 Si / 1000 Ang^3
#
#
#
# Elastic Constant Matrix: (Units=GPa)
#
#
# Indices 1 2 3 4 5 6 
#
# 1 81.2301 25.3346 39.5353 0.0000 8.2516 0.0000
# 2 25.3346 47.1010 36.3771 0.0000 8.8008 0.0000
# 3 39.5353 36.3771 107.3120 0.0000 8.8856 0.0000
# 4 0.0000 0.0000 0.0000 26.0833 0.0000 3.7050
# 5 8.2516 8.8008 8.8856 0.0000 27.1959 0.0000
# 6 0.0000 0.0000 0.0000 3.7050 0.0000 10.8153
#
#
#
# Elastic Compliance Matrix: (Units=1/GPa)
#
#
# Indices 1 2 3 4 5 6 
#
# 1 0.016072 -0.005202 -0.004002 0.000000 -0.001886 0.000000
# 2 -0.005202 0.031531 -0.008282 0.000000 -0.005919 0.000000
# 3 -0.004002 -0.008282 0.013647 0.000000 -0.000565 0.000000
# 4 0.000000 0.000000 0.000000 0.040300 0.000000 -0.013805
# 5 -0.001886 -0.005919 -0.000565 0.000000 0.039442 0.000000
# 6 0.000000 0.000000 0.000000 -0.013805 0.000000 0.097191
#
#
# Mechanical properties :
#
#
# Convention : Reuss Voigt Hill
#
# Bulk Modulus (GPa) = 38.05261 48.68189 43.36725
# Shear Modulus (GPa) = 17.73582 21.77864 19.75723
#
# Velocity S-wave (km/s) = 3.17007 3.51284 3.34585
# Velocity P-wave (km/s) = 5.91271 6.63605 6.28480
#
# Compressibility (1/GPa) = 0.02627940
#
# Stress axis : x y z
#
# Youngs Moduli (GPa) = 62.21844 31.71435 73.27532
#
# Poissons Ratio (x) = 0.16498 0.29323
# Poissons Ratio (y) = 0.32366 0.60687
# Poissons Ratio (z) = 0.24898 0.26266
#
# Static dielectric constant tensor:
#      x y z
#    x 3.217280 0.000000 -0.062700 
#    y 0.000000 3.037770 0.000000 
#    z -0.062700 0.000000 3.488940 
# 
# 
# High freq. dielectric constant tensor:
#      x y z
#    x 1.668670 0.000000 0.006100 
#    y 0.000000 1.658270 0.000000 
#    z 0.006100 0.000000 1.681720 
# 
# From -- ./inp_files/66045.got.cif
#   From: 2010.06.25/outbox.cif.g09.slc.cpg/sg10_34_cif.got.tgz:66045.got - 2010.06.27 22:07:45.
