data_PCOD8061799
_publ_section_title
;
Structure prediction by ZEFSAII (Michael W. Deem and Ramdas Pophale) SiO2 
 PCOD8061799
Probable space group: P 2/M
;
_chemical_formula_sum "Si O2"
_cell_formula_units_Z 32
_cell_length_a 10.910499
_cell_length_b 9.630034
_cell_length_c 28.574790
_cell_angle_alpha 90.000000
_cell_angle_beta 148.639916
_cell_angle_gamma 90.000000
_cell_volume 1562.446572
_symmetry_space_group_name_H-M "P 2/M"
_symmetry_group_IT_number 10
_symmetry_cell_setting 'monoclinic'
loop_
_space_group_symop_operation_xyz
x,y,z
-x,y,-z
-x,-y,-z
x,-y,z
loop_
_atom_site_type_symbol
_atom_site_label
_atom_site_fract_x
_atom_site_fract_y
_atom_site_fract_z
Si Si1 0.258249 0.158233 0.101874
Si Si2 0.269598 0.156061 0.955862
Si Si3 0.985512 0.343628 0.726422
Si Si4 0.265975 0.340041 0.447334
Si Si5 0.826753 0.159769 0.752226
Si Si6 0.486508 0.842587 0.722144
Si Si7 0.477044 0.661863 0.101002
Si Si8 0.961184 0.335169 0.433256
O O1 0.298458 0.175742 0.170656
O O2 0.445383 0.263293 0.140275
O O3 0.310777 0.000000 0.103408
O O4 0.000000 0.202543 0.000000
O O5 0.052466 0.211021 0.854856
O O6 0.218577 0.000000 0.958884
O O7 0.500000 0.153931 0.000000
O O8 0.299205 0.263772 0.007506
O O9 0.914241 0.500000 0.716104
O O10 0.947138 0.317471 0.658753
O O11 0.811904 0.246560 0.699665
O O12 0.255210 0.314533 0.827586
O O13 0.500000 0.268810 0.500000
O O14 0.328377 0.500000 0.475737
O O15 0.175640 0.283543 0.468779
O O16 0.591850 0.187177 0.705239
O O17 0.856300 0.000000 0.747965
O O18 0.274913 0.737293 0.662533
O O19 0.388894 0.000000 0.693182
O O20 0.413517 0.500000 0.083873
O O21 0.926686 0.500000 0.417379
O O22 0.000000 0.290946 0.500000
#
# Coordination Sequence:
#
# PCOD8061799 Si02
#       8
#     4   4   4   4   4   4   4   4
#     4  10  21  39  61  82 110 154 206 246 288 358
#     4  10  19  34  55  78 109 155 203 242 283 342
#     4  10  21  35  55  83 115 151 188 235 293 348
#     4   9  19  37  61  87 117 149 188 236 287 346
#     4  10  21  37  57  83 115 153 199 243 289 346
#     4  10  22  39  60  86 119 157 195 248 305 350
#     4  11  22  34  53  83 119 150 187 242 301 351
#     4  10  22  40  65  94 120 155 202 245 292 362
#
# _framework density 20.480701
#
# number of rings (size 3 to 8) (size 9 to 14) (size 15 to 20)
#    0.000    2.000    1.250    1.875    1.750    5.750 
#    0.000    1.875    0.000    0.750    0.000    0.000 
#    0.000    0.000    0.000    0.000    0.000    0.000 
#
# Total GULP energy -396708.932934 kJ/mol
# GULP energy per Si atom -12397.154154 kJ/mol
# Density = 2.043409 g / cm^3
# Si number density = 20.480701 Si / 1000 Ang^3
#
#
#
# Elastic Constant Matrix: (Units=GPa)
#
#
# Indices 1 2 3 4 5 6 
#
# 1 138.1783 49.5343 36.7757 0.0000 -8.7587 0.0000
# 2 49.5343 72.3881 23.9512 0.0000 -2.9057 0.0000
# 3 36.7757 23.9512 72.2054 0.0000 3.4365 0.0000
# 4 0.0000 0.0000 0.0000 24.9353 0.0000 -0.5388
# 5 -8.7587 -2.9057 3.4365 0.0000 27.4700 0.0000
# 6 0.0000 0.0000 0.0000 -0.5388 0.0000 31.3004
#
#
#
# Elastic Compliance Matrix: (Units=1/GPa)
#
#
# Indices 1 2 3 4 5 6 
#
# 1 0.010487 -0.005877 -0.003543 0.000000 0.003165 0.000000
# 2 -0.005877 0.018957 -0.003321 0.000000 0.000547 0.000000
# 3 -0.003543 -0.003321 0.016926 0.000000 -0.003598 0.000000
# 4 0.000000 0.000000 0.000000 0.040119 0.000000 0.000691
# 5 0.003165 0.000547 -0.003598 0.000000 0.037921 0.000000
# 6 0.000000 0.000000 0.000000 0.000691 0.000000 0.031960
#
#
# Mechanical properties :
#
#
# Convention : Reuss Voigt Hill
#
# Bulk Modulus (GPa) = 47.87083 55.92159 51.89621
# Shear Modulus (GPa) = 26.48102 28.24186 27.36144
#
# Velocity S-wave (km/s) = 3.59970 3.71745 3.65905
# Velocity P-wave (km/s) = 6.37977 6.76681 6.57614
#
# Compressibility (1/GPa) = 0.02088955
#
# Stress axis : x y z
#
# Youngs Moduli (GPa) = 95.35291 52.75148 59.07908
#
# Poissons Ratio (x) = 0.31003 0.20929
# Poissons Ratio (y) = 0.56041 0.19619
# Poissons Ratio (z) = 0.33779 0.17518
#
# Static dielectric constant tensor:
#      x y z
#    x 3.854560 0.000000 -0.043180 
#    y 0.000000 3.506930 0.000000 
#    z -0.043180 0.000000 3.582400 
# 
# 
# High freq. dielectric constant tensor:
#      x y z
#    x 1.809400 0.000000 -0.003200 
#    y 0.000000 1.777460 0.000000 
#    z -0.003200 0.000000 1.795260 
# 
# From -- ./inp_files/95015.got.cif
#   From: 2010.06.25/outbox.cif.g09.slc.cpg/sg10_48_cif.got.tgz:95015.got - 2010.06.27 22:07:45.
