data_PCOD8061577
_publ_section_title
;
Structure prediction by ZEFSAII (Michael W. Deem and Ramdas Pophale) SiO2 
 PCOD8061577
Probable space group: P 2/M
;
_chemical_formula_sum "Si O2"
_cell_formula_units_Z 32
_cell_length_a 24.545797
_cell_length_b 9.280428
_cell_length_c 16.112843
_cell_angle_alpha 90.000000
_cell_angle_beta 153.688172
_cell_angle_gamma 90.000000
_cell_volume 1626.942436
_symmetry_space_group_name_H-M "P 2/M"
_symmetry_group_IT_number 10
_symmetry_cell_setting 'monoclinic'
loop_
_space_group_symop_operation_xyz
x,y,z
-x,y,-z
-x,-y,-z
x,-y,z
loop_
_atom_site_type_symbol
_atom_site_label
_atom_site_fract_x
_atom_site_fract_y
_atom_site_fract_z
Si Si1 0.818461 0.664096 0.941957
Si Si2 0.246921 0.167402 0.846374
Si Si3 0.516325 0.166971 0.273465
Si Si4 0.292034 0.670650 0.567705
Si Si5 0.597461 0.829366 0.565867
Si Si6 0.949079 0.333003 0.846640
Si Si7 0.195368 0.331710 0.615331
Si Si8 0.911957 0.667006 0.245298
O O1 0.776094 0.500000 0.868978
O O2 0.729394 0.766982 0.769425
O O3 0.823421 0.700893 0.046189
O O4 0.956088 0.688845 0.098101
O O5 0.261441 0.240429 0.776798
O O6 0.133074 0.238604 0.739177
O O7 0.218025 0.000000 0.795177
O O8 0.371253 0.193081 0.067680
O O9 0.583437 0.254521 0.292272
O O10 0.557731 0.224231 0.420452
O O11 0.549739 0.000000 0.308242
O O12 0.305936 0.500000 0.577671
O O13 0.181420 0.732646 0.359216
O O14 0.262956 0.712083 0.622677
O O15 0.500000 0.771209 0.500000
O O16 0.606100 0.000000 0.581065
O O17 0.926308 0.500000 0.834239
O O18 0.000000 0.257172 0.000000
O O19 0.212751 0.500000 0.657946
O O20 0.051492 0.291845 0.413747
O O21 0.902513 0.500000 0.257635
#
# Coordination Sequence:
#
# PCOD8061577 Si02
#       8
#     4   4   4   4   4   4   4   4
#     4  10  19  33  56  86 114 143 183 230 281 337
#     4  11  24  40  59  83 112 152 199 241 287 341
#     4  10  23  41  57  79 116 156 195 241 289 335
#     4  10  20  37  61  86 114 150 191 233 284 348
#     4  10  21  38  57  78 112 157 196 233 283 337
#     4   9  16  29  52  82 112 141 176 222 274 328
#     4  10  21  39  61  87 118 149 185 235 295 347
#     4  10  20  37  60  87 120 150 183 234 294 348
#
# _framework density 19.668797000000001
#
# number of rings (size 3 to 8) (size 9 to 14) (size 15 to 20)
#    0.000    2.000    1.250    2.250    0.000    7.250 
#    0.000    3.125    0.000    2.250    0.000    0.000 
#    0.000    0.000    0.000    0.000    0.000    0.000 
#
# Total GULP energy -396872.668298 kJ/mol
# GULP energy per Si atom -12402.270884 kJ/mol
# Density = 1.962403 g / cm^3
# Si number density = 19.668797 Si / 1000 Ang^3
#
#
#
# Elastic Constant Matrix: (Units=GPa)
#
#
# Indices 1 2 3 4 5 6 
#
# 1 121.1925 41.7278 23.0794 0.0000 -11.4509 0.0000
# 2 41.7278 45.0816 28.8033 0.0000 -6.2130 0.0000
# 3 23.0794 28.8033 70.3747 0.0000 -12.0025 0.0000
# 4 0.0000 0.0000 0.0000 25.5012 0.0000 -6.2917
# 5 -11.4509 -6.2130 -12.0025 0.0000 29.4871 0.0000
# 6 0.0000 0.0000 0.0000 -6.2917 0.0000 18.9246
#
#
#
# Elastic Compliance Matrix: (Units=1/GPa)
#
#
# Indices 1 2 3 4 5 6 
#
# 1 0.012362 -0.011876 0.001288 0.000000 0.002822 0.000000
# 2 -0.011876 0.041502 -0.013310 0.000000 -0.001285 0.000000
# 3 0.001288 -0.013310 0.020248 0.000000 0.005937 0.000000
# 4 0.000000 0.000000 0.000000 0.042718 0.000000 0.014202
# 5 0.002822 -0.001285 0.005937 0.000000 0.037155 0.000000
# 6 0.000000 0.000000 0.000000 0.014202 0.000000 0.057563
#
#
# Mechanical properties :
#
#
# Convention : Reuss Voigt Hill
#
# Bulk Modulus (GPa) = 38.00251 47.09664 42.54957
# Shear Modulus (GPa) = 18.64871 24.31849 21.48360
#
# Velocity S-wave (km/s) = 3.08252 3.52006 3.30853
# Velocity P-wave (km/s) = 5.65972 6.36537 6.02289
#
# Compressibility (1/GPa) = 0.02631405
#
# Stress axis : x y z
#
# Youngs Moduli (GPa) = 80.89446 24.09543 49.38855
#
# Poissons Ratio (x) = 0.28616 -0.06361
# Poissons Ratio (y) = 0.96071 0.65738
# Poissons Ratio (z) = -0.10419 0.32072
#
# Static dielectric constant tensor:
#      x y z
#    x 3.654110 0.000000 -0.167380 
#    y 0.000000 3.314660 0.000000 
#    z -0.167380 0.000000 3.646360 
# 
# 
# High freq. dielectric constant tensor:
#      x y z
#    x 1.776580 0.000000 -0.007620 
#    y 0.000000 1.738910 0.000000 
#    z -0.007620 0.000000 1.773710 
# 
# From -- ./inp_files/71704.got.cif
#   From: 2010.06.25/outbox.cif.g09.slc.cpg/sg10_36_cif.got.tgz:71704.got - 2010.06.27 22:07:45.
