data_PCOD8061076
_publ_section_title
;
Structure prediction by ZEFSAII (Michael W. Deem and Ramdas Pophale) SiO2 
 PCOD8061076
Probable space group: P 2/M
;
_chemical_formula_sum "Si O2"
_cell_formula_units_Z 32
_cell_length_a 12.747612
_cell_length_b 14.579165
_cell_length_c 17.650169
_cell_angle_alpha 90.000000
_cell_angle_beta 146.787342
_cell_angle_gamma 90.000000
_cell_volume 1796.764724
_symmetry_space_group_name_H-M "P 2/M"
_symmetry_group_IT_number 10
_symmetry_cell_setting 'monoclinic'
loop_
_space_group_symop_operation_xyz
x,y,z
-x,y,-z
-x,-y,-z
x,-y,z
loop_
_atom_site_type_symbol
_atom_site_label
_atom_site_fract_x
_atom_site_fract_y
_atom_site_fract_z
Si Si1 0.314064 0.399754 0.213322
Si Si2 0.215869 0.897160 0.108000
Si Si3 0.973869 0.398311 0.396293
Si Si4 0.446346 0.161550 0.386743
Si Si5 0.255437 0.723100 0.039710
Si Si6 0.457523 0.393221 0.887273
Si Si7 0.153652 0.681071 0.253839
Si Si8 0.296311 0.682360 0.500502
O O1 0.302138 0.500000 0.169612
O O2 0.227822 0.328547 0.102134
O O3 0.181964 0.398210 0.208647
O O4 0.534654 0.380537 0.366046
O O5 0.354699 0.901592 0.266213
O O6 0.293617 0.828856 0.088828
O O7 0.213712 0.000000 0.072734
O O8 0.000000 0.866830 0.000000
O O9 0.007413 0.500000 0.380326
O O10 0.760869 0.364204 0.252807
O O11 0.000000 0.405112 0.500000
O O12 0.119693 0.323269 0.451447
O O13 0.500000 0.111116 0.500000
O O14 0.290284 0.237582 0.310584
O O15 0.635730 0.211918 0.467562
O O16 0.426236 0.677427 0.095332
O O17 0.064826 0.715394 0.873964
O O18 0.496335 0.500000 0.887138
O O19 0.500000 0.376544 0.000000
O O20 0.220565 0.642590 0.374941
#
# Coordination Sequence:
#
# PCOD8061076 Si02
#       8
#     4   4   4   4   4   4   4   4
#     4  11  21  31  48  76 108 143 178 212 261 324
#     4  11  21  36  59  85 112 143 177 220 275 335
#     4  10  20  33  48  71 100 135 185 230 262 302
#     4   9  18  34  53  80 109 137 174 215 261 328
#     4  12  20  36  55  76 109 142 178 229 272 320
#     4  10  22  37  53  77 107 142 188 230 268 314
#     4  10  20  32  49  73 108 142 176 211 262 325
#     4  10  19  33  52  71 103 145 176 218 265 316
#
# _framework density 17.809788000000001
#
# number of rings (size 3 to 8) (size 9 to 14) (size 15 to 20)
#    0.000    1.625    3.750    3.750    0.000    4.250 
#    0.000    0.000    0.000    0.375    0.000    1.750 
#    0.000    0.000    0.000    0.000    0.000    0.000 
#
# Total GULP energy -396625.801327 kJ/mol
# GULP energy per Si atom -12394.556291 kJ/mol
# Density = 1.776925 g / cm^3
# Si number density = 17.809788 Si / 1000 Ang^3
#
#
#
# Elastic Constant Matrix: (Units=GPa)
#
#
# Indices 1 2 3 4 5 6 
#
# 1 78.3985 30.7468 28.7976 0.0000 11.9546 0.0000
# 2 30.7468 81.3592 18.7925 0.0000 4.3164 0.0000
# 3 28.7976 18.7925 108.5411 0.0000 3.2545 0.0000
# 4 0.0000 0.0000 0.0000 11.9201 0.0000 1.3691
# 5 11.9546 4.3164 3.2545 0.0000 28.6768 0.0000
# 6 0.0000 0.0000 0.0000 1.3691 0.0000 16.9793
#
#
#
# Elastic Compliance Matrix: (Units=1/GPa)
#
#
# Indices 1 2 3 4 5 6 
#
# 1 0.016994 -0.005322 -0.003411 0.000000 -0.005896 0.000000
# 2 -0.005322 0.014551 -0.001112 0.000000 0.000155 0.000000
# 3 -0.003411 -0.001112 0.010298 0.000000 0.000421 0.000000
# 4 0.000000 0.000000 0.000000 0.084676 0.000000 -0.006828
# 5 -0.005896 0.000155 0.000421 0.000000 0.037258 0.000000
# 6 0.000000 0.000000 0.000000 -0.006828 0.000000 0.059446
#
#
# Mechanical properties :
#
#
# Convention : Reuss Voigt Hill
#
# Bulk Modulus (GPa) = 45.13777 47.21919 46.17848
# Shear Modulus (GPa) = 19.97623 24.17936 22.07779
#
# Velocity S-wave (km/s) = 3.35273 3.68862 3.52468
# Velocity P-wave (km/s) = 6.35508 6.68669 6.52299
#
# Compressibility (1/GPa) = 0.02215440
#
# Stress axis : x y z
#
# Youngs Moduli (GPa) = 58.84287 68.72370 97.10690
#
# Poissons Ratio (x) = 0.36573 0.33120
# Poissons Ratio (y) = 0.31315 0.10798
# Poissons Ratio (z) = 0.20069 0.07642
#
# Static dielectric constant tensor:
#      x y z
#    x 3.248320 0.000000 -0.158440 
#    y 0.000000 3.040790 0.000000 
#    z -0.158440 0.000000 3.650720 
# 
# 
# High freq. dielectric constant tensor:
#      x y z
#    x 1.671550 0.000000 -0.011600 
#    y 0.000000 1.651100 0.000000 
#    z -0.011600 0.000000 1.713690 
# 
# From -- ./inp_files/77045.got.cif
#   From: 2010.06.25/outbox.cif.g09.slc.cpg/sg10_39_cif.got.tgz:77045.got - 2010.06.27 22:07:45.
