data_PCOD8061286
_publ_section_title
;
Structure prediction by ZEFSAII (Michael W. Deem and Ramdas Pophale) SiO2 
 PCOD8061286
Probable space group: P 2/M
;
_chemical_formula_sum "Si O2"
_cell_formula_units_Z 32
_cell_length_a 16.197096
_cell_length_b 14.390507
_cell_length_c 8.174801
_cell_angle_alpha 90.000000
_cell_angle_beta 117.758049
_cell_angle_gamma 90.000000
_cell_volume 1686.147411
_symmetry_space_group_name_H-M "P 2/M"
_symmetry_group_IT_number 10
_symmetry_cell_setting 'monoclinic'
loop_
_space_group_symop_operation_xyz
x,y,z
-x,y,-z
-x,-y,-z
x,-y,z
loop_
_atom_site_type_symbol
_atom_site_label
_atom_site_fract_x
_atom_site_fract_y
_atom_site_fract_z
Si Si1 0.915259 0.739907 0.320120
Si Si2 0.097270 0.817131 0.029417
Si Si3 0.772489 0.605654 0.308399
Si Si4 0.577904 0.605954 0.951331
Si Si5 0.204072 0.892271 0.638372
Si Si6 0.597446 0.744147 0.674026
Si Si7 0.765268 0.257506 0.591157
Si Si8 0.718115 0.101947 0.944684
O O1 0.834642 0.663155 0.239095
O O2 0.887698 0.835993 0.388496
O O3 0.000000 0.696546 0.500000
O O4 0.939735 0.755099 0.154415
O O5 0.143235 0.752626 0.211094
O O6 0.179033 0.885060 0.040985
O O7 0.000000 0.866756 0.000000
O O8 0.806893 0.500000 0.356870
O O9 0.670499 0.612167 0.141830
O O10 0.781411 0.653981 0.492313
O O11 0.553217 0.500000 0.882002
O O12 0.500000 0.648864 0.000000
O O13 0.583249 0.659518 0.785290
O O14 0.248241 0.839296 0.522714
O O15 0.179828 0.000000 0.571864
O O16 0.277065 0.887309 0.855103
O O17 0.500000 0.770694 0.500000
O O18 0.672438 0.718142 0.605604
O O19 0.637400 0.831267 0.809307
O O20 0.684880 0.000000 0.864641
#
# Coordination Sequence:
#
# PCOD8061286 Si02
#       8
#     4   4   4   4   4   4   4   4
#     4  10  20  36  55  77 108 143 184 221 254 316
#     4  10  19  33  54  79 107 140 176 225 280 309
#     4  10  20  36  57  77 104 144 180 214 263 321
#     4  10  21  38  60  83 106 136 178 223 266 319
#     4   9  18  35  57  76 102 142 182 223 268 309
#     4  11  22  35  56  82 112 144 171 215 273 318
#     4  10  20  34  53  81 111 135 172 223 268 318
#     4   9  20  37  54  76 108 145 185 220 254 315
#
# _framework density 18.978176000000001
#
# number of rings (size 3 to 8) (size 9 to 14) (size 15 to 20)
#    0.000    2.125    0.000    5.250    0.000    3.750 
#    0.000    3.125    0.000    3.375    0.000    0.000 
#    0.000    0.000    0.000    0.000    0.000    0.000 
#
# Total GULP energy -396621.783193 kJ/mol
# GULP energy per Si atom -12394.430725 kJ/mol
# Density = 1.893498 g / cm^3
# Si number density = 18.978176 Si / 1000 Ang^3
#
#
#
# Elastic Constant Matrix: (Units=GPa)
#
#
# Indices 1 2 3 4 5 6 
#
# 1 99.0510 41.6267 37.1779 0.0000 -7.9390 0.0000
# 2 41.6267 113.0724 37.1886 0.0000 -7.2063 0.0000
# 3 37.1779 37.1886 106.7612 0.0000 -5.3822 0.0000
# 4 0.0000 0.0000 0.0000 22.4155 0.0000 -0.2276
# 5 -7.9390 -7.2063 -5.3822 0.0000 35.0543 0.0000
# 6 0.0000 0.0000 0.0000 -0.2276 0.0000 -24.9863
#
#
#
# Elastic Compliance Matrix: (Units=1/GPa)
#
#
# Indices 1 2 3 4 5 6 
#
# 1 0.012938 -0.003615 -0.003160 0.000000 0.001702 0.000000
# 2 -0.003615 0.011081 -0.002547 0.000000 0.001068 0.000000
# 3 -0.003160 -0.002547 0.011380 0.000000 0.000508 0.000000
# 4 0.000000 0.000000 0.000000 0.044608 0.000000 -0.000406
# 5 0.001702 0.001068 0.000508 0.000000 0.029210 0.000000
# 6 0.000000 0.000000 0.000000 -0.000406 0.000000 -0.040018
#
#
# Mechanical properties :
#
#
# Convention : Reuss Voigt Hill
#
# Bulk Modulus (GPa) = 59.68900 61.20790 60.44845
# Shear Modulus (GPa) = 53.51771 20.02280 36.77025
#
# Velocity S-wave (km/s) = 5.31609 3.25167 4.40648
# Velocity P-wave (km/s) = 8.31870 6.81319 7.60330
#
# Compressibility (1/GPa) = 0.01675351
#
# Stress axis : x y z
#
# Youngs Moduli (GPa) = 77.29397 90.24861 87.87322
#
# Poissons Ratio (x) = 0.32625 0.27770
# Poissons Ratio (y) = 0.27942 0.22381
# Poissons Ratio (z) = 0.24427 0.22986
#
# Static dielectric constant tensor:
#      x y z
#    x 3.543050 0.000000 -0.104510 
#    y 0.000000 3.460310 0.000000 
#    z -0.104510 0.000000 3.606030 
# 
# 
# High freq. dielectric constant tensor:
#      x y z
#    x 1.735830 0.000000 -0.007450 
#    y 0.000000 1.722050 0.000000 
#    z -0.007450 0.000000 1.750850 
# 
# From -- ./inp_files/29542.got.cif
#   From: 2010.06.25/outbox.cif.g09.slc.cpg/sg10_15_cif.got.tgz:29542.got - 2010.06.27 22:07:45.
