data_PCOD8061661
_publ_section_title
;
Structure prediction by ZEFSAII (Michael W. Deem and Ramdas Pophale) SiO2 
 PCOD8061661
Probable space group: P 2/M
;
_chemical_formula_sum "Si O2"
_cell_formula_units_Z 28
_cell_length_a 9.339562
_cell_length_b 10.901885
_cell_length_c 15.446937
_cell_angle_alpha 90.000000
_cell_angle_beta 67.466751
_cell_angle_gamma 90.000000
_cell_volume 1452.718108
_symmetry_space_group_name_H-M "P 2/M"
_symmetry_group_IT_number 10
_symmetry_cell_setting 'monoclinic'
loop_
_space_group_symop_operation_xyz
x,y,z
-x,y,-z
-x,-y,-z
x,-y,z
loop_
_atom_site_type_symbol
_atom_site_label
_atom_site_fract_x
_atom_site_fract_y
_atom_site_fract_z
Si Si1 0.545943 0.363191 0.900855
Si Si2 0.714377 0.861183 0.656313
Si Si3 0.328916 0.859377 0.530986
Si Si4 0.019336 0.000000 0.142657
Si Si5 0.606962 0.795427 0.195564
Si Si6 0.241420 0.000000 0.941090
Si Si7 0.151604 0.360695 0.263009
Si Si8 0.123316 0.776301 0.733064
O O1 0.487665 0.500000 0.926157
O O2 0.458784 0.323968 0.834366
O O3 0.729275 0.350989 0.844101
O O4 0.500000 0.290836 0.000000
O O5 0.739571 0.842420 0.548707
O O6 0.529620 0.857435 0.716950
O O7 0.810628 0.750889 0.678937
O O8 0.771653 0.000000 0.670036
O O9 0.500000 0.798135 0.500000
O O10 0.207409 0.799228 0.623364
O O11 0.343687 0.000000 0.555541
O O12 0.995321 0.883265 0.210149
O O13 0.898712 0.000000 0.093302
O O14 0.187056 0.000000 0.054850
O O15 0.749350 0.755148 0.222590
O O16 0.656446 0.881487 0.104162
O O17 0.160348 0.500000 0.301876
O O18 0.982137 0.342944 0.260025
#
# Coordination Sequence:
#
# PCOD8061661 Si02
#       8
#     4   4   4   2   4   2   4   4
#     4   9  20  40  60  79 109 153 202 245 287 342
#     4  10  20  37  62  91 116 151 200 247 293 349
#     4  10  19  33  61  91 118 148 193 248 297 343
#     4   9  20  32  49  82 123 152 176 234 296 351
#     4  10  19  34  60  87 116 150 192 243 295 349
#     4   9  18  32  49  81 121 149 181 227 299 351
#     4  10  24  42  58  82 124 163 194 242 298 350
#     4  11  21  36  59  87 120 154 193 240 297 350
#
# _framework density 19.274215000000002
#
# number of rings (size 3 to 8) (size 9 to 14) (size 15 to 20)
#    0.000    2.143    2.857    0.000    3.000    1.143 
#    0.000    3.214    0.000    3.429    0.000    0.000 
#    0.000    0.000    0.000    0.000    0.000    0.000 
#
# Total GULP energy -346946.631224 kJ/mol
# GULP energy per Si atom -12390.951115 kJ/mol
# Density = 1.923035 g / cm^3
# Si number density = 19.274215 Si / 1000 Ang^3
#
#
#
# Elastic Constant Matrix: (Units=GPa)
#
#
# Indices 1 2 3 4 5 6 
#
# 1 92.1926 50.8306 37.8653 0.0000 -3.9424 0.0000
# 2 50.8306 97.5541 45.0445 0.0000 2.6561 0.0000
# 3 37.8653 45.0445 139.1464 0.0000 -8.7623 0.0000
# 4 0.0000 0.0000 0.0000 19.4626 0.0000 -0.8457
# 5 -3.9424 2.6561 -8.7623 0.0000 24.1996 0.0000
# 6 0.0000 0.0000 0.0000 -0.8457 0.0000 15.4838
#
#
#
# Elastic Compliance Matrix: (Units=1/GPa)
#
#
# Indices 1 2 3 4 5 6 
#
# 1 0.015815 -0.007537 -0.001688 0.000000 0.002793 0.000000
# 2 -0.007537 0.015832 -0.003337 0.000000 -0.004174 0.000000
# 3 -0.001688 -0.003337 0.008936 0.000000 0.003327 0.000000
# 4 0.000000 0.000000 0.000000 0.051503 0.000000 0.002813
# 5 0.002793 -0.004174 0.003327 0.000000 0.043441 0.000000
# 6 0.000000 0.000000 0.000000 0.002813 0.000000 0.064737
#
#
# Mechanical properties :
#
#
# Convention : Reuss Voigt Hill
#
# Bulk Modulus (GPa) = 64.68687 66.26377 65.47532
# Shear Modulus (GPa) = 21.68808 24.83939 23.26373
#
# Velocity S-wave (km/s) = 3.35810 3.59379 3.47794
# Velocity P-wave (km/s) = 6.97639 7.18850 7.08324
#
# Compressibility (1/GPa) = 0.01545909
#
# Stress axis : x y z
#
# Youngs Moduli (GPa) = 63.23053 63.16145 111.90970
#
# Poissons Ratio (x) = 0.47606 0.18890
# Poissons Ratio (y) = 0.47658 0.37345
# Poissons Ratio (z) = 0.10673 0.21077
#
# Static dielectric constant tensor:
#      x y z
#    x 3.380100 0.000000 -0.168640 
#    y 0.000000 3.397730 0.000000 
#    z -0.168640 0.000000 3.755490 
# 
# 
# High freq. dielectric constant tensor:
#      x y z
#    x 1.742040 0.000000 -0.007710 
#    y 0.000000 1.727430 0.000000 
#    z -0.007710 0.000000 1.762180 
# 
# From -- ./inp_files/61153.got.cif
#   From: 2010.06.25/outbox.cif.g09.slc.cpg/sg10_31_cif.got.tgz:61153.got - 2010.06.27 22:07:45.
