data_PCOD8061414
_publ_section_title
;
Structure prediction by ZEFSAII (Michael W. Deem and Ramdas Pophale) SiO2 
 PCOD8061414
Probable space group: P 2/M
;
_chemical_formula_sum "Si O2"
_cell_formula_units_Z 28
_cell_length_a 28.021558
_cell_length_b 8.961471
_cell_length_c 9.863172
_cell_angle_alpha 90.000000
_cell_angle_beta 37.203229
_cell_angle_gamma 90.000000
_cell_volume 1497.572785
_symmetry_space_group_name_H-M "P 2/M"
_symmetry_group_IT_number 10
_symmetry_cell_setting 'monoclinic'
loop_
_space_group_symop_operation_xyz
x,y,z
-x,y,-z
-x,-y,-z
x,-y,z
loop_
_atom_site_type_symbol
_atom_site_label
_atom_site_fract_x
_atom_site_fract_y
_atom_site_fract_z
Si Si1 0.131200 0.322981 0.851557
Si Si2 0.555036 0.329240 0.747418
Si Si3 0.296617 0.170662 0.485557
Si Si4 0.009804 0.825510 0.320626
Si Si5 0.548236 0.323815 0.263676
Si Si6 0.698152 0.831119 0.837474
Si Si7 0.125734 0.174967 0.583011
O O1 0.128277 0.500000 0.849014
O O2 0.219463 0.269768 0.682430
O O3 0.098473 0.257041 0.782960
O O4 0.079376 0.268303 0.095363
O O5 0.580698 0.500000 0.663409
O O6 0.633897 0.231592 0.577286
O O7 0.502115 0.262977 0.747554
O O8 0.500000 0.314767 0.000000
O O9 0.325666 0.183528 0.265536
O O10 0.277190 0.000000 0.568139
O O11 0.000000 0.776763 0.500000
O O12 0.930470 0.788752 0.416093
O O13 0.030662 0.000000 0.264198
O O14 0.500000 0.264126 0.500000
O O15 0.555779 0.500000 0.243334
O O16 0.637206 0.262527 0.064825
O O17 0.787012 0.769357 0.657274
O O18 0.693386 0.000000 0.899470
O O19 0.127905 0.000000 0.614281
#
# Coordination Sequence:
#
# PCOD8061414 Si02
#       7
#     4   4   4   4   4   4   4
#     4  11  22  36  58  86 116 146 185 232 278 330
#     4  10  19  33  55  80 108 142 182 225 274 325
#     4  10  20  35  57  84 110 140 185 233 277 322
#     4  10  21  39  61  83 115 153 186 224 277 334
#     4  10  21  36  52  74 109 148 182 219 270 330
#     4   9  18  33  54  79 107 137 180 232 272 315
#     4   9  19  37  60  85 111 144 186 232 278 329
#
# _framework density 18.696922000000001
#
# number of rings (size 3 to 8) (size 9 to 14) (size 15 to 20)
#    0.000    2.143    1.429    3.000    0.000    6.000 
#    2.571    0.000    0.000    0.000    0.000    0.000 
#    0.000    0.000    0.000    0.000    0.000    0.000 
#
# Total GULP energy -347205.343947 kJ/mol
# GULP energy per Si atom -12400.190855 kJ/mol
# Density = 1.865437 g / cm^3
# Si number density = 18.696922 Si / 1000 Ang^3
#
#
#
# Elastic Constant Matrix: (Units=GPa)
#
#
# Indices 1 2 3 4 5 6 
#
# 1 86.9847 34.4522 47.2731 0.0000 -0.3534 0.0000
# 2 34.4522 78.0693 50.8189 0.0000 -1.0949 0.0000
# 3 47.2731 50.8189 118.5878 0.0000 1.0644 0.0000
# 4 0.0000 0.0000 0.0000 37.1004 0.0000 -0.8804
# 5 -0.3534 -1.0949 1.0644 0.0000 26.3367 0.0000
# 6 0.0000 0.0000 0.0000 -0.8804 0.0000 21.7798
#
#
#
# Elastic Compliance Matrix: (Units=1/GPa)
#
#
# Indices 1 2 3 4 5 6 
#
# 1 0.015491 -0.003900 -0.004506 0.000000 0.000228 0.000000
# 2 -0.003900 0.018775 -0.006500 0.000000 0.000991 0.000000
# 3 -0.004506 -0.006500 0.013022 0.000000 -0.000857 0.000000
# 4 0.000000 0.000000 0.000000 0.026980 0.000000 0.001091
# 5 0.000228 0.000991 -0.000857 0.000000 0.038049 0.000000
# 6 0.000000 0.000000 0.000000 0.001091 0.000000 0.045958
#
#
# Mechanical properties :
#
#
# Convention : Reuss Voigt Hill
#
# Bulk Modulus (GPa) = 57.22069 60.97004 59.09536
# Shear Modulus (GPa) = 25.78493 27.11654 26.45074
#
# Velocity S-wave (km/s) = 3.71765 3.81244 3.76534
# Velocity P-wave (km/s) = 7.00705 7.21527 7.11192
#
# Compressibility (1/GPa) = 0.01747620
#
# Stress axis : x y z
#
# Youngs Moduli (GPa) = 64.55528 53.26158 76.79289
#
# Poissons Ratio (x) = 0.20770 0.34603
# Poissons Ratio (y) = 0.25175 0.49917
# Poissons Ratio (z) = 0.29088 0.34621
#
# Static dielectric constant tensor:
#      x y z
#    x 3.477520 0.000000 -0.068130 
#    y 0.000000 3.319320 0.000000 
#    z -0.068130 0.000000 3.388490 
# 
# 
# High freq. dielectric constant tensor:
#      x y z
#    x 1.723610 0.000000 -0.013950 
#    y 0.000000 1.716940 0.000000 
#    z -0.013950 0.000000 1.723410 
# 
# From -- ./inp_files/36803.got.cif
#   From: 2010.06.25/outbox.cif.g09.slc.cpg/sg10_19_cif.got.tgz:36803.got - 2010.06.27 22:07:45.
