data_PCOD8061204
_publ_section_title
;
Structure prediction by ZEFSAII (Michael W. Deem and Ramdas Pophale) SiO2 
 PCOD8061204
Probable space group: P 2/M
;
_chemical_formula_sum "Si O2"
_cell_formula_units_Z 32
_cell_length_a 14.250535
_cell_length_b 9.005491
_cell_length_c 20.613618
_cell_angle_alpha 90.000000
_cell_angle_beta 43.323604
_cell_angle_gamma 90.000000
_cell_volume 1815.062876
_symmetry_space_group_name_H-M "P 2/M"
_symmetry_group_IT_number 10
_symmetry_cell_setting 'monoclinic'
loop_
_space_group_symop_operation_xyz
x,y,z
-x,y,-z
-x,-y,-z
x,-y,z
loop_
_atom_site_type_symbol
_atom_site_label
_atom_site_fract_x
_atom_site_fract_y
_atom_site_fract_z
Si Si1 0.421919 0.823547 0.352542
Si Si2 0.573944 0.324732 0.782288
Si Si3 0.415987 0.175858 0.978532
Si Si4 0.864022 0.327560 0.688898
Si Si5 0.133709 0.828077 0.551584
Si Si6 0.874744 0.827110 0.294054
Si Si7 0.581689 0.824341 0.397682
Si Si8 0.851677 0.324717 0.843350
O O1 0.473095 0.739047 0.263002
O O2 0.266742 0.773955 0.445870
O O3 0.518670 0.766407 0.362077
O O4 0.433016 0.000000 0.337099
O O5 0.548352 0.500000 0.799218
O O6 0.486766 0.245213 0.880770
O O7 0.733508 0.284621 0.711617
O O8 0.408824 0.000000 0.974618
O O9 0.500000 0.223864 0.000000
O O10 0.264157 0.241744 0.057757
O O11 0.894555 0.500000 0.673131
O O12 0.836374 0.274237 0.776306
O O13 0.998439 0.250740 0.591700
O O14 0.157051 0.790252 0.615171
O O15 0.109850 0.000000 0.552869
O O16 0.741216 0.780124 0.320335
O O17 0.001059 0.729439 0.204497
O O18 0.910380 0.000000 0.267017
O O19 0.500000 0.754625 0.500000
O O20 0.563926 0.000000 0.410031
O O21 0.836254 0.500000 0.860523
#
# Coordination Sequence:
#
# PCOD8061204 Si02
#       8
#     4   4   4   4   4   4   4   4
#     4  10  20  34  52  78 108 141 182 225 267 311
#     4  11  23  38  53  73 106 147 181 214 263 320
#     4  11  22  36  58  84 105 131 173 224 267 309
#     4   9  19  33  49  70 102 143 181 210 250 313
#     4   9  17  29  49  75 105 138 177 221 260 302
#     4   9  16  29  52  81 107 136 177 221 264 311
#     4   9  15  29  55  81 106 139 179 223 269 313
#     4  10  19  33  53  78 109 141 172 212 263 317
#
# _framework density 17.630243
#
# number of rings (size 3 to 8) (size 9 to 14) (size 15 to 20)
#    0.000    2.250    2.500    1.125    0.000    3.000 
#    0.000    3.125    0.000    1.500    0.000    5.250 
#    0.000    0.000    0.000    0.000    0.000    0.000 
#
# Total GULP energy -396838.280544 kJ/mol
# GULP energy per Si atom -12401.196267 kJ/mol
# Density = 1.759012 g / cm^3
# Si number density = 17.630243 Si / 1000 Ang^3
#
#
#
# Elastic Constant Matrix: (Units=GPa)
#
#
# Indices 1 2 3 4 5 6 
#
# 1 110.9023 39.5744 63.0197 0.0000 0.3471 0.0000
# 2 39.5744 55.6525 49.3699 0.0000 -2.5770 0.0000
# 3 63.0197 49.3699 113.5759 0.0000 -0.6688 0.0000
# 4 0.0000 0.0000 0.0000 14.2897 0.0000 0.9505
# 5 0.3471 -2.5770 -0.6688 0.0000 21.9318 0.0000
# 6 0.0000 0.0000 0.0000 0.9505 0.0000 19.8643
#
#
#
# Elastic Compliance Matrix: (Units=1/GPa)
#
#
# Indices 1 2 3 4 5 6 
#
# 1 0.013988 -0.005049 -0.005573 0.000000 -0.000985 0.000000
# 2 -0.005049 0.031274 -0.010773 0.000000 0.003426 0.000000
# 3 -0.005573 -0.010773 0.016576 0.000000 -0.000672 0.000000
# 4 0.000000 0.000000 0.000000 0.070204 0.000000 -0.003359
# 5 -0.000985 0.003426 -0.000672 0.000000 0.045994 0.000000
# 6 0.000000 0.000000 0.000000 -0.003359 0.000000 0.050502
#
#
# Mechanical properties :
#
#
# Convention : Reuss Voigt Hill
#
# Bulk Modulus (GPa) = 52.49570 64.89542 58.69556
# Shear Modulus (GPa) = 18.00650 19.76160 18.88405
#
# Velocity S-wave (km/s) = 3.19931 3.35160 3.27634
# Velocity P-wave (km/s) = 6.59455 7.20186 6.90488
#
# Compressibility (1/GPa) = 0.01904918
#
# Stress axis : x y z
#
# Youngs Moduli (GPa) = 71.48756 31.97506 60.32932
#
# Poissons Ratio (x) = 0.16144 0.33620
# Poissons Ratio (y) = 0.36095 0.64992
# Poissons Ratio (z) = 0.39838 0.34446
#
# Static dielectric constant tensor:
#      x y z
#    x 3.327710 0.000000 -0.156230 
#    y 0.000000 3.104630 0.000000 
#    z -0.156230 0.000000 3.226830 
# 
# 
# High freq. dielectric constant tensor:
#      x y z
#    x 1.671520 0.000000 -0.013950 
#    y 0.000000 1.669460 0.000000 
#    z -0.013950 0.000000 1.674460 
# 
# From -- ./inp_files/69969.got.cif
#   From: 2010.06.25/outbox.cif.g09.slc.cpg/sg10_35_cif.got.tgz:69969.got - 2010.06.27 22:07:45.
