data_PCOD8061302
_publ_section_title
;
Structure prediction by ZEFSAII (Michael W. Deem and Ramdas Pophale) SiO2 
 PCOD8061302
Probable space group: P 2/M
;
_chemical_formula_sum "Si O2"
_cell_formula_units_Z 32
_cell_length_a 28.104067
_cell_length_b 8.710022
_cell_length_c 21.694514
_cell_angle_alpha 90.000000
_cell_angle_beta 161.168020
_cell_angle_gamma 90.000000
_cell_volume 1714.209251
_symmetry_space_group_name_H-M "P 2/M"
_symmetry_group_IT_number 10
_symmetry_cell_setting 'monoclinic'
loop_
_space_group_symop_operation_xyz
x,y,z
-x,y,-z
-x,-y,-z
x,-y,z
loop_
_atom_site_type_symbol
_atom_site_label
_atom_site_fract_x
_atom_site_fract_y
_atom_site_fract_z
Si Si1 0.397057 0.680387 0.565810
Si Si2 0.922803 0.180420 0.468859
Si Si3 0.552141 0.321523 0.879096
Si Si4 0.329915 0.320885 0.283617
Si Si5 0.828709 0.178914 0.795468
Si Si6 0.840075 0.319844 0.159347
Si Si7 0.682661 0.820307 0.857672
Si Si8 0.410518 0.818624 0.948278
O O1 0.372207 0.500000 0.526387
O O2 0.430571 0.721361 0.678303
O O3 0.251242 0.771219 0.366101
O O4 0.534438 0.727746 0.691819
O O5 0.756289 0.241545 0.261523
O O6 0.000000 0.224813 0.500000
O O7 0.001876 0.271082 0.620847
O O8 0.932385 0.000000 0.494099
O O9 0.549355 0.500000 0.890354
O O10 0.713115 0.271206 0.052126
O O11 0.514956 0.234253 0.896559
O O12 0.500000 0.276148 0.500000
O O13 0.309139 0.500000 0.244964
O O14 0.239322 0.276376 0.232767
O O15 0.266151 0.224362 0.148128
O O16 0.802190 0.000000 0.775277
O O17 0.000000 0.218899 0.000000
O O18 0.833768 0.500000 0.137764
O O19 0.814453 0.228702 0.064628
O O20 0.651114 0.000000 0.824546
O O21 0.413949 0.000000 0.951577
O O22 0.500000 0.750544 0.000000
#
# Coordination Sequence:
#
# PCOD8061302 Si02
#       8
#     4   4   4   4   4   4   4   4
#     4  10  20  36  57  84 114 148 191 235 284 340
#     4  10  19  33  54  80 107 140 184 228 274 329
#     4   9  19  34  54  80 109 141 182 229 272 329
#     4  11  22  37  60  87 116 150 190 237 286 340
#     4  11  24  40  59  87 119 154 197 239 285 342
#     4  10  20  34  54  82 114 145 184 232 284 336
#     4  11  21  34  57  86 117 149 186 237 290 338
#     4  10  21  36  54  79 111 145 182 226 276 330
#
# _framework density 18.667498999999999
#
# number of rings (size 3 to 8) (size 9 to 14) (size 15 to 20)
#    0.000    1.750    2.500    3.375    0.000    5.000 
#    0.000    1.250    0.000    4.500    0.000    0.000 
#    0.000    0.000    0.000    0.000    0.000    0.000 
#
# Total GULP energy -396923.322654 kJ/mol
# GULP energy per Si atom -12403.853833 kJ/mol
# Density = 1.862501 g / cm^3
# Si number density = 18.667499 Si / 1000 Ang^3
#
#
#
# Elastic Constant Matrix: (Units=GPa)
#
#
# Indices 1 2 3 4 5 6 
#
# 1 117.1017 29.7213 56.9524 0.0000 -11.8565 0.0000
# 2 29.7213 51.1902 30.2015 0.0000 -4.8645 0.0000
# 3 56.9524 30.2015 116.8237 0.0000 -12.1191 0.0000
# 4 0.0000 0.0000 0.0000 28.4987 0.0000 -9.6533
# 5 -11.8565 -4.8645 -12.1191 0.0000 30.5595 0.0000
# 6 0.0000 0.0000 0.0000 -9.6533 0.0000 27.9464
#
#
#
# Elastic Compliance Matrix: (Units=1/GPa)
#
#
# Indices 1 2 3 4 5 6 
#
# 1 0.012023 -0.004069 -0.004581 0.000000 0.002200 0.000000
# 2 -0.004069 0.024482 -0.004281 0.000000 0.000621 0.000000
# 3 -0.004581 -0.004281 0.012145 0.000000 0.002357 0.000000
# 4 0.000000 0.000000 0.000000 0.039739 0.000000 0.013727
# 5 0.002200 0.000621 0.002357 0.000000 0.034610 0.000000
# 6 0.000000 0.000000 0.000000 0.013727 0.000000 0.040524
#
#
# Mechanical properties :
#
#
# Convention : Reuss Voigt Hill
#
# Bulk Modulus (GPa) = 43.88376 57.65178 50.76777
# Shear Modulus (GPa) = 25.38306 28.61696 27.00001
#
# Velocity S-wave (km/s) = 3.69147 3.91958 3.80724
# Velocity P-wave (km/s) = 6.45976 7.17180 6.82507
#
# Compressibility (1/GPa) = 0.02278747
#
# Stress axis : x y z
#
# Youngs Moduli (GPa) = 83.17294 40.84603 82.34086
#
# Poissons Ratio (x) = 0.16619 0.37723
# Poissons Ratio (y) = 0.33841 0.35252
# Poissons Ratio (z) = 0.38104 0.17487
#
# Static dielectric constant tensor:
#      x y z
#    x 3.424380 0.000000 -0.199240 
#    y 0.000000 3.341190 0.000000 
#    z -0.199240 0.000000 3.525820 
# 
# 
# High freq. dielectric constant tensor:
#      x y z
#    x 1.714520 0.000000 -0.024630 
#    y 0.000000 1.728440 0.000000 
#    z -0.024630 0.000000 1.717970 
# 
# From -- ./inp_files/86973.got.cif
#   From: 2010.06.25/outbox.cif.g09.slc.cpg/sg10_44_cif.got.tgz:86973.got - 2010.06.27 22:07:45.
