data_PCOD8061381
_publ_section_title
;
Structure prediction by ZEFSAII (Michael W. Deem and Ramdas Pophale) SiO2 
 PCOD8061381
Probable space group: P 2/M
;
_chemical_formula_sum "Si O2"
_cell_formula_units_Z 28
_cell_length_a 22.992109
_cell_length_b 9.107844
_cell_length_c 20.090091
_cell_angle_alpha 90.000000
_cell_angle_beta 19.453858
_cell_angle_gamma 90.000000
_cell_volume 1401.143522
_symmetry_space_group_name_H-M "P 2/M"
_symmetry_group_IT_number 10
_symmetry_cell_setting 'monoclinic'
loop_
_space_group_symop_operation_xyz
x,y,z
-x,y,-z
-x,-y,-z
x,-y,z
loop_
_atom_site_type_symbol
_atom_site_label
_atom_site_fract_x
_atom_site_fract_y
_atom_site_fract_z
Si Si1 0.531493 0.826631 0.755059
Si Si2 0.896443 0.668981 0.950362
Si Si3 0.514043 0.162215 0.055654
Si Si4 0.173034 0.669147 0.123521
Si Si5 0.516090 0.668786 0.404389
Si Si6 0.914351 0.163542 0.658322
Si Si7 0.235894 0.828077 0.618472
O O1 0.584666 0.770134 0.772984
O O2 0.689783 0.791752 0.535058
O O3 0.488130 0.000000 0.804529
O O4 0.360893 0.744343 0.912780
O O5 0.914236 0.500000 0.952916
O O6 0.925814 0.688380 0.839702
O O7 0.043320 0.759269 0.831490
O O8 0.705307 0.728652 0.177205
O O9 0.435226 0.000000 0.127375
O O10 0.500000 0.250682 0.000000
O O11 0.710584 0.154739 0.867241
O O12 0.203466 0.500000 0.108889
O O13 0.051824 0.740709 0.312028
O O14 0.500000 0.687556 0.500000
O O15 0.494564 0.500000 0.405087
O O16 0.362422 0.761935 0.537340
O O17 0.000000 0.236444 0.500000
O O18 0.993615 0.000000 0.583525
O O19 0.221350 0.000000 0.647241
#
# Coordination Sequence:
#
# PCOD8061381 Si02
#       7
#     4   4   4   4   4   4   4
#     4   9  18  33  53  78 108 146 190 235 291 351
#     4  10  22  39  60  88 119 156 200 242 293 357
#     4   8  14  26  45  68  96 132 178 229 274 326
#     4  10  19  33  55  79 107 148 193 243 295 343
#     4  10  22  43  68  89 117 160 204 246 292 352
#     4   9  18  31  48  71 102 144 189 236 290 347
#     4  11  23  37  60  92 123 156 195 247 301 354
#
# _framework density 19.983678999999999
#
# number of rings (size 3 to 8) (size 9 to 14) (size 15 to 20)
#    0.000    2.429    1.429    1.714    0.000    4.571 
#    0.000    5.714    0.000    6.857    0.000    0.000 
#    0.000    0.000    0.000    0.000    0.000    0.000 
#
# Total GULP energy -347033.768971 kJ/mol
# GULP energy per Si atom -12394.063178 kJ/mol
# Density = 1.993820 g / cm^3
# Si number density = 19.983679 Si / 1000 Ang^3
#
#
#
# Elastic Constant Matrix: (Units=GPa)
#
#
# Indices 1 2 3 4 5 6 
#
# 1 103.6117 42.0523 43.7246 0.0000 -0.6378 0.0000
# 2 42.0523 75.4644 37.0113 0.0000 -6.0393 0.0000
# 3 43.7246 37.0113 82.5725 0.0000 -1.7529 0.0000
# 4 0.0000 0.0000 0.0000 22.5799 0.0000 2.7976
# 5 -0.6378 -6.0393 -1.7529 0.0000 33.6388 0.0000
# 6 0.0000 0.0000 0.0000 2.7976 0.0000 25.4653
#
#
#
# Elastic Compliance Matrix: (Units=1/GPa)
#
#
# Indices 1 2 3 4 5 6 
#
# 1 0.013940 -0.005403 -0.004981 0.000000 -0.000965 0.000000
# 2 -0.005403 0.019319 -0.005734 0.000000 0.003067 0.000000
# 3 -0.004981 -0.005734 0.017313 0.000000 -0.000222 0.000000
# 4 0.000000 0.000000 0.000000 0.044898 0.000000 -0.004933
# 5 -0.000965 0.003067 -0.000222 0.000000 0.030248 0.000000
# 6 0.000000 0.000000 0.000000 -0.004933 0.000000 0.039811
#
#
# Mechanical properties :
#
#
# Convention : Reuss Voigt Hill
#
# Bulk Modulus (GPa) = 54.52810 56.35833 55.44321
# Shear Modulus (GPa) = 24.52464 25.59414 25.05939
#
# Velocity S-wave (km/s) = 3.50699 3.58264 3.54502
# Velocity P-wave (km/s) = 6.61394 6.73626 6.67538
#
# Compressibility (1/GPa) = 0.01833917
#
# Stress axis : x y z
#
# Youngs Moduli (GPa) = 71.73600 51.76168 57.75952
#
# Poissons Ratio (x) = 0.27965 0.28767
# Poissons Ratio (y) = 0.38756 0.33117
# Poissons Ratio (z) = 0.35729 0.29678
#
# Static dielectric constant tensor:
#      x y z
#    x 3.778820 0.000000 0.347670 
#    y 0.000000 3.499060 0.000000 
#    z 0.347670 0.000000 3.635770 
# 
# 
# High freq. dielectric constant tensor:
#      x y z
#    x 1.787310 0.000000 0.015680 
#    y 0.000000 1.749660 0.000000 
#    z 0.015680 0.000000 1.775040 
# 
# From -- ./inp_files/86482.got.cif
#   From: 2010.06.25/outbox.cif.g09.slc.cpg/sg10_44_cif.got.tgz:86482.got - 2010.06.27 22:07:45.
