data_PCOD8061786
_publ_section_title
;
Structure prediction by ZEFSAII (Michael W. Deem and Ramdas Pophale) SiO2 
 PCOD8061786
Probable space group: P 2/M
;
_chemical_formula_sum "Si O2"
_cell_formula_units_Z 28
_cell_length_a 26.548802
_cell_length_b 8.899155
_cell_length_c 9.631100
_cell_angle_alpha 90.000000
_cell_angle_beta 140.178928
_cell_angle_gamma 90.000000
_cell_volume 1457.188160
_symmetry_space_group_name_H-M "P 2/M"
_symmetry_group_IT_number 10
_symmetry_cell_setting 'monoclinic'
loop_
_space_group_symop_operation_xyz
x,y,z
-x,y,-z
-x,-y,-z
x,-y,z
loop_
_atom_site_type_symbol
_atom_site_label
_atom_site_fract_x
_atom_site_fract_y
_atom_site_fract_z
Si Si1 0.223330 0.677997 0.815435
Si Si2 0.478559 0.668026 0.613672
Si Si3 0.322266 0.823021 0.244652
Si Si4 0.435170 0.173829 0.975837
Si Si5 0.254200 0.824204 0.591137
Si Si6 0.191314 0.175741 0.173831
Si Si7 0.911696 0.822775 0.289414
O O1 0.223109 0.500000 0.823204
O O2 0.226372 0.728836 0.662932
O O3 0.144683 0.740318 0.721376
O O4 0.301745 0.741459 0.056091
O O5 0.500000 0.669301 0.500000
O O6 0.456810 0.500000 0.616321
O O7 0.406342 0.780224 0.483340
O O8 0.551291 0.730075 0.856463
O O9 0.261057 0.759922 0.227156
O O10 0.316325 0.000000 0.207192
O O11 0.448201 0.000000 0.038643
O O12 0.500000 0.226717 0.000000
O O13 0.345257 0.204197 0.739300
O O14 0.198891 0.762911 0.347081
O O15 0.240667 0.000000 0.594804
O O16 0.204527 0.000000 0.215098
O O17 0.110720 0.214158 0.919851
O O18 0.000000 0.765432 0.500000
O O19 0.903132 0.000000 0.299180
#
# Coordination Sequence:
#
# PCOD8061786 Si02
#       7
#     4   4   4   4   4   4   4
#     4  11  22  35  53  80 113 145 177 216 266 322
#     4  11  23  35  48  72 105 138 175 223 277 327
#     4  10  19  35  57  77  99 133 181 228 268 317
#     4  10  21  36  54  76 102 139 187 234 279 325
#     4  10  19  34  55  77 105 141 181 223 268 320
#     4   8  16  32  56  82 103 129 171 221 265 309
#     4   9  18  36  62  88 111 138 177 221 264 316
#
# _framework density 19.215088000000002
#
# number of rings (size 3 to 8) (size 9 to 14) (size 15 to 20)
#    0.000    2.143    0.000    4.714    0.000    6.857 
#    0.000    5.714    0.000    4.286    0.000    0.000 
#    0.000    0.000    0.000    0.000    0.000    0.000 
#
# Total GULP energy -347102.636711 kJ/mol
# GULP energy per Si atom -12396.522740 kJ/mol
# Density = 1.917135 g / cm^3
# Si number density = 19.215088 Si / 1000 Ang^3
#
#
#
# Elastic Constant Matrix: (Units=GPa)
#
#
# Indices 1 2 3 4 5 6 
#
# 1 63.5309 33.6196 42.0139 0.0000 -9.8660 0.0000
# 2 33.6196 81.3024 38.2527 0.0000 -5.2363 0.0000
# 3 42.0139 38.2527 132.5153 0.0000 -10.1307 0.0000
# 4 0.0000 0.0000 0.0000 -3.3330 0.0000 3.8850
# 5 -9.8660 -5.2363 -10.1307 0.0000 36.3087 0.0000
# 6 0.0000 0.0000 0.0000 3.8850 0.0000 18.0232
#
#
#
# Elastic Compliance Matrix: (Units=1/GPa)
#
#
# Indices 1 2 3 4 5 6 
#
# 1 0.023453 -0.007044 -0.005101 0.000000 0.003933 0.000000
# 2 -0.007044 0.016379 -0.002514 0.000000 -0.000253 0.000000
# 3 -0.005101 -0.002514 0.009968 0.000000 0.001033 0.000000
# 4 0.000000 0.000000 0.000000 -0.239786 0.000000 0.051687
# 5 0.003933 -0.000253 0.001033 0.000000 0.028862 0.000000
# 6 0.000000 0.000000 0.000000 0.051687 0.000000 0.044343
#
#
# Mechanical properties :
#
#
# Convention : Reuss Voigt Hill
#
# Bulk Modulus (GPa) = 48.82723 56.12455 52.47589
# Shear Modulus (GPa) = -62.00787 21.09730 -20.45529
#
# Velocity S-wave (km/s) = -5.68687 3.31713 -3.26627
# Velocity P-wave (km/s) = 4.20173 6.62896 3.62551
#
# Compressibility (1/GPa) = 0.02048038
#
# Stress axis : x y z
#
# Youngs Moduli (GPa) = 42.63913 61.05275 100.31716
#
# Poissons Ratio (x) = 0.43008 0.51176
# Poissons Ratio (y) = 0.30037 0.25221
# Poissons Ratio (z) = 0.21752 0.15349
#
# Static dielectric constant tensor:
#      x y z
#    x 3.382940 0.000000 -0.089740 
#    y 0.000000 3.357630 0.000000 
#    z -0.089740 0.000000 3.837850 
# 
# 
# High freq. dielectric constant tensor:
#      x y z
#    x 1.732030 0.000000 -0.011030 
#    y 0.000000 1.729420 0.000000 
#    z -0.011030 0.000000 1.757060 
# 
# From -- ./inp_files/37338.got.cif
#   From: 2010.06.25/outbox.cif.g09.slc.cpg/sg10_19_cif.got.tgz:37338.got - 2010.06.27 22:07:45.
