data_PCOD8061442
_publ_section_title
;
Structure prediction by ZEFSAII (Michael W. Deem and Ramdas Pophale) SiO2 
 PCOD8061442
Probable space group: P 2/M
;
_chemical_formula_sum "Si O2"
_cell_formula_units_Z 32
_cell_length_a 22.772939
_cell_length_b 9.380487
_cell_length_c 24.085092
_cell_angle_alpha 90.000000
_cell_angle_beta 19.596163
_cell_angle_gamma 90.000000
_cell_volume 1725.603134
_symmetry_space_group_name_H-M "P 2/M"
_symmetry_group_IT_number 10
_symmetry_cell_setting 'monoclinic'
loop_
_space_group_symop_operation_xyz
x,y,z
-x,y,-z
-x,-y,-z
x,-y,z
loop_
_atom_site_type_symbol
_atom_site_label
_atom_site_fract_x
_atom_site_fract_y
_atom_site_fract_z
Si Si1 0.415513 0.833761 0.206237
Si Si2 0.332178 0.153606 0.110366
Si Si3 0.508673 0.333333 0.426984
Si Si4 0.885886 0.836500 0.933301
Si Si5 0.736989 0.170275 0.433457
Si Si6 0.848215 0.836153 0.093180
Si Si7 0.800214 0.346268 0.684748
Si Si8 0.502584 0.830440 0.250530
O O1 0.266100 0.749064 0.306970
O O2 0.428830 0.777112 0.257175
O O3 0.365001 0.000000 0.248990
O O4 0.603627 0.807601 0.008867
O O5 0.211967 0.274636 0.243509
O O6 0.234228 0.000000 0.196940
O O7 0.500000 0.142188 0.000000
O O8 0.500000 0.307949 0.500000
O O9 0.500141 0.500000 0.419276
O O10 0.346236 0.250317 0.544817
O O11 0.686354 0.268303 0.244796
O O12 0.057705 0.780615 0.746591
O O13 0.863547 0.000000 0.937413
O O14 0.924804 0.815236 0.963570
O O15 0.698352 0.763733 0.084792
O O16 0.633265 0.220601 0.581085
O O17 0.722575 0.000000 0.437161
O O18 0.787622 0.000000 0.156590
O O19 0.000000 0.791217 0.000000
O O20 0.701597 0.500000 0.772736
O O21 0.000000 0.376073 0.500000
O O22 0.514104 0.000000 0.241893
#
# Coordination Sequence:
#
# PCOD8061442 Si02
#       8
#     4   4   4   4   4   4   4   4
#     4   9  18  33  53  78 106 136 171 214 262 313
#     4   8  15  29  49  73  99 128 163 205 252 300
#     4  11  23  36  51  76 111 145 178 222 276 330
#     4   9  17  31  54  83 108 133 173 224 270 316
#     4  10  19  35  60  82 105 141 180 222 271 317
#     4  10  19  33  55  82 108 136 179 230 273 322
#     4  10  20  33  50  75 107 140 174 215 258 304
#     4   9  17  33  55  82 113 138 174 225 268 316
#
# _framework density 18.544239999999999
#
# number of rings (size 3 to 8) (size 9 to 14) (size 15 to 20)
#    0.000    2.500    1.250    2.250    0.000    5.500 
#    2.250    1.250    0.000    0.000    0.000    0.000 
#    0.000    0.000    0.000    0.000    0.000    0.000 
#
# Total GULP energy -396554.177864 kJ/mol
# GULP energy per Si atom -12392.318058 kJ/mol
# Density = 1.850203 g / cm^3
# Si number density = 18.544240 Si / 1000 Ang^3
#
#
#
# Elastic Constant Matrix: (Units=GPa)
#
#
# Indices 1 2 3 4 5 6 
#
# 1 92.0170 29.9365 44.3842 0.0000 10.6552 0.0000
# 2 29.9365 68.4563 36.7838 0.0000 3.8277 0.0000
# 3 44.3842 36.7838 130.4760 0.0000 4.1180 0.0000
# 4 0.0000 0.0000 0.0000 13.8848 0.0000 -4.4927
# 5 10.6552 3.8277 4.1180 0.0000 25.7007 0.0000
# 6 0.0000 0.0000 0.0000 -4.4927 0.0000 -7.9768
#
#
#
# Elastic Compliance Matrix: (Units=1/GPa)
#
#
# Indices 1 2 3 4 5 6 
#
# 1 0.014517 -0.004133 -0.003621 0.000000 -0.004823 0.000000
# 2 -0.004133 0.018475 -0.003789 0.000000 -0.000431 0.000000
# 3 -0.003621 -0.003789 0.009949 0.000000 0.000471 0.000000
# 4 0.000000 0.000000 0.000000 0.060919 0.000000 -0.034311
# 5 -0.004823 -0.000431 0.000471 0.000000 0.040898 0.000000
# 6 0.000000 0.000000 0.000000 -0.034311 0.000000 -0.106039
#
#
# Mechanical properties :
#
#
# Convention : Reuss Voigt Hill
#
# Bulk Modulus (GPa) = 50.36327 57.01759 53.69043
# Shear Modulus (GPa) = 73.07388 18.31141 45.69265
#
# Velocity S-wave (km/s) = 6.28416 3.14577 4.96923
# Velocity P-wave (km/s) = 8.93710 6.63386 7.87019
#
# Compressibility (1/GPa) = 0.01985574
#
# Stress axis : x y z
#
# Youngs Moduli (GPa) = 68.88360 54.12605 100.50970
#
# Poissons Ratio (x) = 0.22371 0.36394
# Poissons Ratio (y) = 0.28471 0.38083
# Poissons Ratio (z) = 0.24942 0.20508
#
# Static dielectric constant tensor:
#      x y z
#    x 3.583940 0.000000 0.234670 
#    y 0.000000 3.275230 0.000000 
#    z 0.234670 0.000000 3.648490 
# 
# 
# High freq. dielectric constant tensor:
#      x y z
#    x 1.709200 0.000000 0.010760 
#    y 0.000000 1.688650 0.000000 
#    z 0.010760 0.000000 1.723610 
# 
# From -- ./inp_files/90615.got.cif
#   From: 2010.06.25/outbox.cif.g09.slc.cpg/sg10_46_cif.got.tgz:90615.got - 2010.06.27 22:07:45.
