data_PCOD8061656
_publ_section_title
;
Structure prediction by ZEFSAII (Michael W. Deem and Ramdas Pophale) SiO2 
 PCOD8061656
Probable space group: P 2/M
;
_chemical_formula_sum "Si O2"
_cell_formula_units_Z 32
_cell_length_a 27.645357
_cell_length_b 8.977738
_cell_length_c 10.724250
_cell_angle_alpha 90.000000
_cell_angle_beta 144.570883
_cell_angle_gamma 90.000000
_cell_volume 1542.964254
_symmetry_space_group_name_H-M "P 2/M"
_symmetry_group_IT_number 10
_symmetry_cell_setting 'monoclinic'
loop_
_space_group_symop_operation_xyz
x,y,z
-x,y,-z
-x,-y,-z
x,-y,z
loop_
_atom_site_type_symbol
_atom_site_label
_atom_site_fract_x
_atom_site_fract_y
_atom_site_fract_z
Si Si1 0.816231 0.330479 0.531843
Si Si2 0.269133 0.670772 0.386680
Si Si3 0.726819 0.824207 0.127015
Si Si4 0.445399 0.823752 0.765370
Si Si5 0.865774 0.329680 0.274134
Si Si6 0.537021 0.823395 0.707742
Si Si7 0.980310 0.332403 0.754843
Si Si8 0.872610 0.175032 0.041793
O O1 0.803257 0.500000 0.454289
O O2 0.789046 0.313393 0.615417
O O3 0.761015 0.218444 0.334664
O O4 0.915400 0.291845 0.729708
O O5 0.283346 0.500000 0.378671
O O6 0.356914 0.746670 0.596004
O O7 0.218977 0.755690 0.173432
O O8 0.776844 0.740465 0.123880
O O9 0.735613 0.000000 0.125705
O O10 0.631830 0.769667 0.918428
O O11 0.487121 0.764722 0.724552
O O12 0.432400 0.000000 0.734397
O O13 0.500000 0.777165 0.000000
O O14 0.853169 0.500000 0.206565
O O15 0.929253 0.314913 0.520292
O O16 0.904285 0.237932 0.240287
O O17 0.500000 0.758814 0.500000
O O18 0.531809 0.000000 0.695529
O O19 0.015145 0.500000 0.843697
O O20 0.059416 0.222526 0.919872
O O21 0.864054 0.000000 0.026003
#
# Coordination Sequence:
#
# PCOD8061656 Si02
#       8
#     4   4   4   4   4   4   4   4
#     4   9  20  39  61  83 113 154 195 238 292 355
#     4  11  24  41  61  86 117 156 200 245 297 357
#     4  10  19  33  59  89 115 150 195 243 291 346
#     4  10  21  39  63  89 119 158 203 250 302 362
#     4  10  21  38  60  85 119 159 197 239 290 354
#     4   9  19  34  54  83 120 157 192 238 300 362
#     4   9  19  38  61  84 113 154 196 237 291 354
#     4  12  25  38  56  85 120 155 194 247 301 349
#
# _framework density 20.7393
#
# number of rings (size 3 to 8) (size 9 to 14) (size 15 to 20)
#    0.000    2.000    0.000    4.125    1.750    6.750 
#    0.000    3.750    0.000    1.875    0.000    0.000 
#    0.000    0.000    0.000    0.000    0.000    0.000 
#
# Total GULP energy -396852.101879 kJ/mol
# GULP energy per Si atom -12401.628184 kJ/mol
# Density = 2.069210 g / cm^3
# Si number density = 20.739300 Si / 1000 Ang^3
#
#
#
# Elastic Constant Matrix: (Units=GPa)
#
#
# Indices 1 2 3 4 5 6 
#
# 1 96.9835 27.7552 22.0963 0.0000 6.9334 0.0000
# 2 27.7552 84.9827 41.2009 0.0000 10.3466 0.0000
# 3 22.0963 41.2009 62.8784 0.0000 20.2540 0.0000
# 4 0.0000 0.0000 0.0000 23.2547 0.0000 8.9252
# 5 6.9334 10.3466 20.2540 0.0000 31.9030 0.0000
# 6 0.0000 0.0000 0.0000 8.9252 0.0000 27.4041
#
#
#
# Elastic Compliance Matrix: (Units=1/GPa)
#
#
# Indices 1 2 3 4 5 6 
#
# 1 0.011605 -0.002668 -0.002258 0.000000 -0.000223 0.000000
# 2 -0.002668 0.017960 -0.011491 0.000000 0.002050 0.000000
# 3 -0.002258 -0.011491 0.028747 0.000000 -0.014033 0.000000
# 4 0.000000 0.000000 0.000000 0.049145 0.000000 -0.016006
# 5 -0.000223 0.002050 -0.014033 0.000000 0.039638 0.000000
# 6 0.000000 0.000000 0.000000 -0.016006 0.000000 0.041704
#
#
# Mechanical properties :
#
#
# Convention : Reuss Voigt Hill
#
# Bulk Modulus (GPa) = 39.25041 47.43884 43.34462
# Shear Modulus (GPa) = 21.72731 26.76517 24.24624
#
# Velocity S-wave (km/s) = 3.24024 3.59632 3.42291
# Velocity P-wave (km/s) = 5.74156 6.33784 6.04706
#
# Compressibility (1/GPa) = 0.02547744
#
# Stress axis : x y z
#
# Youngs Moduli (GPa) = 86.16938 55.67939 34.78654
#
# Poissons Ratio (x) = 0.14857 0.07854
# Poissons Ratio (y) = 0.22993 0.39973
# Poissons Ratio (z) = 0.19455 0.63981
#
# Static dielectric constant tensor:
#      x y z
#    x 4.030190 0.000000 0.078320 
#    y 0.000000 3.580560 0.000000 
#    z 0.078320 0.000000 3.716510 
# 
# 
# High freq. dielectric constant tensor:
#      x y z
#    x 1.824200 0.000000 0.005030 
#    y 0.000000 1.793350 0.000000 
#    z 0.005030 0.000000 1.814160 
# 
# From -- ./inp_files/58307.got.cif
#   From: 2010.06.25/outbox.cif.g09.slc.cpg/sg10_30_cif.got.tgz:58307.got - 2010.06.27 22:07:45.
