data_PCOD8061408
_publ_section_title
;
Structure prediction by ZEFSAII (Michael W. Deem and Ramdas Pophale) SiO2 
 PCOD8061408
Probable space group: P 2/M
;
_chemical_formula_sum "Si O2"
_cell_formula_units_Z 32
_cell_length_a 14.143299
_cell_length_b 8.888187
_cell_length_c 20.056361
_cell_angle_alpha 90.000000
_cell_angle_beta 140.047459
_cell_angle_gamma 90.000000
_cell_volume 1619.028400
_symmetry_space_group_name_H-M "P 2/M"
_symmetry_group_IT_number 10
_symmetry_cell_setting 'monoclinic'
loop_
_space_group_symop_operation_xyz
x,y,z
-x,y,-z
-x,-y,-z
x,-y,z
loop_
_atom_site_type_symbol
_atom_site_label
_atom_site_fract_x
_atom_site_fract_y
_atom_site_fract_z
Si Si1 0.821199 0.678792 0.242068
Si Si2 0.108840 0.823829 0.358852
Si Si3 0.858787 0.830941 0.878119
Si Si4 0.578891 0.323843 0.474052
Si Si5 0.295038 0.328281 0.961223
Si Si6 0.025046 0.329248 0.181443
Si Si7 0.426382 0.324653 0.253237
Si Si8 0.439492 0.322403 0.809512
O O1 0.843657 0.500000 0.249588
O O2 0.740357 0.740589 0.131076
O O3 0.720277 0.729476 0.250051
O O4 0.982791 0.751755 0.338268
O O5 0.269250 0.758334 0.459882
O O6 0.068450 0.787192 0.261537
O O7 0.112152 0.000000 0.373315
O O8 0.879028 0.712692 0.829934
O O9 0.717048 0.773478 0.841505
O O10 0.833361 0.000000 0.837536
O O11 0.000000 0.826057 0.000000
O O12 0.500000 0.266634 0.500000
O O13 0.611143 0.500000 0.497695
O O14 0.478685 0.285729 0.356059
O O15 0.338656 0.500000 0.972354
O O16 0.148780 0.314111 0.927940
O O17 0.430373 0.249482 0.073810
O O18 0.064514 0.500000 0.224701
O O19 0.388139 0.500000 0.225700
O O20 0.544201 0.277146 0.259564
O O21 0.452884 0.500000 0.824057
#
# Coordination Sequence:
#
# PCOD8061408 Si02
#       8
#     4   4   4   4   4   4   4   4
#     4   9  17  31  53  79 108 142 179 220 265 316
#     4  11  22  36  56  81 109 139 175 220 272 332
#     4  11  23  36  51  77 116 155 184 215 262 322
#     4  10  21  38  59  81 105 135 176 227 279 328
#     4   8  14  25  47  79 108 135 171 216 265 315
#     4  10  19  33  55  80 107 141 182 229 275 320
#     4  10  21  36  56  81 106 138 185 235 277 321
#     4   9  16  29  51  79 107 136 178 229 272 313
#
# _framework density 19.764941
#
# number of rings (size 3 to 8) (size 9 to 14) (size 15 to 20)
#    0.000    2.250    0.000    4.500    0.000    5.250 
#    0.000    1.250    0.000   10.500    0.000    0.000 
#    0.000    0.000    0.000    0.000    0.000    0.000 
#
# Total GULP energy -396629.883566 kJ/mol
# GULP energy per Si atom -12394.683861 kJ/mol
# Density = 1.971995 g / cm^3
# Si number density = 19.764941 Si / 1000 Ang^3
#
#
#
# Elastic Constant Matrix: (Units=GPa)
#
#
# Indices 1 2 3 4 5 6 
#
# 1 161.4603 42.6779 53.7779 0.0000 9.3275 0.0000
# 2 42.6779 59.8709 39.4156 0.0000 10.9095 0.0000
# 3 53.7779 39.4156 77.8639 0.0000 13.9287 0.0000
# 4 0.0000 0.0000 0.0000 13.5039 0.0000 -1.8612
# 5 9.3275 10.9095 13.9287 0.0000 31.0374 0.0000
# 6 0.0000 0.0000 0.0000 -1.8612 0.0000 9.5878
#
#
#
# Elastic Compliance Matrix: (Units=1/GPa)
#
#
# Indices 1 2 3 4 5 6 
#
# 1 0.008459 -0.003327 -0.004254 0.000000 0.000536 0.000000
# 2 -0.003327 0.026691 -0.010562 0.000000 -0.003642 0.000000
# 3 -0.004254 -0.010562 0.022001 0.000000 -0.004882 0.000000
# 4 0.000000 0.000000 0.000000 0.076089 0.000000 0.014770
# 5 0.000536 -0.003642 -0.004882 0.000000 0.035529 0.000000
# 6 0.000000 0.000000 0.000000 0.014770 0.000000 0.107167
#
#
# Mechanical properties :
#
#
# Convention : Reuss Voigt Hill
#
# Bulk Modulus (GPa) = 47.92698 63.43755 55.68226
# Shear Modulus (GPa) = 15.66530 21.71404 18.68967
#
# Velocity S-wave (km/s) = 2.81833 3.31813 3.07839
# Velocity P-wave (km/s) = 5.90693 6.84439 6.39287
#
# Compressibility (1/GPa) = 0.02086508
#
# Stress axis : x y z
#
# Youngs Moduli (GPa) = 118.22075 37.46546 45.45215
#
# Poissons Ratio (x) = 0.12464 0.19336
# Poissons Ratio (y) = 0.39329 0.48007
# Poissons Ratio (z) = 0.50292 0.39572
#
# Static dielectric constant tensor:
#      x y z
#    x 3.904120 0.000000 0.112360 
#    y 0.000000 3.271840 0.000000 
#    z 0.112360 0.000000 3.525300 
# 
# 
# High freq. dielectric constant tensor:
#      x y z
#    x 1.781880 0.000000 0.012280 
#    y 0.000000 1.732810 0.000000 
#    z 0.012280 0.000000 1.755290 
# 
# From -- ./inp_files/84768.got.cif
#   From: 2010.06.25/outbox.cif.g09.slc.cpg/sg10_43_cif.got.tgz:84768.got - 2010.06.27 22:07:45.
