data_PCOD8061871
_publ_section_title
;
Structure prediction by ZEFSAII (Michael W. Deem and Ramdas Pophale) SiO2 
 PCOD8061871
Probable space group: P 2/M
;
_chemical_formula_sum "Si O2"
_cell_formula_units_Z 32
_cell_length_a 11.486263
_cell_length_b 8.599120
_cell_length_c 19.389846
_cell_angle_alpha 90.000000
_cell_angle_beta 121.158956
_cell_angle_gamma 90.000000
_cell_volume 1638.877478
_symmetry_space_group_name_H-M "P 2/M"
_symmetry_group_IT_number 10
_symmetry_cell_setting 'monoclinic'
loop_
_space_group_symop_operation_xyz
x,y,z
-x,y,-z
-x,-y,-z
x,-y,z
loop_
_atom_site_type_symbol
_atom_site_label
_atom_site_fract_x
_atom_site_fract_y
_atom_site_fract_z
Si Si1 0.697021 0.181629 0.765059
Si Si2 0.895456 0.678161 0.174139
Si Si3 0.878843 0.682005 0.545933
Si Si4 0.402225 0.816379 0.908208
Si Si5 0.168045 0.816475 0.610381
Si Si6 0.058237 0.321967 0.089347
Si Si7 0.849657 0.183473 0.678975
Si Si8 0.440719 0.816005 0.765887
O O1 0.813552 0.214254 0.856110
O O2 0.745265 0.249060 0.705486
O O3 0.557590 0.256763 0.751964
O O4 0.677650 0.000000 0.750420
O O5 0.904625 0.500000 0.201298
O O6 0.742767 0.736431 0.131197
O O7 0.940260 0.698502 0.109104
O O8 0.994602 0.777560 0.253552
O O9 0.861370 0.500000 0.527939
O O10 0.805697 0.774441 0.461544
O O11 0.807731 0.732347 0.595361
O O12 0.037683 0.725221 0.598314
O O13 0.465605 0.768389 0.853322
O O14 0.380819 0.000000 0.907081
O O15 0.500000 0.756826 0.000000
O O16 0.294649 0.756780 0.694627
O O17 0.142961 0.000000 0.610250
O O18 0.107877 0.500000 0.100073
O O19 0.000000 0.260664 0.000000
O O20 0.836799 0.000000 0.665552
O O21 0.446096 0.000000 0.760544
#
# Coordination Sequence:
#
# PCOD8061871 Si02
#       8
#     4   4   4   4   4   4   4   4
#     4   9  19  35  55  78 102 135 181 226 265 313
#     4  10  20  34  52  75 105 137 176 222 268 318
#     4  11  21  34  55  83 115 140 175 226 269 318
#     4  10  21  35  53  78 108 143 179 220 269 323
#     4  10  19  34  57  82 110 147 183 219 269 321
#     4   9  19  34  51  73 103 137 174 219 271 319
#     4  10  19  34  56  80 105 137 178 221 269 321
#     4   9  19  36  55  77 108 141 177 222 269 319
#
# _framework density 19.525559000000001
#
# number of rings (size 3 to 8) (size 9 to 14) (size 15 to 20)
#    0.000    2.250    0.000    3.750    1.750    2.500 
#    0.000    3.125    0.000    3.750    0.000    0.000 
#    0.000    0.000    0.000    0.000    0.000    0.000 
#
# Total GULP energy -396767.357161 kJ/mol
# GULP energy per Si atom -12398.979911 kJ/mol
# Density = 1.948112 g / cm^3
# Si number density = 19.525559 Si / 1000 Ang^3
#
#
#
# Elastic Constant Matrix: (Units=GPa)
#
#
# Indices 1 2 3 4 5 6 
#
# 1 93.8170 13.4405 43.1723 0.0000 -3.0763 0.0000
# 2 13.4405 39.6962 5.2262 0.0000 -2.4275 0.0000
# 3 43.1723 5.2262 99.3037 0.0000 -20.1927 0.0000
# 4 0.0000 0.0000 0.0000 10.6224 0.0000 -8.2533
# 5 -3.0763 -2.4275 -20.1927 0.0000 30.6137 0.0000
# 6 0.0000 0.0000 0.0000 -8.2533 0.0000 17.5014
#
#
#
# Elastic Compliance Matrix: (Units=1/GPa)
#
#
# Indices 1 2 3 4 5 6 
#
# 1 0.014188 -0.004133 -0.006615 0.000000 -0.003265 0.000000
# 2 -0.004133 0.026616 0.000855 0.000000 0.002259 0.000000
# 3 -0.006615 0.000855 0.014759 0.000000 0.009138 0.000000
# 4 0.000000 0.000000 0.000000 0.148582 0.000000 0.070068
# 5 -0.003265 0.002259 0.009138 0.000000 0.038544 0.000000
# 6 0.000000 0.000000 0.000000 0.070068 0.000000 0.090181
#
#
# Mechanical properties :
#
#
# Convention : Reuss Voigt Hill
#
# Bulk Modulus (GPa) = 27.94920 39.61054 33.77987
# Shear Modulus (GPa) = 13.71440 23.14602 18.43021
#
# Velocity S-wave (km/s) = 2.65312 3.44673 3.07563
# Velocity P-wave (km/s) = 4.87141 6.01419 5.47271
#
# Compressibility (1/GPa) = 0.03577920
#
# Stress axis : x y z
#
# Youngs Moduli (GPa) = 70.48243 37.57123 67.75535
#
# Poissons Ratio (x) = 0.15527 0.44818
# Poissons Ratio (y) = 0.29128 -0.05795
# Poissons Ratio (z) = 0.46621 -0.03214
#
# Static dielectric constant tensor:
#      x y z
#    x 3.819170 0.000000 -0.220800 
#    y 0.000000 3.384560 0.000000 
#    z -0.220800 0.000000 3.712170 
# 
# 
# High freq. dielectric constant tensor:
#      x y z
#    x 1.761420 0.000000 -0.018180 
#    y 0.000000 1.745350 0.000000 
#    z -0.018180 0.000000 1.758770 
# 
# From -- ./inp_files/83596.got.cif
#   From: 2010.06.25/outbox.cif.g09.slc.cpg/sg10_42_cif.got.tgz:83596.got - 2010.06.27 22:07:45.
