data_PCOD8061075
_publ_section_title
;
Structure prediction by ZEFSAII (Michael W. Deem and Ramdas Pophale) SiO2 
 PCOD8061075
Probable space group: P 2/M
;
_chemical_formula_sum "Si O2"
_cell_formula_units_Z 24
_cell_length_a 22.937751
_cell_length_b 7.659659
_cell_length_c 12.739560
_cell_angle_alpha 90.000000
_cell_angle_beta 141.683096
_cell_angle_gamma 90.000000
_cell_volume 1387.758094
_symmetry_space_group_name_H-M "P 2/M"
_symmetry_group_IT_number 10
_symmetry_cell_setting 'monoclinic'
loop_
_space_group_symop_operation_xyz
x,y,z
-x,y,-z
-x,-y,-z
x,-y,z
loop_
_atom_site_type_symbol
_atom_site_label
_atom_site_fract_x
_atom_site_fract_y
_atom_site_fract_z
Si Si1 0.963055 0.000000 0.279694
Si Si2 0.960378 0.293294 0.110224
Si Si3 0.858444 0.705467 0.760395
Si Si4 0.284236 0.697708 0.792812
Si Si5 0.150355 0.000000 0.669024
Si Si6 0.678618 0.294547 0.392311
Si Si7 0.520184 0.799113 0.913235
O O1 0.941534 0.177321 0.185598
O O2 0.892971 0.000000 0.277429
O O3 0.070969 0.000000 0.467978
O O4 0.959481 0.500000 0.137464
O O5 0.059271 0.230214 0.200823
O O6 0.879533 0.245997 0.910822
O O7 0.856761 0.500000 0.746782
O O8 0.758583 0.785885 0.582100
O O9 0.244584 0.500000 0.739973
O O10 0.299617 0.767457 0.695594
O O11 0.211081 0.824142 0.745657
O O12 0.385872 0.703001 0.996610
O O13 0.680749 0.500000 0.400701
O O14 0.575874 0.231080 0.288352
O O15 0.546953 0.000000 0.955701
O O16 0.500000 0.720695 0.000000
#
# Coordination Sequence:
#
# PCOD8061075 Si02
#       7
#     2   4   4   4   2   4   4
#     4  11  24  37  52  71  95 128 164 212 247 279
#     4   9  18  35  53  72 101 133 161 196 245 291
#     4   8  15  29  50  76 105 130 159 196 233 292
#     4  10  19  33  52  70  98 137 165 196 242 288
#     4  11  24  38  49  71  97 121 172 216 239 278
#     4   9  16  26  45  76 105 132 163 191 233 294
#     4   9  16  27  43  69 104 135 159 192 236 287
#
# _framework density 17.294080000000001
#
# number of rings (size 3 to 8) (size 9 to 14) (size 15 to 20)
#    0.000    2.667    0.833    2.500    1.167    6.000 
#    3.000    1.667    0.000    0.000    0.000    2.333 
#    0.000    5.333    0.000    0.000    0.000    0.000 
#
# Total GULP energy -297423.803982 kJ/mol
# GULP energy per Si atom -12392.658499 kJ/mol
# Density = 1.725472 g / cm^3
# Si number density = 17.294080 Si / 1000 Ang^3
#
#
#
# Elastic Constant Matrix: (Units=GPa)
#
#
# Indices 1 2 3 4 5 6 
#
# 1 67.0002 39.6135 49.0595 0.0000 6.9535 0.0000
# 2 39.6135 77.8162 35.2677 0.0000 1.1426 0.0000
# 3 49.0595 35.2677 142.3200 0.0000 18.4149 0.0000
# 4 0.0000 0.0000 0.0000 20.5227 0.0000 2.3044
# 5 6.9535 1.1426 18.4149 0.0000 24.9730 0.0000
# 6 0.0000 0.0000 0.0000 2.3044 0.0000 23.2500
#
#
#
# Elastic Compliance Matrix: (Units=1/GPa)
#
#
# Indices 1 2 3 4 5 6 
#
# 1 0.025639 -0.010302 -0.005994 0.000000 -0.002247 0.000000
# 2 -0.010302 0.018726 -0.001492 0.000000 0.003112 0.000000
# 3 -0.005994 -0.001492 0.010212 0.000000 -0.005793 0.000000
# 4 0.000000 0.000000 0.000000 0.049275 0.000000 -0.004884
# 5 -0.002247 0.003112 -0.005793 0.000000 0.044798 0.000000
# 6 0.000000 0.000000 0.000000 -0.004884 0.000000 0.043495
#
#
# Mechanical properties :
#
#
# Convention : Reuss Voigt Hill
#
# Bulk Modulus (GPa) = 52.63107 59.44642 56.03875
# Shear Modulus (GPa) = 21.36259 24.62885 22.99572
#
# Velocity S-wave (km/s) = 3.51843 3.77785 3.65044
# Velocity P-wave (km/s) = 6.85601 7.31286 7.08812
#
# Compressibility (1/GPa) = 0.01900018
#
# Stress axis : x y z
#
# Youngs Moduli (GPa) = 39.00334 53.40286 97.92470
#
# Poissons Ratio (x) = 0.55016 0.58699
# Poissons Ratio (y) = 0.40182 0.14607
# Poissons Ratio (z) = 0.23380 0.07966
#
# Static dielectric constant tensor:
#      x y z
#    x 2.816840 0.000000 0.285280 
#    y 0.000000 3.093800 0.000000 
#    z 0.285280 0.000000 3.881360 
# 
# 
# High freq. dielectric constant tensor:
#      x y z
#    x 1.608590 0.000000 0.026090 
#    y 0.000000 1.672770 0.000000 
#    z 0.026090 0.000000 1.676710 
# 
# From -- ./inp_files/48923.got.cif
#   From: 2010.06.25/outbox.cif.g09.slc.cpg/sg10_25_cif.got.tgz:48923.got - 2010.06.27 22:07:45.
