data_PCOD8061301
_publ_section_title
;
Structure prediction by ZEFSAII (Michael W. Deem and Ramdas Pophale) SiO2 
 PCOD8061301
Probable space group: P 2/M
;
_chemical_formula_sum "Si O2"
_cell_formula_units_Z 24
_cell_length_a 15.835680
_cell_length_b 14.213036
_cell_length_c 8.629148
_cell_angle_alpha 90.000000
_cell_angle_beta 38.713171
_cell_angle_gamma 90.000000
_cell_volume 1214.687815
_symmetry_space_group_name_H-M "P 2/M"
_symmetry_group_IT_number 10
_symmetry_cell_setting 'monoclinic'
loop_
_space_group_symop_operation_xyz
x,y,z
-x,y,-z
-x,-y,-z
x,-y,z
loop_
_atom_site_type_symbol
_atom_site_label
_atom_site_fract_x
_atom_site_fract_y
_atom_site_fract_z
Si Si1 0.632442 0.709040 0.154381
Si Si2 0.124971 0.259206 0.422543
Si Si3 0.101220 0.391256 0.726438
Si Si4 0.364550 0.390316 0.532873
Si Si5 0.714843 0.103760 0.653841
Si Si6 0.520105 0.104351 0.224668
O O1 0.679293 0.668096 0.251792
O O2 0.509621 0.645346 0.263440
O O3 0.576894 0.816030 0.259564
O O4 0.753645 0.705659 0.859673
O O5 0.074399 0.345658 0.598410
O O6 0.166451 0.177507 0.483539
O O7 0.000000 0.222003 0.500000
O O8 0.067928 0.500000 0.752168
O O9 0.255609 0.372735 0.555247
O O10 0.000000 0.348595 0.000000
O O11 0.372431 0.500000 0.566255
O O12 0.631682 0.129603 0.616393
O O13 0.779542 0.000000 0.541830
O O14 0.614230 0.103760 0.940928
O O15 0.523299 0.000000 0.298279
#
# Coordination Sequence:
#
# PCOD8061301 Si02
#       6
#     4   4   4   4   4   4
#     4  10  19  33  54  80 107 135 173 218 256 302
#     4  11  22  34  54  81 104 134 179 223 257 300
#     4  10  22  39  56  75 104 141 174 209 262 318
#     4  10  21  37  55  75 106 143 171 207 264 317
#     4   8  15  29  49  75 106 136 167 208 259 309
#     4   8  14  27  49  76 105 135 168 209 256 305
#
# _framework density 19.758161999999999
#
# number of rings (size 3 to 8) (size 9 to 14) (size 15 to 20)
#    0.000    2.500    0.000    4.000    0.000    4.000 
#    0.000    3.333    0.000    1.500    0.000    0.000 
#    0.000    0.000    0.000    0.000    0.000    0.000 
#
# Total GULP energy -297503.956722 kJ/mol
# GULP energy per Si atom -12395.998197 kJ/mol
# Density = 1.971319 g / cm^3
# Si number density = 19.758162 Si / 1000 Ang^3
#
#
#
# Elastic Constant Matrix: (Units=GPa)
#
#
# Indices 1 2 3 4 5 6 
#
# 1 68.7616 45.2092 19.2942 0.0000 -9.2491 0.0000
# 2 45.2092 117.3165 26.4655 0.0000 0.6597 0.0000
# 3 19.2942 26.4655 87.9987 0.0000 -2.8322 0.0000
# 4 0.0000 0.0000 0.0000 7.2340 0.0000 -4.3559
# 5 -9.2491 0.6597 -2.8322 0.0000 22.7395 0.0000
# 6 0.0000 0.0000 0.0000 -4.3559 0.0000 30.1327
#
#
#
# Elastic Compliance Matrix: (Units=1/GPa)
#
#
# Indices 1 2 3 4 5 6 
#
# 1 0.021453 -0.007851 -0.002063 0.000000 0.008697 0.000000
# 2 -0.007851 0.012026 -0.002017 0.000000 -0.003793 0.000000
# 3 -0.002063 -0.002017 0.012448 0.000000 0.000770 0.000000
# 4 0.000000 0.000000 0.000000 0.151417 0.000000 0.021888
# 5 0.008697 -0.003793 0.000770 0.000000 0.047720 0.000000
# 6 0.000000 0.000000 0.000000 0.021888 0.000000 0.036351
#
#
# Mechanical properties :
#
#
# Convention : Reuss Voigt Hill
#
# Bulk Modulus (GPa) = 45.32142 50.66828 47.99485
# Shear Modulus (GPa) = 15.99331 24.22843 20.11087
#
# Velocity S-wave (km/s) = 2.84818 3.50558 3.19384
# Velocity P-wave (km/s) = 5.81412 6.48732 6.15993
#
# Compressibility (1/GPa) = 0.02206462
#
# Stress axis : x y z
#
# Youngs Moduli (GPa) = 46.61267 83.15435 80.33677
#
# Poissons Ratio (x) = 0.65283 0.16571
# Poissons Ratio (y) = 0.36595 0.16208
# Poissons Ratio (z) = 0.09615 0.16776
#
# Static dielectric constant tensor:
#      x y z
#    x 3.568930 0.000000 -0.135910 
#    y 0.000000 3.956890 0.000000 
#    z -0.135910 0.000000 3.309960 
# 
# 
# High freq. dielectric constant tensor:
#      x y z
#    x 1.765320 0.000000 -0.006330 
#    y 0.000000 1.778110 0.000000 
#    z -0.006330 0.000000 1.744180 
# 
# From -- ./inp_files/29308.got.cif
#   From: 2010.06.25/outbox.cif.g09.slc.cpg/sg10_15_cif.got.tgz:29308.got - 2010.06.27 22:07:45.
