data_PCOD8061843
_publ_section_title
;
Structure prediction by ZEFSAII (Michael W. Deem and Ramdas Pophale) SiO2 
 PCOD8061843
Probable space group: P 2/M
;
_chemical_formula_sum "Si O2"
_cell_formula_units_Z 32
_cell_length_a 23.817119
_cell_length_b 9.048175
_cell_length_c 17.553017
_cell_angle_alpha 90.000000
_cell_angle_beta 149.760584
_cell_angle_gamma 90.000000
_cell_volume 1905.022580
_symmetry_space_group_name_H-M "P 2/M"
_symmetry_group_IT_number 10
_symmetry_cell_setting 'monoclinic'
loop_
_space_group_symop_operation_xyz
x,y,z
-x,y,-z
-x,-y,-z
x,-y,z
loop_
_atom_site_type_symbol
_atom_site_label
_atom_site_fract_x
_atom_site_fract_y
_atom_site_fract_z
Si Si1 0.868865 0.336719 0.360460
Si Si2 0.859084 0.327551 0.941477
Si Si3 0.169105 0.174242 0.830488
Si Si4 0.299182 0.669831 0.107360
Si Si5 0.893042 0.329312 0.715106
Si Si6 0.757447 0.174611 0.679930
Si Si7 0.941540 0.327642 0.603199
Si Si8 0.467157 0.329998 0.545711
O O1 0.817362 0.500000 0.287712
O O2 0.810605 0.225462 0.233175
O O3 0.856111 0.286010 0.434074
O O4 0.000000 0.340256 0.500000
O O5 0.844013 0.500000 0.905763
O O6 0.771840 0.275601 0.903308
O O7 0.836135 0.238600 0.837936
O O8 0.982331 0.288968 0.113455
O O9 0.054786 0.235265 0.731300
O O10 0.166232 0.000000 0.828775
O O11 0.271097 0.232285 0.000974
O O12 0.268830 0.500000 0.054311
O O13 0.429333 0.690357 0.276436
O O14 0.866655 0.500000 0.702045
O O15 0.804902 0.227090 0.654556
O O16 0.879897 0.294385 0.610066
O O17 0.631447 0.229594 0.538967
O O18 0.759344 0.000000 0.686464
O O19 0.976132 0.500000 0.638150
O O20 0.500000 0.276268 0.500000
O O21 0.426978 0.500000 0.495241
#
# Coordination Sequence:
#
# PCOD8061843 Si02
#       8
#     4   4   4   4   4   4   4   4
#     4   8  15  28  47  68  96 132 170 206 242 289
#     4  10  19  35  56  74  96 132 176 214 247 292
#     4  11  20  28  44  73 109 137 161 198 250 310
#     4  10  19  34  56  76  96 128 173 215 251 292
#     4  10  20  35  55  74  98 134 177 213 245 293
#     4  12  25  36  49  73 107 136 165 208 257 307
#     4   9  17  32  51  71  96 133 175 212 245 286
#     4  10  20  38  60  75  91 125 175 219 252 295
#
# _framework density 16.797701
#
# number of rings (size 3 to 8) (size 9 to 14) (size 15 to 20)
#    0.000    2.000    2.500    3.375    0.000    6.000 
#    0.000    0.000    0.000    0.000    0.000    0.875 
#    0.000    7.000    0.000    0.000    0.000    0.000 
#
# Total GULP energy -396829.710248 kJ/mol
# GULP energy per Si atom -12400.928445 kJ/mol
# Density = 1.675947 g / cm^3
# Si number density = 16.797701 Si / 1000 Ang^3
#
#
#
# Elastic Constant Matrix: (Units=GPa)
#
#
# Indices 1 2 3 4 5 6 
#
# 1 112.2114 52.4351 55.8383 0.0000 -17.2616 0.0000
# 2 52.4351 92.5471 44.0925 0.0000 -11.4390 0.0000
# 3 55.8383 44.0925 64.4206 0.0000 -16.3592 0.0000
# 4 0.0000 0.0000 0.0000 11.6895 0.0000 3.0581
# 5 -17.2616 -11.4390 -16.3592 0.0000 30.4477 0.0000
# 6 0.0000 0.0000 0.0000 3.0581 0.0000 10.1202
#
#
#
# Elastic Compliance Matrix: (Units=1/GPa)
#
#
# Indices 1 2 3 4 5 6 
#
# 1 0.016605 -0.003778 -0.011322 0.000000 0.001911 0.000000
# 2 -0.003778 0.016894 -0.008361 0.000000 -0.000287 0.000000
# 3 -0.011322 -0.008361 0.033156 0.000000 0.008254 0.000000
# 4 0.000000 0.000000 0.000000 0.092890 0.000000 -0.028069
# 5 0.001911 -0.000287 0.008254 0.000000 0.038254 0.000000
# 6 0.000000 0.000000 0.000000 -0.028069 0.000000 0.107294
#
#
# Mechanical properties :
#
#
# Convention : Reuss Voigt Hill
#
# Bulk Modulus (GPa) = 50.67797 63.76787 57.22292
# Shear Modulus (GPa) = 13.94341 18.23902 16.09122
#
# Velocity S-wave (km/s) = 2.88423 3.29873 3.09842
# Velocity P-wave (km/s) = 6.42859 7.24938 6.85129
#
# Compressibility (1/GPa) = 0.01973244
#
# Stress axis : x y z
#
# Youngs Moduli (GPa) = 60.22297 59.19320 30.16087
#
# Poissons Ratio (x) = 0.22361 0.34147
# Poissons Ratio (y) = 0.22750 0.25219
# Poissons Ratio (z) = 0.68183 0.49494
#
# Static dielectric constant tensor:
#      x y z
#    x 3.281540 0.000000 -0.329020 
#    y 0.000000 3.032630 0.000000 
#    z -0.329020 0.000000 3.117790 
# 
# 
# High freq. dielectric constant tensor:
#      x y z
#    x 1.636270 0.000000 -0.025070 
#    y 0.000000 1.637770 0.000000 
#    z -0.025070 0.000000 1.631720 
# 
# From -- ./inp_files/75972.got.cif
#   From: 2010.06.25/outbox.cif.g09.slc.cpg/sg10_38_cif.got.tgz:75972.got - 2010.06.27 22:07:45.
