data_PCOD8061212
_publ_section_title
;
Structure prediction by ZEFSAII (Michael W. Deem and Ramdas Pophale) SiO2 
 PCOD8061212
Probable space group: P 2/M
;
_chemical_formula_sum "Si O2"
_cell_formula_units_Z 32
_cell_length_a 28.551937
_cell_length_b 9.252385
_cell_length_c 11.885435
_cell_angle_alpha 90.000000
_cell_angle_beta 148.799372
_cell_angle_gamma 90.000000
_cell_volume 1626.539512
_symmetry_space_group_name_H-M "P 2/M"
_symmetry_group_IT_number 10
_symmetry_cell_setting 'monoclinic'
loop_
_space_group_symop_operation_xyz
x,y,z
-x,y,-z
-x,-y,-z
x,-y,z
loop_
_atom_site_type_symbol
_atom_site_label
_atom_site_fract_x
_atom_site_fract_y
_atom_site_fract_z
Si Si1 0.173105 0.172317 0.181571
Si Si2 0.916188 0.667991 0.400930
Si Si3 0.341289 0.827256 0.936062
Si Si4 0.711470 0.334659 0.952090
Si Si5 0.502463 0.668007 0.873079
Si Si6 0.810946 0.834037 0.540515
Si Si7 0.026669 0.834261 0.272728
Si Si8 0.677312 0.335290 0.633502
O O1 0.202215 0.235887 0.363373
O O2 0.240783 0.230249 0.227944
O O3 0.172738 0.000000 0.181826
O O4 0.072959 0.230441 0.948211
O O5 0.931968 0.500000 0.454012
O O6 0.916996 0.746666 0.520894
O O7 0.000000 0.730510 0.500000
O O8 0.817589 0.700052 0.145071
O O9 0.255945 0.765934 0.689565
O O10 0.345811 0.000000 0.953406
O O11 0.333169 0.766604 0.045652
O O12 0.428908 0.768941 0.052531
O O13 0.701423 0.500000 0.972311
O O14 0.656309 0.309093 0.722554
O O15 0.529338 0.500000 0.914346
O O16 0.406715 0.701213 0.618624
O O17 0.500000 0.710896 0.000000
O O18 0.916234 0.817459 0.724602
O O19 0.782889 0.000000 0.491124
O O20 0.022426 0.000000 0.302991
O O21 0.708833 0.500000 0.679851
#
# Coordination Sequence:
#
# PCOD8061212 Si02
#       8
#     4   4   4   4   4   4   4   4
#     4  10  20  34  56  83 112 149 188 232 284 336
#     4  10  20  34  53  77 109 150 194 239 281 325
#     4  11  22  37  61  88 116 150 189 239 286 333
#     4  10  21  38  58  80 112 153 193 233 282 339
#     4  10  22  41  64  89 116 148 186 230 286 349
#     4   9  18  34  54  80 114 149 185 227 281 338
#     4  10  19  33  53  79 111 147 188 230 277 337
#     4  10  22  40  60  82 112 149 187 232 283 337
#
# _framework density 19.673670000000001
#
# number of rings (size 3 to 8) (size 9 to 14) (size 15 to 20)
#    0.000    2.000    1.250    2.250    0.000    5.000 
#    0.000    3.750    0.000    1.500    0.000    0.000 
#    0.000    0.000    0.000    0.000    0.000    0.000 
#
# Total GULP energy -396755.136426 kJ/mol
# GULP energy per Si atom -12398.598013 kJ/mol
# Density = 1.962889 g / cm^3
# Si number density = 19.673670 Si / 1000 Ang^3
#
#
#
# Elastic Constant Matrix: (Units=GPa)
#
#
# Indices 1 2 3 4 5 6 
#
# 1 108.8856 40.3846 44.9428 0.0000 -3.2808 0.0000
# 2 40.3846 47.5323 34.1124 0.0000 0.3631 0.0000
# 3 44.9428 34.1124 112.5233 0.0000 -10.9665 0.0000
# 4 0.0000 0.0000 0.0000 22.1927 0.0000 -2.8229
# 5 -3.2808 0.3631 -10.9665 0.0000 34.1896 0.0000
# 6 0.0000 0.0000 0.0000 -2.8229 0.0000 19.2997
#
#
#
# Elastic Compliance Matrix: (Units=1/GPa)
#
#
# Indices 1 2 3 4 5 6 
#
# 1 0.013965 -0.010114 -0.002447 0.000000 0.000663 0.000000
# 2 -0.010114 0.034513 -0.006765 0.000000 -0.003507 0.000000
# 3 -0.002447 -0.006765 0.012283 0.000000 0.003777 0.000000
# 4 0.000000 0.000000 0.000000 0.045914 0.000000 0.006716
# 5 0.000663 -0.003507 0.003777 0.000000 0.030561 0.000000
# 6 0.000000 0.000000 0.000000 0.006716 0.000000 0.052797
#
#
# Mechanical properties :
#
#
# Convention : Reuss Voigt Hill
#
# Bulk Modulus (GPa) = 45.22956 56.42454 50.82705
# Shear Modulus (GPa) = 21.18141 25.10316 23.14228
#
# Velocity S-wave (km/s) = 3.28478 3.57596 3.43345
# Velocity P-wave (km/s) = 6.11769 6.76701 6.45053
#
# Compressibility (1/GPa) = 0.02210944
#
# Stress axis : x y z
#
# Youngs Moduli (GPa) = 71.60688 28.97427 81.41020
#
# Poissons Ratio (x) = 0.29305 0.19922
# Poissons Ratio (y) = 0.72423 0.55076
# Poissons Ratio (z) = 0.17523 0.19602
#
# Static dielectric constant tensor:
#      x y z
#    x 3.531310 0.000000 -0.103980 
#    y 0.000000 3.346590 0.000000 
#    z -0.103980 0.000000 3.779880 
# 
# 
# High freq. dielectric constant tensor:
#      x y z
#    x 1.771470 0.000000 -0.005180 
#    y 0.000000 1.744070 0.000000 
#    z -0.005180 0.000000 1.775090 
# 
# From -- ./inp_files/49956.got.cif
#   From: 2010.06.25/outbox.cif.g09.slc.cpg/sg10_25_cif.got.tgz:49956.got - 2010.06.27 22:07:45.
