data_PCOD8061291
_publ_section_title
;
Structure prediction by ZEFSAII (Michael W. Deem and Ramdas Pophale) SiO2 
 PCOD8061291
Probable space group: P 2/M
;
_chemical_formula_sum "Si O2"
_cell_formula_units_Z 28
_cell_length_a 29.428030
_cell_length_b 8.435916
_cell_length_c 9.296788
_cell_angle_alpha 90.000000
_cell_angle_beta 142.153876
_cell_angle_gamma 90.000000
_cell_volume 1416.026330
_symmetry_space_group_name_H-M "P 2/M"
_symmetry_group_IT_number 10
_symmetry_cell_setting 'monoclinic'
loop_
_space_group_symop_operation_xyz
x,y,z
-x,y,-z
-x,-y,-z
x,-y,z
loop_
_atom_site_type_symbol
_atom_site_label
_atom_site_fract_x
_atom_site_fract_y
_atom_site_fract_z
Si Si1 0.498528 0.688671 0.159005
Si Si2 0.645523 0.688350 0.029292
Si Si3 0.225880 0.685682 0.165459
Si Si4 0.064611 0.683808 0.054137
Si Si5 0.781972 0.815476 0.541469
Si Si6 0.361814 0.311941 0.315434
Si Si7 0.070223 0.183964 0.761503
O O1 0.501748 0.500000 0.164753
O O2 0.568739 0.757429 0.421810
O O3 0.500000 0.755663 0.000000
O O4 0.424313 0.746873 0.052272
O O5 0.654682 0.500000 0.059561
O O6 0.718053 0.769836 0.272269
O O7 0.634891 0.749573 0.839762
O O8 0.233951 0.500000 0.215208
O O9 0.240935 0.773686 0.352995
O O10 0.286019 0.746044 0.200663
O O11 0.144462 0.723665 0.899525
O O12 0.059665 0.500000 0.998174
O O13 0.054521 0.792328 0.889804
O O14 0.144609 0.719813 0.323560
O O15 0.000000 0.733175 0.000000
O O16 0.799298 0.000000 0.574530
O O17 0.366102 0.500000 0.325959
O O18 0.000000 0.253218 0.500000
O O19 0.081975 0.000000 0.756160
#
# Coordination Sequence:
#
# PCOD8061291 Si02
#       7
#     4   4   4   4   4   4   4
#     4   9  16  28  51  81 109 138 174 217 264 313
#     4  10  19  33  54  79 109 140 175 220 264 311
#     4  10  19  34  56  78 103 136 178 224 266 313
#     4  10  21  37  58  82 106 135 176 223 267 312
#     4  11  22  36  54  76 106 142 179 216 261 318
#     4   9  18  31  51  82 110 135 172 220 271 314
#     4  10  21  36  54  78 109 143 178 215 261 318
#
# _framework density 19.773644000000001
#
# number of rings (size 3 to 8) (size 9 to 14) (size 15 to 20)
#    0.000    2.143    0.000    5.571    0.000    7.429 
#    0.000    5.714    0.000    6.429    0.000    0.000 
#    0.000    0.000    0.000    0.000    0.000    0.000 
#
# Total GULP energy -347248.644980 kJ/mol
# GULP energy per Si atom -12401.737321 kJ/mol
# Density = 1.972864 g / cm^3
# Si number density = 19.773644 Si / 1000 Ang^3
#
#
#
# Elastic Constant Matrix: (Units=GPa)
#
#
# Indices 1 2 3 4 5 6 
#
# 1 167.2314 13.4191 77.2047 0.0000 11.0911 0.0000
# 2 13.4191 33.9842 9.8329 0.0000 0.9869 0.0000
# 3 77.2047 9.8329 171.3748 0.0000 2.8711 0.0000
# 4 0.0000 0.0000 0.0000 19.6830 0.0000 -7.1913
# 5 11.0911 0.9869 2.8711 0.0000 29.3834 0.0000
# 6 0.0000 0.0000 0.0000 -7.1913 0.0000 2.2477
#
#
#
# Elastic Compliance Matrix: (Units=1/GPa)
#
#
# Indices 1 2 3 4 5 6 
#
# 1 0.007880 -0.002056 -0.003389 0.000000 -0.002574 0.000000
# 2 -0.002056 0.030479 -0.000820 0.000000 -0.000167 0.000000
# 3 -0.003389 -0.000820 0.007399 0.000000 0.000584 0.000000
# 4 0.000000 0.000000 0.000000 -0.300731 0.000000 -0.962174
# 5 -0.002574 -0.000167 0.000584 0.000000 0.034953 0.000000
# 6 0.000000 0.000000 0.000000 -0.962174 0.000000 -2.633524
#
#
# Mechanical properties :
#
#
# Convention : Reuss Voigt Hill
#
# Bulk Modulus (GPa) = 30.09420 63.72265 46.90843
# Shear Modulus (GPa) = -1.76682 28.40506 13.31912
#
# Velocity S-wave (km/s) = -0.94629 3.79425 2.59816
# Velocity P-wave (km/s) = 3.74946 7.17573 5.72492
#
# Compressibility (1/GPa) = 0.03322899
#
# Stress axis : x y z
#
# Youngs Moduli (GPa) = 126.90414 32.80905 135.15169
#
# Poissons Ratio (x) = 0.06746 0.45801
# Poissons Ratio (y) = 0.26094 0.11078
# Poissons Ratio (z) = 0.43006 0.02689
#
# Static dielectric constant tensor:
#      x y z
#    x 3.747500 0.000000 0.103360 
#    y 0.000000 3.255460 0.000000 
#    z 0.103360 0.000000 3.798790 
# 
# 
# High freq. dielectric constant tensor:
#      x y z
#    x 1.774910 0.000000 0.009130 
#    y 0.000000 1.742360 0.000000 
#    z 0.009130 0.000000 1.781550 
# 
# From -- ./inp_files/37333.got.cif
#   From: 2010.06.25/outbox.cif.g09.slc.cpg/sg10_19_cif.got.tgz:37333.got - 2010.06.27 22:07:45.
