data_PCOD8061283
_publ_section_title
;
Structure prediction by ZEFSAII (Michael W. Deem and Ramdas Pophale) SiO2 
 PCOD8061283
Probable space group: P 2/M
;
_chemical_formula_sum "Si O2"
_cell_formula_units_Z 32
_cell_length_a 13.703067
_cell_length_b 19.326973
_cell_length_c 8.102086
_cell_angle_alpha 90.000000
_cell_angle_beta 45.122253
_cell_angle_gamma 90.000000
_cell_volume 1520.506074
_symmetry_space_group_name_H-M "P 2/M"
_symmetry_group_IT_number 10
_symmetry_cell_setting 'monoclinic'
loop_
_space_group_symop_operation_xyz
x,y,z
-x,y,-z
-x,-y,-z
x,-y,z
loop_
_atom_site_type_symbol
_atom_site_label
_atom_site_fract_x
_atom_site_fract_y
_atom_site_fract_z
Si Si1 0.618653 0.805177 0.091972
Si Si2 0.948889 0.579079 0.876143
Si Si3 0.453935 0.576441 0.243680
Si Si4 0.202817 0.344487 0.451448
Si Si5 0.313732 0.801732 0.373626
Si Si6 0.122188 0.077525 0.574484
Si Si7 0.295538 0.658207 0.965845
Si Si8 0.182545 0.077059 0.116333
O O1 0.645352 0.805419 0.865739
O O2 0.688203 0.739025 0.097717
O O3 0.693764 0.871603 0.083293
O O4 0.453290 0.804074 0.317269
O O5 0.941055 0.500000 0.816322
O O6 0.048333 0.627767 0.649874
O O7 0.801148 0.616573 0.044721
O O8 0.000000 0.578071 0.000000
O O9 0.458138 0.500000 0.314503
O O10 0.299275 0.604293 0.441536
O O11 0.500000 0.577031 0.000000
O O12 0.553692 0.624958 0.229962
O O13 0.224702 0.268148 0.502768
O O14 0.237609 0.348258 0.218522
O O15 0.220121 0.866246 0.545539
O O16 0.152865 0.080718 0.344904
O O17 0.961826 0.095897 0.801753
O O18 0.155040 0.000000 0.601790
O O19 0.229835 0.000000 0.009551
#
# Coordination Sequence:
#
# PCOD8061283 Si02
#       8
#     4   4   4   4   4   4   4   4
#     4   9  16  26  42  68  99 128 163 207 251 294
#     4  11  25  41  53  71 102 135 168 208 253 305
#     4   9  16  28  49  75 100 124 156 203 253 299
#     4  10  19  33  54  79 102 128 166 211 255 301
#     4   9  16  26  42  68  99 128 163 207 251 294
#     4   8  14  23  35  56  92 137 174 199 233 288
#     4  10  19  33  54  79 102 128 166 211 255 301
#     4   8  14  23  35  56  92 137 174 199 233 288
#
# _framework density 21.045624
#
# number of rings (size 3 to 8) (size 9 to 14) (size 15 to 20)
#    0.000    2.750    1.250    1.875    1.750    2.500 
#    0.000    3.125    0.000    2.250    0.000    0.000 
#    0.000    2.000    0.000    2.250    0.000    2.500 
#
# Total GULP energy -396643.266145 kJ/mol
# GULP energy per Si atom -12395.102067 kJ/mol
# Density = 2.099772 g / cm^3
# Si number density = 21.045624 Si / 1000 Ang^3
#
#
#
# Elastic Constant Matrix: (Units=GPa)
#
#
# Indices 1 2 3 4 5 6 
#
# 1 80.9482 58.8020 19.1969 0.0000 -34.7554 0.0000
# 2 58.8020 182.2504 26.6739 0.0000 -32.2289 0.0000
# 3 19.1969 26.6739 15.0615 0.0000 -16.8522 0.0000
# 4 0.0000 0.0000 0.0000 20.5698 0.0000 -21.0525
# 5 -34.7554 -32.2289 -16.8522 0.0000 26.0984 0.0000
# 6 0.0000 0.0000 0.0000 -21.0525 0.0000 34.2265
#
#
#
# Elastic Compliance Matrix: (Units=1/GPa)
#
#
# Indices 1 2 3 4 5 6 
#
# 1 0.034443 -0.005244 0.034098 0.000000 0.061410 0.000000
# 2 -0.005244 0.008248 -0.015642 0.000000 -0.006897 0.000000
# 3 0.034098 -0.015642 0.287663 0.000000 0.211842 0.000000
# 4 0.000000 0.000000 0.000000 0.131224 0.000000 0.080715
# 5 0.061410 -0.006897 0.211842 0.000000 0.248370 0.000000
# 6 0.000000 0.000000 0.000000 0.080715 0.000000 0.078865
#
#
# Mechanical properties :
#
#
# Convention : Reuss Voigt Hill
#
# Bulk Modulus (GPa) = 2.80285 54.17843 28.49064
# Shear Modulus (GPa) = 5.67335 27.75142 16.71238
#
# Velocity S-wave (km/s) = 1.64365 3.63524 2.82104
# Velocity P-wave (km/s) = 2.22189 6.58932 4.91711
#
# Compressibility (1/GPa) = 0.35677960
#
# Stress axis : x y z
#
# Youngs Moduli (GPa) = 29.03346 121.23565 3.47629
#
# Poissons Ratio (x) = 0.63572 -0.11853
# Poissons Ratio (y) = 0.15224 0.05437
# Poissons Ratio (z) = -0.98998 1.89632
#
# Static dielectric constant tensor:
#      x y z
#    x 3.677970 0.000000 -0.504100 
#    y 0.000000 4.147230 0.000000 
#    z -0.504100 0.000000 3.427970 
# 
# 
# High freq. dielectric constant tensor:
#      x y z
#    x 1.805780 0.000000 -0.035350 
#    y 0.000000 1.836390 0.000000 
#    z -0.035350 0.000000 1.784140 
# 
# From -- ./inp_files/26054.got.cif
#   From: 2010.06.25/outbox.cif.g09.slc.cpg/sg10_14_cif.got.tgz:26054.got - 2010.06.27 22:07:45.
