data_PCOD8061048
_publ_section_title
;
Structure prediction by ZEFSAII (Michael W. Deem and Ramdas Pophale) SiO2 
 PCOD8061048
Probable space group: P 2/M
;
_chemical_formula_sum "Si O2"
_cell_formula_units_Z 28
_cell_length_a 19.311744
_cell_length_b 9.257735
_cell_length_c 14.469403
_cell_angle_alpha 90.000000
_cell_angle_beta 147.710630
_cell_angle_gamma 90.000000
_cell_volume 1381.901522
_symmetry_space_group_name_H-M "P 2/M"
_symmetry_group_IT_number 10
_symmetry_cell_setting 'monoclinic'
loop_
_space_group_symop_operation_xyz
x,y,z
-x,y,-z
-x,-y,-z
x,-y,z
loop_
_atom_site_type_symbol
_atom_site_label
_atom_site_fract_x
_atom_site_fract_y
_atom_site_fract_z
Si Si1 0.746821 0.660065 0.142955
Si Si2 0.535510 0.661001 0.135765
Si Si3 0.689109 0.673162 0.479332
Si Si4 0.881798 0.834840 0.435138
Si Si5 0.514264 0.832610 0.624008
Si Si6 0.211018 0.832684 0.985909
Si Si7 0.929893 0.833795 0.700741
O O1 0.807603 0.500000 0.212102
O O2 0.766633 0.733065 0.266590
O O3 0.594250 0.654117 0.949201
O O4 0.812637 0.750588 0.136329
O O5 0.583927 0.500000 0.162870
O O6 0.641954 0.730764 0.324332
O O7 0.500000 0.745813 0.000000
O O8 0.687114 0.500000 0.483819
O O9 0.594793 0.736654 0.450364
O O10 0.834967 0.734255 0.655766
O O11 0.916879 0.791952 0.578529
O O12 0.000000 0.802766 0.500000
O O13 0.836430 0.000000 0.377706
O O14 0.500000 0.806762 0.500000
O O15 0.659899 0.781642 0.815208
O O16 0.492711 0.000000 0.626387
O O17 0.220319 0.000000 0.969610
O O18 0.080501 0.805686 0.899790
O O19 0.891840 0.000000 0.675564
#
# Coordination Sequence:
#
# PCOD8061048 Si02
#       7
#     4   4   4   4   4   4   4
#     4  11  20  31  51  79 112 151 199 246 289 340
#     4   9  18  32  49  74 114 155 190 233 285 339
#     4  11  22  38  60  88 123 158 193 244 302 353
#     4  10  19  33  50  74 114 161 206 246 288 340
#     4  10  22  42  69  95 116 147 196 250 304 364
#     4  10  20  38  61  83 114 151 191 241 295 350
#     4  10  21  37  57  82 117 161 200 241 292 348
#
# _framework density 20.261935999999999
#
# number of rings (size 3 to 8) (size 9 to 14) (size 15 to 20)
#    0.000    1.857    2.857    1.714    0.000    2.857 
#    0.000    0.714    0.000    7.714    0.000    0.000 
#    0.000    0.000    0.000    0.000    0.000    0.000 
#
# Total GULP energy -347046.981453 kJ/mol
# GULP energy per Si atom -12394.535052 kJ/mol
# Density = 2.021582 g / cm^3
# Si number density = 20.261936 Si / 1000 Ang^3
#
#
#
# Elastic Constant Matrix: (Units=GPa)
#
#
# Indices 1 2 3 4 5 6 
#
# 1 92.3770 44.6710 46.7400 0.0000 16.5031 0.0000
# 2 44.6710 74.9854 40.7026 0.0000 10.2115 0.0000
# 3 46.7400 40.7026 85.0262 0.0000 15.9461 0.0000
# 4 0.0000 0.0000 0.0000 19.3895 0.0000 4.1684
# 5 16.5031 10.2115 15.9461 0.0000 32.4462 0.0000
# 6 0.0000 0.0000 0.0000 4.1684 0.0000 22.9833
#
#
#
# Elastic Compliance Matrix: (Units=1/GPa)
#
#
# Indices 1 2 3 4 5 6 
#
# 1 0.017795 -0.006960 -0.005688 0.000000 -0.004065 0.000000
# 2 -0.006960 0.020813 -0.006139 0.000000 0.000007 0.000000
# 3 -0.005688 -0.006139 0.018640 0.000000 -0.004336 0.000000
# 4 0.000000 0.000000 0.000000 0.053667 0.000000 -0.009733
# 5 -0.004065 0.000007 -0.004336 0.000000 0.035017 0.000000
# 6 0.000000 0.000000 0.000000 -0.009733 0.000000 0.045275
#
#
# Mechanical properties :
#
#
# Convention : Reuss Voigt Hill
#
# Bulk Modulus (GPa) = 50.82677 57.40173 54.11425
# Shear Modulus (GPa) = 21.24599 22.98212 22.11405
#
# Velocity S-wave (km/s) = 3.24167 3.37152 3.30723
# Velocity P-wave (km/s) = 6.25704 6.59905 6.43032
#
# Compressibility (1/GPa) = 0.01967467
#
# Stress axis : x y z
#
# Youngs Moduli (GPa) = 56.19538 48.04584 53.64915
#
# Poissons Ratio (x) = 0.33440 0.30516
# Poissons Ratio (y) = 0.39112 0.32934
# Poissons Ratio (z) = 0.31964 0.29494
#
# Static dielectric constant tensor:
#      x y z
#    x 3.480420 0.000000 0.206570 
#    y 0.000000 3.501990 0.000000 
#    z 0.206570 0.000000 3.819600 
# 
# 
# High freq. dielectric constant tensor:
#      x y z
#    x 1.778760 0.000000 0.022540 
#    y 0.000000 1.772370 0.000000 
#    z 0.022540 0.000000 1.789050 
# 
# From -- ./inp_files/70284.got.cif
#   From: 2010.06.25/outbox.cif.g09.slc.cpg/sg10_36_cif.got.tgz:70284.got - 2010.06.27 22:07:45.
