data_PCOD8061358
_publ_section_title
;
Structure prediction by ZEFSAII (Michael W. Deem and Ramdas Pophale) SiO2 
 PCOD8061358
Probable space group: P 2/M
;
_chemical_formula_sum "Si O2"
_cell_formula_units_Z 28
_cell_length_a 25.954749
_cell_length_b 9.564369
_cell_length_c 9.212483
_cell_angle_alpha 90.000000
_cell_angle_beta 136.623066
_cell_angle_gamma 90.000000
_cell_volume 1570.641074
_symmetry_space_group_name_H-M "P 2/M"
_symmetry_group_IT_number 10
_symmetry_cell_setting 'monoclinic'
loop_
_space_group_symop_operation_xyz
x,y,z
-x,y,-z
-x,-y,-z
x,-y,z
loop_
_atom_site_type_symbol
_atom_site_label
_atom_site_fract_x
_atom_site_fract_y
_atom_site_fract_z
Si Si1 0.074661 0.152662 0.239220
Si Si2 0.927321 0.165585 0.437342
Si Si3 0.310703 0.659668 0.393915
Si Si4 0.295509 0.156001 0.798397
Si Si5 0.585494 0.162105 0.191705
Si Si6 0.194912 0.344450 0.409209
Si Si7 0.240159 0.160060 0.997931
O O1 0.064676 0.216720 0.380010
O O2 0.119379 0.258922 0.228020
O O3 0.114482 0.000000 0.334365
O O4 0.000000 0.130044 0.000000
O O5 0.845645 0.212803 0.207094
O O6 0.000000 0.228164 0.500000
O O7 0.931373 0.000000 0.438623
O O8 0.336066 0.500000 0.410003
O O9 0.378599 0.743141 0.608507
O O10 0.240456 0.657134 0.355626
O O11 0.282325 0.738354 0.194021
O O12 0.375443 0.188228 0.885422
O O13 0.235878 0.268104 0.624535
O O14 0.295070 0.167423 0.970715
O O15 0.270087 0.000000 0.699605
O O16 0.591772 0.000000 0.251988
O O17 0.500000 0.209541 0.000000
O O18 0.176526 0.500000 0.423455
O O19 0.237847 0.000000 0.051473
#
# Coordination Sequence:
#
# PCOD8061358 Si02
#       7
#     4   4   4   4   4   4   4
#     4  10  20  33  52  75  99 131 176 224 269 314
#     4   9  18  32  49  75 105 133 172 221 270 313
#     4  10  22  36  52  78 110 143 179 214 256 315
#     4   9  17  33  56  80 104 132 173 216 258 312
#     4   9  18  35  60  86 109 135 171 216 264 313
#     4  10  20  34  51  72 102 138 175 217 262 309
#     4  10  19  33  55  78 105 140 177 222 266 308
#
# _framework density 17.827114999999999
#
# number of rings (size 3 to 8) (size 9 to 14) (size 15 to 20)
#    0.000    2.429    1.429    0.857    2.000    2.857 
#    0.000    0.714    0.000    5.143    0.000    0.000 
#    0.000    0.000    0.000    0.000    0.000    0.000 
#
# Total GULP energy -346979.459121 kJ/mol
# GULP energy per Si atom -12392.123540 kJ/mol
# Density = 1.778654 g / cm^3
# Si number density = 17.827115 Si / 1000 Ang^3
#
#
#
# Elastic Constant Matrix: (Units=GPa)
#
#
# Indices 1 2 3 4 5 6 
#
# 1 75.0292 42.4475 56.6423 0.0000 11.7630 0.0000
# 2 42.4475 107.1404 54.8483 0.0000 1.6022 0.0000
# 3 56.6423 54.8483 115.2042 0.0000 2.6658 0.0000
# 4 0.0000 0.0000 0.0000 18.3612 0.0000 -0.7215
# 5 11.7630 1.6022 2.6658 0.0000 27.3881 0.0000
# 6 0.0000 0.0000 0.0000 -0.7215 0.0000 21.1926
#
#
#
# Elastic Compliance Matrix: (Units=1/GPa)
#
#
# Indices 1 2 3 4 5 6 
#
# 1 0.024831 -0.004705 -0.009750 0.000000 -0.009440 0.000000
# 2 -0.004705 0.013234 -0.004025 0.000000 0.001638 0.000000
# 3 -0.009750 -0.004025 0.015322 0.000000 0.002932 0.000000
# 4 0.000000 0.000000 0.000000 0.054536 0.000000 0.001857
# 5 -0.009440 0.001638 0.002932 0.000000 0.040186 0.000000
# 6 0.000000 0.000000 0.000000 0.001857 0.000000 0.047249
#
#
# Mechanical properties :
#
#
# Convention : Reuss Voigt Hill
#
# Bulk Modulus (GPa) = 60.87686 67.25000 64.06343
# Shear Modulus (GPa) = 21.02669 22.95077 21.98873
#
# Velocity S-wave (km/s) = 3.43808 3.59194 3.51585
# Velocity P-wave (km/s) = 7.06987 7.41674 7.24538
#
# Compressibility (1/GPa) = 0.01642660
#
# Stress axis : x y z
#
# Youngs Moduli (GPa) = 40.27278 75.56470 65.26374
#
# Poissons Ratio (x) = 0.35554 0.63632
# Poissons Ratio (y) = 0.18949 0.26269
# Poissons Ratio (z) = 0.39266 0.30415
#
# Static dielectric constant tensor:
#      x y z
#    x 3.515770 0.000000 0.086580 
#    y 0.000000 3.606650 0.000000 
#    z 0.086580 0.000000 3.108120 
# 
# 
# High freq. dielectric constant tensor:
#      x y z
#    x 1.690580 0.000000 -0.000270 
#    y 0.000000 1.677600 0.000000 
#    z -0.000270 0.000000 1.675230 
# 
# From -- ./inp_files/37322.got.cif
#   From: 2010.06.25/outbox.cif.g09.slc.cpg/sg10_19_cif.got.tgz:37322.got - 2010.06.27 22:07:45.
