data_PCOD8061548
_publ_section_title
;
Structure prediction by ZEFSAII (Michael W. Deem and Ramdas Pophale) SiO2 
 PCOD8061548
Probable space group: P 2/M
;
_chemical_formula_sum "Si O2"
_cell_formula_units_Z 32
_cell_length_a 19.734533
_cell_length_b 9.000034
_cell_length_c 12.544200
_cell_angle_alpha 90.000000
_cell_angle_beta 46.246513
_cell_angle_gamma 90.000000
_cell_volume 1609.328643
_symmetry_space_group_name_H-M "P 2/M"
_symmetry_group_IT_number 10
_symmetry_cell_setting 'monoclinic'
loop_
_space_group_symop_operation_xyz
x,y,z
-x,y,-z
-x,-y,-z
x,-y,z
loop_
_atom_site_type_symbol
_atom_site_label
_atom_site_fract_x
_atom_site_fract_y
_atom_site_fract_z
Si Si1 0.897279 0.176597 0.134614
Si Si2 0.630908 0.675182 0.606850
Si Si3 0.103913 0.171729 0.418883
Si Si4 0.609736 0.330334 0.390182
Si Si5 0.460123 0.323642 0.932074
Si Si6 0.814569 0.171599 0.445197
Si Si7 0.748861 0.323391 0.890505
Si Si8 0.757990 0.175216 0.100916
O O1 0.861437 0.239166 0.287244
O O2 0.830547 0.230373 0.111865
O O3 0.901139 0.000000 0.135421
O O4 0.000000 0.242833 0.000000
O O5 0.637349 0.500000 0.613593
O O6 0.639763 0.724419 0.474581
O O7 0.531440 0.730432 0.762250
O O8 0.716936 0.746541 0.577639
O O9 0.114310 0.195020 0.534361
O O10 0.000000 0.224845 0.500000
O O11 0.119661 0.000000 0.369462
O O12 0.180635 0.272441 0.277827
O O13 0.500000 0.314155 0.500000
O O14 0.641046 0.500000 0.335435
O O15 0.655344 0.225878 0.251349
O O16 0.454808 0.500000 0.942862
O O17 0.355773 0.262345 0.022119
O O18 0.500000 0.260034 0.000000
O O19 0.790451 0.000000 0.454128
O O20 0.750095 0.500000 0.898011
O O21 0.784566 0.253857 0.962059
O O22 0.760905 0.000000 0.080600
#
# Coordination Sequence:
#
# PCOD8061548 Si02
#       8
#     4   4   4   4   4   4   4   4
#     4   9  19  35  59  86 112 151 196 237 286 345
#     4  10  19  33  56  83 113 149 190 236 286 343
#     4  10  23  41  63  88 116 153 198 244 291 344
#     4  10  20  35  55  80 115 158 199 236 283 341
#     4   9  18  34  57  83 110 150 197 235 280 342
#     4  10  20  37  60  87 117 148 191 243 290 342
#     4  11  23  40  62  87 120 154 194 242 293 352
#     4  11  22  37  60  87 119 153 195 243 291 349
#
# _framework density 19.884067999999999
#
# number of rings (size 3 to 8) (size 9 to 14) (size 15 to 20)
#    0.000    2.000    1.250    2.250    1.750    4.000 
#    0.000    2.500    0.000    5.250    0.000    0.000 
#    0.000    0.000    0.000    0.000    0.000    0.000 
#
# Total GULP energy -396876.727048 kJ/mol
# GULP energy per Si atom -12402.397720 kJ/mol
# Density = 1.983881 g / cm^3
# Si number density = 19.884068 Si / 1000 Ang^3
#
#
#
# Elastic Constant Matrix: (Units=GPa)
#
#
# Indices 1 2 3 4 5 6 
#
# 1 127.7697 31.1903 57.4575 0.0000 1.8549 0.0000
# 2 31.1903 43.7715 34.6813 0.0000 2.4981 0.0000
# 3 57.4575 34.6813 122.4866 0.0000 -4.8840 0.0000
# 4 0.0000 0.0000 0.0000 28.5311 0.0000 0.1850
# 5 1.8549 2.4981 -4.8840 0.0000 34.8411 0.0000
# 6 0.0000 0.0000 0.0000 0.1850 0.0000 25.1237
#
#
#
# Elastic Compliance Matrix: (Units=1/GPa)
#
#
# Indices 1 2 3 4 5 6 
#
# 1 0.010629 -0.004585 -0.003718 0.000000 -0.000758 0.000000
# 2 -0.004585 0.031813 -0.006977 0.000000 -0.003015 0.000000
# 3 -0.003718 -0.006977 0.011979 0.000000 0.002377 0.000000
# 4 0.000000 0.000000 0.000000 0.035051 0.000000 -0.000258
# 5 -0.000758 -0.003015 0.002377 0.000000 0.029292 0.000000
# 6 0.000000 0.000000 0.000000 -0.000258 0.000000 0.039805
#
#
# Mechanical properties :
#
#
# Convention : Reuss Voigt Hill
#
# Bulk Modulus (GPa) = 41.90993 60.07623 50.99308
# Shear Modulus (GPa) = 25.37023 29.07910 27.22466
#
# Velocity S-wave (km/s) = 3.57586 3.82832 3.70424
# Velocity P-wave (km/s) = 6.17834 7.05835 6.63296
#
# Compressibility (1/GPa) = 0.02386069
#
# Stress axis : x y z
#
# Youngs Moduli (GPa) = 94.08487 31.43356 83.48208
#
# Poissons Ratio (x) = 0.14411 0.31039
# Poissons Ratio (y) = 0.43134 0.58248
# Poissons Ratio (z) = 0.34981 0.21932
#
# Static dielectric constant tensor:
#      x y z
#    x 3.875830 0.000000 0.111480 
#    y 0.000000 3.282630 0.000000 
#    z 0.111480 0.000000 3.781770 
# 
# 
# High freq. dielectric constant tensor:
#      x y z
#    x 1.787590 0.000000 0.003460 
#    y 0.000000 1.741150 0.000000 
#    z 0.003460 0.000000 1.785360 
# 
# From -- ./inp_files/55237.got.cif
#   From: 2010.06.25/outbox.cif.g09.slc.cpg/sg10_28_cif.got.tgz:55237.got - 2010.06.27 22:07:45.
