data_PCOD8061329
_publ_section_title
;
Structure prediction by ZEFSAII (Michael W. Deem and Ramdas Pophale) SiO2 
 PCOD8061329
Probable space group: P 2/M
;
_chemical_formula_sum "Si O2"
_cell_formula_units_Z 32
_cell_length_a 11.116517
_cell_length_b 9.049107
_cell_length_c 30.136124
_cell_angle_alpha 90.000000
_cell_angle_beta 147.344846
_cell_angle_gamma 90.000000
_cell_volume 1635.757431
_symmetry_space_group_name_H-M "P 2/M"
_symmetry_group_IT_number 10
_symmetry_cell_setting 'monoclinic'
loop_
_space_group_symop_operation_xyz
x,y,z
-x,y,-z
-x,-y,-z
x,-y,z
loop_
_atom_site_type_symbol
_atom_site_label
_atom_site_fract_x
_atom_site_fract_y
_atom_site_fract_z
Si Si1 0.701423 0.670952 0.030482
Si Si2 0.699019 0.827352 0.682639
Si Si3 0.440673 0.824878 0.098502
Si Si4 0.439099 0.673093 0.188050
Si Si5 0.099039 0.332902 0.763615
Si Si6 0.937434 0.665213 0.349200
Si Si7 0.201564 0.669138 0.203887
Si Si8 0.631118 0.827177 0.497678
O O1 0.670264 0.500000 0.007556
O O2 0.937254 0.696354 0.128200
O O3 0.500000 0.723198 0.000000
O O4 0.711404 0.767643 0.988928
O O5 0.652143 0.775403 0.718540
O O6 0.496323 0.786966 0.587216
O O7 0.912211 0.731185 0.737002
O O8 0.754082 0.000000 0.697125
O O9 0.353300 0.759378 0.118021
O O10 0.688625 0.770356 0.165491
O O11 0.432432 0.000000 0.098443
O O12 0.453453 0.500000 0.180021
O O13 0.687567 0.727596 0.279317
O O14 0.267984 0.707609 0.174102
O O15 0.159338 0.500000 0.797378
O O16 0.005314 0.330924 0.684925
O O17 0.955695 0.500000 0.374003
O O18 0.121531 0.762596 0.431153
O O19 0.265608 0.500000 0.234217
O O20 0.500000 0.762002 0.500000
O O21 0.658288 0.000000 0.512832
#
# Coordination Sequence:
#
# PCOD8061329 Si02
#       8
#     4   4   4   4   4   4   4   4
#     4  10  21  38  60  86 116 149 187 231 285 344
#     4  11  22  35  54  82 116 150 186 233 288 342
#     4  11  22  35  57  87 116 149 187 234 288 333
#     4   9  20  40  60  81 111 150 198 239 279 333
#     4  10  19  33  54  81 114 149 187 230 279 339
#     4   9  18  32  54  81 107 140 186 238 278 322
#     4  10  22  40  61  81 109 153 195 237 285 337
#     4  10  20  34  52  80 118 151 181 222 281 350
#
# _framework density 19.562802000000001
#
# number of rings (size 3 to 8) (size 9 to 14) (size 15 to 20)
#    0.000    2.000    1.250    3.375    0.000    6.000 
#    0.000    3.125    0.000    3.750    0.000    0.000 
#    0.000    0.000    0.000    0.000    0.000    0.000 
#
# Total GULP energy -396822.777038 kJ/mol
# GULP energy per Si atom -12400.711782 kJ/mol
# Density = 1.951828 g / cm^3
# Si number density = 19.562802 Si / 1000 Ang^3
#
#
#
# Elastic Constant Matrix: (Units=GPa)
#
#
# Indices 1 2 3 4 5 6 
#
# 1 81.4329 35.0105 35.8201 0.0000 -5.9923 0.0000
# 2 35.0105 83.9434 47.9057 0.0000 -14.8319 0.0000
# 3 35.8201 47.9057 98.4145 0.0000 -13.8633 0.0000
# 4 0.0000 0.0000 0.0000 33.5195 0.0000 -5.0956
# 5 -5.9923 -14.8319 -13.8633 0.0000 23.8845 0.0000
# 6 0.0000 0.0000 0.0000 -5.0956 0.0000 23.9725
#
#
#
# Elastic Compliance Matrix: (Units=1/GPa)
#
#
# Indices 1 2 3 4 5 6 
#
# 1 0.015821 -0.004728 -0.003606 0.000000 -0.001060 0.000000
# 2 -0.004728 0.018760 -0.006466 0.000000 0.006711 0.000000
# 3 -0.003606 -0.006466 0.015168 0.000000 0.003884 0.000000
# 4 0.000000 0.000000 0.000000 0.030830 0.000000 0.006553
# 5 -0.001060 0.006711 0.003884 0.000000 0.048024 0.000000
# 6 0.000000 0.000000 0.000000 0.006553 0.000000 0.043107
#
#
# Mechanical properties :
#
#
# Convention : Reuss Voigt Hill
#
# Bulk Modulus (GPa) = 49.62876 55.69595 52.66236
# Shear Modulus (GPa) = 24.03531 25.94559 24.99045
#
# Velocity S-wave (km/s) = 3.50897 3.64575 3.57802
# Velocity P-wave (km/s) = 6.46848 6.80104 6.63684
#
# Compressibility (1/GPa) = 0.02014960
#
# Stress axis : x y z
#
# Youngs Moduli (GPa) = 63.20728 53.30391 65.92669
#
# Poissons Ratio (x) = 0.25200 0.23776
# Poissons Ratio (y) = 0.29882 0.42628
# Poissons Ratio (z) = 0.22795 0.34466
#
# Static dielectric constant tensor:
#      x y z
#    x 3.485940 0.000000 -0.066010 
#    y 0.000000 3.446140 0.000000 
#    z -0.066010 0.000000 3.539600 
# 
# 
# High freq. dielectric constant tensor:
#      x y z
#    x 1.750510 0.000000 -0.005660 
#    y 0.000000 1.752650 0.000000 
#    z -0.005660 0.000000 1.761910 
# 
# From -- ./inp_files/83624.got.cif
#   From: 2010.06.25/outbox.cif.g09.slc.cpg/sg10_42_cif.got.tgz:83624.got - 2010.06.27 22:07:45.
