data_PCOD8061299
_publ_section_title
;
Structure prediction by ZEFSAII (Michael W. Deem and Ramdas Pophale) SiO2 
 PCOD8061299
Probable space group: P 2/M
;
_chemical_formula_sum "Si O2"
_cell_formula_units_Z 32
_cell_length_a 12.020093
_cell_length_b 9.067818
_cell_length_c 19.811534
_cell_angle_alpha 90.000000
_cell_angle_beta 48.680659
_cell_angle_gamma 90.000000
_cell_volume 1621.782259
_symmetry_space_group_name_H-M "P 2/M"
_symmetry_group_IT_number 10
_symmetry_cell_setting 'monoclinic'
loop_
_space_group_symop_operation_xyz
x,y,z
-x,y,-z
-x,-y,-z
x,-y,z
loop_
_atom_site_type_symbol
_atom_site_label
_atom_site_fract_x
_atom_site_fract_y
_atom_site_fract_z
Si Si1 0.485151 0.172474 0.080318
Si Si2 0.974620 0.673491 0.170868
Si Si3 0.402059 0.825918 0.343223
Si Si4 0.364110 0.824252 0.508673
Si Si5 0.759488 0.826063 0.721355
Si Si6 0.265162 0.168815 0.809909
Si Si7 0.956079 0.173255 0.314898
Si Si8 0.199076 0.167585 0.987172
O O1 0.347495 0.241264 0.177390
O O2 0.632573 0.204940 0.062913
O O3 0.455953 0.000000 0.082634
O O4 0.500000 0.245989 0.000000
O O5 0.973069 0.500000 0.178473
O O6 0.812295 0.729933 0.214829
O O7 0.017979 0.744061 0.224740
O O8 0.093043 0.720200 0.067500
O O9 0.376058 0.758381 0.428134
O O10 0.284930 0.762284 0.334935
O O11 0.564874 0.782394 0.251864
O O12 0.383550 0.000000 0.356212
O O13 0.500000 0.763814 0.500000
O O14 0.207641 0.769147 0.601188
O O15 0.369233 0.000000 0.505199
O O16 0.930582 0.789364 0.669285
O O17 0.730698 0.000000 0.730823
O O18 0.180176 0.188133 0.914695
O O19 0.255420 0.000000 0.788710
O O20 0.956022 0.000000 0.299679
O O21 0.158603 0.000000 0.024656
#
# Coordination Sequence:
#
# PCOD8061299 Si02
#       8
#     4   4   4   4   4   4   4   4
#     4   9  15  25  45  74 107 139 174 218 261 305
#     4  12  25  37  51  74 108 146 182 227 278 318
#     4   9  16  29  52  84 117 139 168 223 278 322
#     4   9  17  29  49  80 115 146 175 215 270 322
#     4   9  16  28  49  81 112 138 175 223 271 316
#     4  10  19  34  57  81 107 141 181 221 267 326
#     4  10  20  35  56  80 107 142 183 222 266 321
#     4  10  19  33  54  80 105 138 182 222 267 325
#
# _framework density 19.731377999999999
#
# number of rings (size 3 to 8) (size 9 to 14) (size 15 to 20)
#    0.000    2.250    1.250    3.000    0.000    6.500 
#    0.000    2.500    0.000    7.500    0.000    0.875 
#    0.000    0.000    0.000    0.000    0.000    0.000 
#
# Total GULP energy -396743.126607 kJ/mol
# GULP energy per Si atom -12398.222706 kJ/mol
# Density = 1.968647 g / cm^3
# Si number density = 19.731378 Si / 1000 Ang^3
#
#
#
# Elastic Constant Matrix: (Units=GPa)
#
#
# Indices 1 2 3 4 5 6 
#
# 1 139.4547 29.8104 61.6816 0.0000 7.9555 0.0000
# 2 29.8104 45.3243 22.4895 0.0000 -1.2257 0.0000
# 3 61.6816 22.4895 100.3913 0.0000 2.1688 0.0000
# 4 0.0000 0.0000 0.0000 2.2113 0.0000 1.6155
# 5 7.9555 -1.2257 2.1688 0.0000 35.5274 0.0000
# 6 0.0000 0.0000 0.0000 1.6155 0.0000 3.2533
#
#
#
# Elastic Compliance Matrix: (Units=1/GPa)
#
#
# Indices 1 2 3 4 5 6 
#
# 1 0.010672 -0.004330 -0.005540 0.000000 -0.002201 0.000000
# 2 -0.004330 0.026630 -0.003350 0.000000 0.002093 0.000000
# 3 -0.005540 -0.003350 0.014109 0.000000 0.000264 0.000000
# 4 0.000000 0.000000 0.000000 0.709727 0.000000 -0.352440
# 5 -0.002201 0.002093 0.000264 0.000000 0.028696 0.000000
# 6 0.000000 0.000000 0.000000 -0.352440 0.000000 0.482395
#
#
# Mechanical properties :
#
#
# Convention : Reuss Voigt Hill
#
# Bulk Modulus (GPa) = 40.04526 57.01482 48.53004
# Shear Modulus (GPa) = 3.82557 19.61097 11.71827
#
# Velocity S-wave (km/s) = 1.39393 3.15603 2.43963
# Velocity P-wave (km/s) = 4.78853 6.49915 5.70828
#
# Compressibility (1/GPa) = 0.02497175
#
# Stress axis : x y z
#
# Youngs Moduli (GPa) = 93.70209 37.55136 70.87456
#
# Poissons Ratio (x) = 0.16260 0.39261
# Poissons Ratio (y) = 0.40574 0.23746
# Poissons Ratio (z) = 0.51906 0.12581
#
# Static dielectric constant tensor:
#      x y z
#    x 3.840470 0.000000 0.107050 
#    y 0.000000 2.854340 0.000000 
#    z 0.107050 0.000000 3.699700 
# 
# 
# High freq. dielectric constant tensor:
#      x y z
#    x 1.789750 0.000000 0.003140 
#    y 0.000000 1.684820 0.000000 
#    z 0.003140 0.000000 1.774190 
# 
# From -- ./inp_files/83549.got.cif
#   From: 2010.06.25/outbox.cif.g09.slc.cpg/sg10_42_cif.got.tgz:83549.got - 2010.06.27 22:07:45.
