data_PCOD8061858
_publ_section_title
;
Structure prediction by ZEFSAII (Michael W. Deem and Ramdas Pophale) SiO2 
 PCOD8061858
Probable space group: P 2/M
;
_chemical_formula_sum "Si O2"
_cell_formula_units_Z 32
_cell_length_a 12.911424
_cell_length_b 8.749353
_cell_length_c 31.888122
_cell_angle_alpha 90.000000
_cell_angle_beta 27.185403
_cell_angle_gamma 90.000000
_cell_volume 1645.784321
_symmetry_space_group_name_H-M "P 2/M"
_symmetry_group_IT_number 10
_symmetry_cell_setting 'monoclinic'
loop_
_space_group_symop_operation_xyz
x,y,z
-x,y,-z
-x,-y,-z
x,-y,z
loop_
_atom_site_type_symbol
_atom_site_label
_atom_site_fract_x
_atom_site_fract_y
_atom_site_fract_z
Si Si1 0.152415 0.681380 0.713095
Si Si2 0.248290 0.817871 0.897553
Si Si3 0.093056 0.821162 0.646832
Si Si4 0.419973 0.822124 0.153924
Si Si5 0.558421 0.319569 0.625303
Si Si6 0.563599 0.318119 0.718197
Si Si7 0.048856 0.680182 0.576929
Si Si8 0.671969 0.818381 0.902877
O O1 0.147201 0.500000 0.712114
O O2 0.206756 0.744580 0.646728
O O3 0.347175 0.742980 0.674134
O O4 0.916475 0.740107 0.817606
O O5 0.403825 0.744582 0.878137
O O6 0.338781 0.747247 0.821585
O O7 0.258854 0.000000 0.889587
O O8 0.000000 0.761555 0.000000
O O9 0.168893 0.754066 0.574765
O O10 0.829948 0.779803 0.742028
O O11 0.146003 0.000000 0.629938
O O12 0.454847 0.766490 0.093898
O O13 0.465779 0.000000 0.140066
O O14 0.538553 0.500000 0.634736
O O15 0.557210 0.253362 0.672962
O O16 0.794545 0.271910 0.518638
O O17 0.557058 0.500000 0.720728
O O18 0.793934 0.260341 0.658509
O O19 0.048698 0.500000 0.584021
O O20 0.712794 0.000000 0.889618
O O21 0.500000 0.760000 0.000000
#
# Coordination Sequence:
#
# PCOD8061858 Si02
#       8
#     4   4   4   4   4   4   4   4
#     4  10  20  35  54  77 109 144 183 225 273 327
#     4  10  20  34  53  78 108 143 181 220 274 329
#     4  10  19  34  56  78 108 142 176 225 274 318
#     4   8  15  30  49  70 100 136 169 212 264 312
#     4   9  20  37  55  79 114 149 177 223 282 327
#     4  10  20  36  58  81 108 142 186 230 270 320
#     4  10  19  34  59  84 105 141 190 225 267 333
#     4   9  18  33  54  77 104 141 182 223 272 325
#
# _framework density 19.443617
#
# number of rings (size 3 to 8) (size 9 to 14) (size 15 to 20)
#    0.000    2.500    1.250    1.875    0.000    3.500 
#    0.000    6.875    0.000    1.500    0.000    0.000 
#    0.000    0.000    0.000    0.000    0.000    0.000 
#
# Total GULP energy -396628.204787 kJ/mol
# GULP energy per Si atom -12394.631400 kJ/mol
# Density = 1.939936 g / cm^3
# Si number density = 19.443617 Si / 1000 Ang^3
#
#
#
# Elastic Constant Matrix: (Units=GPa)
#
#
# Indices 1 2 3 4 5 6 
#
# 1 132.1500 27.4811 60.1830 0.0000 12.1406 0.0000
# 2 27.4811 45.1645 25.7784 0.0000 1.7717 0.0000
# 3 60.1830 25.7784 115.5871 0.0000 16.9862 0.0000
# 4 0.0000 0.0000 0.0000 22.7485 0.0000 3.0285
# 5 12.1406 1.7717 16.9862 0.0000 34.4372 0.0000
# 6 0.0000 0.0000 0.0000 3.0285 0.0000 21.3751
#
#
#
# Elastic Compliance Matrix: (Units=1/GPa)
#
#
# Indices 1 2 3 4 5 6 
#
# 1 0.010494 -0.003811 -0.004419 0.000000 -0.001324 0.000000
# 2 -0.003811 0.026837 -0.004308 0.000000 0.002088 0.000000
# 3 -0.004419 -0.004308 0.012562 0.000000 -0.004417 0.000000
# 4 0.000000 0.000000 0.000000 0.044804 0.000000 -0.006348
# 5 -0.001324 0.002088 -0.004417 0.000000 0.031576 0.000000
# 6 0.000000 0.000000 0.000000 -0.006348 0.000000 0.047683
#
#
# Mechanical properties :
#
#
# Convention : Reuss Voigt Hill
#
# Bulk Modulus (GPa) = 40.29499 57.75407 49.02453
# Shear Modulus (GPa) = 24.11907 27.67609 25.89758
#
# Velocity S-wave (km/s) = 3.52584 3.77689 3.65352
# Velocity P-wave (km/s) = 6.11101 6.98482 6.56247
#
# Compressibility (1/GPa) = 0.02481698
#
# Stress axis : x y z
#
# Youngs Moduli (GPa) = 95.29317 37.26215 79.60265
#
# Poissons Ratio (x) = 0.14200 0.35180
# Poissons Ratio (y) = 0.36314 0.34291
# Poissons Ratio (z) = 0.42115 0.16052
#
# Static dielectric constant tensor:
#      x y z
#    x 3.913320 0.000000 0.058540 
#    y 0.000000 3.172060 0.000000 
#    z 0.058540 0.000000 3.544270 
# 
# 
# High freq. dielectric constant tensor:
#      x y z
#    x 1.770210 0.000000 0.007800 
#    y 0.000000 1.724720 0.000000 
#    z 0.007800 0.000000 1.756560 
# 
# From -- ./inp_files/94997.got.cif
#   From: 2010.06.25/outbox.cif.g09.slc.cpg/sg10_48_cif.got.tgz:94997.got - 2010.06.27 22:07:45.
