data_PCOD8061256
_publ_section_title
;
Structure prediction by ZEFSAII (Michael W. Deem and Ramdas Pophale) SiO2 
 PCOD8061256
Probable space group: P 2/M
;
_chemical_formula_sum "Si O2"
_cell_formula_units_Z 32
_cell_length_a 21.377906
_cell_length_b 8.455485
_cell_length_c 12.223497
_cell_angle_alpha 90.000000
_cell_angle_beta 128.397323
_cell_angle_gamma 90.000000
_cell_volume 1731.655353
_symmetry_space_group_name_H-M "P 2/M"
_symmetry_group_IT_number 10
_symmetry_cell_setting 'monoclinic'
loop_
_space_group_symop_operation_xyz
x,y,z
-x,y,-z
-x,-y,-z
x,-y,z
loop_
_atom_site_type_symbol
_atom_site_label
_atom_site_fract_x
_atom_site_fract_y
_atom_site_fract_z
Si Si1 0.774047 0.182650 0.139460
Si Si2 0.400290 0.814915 0.976135
Si Si3 0.955884 0.312903 0.729884
Si Si4 0.440295 0.685134 0.787174
Si Si5 0.868841 0.314749 0.045830
Si Si6 0.711839 0.815220 0.467642
Si Si7 0.826030 0.687628 0.761181
Si Si8 0.830373 0.685182 0.421633
O O1 0.806332 0.281118 0.072836
O O2 0.824567 0.220300 0.302649
O O3 0.783529 0.000000 0.121483
O O4 0.681943 0.231108 0.054414
O O5 0.473379 0.767562 0.134749
O O6 0.403042 0.000000 0.949562
O O7 0.406802 0.715816 0.872174
O O8 0.961357 0.500000 0.734213
O O9 0.904743 0.259526 0.779659
O O10 0.911385 0.257599 0.570446
O O11 0.044474 0.237944 0.832496
O O12 0.448693 0.500000 0.774957
O O13 0.380474 0.761800 0.633705
O O14 0.880639 0.500000 0.044516
O O15 0.835776 0.248018 0.895006
O O16 0.748548 0.771464 0.625200
O O17 0.755815 0.720248 0.418966
O O18 0.719782 0.000000 0.452330
O O19 0.813332 0.500000 0.740831
O O20 0.831880 0.500000 0.396601
#
# Coordination Sequence:
#
# PCOD8061256 Si02
#       8
#     4   4   4   4   4   4   4   4
#     4  11  23  36  51  73 110 148 177 211 259 320
#     4  10  20  34  51  74 108 144 173 210 261 316
#     4   8  16  32  55  81 103 130 173 228 274 309
#     4  11  20  31  53  82 108 134 172 217 257 308
#     4  10  20  35  56  77 102 139 183 224 264 311
#     4  11  20  32  52  79 111 141 169 211 268 320
#     4   9  18  34  56  80 103 134 179 227 267 308
#     4  10  19  33  54  77 104 137 179 221 262 312
#
# _framework density 18.479427000000001
#
# number of rings (size 3 to 8) (size 9 to 14) (size 15 to 20)
#    0.000    2.000    1.250    5.250    0.000    4.000 
#    0.000    5.625    0.000    4.500    0.000    5.250 
#    0.000    0.000    0.000    0.000    0.000    0.000 
#
# Total GULP energy -396822.686427 kJ/mol
# GULP energy per Si atom -12400.708951 kJ/mol
# Density = 1.843737 g / cm^3
# Si number density = 18.479427 Si / 1000 Ang^3
#
#
#
# Elastic Constant Matrix: (Units=GPa)
#
#
# Indices 1 2 3 4 5 6 
#
# 1 86.6767 6.6076 73.6612 0.0000 4.7583 0.0000
# 2 6.6076 32.3485 16.5023 0.0000 9.0385 0.0000
# 3 73.6612 16.5023 144.9696 0.0000 14.6301 0.0000
# 4 0.0000 0.0000 0.0000 15.2298 0.0000 2.6210
# 5 4.7583 9.0385 14.6301 0.0000 27.5369 0.0000
# 6 0.0000 0.0000 0.0000 2.6210 0.0000 15.0592
#
#
#
# Elastic Compliance Matrix: (Units=1/GPa)
#
#
# Indices 1 2 3 4 5 6 
#
# 1 0.020434 0.000735 -0.010657 0.000000 0.001890 0.000000
# 2 0.000735 0.035258 -0.003388 0.000000 -0.009900 0.000000
# 3 -0.010657 -0.003388 0.013103 0.000000 -0.004008 0.000000
# 4 0.000000 0.000000 0.000000 0.067688 0.000000 -0.011781
# 5 0.001890 -0.009900 -0.004008 0.000000 0.041367 0.000000
# 6 0.000000 0.000000 0.000000 -0.011781 0.000000 0.068455
#
#
# Mechanical properties :
#
#
# Convention : Reuss Voigt Hill
#
# Bulk Modulus (GPa) = 23.71099 50.83746 37.27422
# Shear Modulus (GPa) = 17.42252 22.71342 20.06797
#
# Velocity S-wave (km/s) = 3.07385 3.50968 3.29897
# Velocity P-wave (km/s) = 5.04549 6.63279 5.89283
#
# Compressibility (1/GPa) = 0.04217454
#
# Stress axis : x y z
#
# Youngs Moduli (GPa) = 48.93704 28.36266 76.31664
#
# Poissons Ratio (x) = -0.02084 0.81334
# Poissons Ratio (y) = -0.03596 0.25854
# Poissons Ratio (z) = 0.52154 0.09609
#
# Static dielectric constant tensor:
#      x y z
#    x 3.213750 0.000000 0.291210 
#    y 0.000000 3.238050 0.000000 
#    z 0.291210 0.000000 3.777210 
# 
# 
# High freq. dielectric constant tensor:
#      x y z
#    x 1.686440 0.000000 0.019570 
#    y 0.000000 1.708600 0.000000 
#    z 0.019570 0.000000 1.726730 
# 
# From -- ./inp_files/55399.got.cif
#   From: 2010.06.25/outbox.cif.g09.slc.cpg/sg10_28_cif.got.tgz:55399.got - 2010.06.27 22:07:45.
