data_PCOD8061830
_publ_section_title
;
Structure prediction by ZEFSAII (Michael W. Deem and Ramdas Pophale) SiO2 
 PCOD8061830
Probable space group: P 2/M
;
_chemical_formula_sum "Si O2"
_cell_formula_units_Z 28
_cell_length_a 14.573906
_cell_length_b 9.467458
_cell_length_c 20.974110
_cell_angle_alpha 90.000000
_cell_angle_beta 30.000532
_cell_angle_gamma 90.000000
_cell_volume 1447.004499
_symmetry_space_group_name_H-M "P 2/M"
_symmetry_group_IT_number 10
_symmetry_cell_setting 'monoclinic'
loop_
_space_group_symop_operation_xyz
x,y,z
-x,y,-z
-x,-y,-z
x,-y,z
loop_
_atom_site_type_symbol
_atom_site_label
_atom_site_fract_x
_atom_site_fract_y
_atom_site_fract_z
Si Si1 0.586393 0.161389 0.266392
Si Si2 0.688165 0.163147 0.067545
Si Si3 0.563150 0.831853 0.891868
Si Si4 0.747874 0.660096 0.497453
Si Si5 0.286933 0.656094 0.625505
Si Si6 0.039190 0.833523 0.402246
Si Si7 0.086741 0.834921 0.845204
O O1 0.561231 0.180063 0.205973
O O2 0.453675 0.271984 0.379390
O O3 0.796486 0.197297 0.160966
O O4 0.538406 0.000000 0.315398
O O5 0.585456 0.231876 0.068684
O O6 0.718497 0.000000 0.033303
O O7 0.884142 0.235381 0.965935
O O8 0.763320 0.783119 0.745070
O O9 0.560727 0.000000 0.893595
O O10 0.500000 0.775053 0.000000
O O11 0.742583 0.500000 0.527478
O O12 0.801669 0.660213 0.391259
O O13 0.888048 0.752925 0.452783
O O14 0.500000 0.691322 0.500000
O O15 0.253024 0.500000 0.675547
O O16 0.191191 0.778398 0.721535
O O17 0.000000 0.795316 0.500000
O O18 0.013839 0.000000 0.407133
O O19 0.062936 0.000000 0.851522
#
# Coordination Sequence:
#
# PCOD8061830 Si02
#       7
#     4   4   4   4   4   4   4
#     4  10  19  34  55  82 114 145 179 225 278 333
#     4   9  18  33  53  79 113 144 174 222 282 332
#     4   9  18  32  52  80 111 143 181 225 276 335
#     4  11  23  37  57  82 111 150 190 230 277 328
#     4  10  21  38  54  73 111 154 187 226 278 331
#     4  10  21  38  61  87 113 145 186 236 291 340
#     4  10  20  32  55  85 109 139 184 230 273 327
#
# _framework density 19.350321000000001
#
# number of rings (size 3 to 8) (size 9 to 14) (size 15 to 20)
#    0.000    2.143    1.429    1.714    2.000    5.714 
#    0.000    0.714    0.000    3.000    0.000    0.000 
#    0.000    0.000    0.000    0.000    0.000    0.000 
#
# Total GULP energy -346991.959037 kJ/mol
# GULP energy per Si atom -12392.569966 kJ/mol
# Density = 1.930628 g / cm^3
# Si number density = 19.350321 Si / 1000 Ang^3
#
#
#
# Elastic Constant Matrix: (Units=GPa)
#
#
# Indices 1 2 3 4 5 6 
#
# 1 123.7731 35.3635 45.5638 0.0000 -0.1493 0.0000
# 2 35.3635 22.3360 14.1909 0.0000 -7.7332 0.0000
# 3 45.5638 14.1909 78.7617 0.0000 -2.3150 0.0000
# 4 0.0000 0.0000 0.0000 -13.5986 0.0000 -5.7524
# 5 -0.1493 -7.7332 -2.3150 0.0000 30.7572 0.0000
# 6 0.0000 0.0000 0.0000 -5.7524 0.0000 16.4625
#
#
#
# Elastic Compliance Matrix: (Units=1/GPa)
#
#
# Indices 1 2 3 4 5 6 
#
# 1 0.017977 -0.027350 -0.005684 0.000000 -0.007217 0.000000
# 2 -0.027350 0.097057 -0.000954 0.000000 0.024198 0.000000
# 3 -0.005684 -0.000954 0.016185 0.000000 0.000951 0.000000
# 4 0.000000 0.000000 0.000000 -0.064067 0.000000 -0.022387
# 5 -0.007217 0.024198 0.000951 0.000000 0.038633 0.000000
# 6 0.000000 0.000000 0.000000 -0.022387 0.000000 0.052922
#
#
# Mechanical properties :
#
#
# Convention : Reuss Voigt Hill
#
# Bulk Modulus (GPa) = 15.81213 46.12302 30.96758
# Shear Modulus (GPa) = 20.18045 15.37438 17.77741
#
# Velocity S-wave (km/s) = 3.23290 2.82180 3.03432
# Velocity P-wave (km/s) = 4.70370 5.87403 5.32114
#
# Compressibility (1/GPa) = 0.06324258
#
# Stress axis : x y z
#
# Youngs Moduli (GPa) = 55.62553 10.30322 61.78676
#
# Poissons Ratio (x) = 0.28179 0.35121
# Poissons Ratio (y) = 1.52136 0.05894
# Poissons Ratio (z) = 0.31619 0.00983
#
# Static dielectric constant tensor:
#      x y z
#    x 3.799760 0.000000 -0.079320 
#    y 0.000000 3.210550 0.000000 
#    z -0.079320 0.000000 3.656720 
# 
# 
# High freq. dielectric constant tensor:
#      x y z
#    x 1.771330 0.000000 -0.003440 
#    y 0.000000 1.710250 0.000000 
#    z -0.003440 0.000000 1.752090 
# 
# From -- ./inp_files/49182.got.cif
#   From: 2010.06.25/outbox.cif.g09.slc.cpg/sg10_25_cif.got.tgz:49182.got - 2010.06.27 22:07:45.
