data_PCOD8061912
_publ_section_title
;
Structure prediction by ZEFSAII (Michael W. Deem and Ramdas Pophale) SiO2 
 PCOD8061912
Probable space group: P 2/M
;
_chemical_formula_sum "Si O2"
_cell_formula_units_Z 32
_cell_length_a 25.751419
_cell_length_b 8.723454
_cell_length_c 14.817318
_cell_angle_alpha 90.000000
_cell_angle_beta 30.480479
_cell_angle_gamma 90.000000
_cell_volume 1688.405745
_symmetry_space_group_name_H-M "P 2/M"
_symmetry_group_IT_number 10
_symmetry_cell_setting 'monoclinic'
loop_
_space_group_symop_operation_xyz
x,y,z
-x,y,-z
-x,-y,-z
x,-y,z
loop_
_atom_site_type_symbol
_atom_site_label
_atom_site_fract_x
_atom_site_fract_y
_atom_site_fract_z
Si Si1 0.344152 0.181535 0.484272
Si Si2 0.724559 0.318359 0.771607
Si Si3 0.000345 0.181865 0.101362
Si Si4 0.217380 0.818104 0.502844
Si Si5 0.888011 0.319193 0.667194
Si Si6 0.781843 0.181942 0.155331
Si Si7 0.576188 0.818041 0.134058
Si Si8 0.275585 0.680702 0.946082
O O1 0.284442 0.241577 0.486038
O O2 0.285558 0.241601 0.660271
O O3 0.459888 0.242458 0.310481
O O4 0.341545 0.000000 0.488250
O O5 0.713525 0.500000 0.791467
O O6 0.733012 0.261058 0.657692
O O7 0.825307 0.260734 0.674291
O O8 0.625820 0.247476 0.968386
O O9 0.899744 0.237097 0.306271
O O10 0.000505 0.000000 0.093250
O O11 0.000000 0.249759 0.000000
O O12 0.101137 0.237466 0.004211
O O13 0.223052 0.000000 0.482630
O O14 0.899439 0.500000 0.644035
O O15 0.000000 0.240681 0.500000
O O16 0.829050 0.271908 0.846440
O O17 0.732268 0.260744 0.143218
O O18 0.776522 0.000000 0.151595
O O19 0.629517 0.758378 0.145166
O O20 0.582361 0.000000 0.122498
O O21 0.293322 0.500000 0.922002
#
# Coordination Sequence:
#
# PCOD8061912 Si02
#       8
#     4   4   4   4   4   4   4   4
#     4   9  19  35  58  82 105 142 187 227 267 316
#     4  10  21  36  54  79 111 144 178 220 275 326
#     4   9  16  30  55  82 111 144 177 225 274 310
#     4  10  19  34  56  83 112 143 182 222 267 322
#     4   8  16  32  51  69  96 137 177 210 253 314
#     4  10  19  34  56  83 112 143 182 222 267 322
#     4  10  20  38  60  79 103 139 186 234 271 312
#     4  10  21  36  54  79 111 144 178 220 275 326
#
# _framework density 18.95279
#
# number of rings (size 3 to 8) (size 9 to 14) (size 15 to 20)
#    0.000    2.500    1.250    1.875    1.750    1.000 
#    0.000    8.125    0.000    3.000    0.000    0.000 
#    0.000    0.000    0.000    0.000    0.000    0.000 
#
# Total GULP energy -396768.267478 kJ/mol
# GULP energy per Si atom -12399.008359 kJ/mol
# Density = 1.890965 g / cm^3
# Si number density = 18.952790 Si / 1000 Ang^3
#
#
#
# Elastic Constant Matrix: (Units=GPa)
#
#
# Indices 1 2 3 4 5 6 
#
# 1 122.8445 33.4595 106.8759 0.0000 15.6369 0.0000
# 2 33.4595 47.8118 35.1586 0.0000 -0.2350 0.0000
# 3 106.8759 35.1586 159.6188 0.0000 -13.1640 0.0000
# 4 0.0000 0.0000 0.0000 13.9592 0.0000 -2.3371
# 5 15.6369 -0.2350 -13.1640 0.0000 38.5449 0.0000
# 6 0.0000 0.0000 0.0000 -2.3371 0.0000 10.6531
#
#
#
# Elastic Compliance Matrix: (Units=1/GPa)
#
#
# Indices 1 2 3 4 5 6 
#
# 1 0.029721 -0.006096 -0.020122 0.000000 -0.018967 0.000000
# 2 -0.006096 0.026327 -0.001544 0.000000 0.002106 0.000000
# 3 -0.020122 -0.001544 0.021352 0.000000 0.015446 0.000000
# 4 0.000000 0.000000 0.000000 0.074369 0.000000 0.016315
# 5 -0.018967 0.002106 0.015446 0.000000 0.038926 0.000000
# 6 0.000000 0.000000 0.000000 0.016315 0.000000 0.097448
#
#
# Mechanical properties :
#
#
# Convention : Reuss Voigt Hill
#
# Bulk Modulus (GPa) = 45.71004 75.69590 60.70297
# Shear Modulus (GPa) = 14.24670 22.95020 18.59845
#
# Velocity S-wave (km/s) = 2.74468 3.48359 3.13598
# Velocity P-wave (km/s) = 5.84932 7.49710 6.72388
#
# Compressibility (1/GPa) = 0.02187703
#
# Stress axis : x y z
#
# Youngs Moduli (GPa) = 33.64588 37.98417 46.83440
#
# Poissons Ratio (x) = 0.23155 0.94240
# Poissons Ratio (y) = 0.20510 0.07229
# Poissons Ratio (z) = 0.67702 0.05863
#
# Static dielectric constant tensor:
#      x y z
#    x 3.625320 0.000000 -0.134450 
#    y 0.000000 3.074870 0.000000 
#    z -0.134450 0.000000 3.731240 
# 
# 
# High freq. dielectric constant tensor:
#      x y z
#    x 1.744410 0.000000 -0.001120 
#    y 0.000000 1.701710 0.000000 
#    z -0.001120 0.000000 1.746150 
# 
# From -- ./inp_files/72177.got.cif
#   From: 2010.06.25/outbox.cif.g09.slc.cpg/sg10_37_cif.got.tgz:72177.got - 2010.06.27 22:07:45.
