data_PCOD8061806
_publ_section_title
;
Structure prediction by ZEFSAII (Michael W. Deem and Ramdas Pophale) SiO2 
 PCOD8061806
Probable space group: P 2/M
;
_chemical_formula_sum "Si O2"
_cell_formula_units_Z 32
_cell_length_a 30.147701
_cell_length_b 9.285668
_cell_length_c 12.991996
_cell_angle_alpha 90.000000
_cell_angle_beta 152.306246
_cell_angle_gamma 90.000000
_cell_volume 1690.279189
_symmetry_space_group_name_H-M "P 2/M"
_symmetry_group_IT_number 10
_symmetry_cell_setting 'monoclinic'
loop_
_space_group_symop_operation_xyz
x,y,z
-x,y,-z
-x,-y,-z
x,-y,z
loop_
_atom_site_type_symbol
_atom_site_label
_atom_site_fract_x
_atom_site_fract_y
_atom_site_fract_z
Si Si1 0.891887 0.167663 0.974226
Si Si2 0.239648 0.832980 0.872827
Si Si3 0.566390 0.663920 0.727452
Si Si4 0.113977 0.832294 0.423082
Si Si5 0.403333 0.669056 0.755628
Si Si6 0.394681 0.336172 0.511831
Si Si7 0.769968 0.166382 0.918050
Si Si8 0.801811 0.669668 0.597772
O O1 0.003218 0.201084 0.209403
O O2 0.872664 0.000000 0.910438
O O3 0.848078 0.214679 0.994384
O O4 0.846191 0.263031 0.791336
O O5 0.165090 0.782056 0.633085
O O6 0.262571 0.000000 0.906931
O O7 0.338690 0.752789 0.060225
O O8 0.193551 0.801669 0.890741
O O9 0.500000 0.727053 0.500000
O O10 0.595179 0.500000 0.759626
O O11 0.505295 0.672814 0.706638
O O12 0.152818 0.739424 0.409049
O O13 0.132073 0.000000 0.436222
O O14 0.420493 0.500000 0.776510
O O15 0.384552 0.734657 0.603919
O O16 0.311906 0.701035 0.639161
O O17 0.500000 0.739633 0.000000
O O18 0.358013 0.500000 0.435655
O O19 0.328824 0.250591 0.297327
O O20 0.745939 0.000000 0.854288
O O21 0.823096 0.500000 0.642277
#
# Coordination Sequence:
#
# PCOD8061806 Si02
#       8
#     4   4   4   4   4   4   4   4
#     4  10  21  39  62  83 109 147 189 234 285 341
#     4  10  22  38  56  82 116 150 188 236 283 329
#     4  10  20  33  54  81 109 147 190 225 267 333
#     4  10  23  41  58  80 114 153 187 229 288 341
#     4   9  19  34  53  80 112 145 179 220 274 328
#     4  10  19  34  55  79 110 148 186 226 273 333
#     4  10  20  35  58  85 111 144 189 237 279 327
#     4  11  22  37  62  89 113 144 187 236 278 332
#
# _framework density 18.931784
#
# number of rings (size 3 to 8) (size 9 to 14) (size 15 to 20)
#    0.000    2.000    2.500    0.750    1.750    3.750 
#    0.000    2.500    0.000    1.875    0.000    3.500 
#    0.000    0.000    0.000    0.000    0.000    0.000 
#
# Total GULP energy -396797.220083 kJ/mol
# GULP energy per Si atom -12399.913128 kJ/mol
# Density = 1.888869 g / cm^3
# Si number density = 18.931784 Si / 1000 Ang^3
#
#
#
# Elastic Constant Matrix: (Units=GPa)
#
#
# Indices 1 2 3 4 5 6 
#
# 1 142.0509 52.2069 64.9500 0.0000 -2.6641 0.0000
# 2 52.2069 55.9312 50.0007 0.0000 0.8692 0.0000
# 3 64.9500 50.0007 127.0939 0.0000 6.7521 0.0000
# 4 0.0000 0.0000 0.0000 22.9731 0.0000 3.8408
# 5 -2.6641 0.8692 6.7521 0.0000 28.8069 0.0000
# 6 0.0000 0.0000 0.0000 3.8408 0.0000 23.1920
#
#
#
# Elastic Compliance Matrix: (Units=1/GPa)
#
#
# Indices 1 2 3 4 5 6 
#
# 1 0.011305 -0.008216 -0.002647 0.000000 0.001914 0.000000
# 2 -0.008216 0.033635 -0.009052 0.000000 0.000347 0.000000
# 3 -0.002647 -0.009052 0.012942 0.000000 -0.003005 0.000000
# 4 0.000000 0.000000 0.000000 0.044769 0.000000 -0.007414
# 5 0.001914 0.000347 -0.003005 0.000000 0.035585 0.000000
# 6 0.000000 0.000000 0.000000 -0.007414 0.000000 0.044346
#
#
# Mechanical properties :
#
#
# Convention : Reuss Voigt Hill
#
# Bulk Modulus (GPa) = 55.39580 73.26567 64.33074
# Shear Modulus (GPa) = 21.88853 25.52230 23.70541
#
# Velocity S-wave (km/s) = 3.40395 3.67566 3.54241
# Velocity P-wave (km/s) = 6.69130 7.53643 7.12640
#
# Compressibility (1/GPa) = 0.01805191
#
# Stress axis : x y z
#
# Youngs Moduli (GPa) = 88.45256 29.73068 77.26914
#
# Poissons Ratio (x) = 0.24427 0.20452
# Poissons Ratio (y) = 0.72675 0.69946
# Poissons Ratio (z) = 0.23412 0.26913
#
# Static dielectric constant tensor:
#      x y z
#    x 3.709840 0.000000 -0.106930 
#    y 0.000000 3.309940 0.000000 
#    z -0.106930 0.000000 3.533580 
# 
# 
# High freq. dielectric constant tensor:
#      x y z
#    x 1.752640 0.000000 -0.003170 
#    y 0.000000 1.715730 0.000000 
#    z -0.003170 0.000000 1.733650 
# 
# From -- ./inp_files/58296.got.cif
#   From: 2010.06.25/outbox.cif.g09.slc.cpg/sg10_30_cif.got.tgz:58296.got - 2010.06.27 22:07:45.
