data_PCOD8061816
_publ_section_title
;
Structure prediction by ZEFSAII (Michael W. Deem and Ramdas Pophale) SiO2 
 PCOD8061816
Probable space group: P 2/M
;
_chemical_formula_sum "Si O2"
_cell_formula_units_Z 28
_cell_length_a 19.177465
_cell_length_b 8.863564
_cell_length_c 13.879454
_cell_angle_alpha 90.000000
_cell_angle_beta 35.406066
_cell_angle_gamma 90.000000
_cell_volume 1366.866410
_symmetry_space_group_name_H-M "P 2/M"
_symmetry_group_IT_number 10
_symmetry_cell_setting 'monoclinic'
loop_
_space_group_symop_operation_xyz
x,y,z
-x,y,-z
-x,-y,-z
x,-y,z
loop_
_atom_site_type_symbol
_atom_site_label
_atom_site_fract_x
_atom_site_fract_y
_atom_site_fract_z
Si Si1 0.392770 0.172720 0.879671
Si Si2 0.581673 0.829809 0.814817
Si Si3 0.372705 0.819920 0.688738
Si Si4 0.026841 0.329990 0.224935
Si Si5 0.148482 0.172405 0.258251
Si Si6 0.819345 0.329645 0.585992
Si Si7 0.107220 0.823073 0.946774
O O1 0.511481 0.232948 0.799609
O O2 0.367590 0.248826 0.803610
O O3 0.414200 0.000000 0.830299
O O4 0.288120 0.191346 0.075440
O O5 0.683660 0.709399 0.716670
O O6 0.631557 0.000000 0.740444
O O7 0.500000 0.834101 0.000000
O O8 0.500000 0.761670 0.500000
O O9 0.247467 0.764892 0.775155
O O10 0.370068 0.000000 0.690306
O O11 0.061330 0.500000 0.153930
O O12 0.885421 0.314203 0.407847
O O13 0.083178 0.291322 0.264249
O O14 0.069280 0.210972 0.098494
O O15 0.125915 0.217279 0.394757
O O16 0.105246 0.000000 0.290942
O O17 0.828169 0.500000 0.615698
O O18 0.106678 0.000000 0.930287
O O19 0.000000 0.750467 0.000000
#
# Coordination Sequence:
#
# PCOD8061816 Si02
#       7
#     4   4   4   4   4   4   4
#     4   9  17  31  54  82 111 144 183 232 285 342
#     4  10  19  34  55  80 110 148 195 240 285 340
#     4   9  17  32  56  86 117 145 179 237 306 355
#     4  11  24  40  57  82 119 160 197 237 293 357
#     4  11  20  36  61  86 113 149 197 247 291 339
#     4  11  24  38  53  82 122 159 197 239 289 354
#     4  10  21  38  63  93 117 146 199 254 296 352
#
# _framework density 20.484811000000001
#
# number of rings (size 3 to 8) (size 9 to 14) (size 15 to 20)
#    0.000    1.857    2.857    1.714    0.000    5.714 
#    0.000    2.857    0.000    0.429    0.000    0.000 
#    0.000    0.000    0.000    0.000    0.000    0.000 
#
# Total GULP energy -346890.079063 kJ/mol
# GULP energy per Si atom -12388.931395 kJ/mol
# Density = 2.043819 g / cm^3
# Si number density = 20.484811 Si / 1000 Ang^3
#
#
#
# Elastic Constant Matrix: (Units=GPa)
#
#
# Indices 1 2 3 4 5 6 
#
# 1 104.9312 3.4950 39.4539 0.0000 -13.0737 0.0000
# 2 3.4950 32.4137 16.3158 0.0000 -6.3011 0.0000
# 3 39.4539 16.3158 86.5912 0.0000 -6.1198 0.0000
# 4 0.0000 0.0000 0.0000 21.9510 0.0000 -2.3906
# 5 -13.0737 -6.3011 -6.1198 0.0000 27.3214 0.0000
# 6 0.0000 0.0000 0.0000 -2.3906 0.0000 19.9849
#
#
#
# Elastic Compliance Matrix: (Units=1/GPa)
#
#
# Indices 1 2 3 4 5 6 
#
# 1 0.012227 0.002548 -0.005686 0.000000 0.005165 0.000000
# 2 0.002548 0.035800 -0.007353 0.000000 0.007828 0.000000
# 3 -0.005686 -0.007353 0.015457 0.000000 -0.000954 0.000000
# 4 0.000000 0.000000 0.000000 0.046157 0.000000 0.005521
# 5 0.005165 0.007828 -0.000954 0.000000 0.040664 0.000000
# 6 0.000000 0.000000 0.000000 0.005521 0.000000 0.050698
#
#
# Mechanical properties :
#
#
# Convention : Reuss Voigt Hill
#
# Bulk Modulus (GPa) = 23.52891 38.05172 30.79032
# Shear Modulus (GPa) = 21.17277 24.82957 23.00117
#
# Velocity S-wave (km/s) = 3.21843 3.48529 3.35452
# Velocity P-wave (km/s) = 5.03210 5.90019 5.48335
#
# Compressibility (1/GPa) = 0.04250091
#
# Stress axis : x y z
#
# Youngs Moduli (GPa) = 81.78933 27.93334 64.69467
#
# Poissons Ratio (x) = -0.07117 0.36785
# Poissons Ratio (y) = -0.20837 0.47570
# Poissons Ratio (z) = 0.46504 0.20539
#
# Static dielectric constant tensor:
#      x y z
#    x 4.155410 0.000000 -0.287780 
#    y 0.000000 3.319010 0.000000 
#    z -0.287780 0.000000 4.041780 
# 
# 
# High freq. dielectric constant tensor:
#      x y z
#    x 1.802890 0.000000 -0.013190 
#    y 0.000000 1.758910 0.000000 
#    z -0.013190 0.000000 1.805700 
# 
# From -- ./inp_files/70204.got.cif
#   From: 2010.06.25/outbox.cif.g09.slc.cpg/sg10_36_cif.got.tgz:70204.got - 2010.06.27 22:07:45.
