data_PCOD8061011
_publ_section_title
;
Structure prediction by ZEFSAII (Michael W. Deem and Ramdas Pophale) SiO2 
 PCOD8061011
Probable space group: P 2/M
;
_chemical_formula_sum "Si O2"
_cell_formula_units_Z 32
_cell_length_a 10.999138
_cell_length_b 9.006669
_cell_length_c 16.363027
_cell_angle_alpha 90.000000
_cell_angle_beta 87.819450
_cell_angle_gamma 90.000000
_cell_volume 1619.839218
_symmetry_space_group_name_H-M "P 2/M"
_symmetry_group_IT_number 10
_symmetry_cell_setting 'monoclinic'
loop_
_space_group_symop_operation_xyz
x,y,z
-x,y,-z
-x,-y,-z
x,-y,z
loop_
_atom_site_type_symbol
_atom_site_label
_atom_site_fract_x
_atom_site_fract_y
_atom_site_fract_z
Si Si1 0.951910 0.830800 0.852289
Si Si2 0.623341 0.676689 0.452597
Si Si3 0.266579 0.173580 0.036175
Si Si4 0.623888 0.675131 0.265673
Si Si5 0.130669 0.325652 0.467892
Si Si6 0.397435 0.825772 0.192605
Si Si7 0.828261 0.673936 0.720044
Si Si8 0.228504 0.830795 0.862283
O O1 0.085815 0.823703 0.884559
O O2 0.858739 0.764170 0.921686
O O3 0.941400 0.731512 0.770784
O O4 0.913865 0.000000 0.831087
O O5 0.500000 0.737301 0.500000
O O6 0.623807 0.500000 0.458810
O O7 0.620332 0.731373 0.358919
O O8 0.748989 0.739915 0.489133
O O9 0.375465 0.208806 0.096727
O O10 0.249078 0.000000 0.022940
O O11 0.290818 0.236008 0.943862
O O12 0.610314 0.500000 0.263310
O O13 0.521741 0.750228 0.213522
O O14 0.746413 0.728292 0.217326
O O15 0.128284 0.500000 0.485070
O O16 0.143115 0.286019 0.373353
O O17 0.000000 0.257379 0.500000
O O18 0.292886 0.759218 0.251591
O O19 0.404451 0.000000 0.208376
O O20 0.807346 0.500000 0.732938
O O21 0.270568 0.000000 0.842495
#
# Coordination Sequence:
#
# PCOD8061011 Si02
#       8
#     4   4   4   4   4   4   4   4
#     4   9  18  33  55  80 109 146 185 223 265 321
#     4   9  18  34  55  77 105 143 186 229 271 325
#     4   8  16  33  57  80 100 139 193 229 254 309
#     4  11  23  36  55  82 111 139 176 227 282 330
#     4   9  18  31  51  80 110 143 185 229 270 324
#     4  10  20  37  59  79 105 140 184 226 268 324
#     4  10  19  32  56  84 109 137 178 228 276 322
#     4  10  20  35  55  78 109 146 185 225 267 320
#
# _framework density 19.755047000000001
#
# number of rings (size 3 to 8) (size 9 to 14) (size 15 to 20)
#    0.000    2.500    0.000    3.000    1.750    4.500 
#    0.000    5.625    0.000   13.500    0.000    0.000 
#    0.000    0.000    0.000    0.000    0.000    0.000 
#
# Total GULP energy -396616.088920 kJ/mol
# GULP energy per Si atom -12394.252779 kJ/mol
# Density = 1.971008 g / cm^3
# Si number density = 19.755047 Si / 1000 Ang^3
#
#
#
# Elastic Constant Matrix: (Units=GPa)
#
#
# Indices 1 2 3 4 5 6 
#
# 1 89.3680 12.2816 47.0765 0.0000 5.2344 0.0000
# 2 12.2816 44.0601 37.9868 0.0000 0.3375 0.0000
# 3 47.0765 37.9868 152.0505 0.0000 1.6653 0.0000
# 4 0.0000 0.0000 0.0000 16.2961 0.0000 -3.8795
# 5 5.2344 0.3375 1.6653 0.0000 25.0755 0.0000
# 6 0.0000 0.0000 0.0000 -3.8795 0.0000 22.8901
#
#
#
# Elastic Compliance Matrix: (Units=1/GPa)
#
#
# Indices 1 2 3 4 5 6 
#
# 1 0.013533 -0.000210 -0.004110 0.000000 -0.002549 0.000000
# 2 -0.000210 0.028930 -0.007164 0.000000 0.000130 0.000000
# 3 -0.004110 -0.007164 0.009636 0.000000 0.000314 0.000000
# 4 0.000000 0.000000 0.000000 0.063944 0.000000 0.010838
# 5 -0.002549 0.000130 0.000314 0.000000 0.040389 0.000000
# 6 0.000000 0.000000 0.000000 0.010838 0.000000 0.045524
#
#
# Mechanical properties :
#
#
# Convention : Reuss Voigt Hill
#
# Bulk Modulus (GPa) = 34.32671 53.35204 43.83938
# Shear Modulus (GPa) = 21.30987 25.39458 23.35223
#
# Velocity S-wave (km/s) = 3.28793 3.58924 3.44188
# Velocity P-wave (km/s) = 5.64162 6.65149 6.16726
#
# Compressibility (1/GPa) = 0.02913183
#
# Stress axis : x y z
#
# Youngs Moduli (GPa) = 73.89566 34.56570 103.78256
#
# Poissons Ratio (x) = 0.00724 0.42650
# Poissons Ratio (y) = 0.01548 0.74352
# Poissons Ratio (z) = 0.30368 0.24764
#
# Static dielectric constant tensor:
#      x y z
#    x 3.836190 0.000000 0.016510 
#    y 0.000000 3.243990 0.000000 
#    z 0.016510 0.000000 3.800640 
# 
# 
# High freq. dielectric constant tensor:
#      x y z
#    x 1.777100 0.000000 0.003150 
#    y 0.000000 1.725070 0.000000 
#    z 0.003150 0.000000 1.782550 
# 
# From -- ./inp_files/63805.got.cif
#   From: 2010.06.25/outbox.cif.g09.slc.cpg/sg10_32_cif.got.tgz:63805.got - 2010.06.27 22:07:45.
