data_PCOD8061644
_publ_section_title
;
Structure prediction by ZEFSAII (Michael W. Deem and Ramdas Pophale) SiO2 
 PCOD8061644
Probable space group: P 2/M
;
_chemical_formula_sum "Si O2"
_cell_formula_units_Z 22
_cell_length_a 12.401809
_cell_length_b 14.029430
_cell_length_c 16.076359
_cell_angle_alpha 90.000000
_cell_angle_beta 155.721965
_cell_angle_gamma 90.000000
_cell_volume 1150.082055
_symmetry_space_group_name_H-M "P 2/M"
_symmetry_group_IT_number 10
_symmetry_cell_setting 'monoclinic'
loop_
_space_group_symop_operation_xyz
x,y,z
-x,y,-z
-x,-y,-z
x,-y,z
loop_
_atom_site_type_symbol
_atom_site_label
_atom_site_fract_x
_atom_site_fract_y
_atom_site_fract_z
Si Si1 0.558160 0.392628 0.796493
Si Si2 0.761708 0.893943 0.236119
Si Si3 0.459155 0.893190 0.187826
Si Si4 0.000000 0.330234 0.000000
Si Si5 0.944473 0.747347 0.130648
Si Si6 0.795670 0.759515 0.516982
O O1 0.498396 0.500000 0.783847
O O2 0.281624 0.340539 0.581368
O O3 0.715830 0.334369 0.979501
O O4 0.746033 0.393648 0.846236
O O5 0.696728 0.889008 0.288400
O O6 0.950636 0.807253 0.345767
O O7 0.880518 0.000000 0.299713
O O8 0.500000 0.879282 0.000000
O O9 0.546253 0.830252 0.328939
O O10 0.400097 0.000000 0.175267
O O11 0.193487 0.850873 0.961390
O O12 0.083259 0.265218 0.138174
O O13 0.157951 0.739545 0.353198
#
# Coordination Sequence:
#
# PCOD8061644 Si02
#       6
#     4   4   4   2   4   4
#     4   9  20  38  59  83 107 139 184 233 281 330
#     4  10  19  33  58  86 113 147 186 222 266 319
#     4  10  20  35  55  84 115 145 184 227 266 320
#     4   8  19  40  59  78 106 144 181 234 279 328
#     4   9  20  35  56  80 113 143 180 230 280 319
#     4  11  20  33  56  88 113 142 178 233 277 324
#
# _framework density 19.129072000000001
#
# number of rings (size 3 to 8) (size 9 to 14) (size 15 to 20)
#    1.091    1.273    1.818    1.364    0.000    3.636 
#    0.000    1.364    0.000   10.364    0.000    0.000 
#    0.000    0.000    0.000    0.000    0.000    0.000 
#
# Total GULP energy -272580.909348 kJ/mol
# GULP energy per Si atom -12390.041334 kJ/mol
# Density = 1.908553 g / cm^3
# Si number density = 19.129072 Si / 1000 Ang^3
#
#
#
# Elastic Constant Matrix: (Units=GPa)
#
#
# Indices 1 2 3 4 5 6 
#
# 1 35.3363 15.4348 15.8323 0.0000 -13.1491 0.0000
# 2 15.4348 137.7707 44.9936 0.0000 -7.4623 0.0000
# 3 15.8323 44.9936 92.2817 0.0000 -23.4100 0.0000
# 4 0.0000 0.0000 0.0000 17.2896 0.0000 6.7879
# 5 -13.1491 -7.4623 -23.4100 0.0000 36.2061 0.0000
# 6 0.0000 0.0000 0.0000 6.7879 0.0000 20.8639
#
#
#
# Elastic Compliance Matrix: (Units=1/GPa)
#
#
# Indices 1 2 3 4 5 6 
#
# 1 0.034274 -0.002648 -0.001878 0.000000 0.010687 0.000000
# 2 -0.002648 0.008876 -0.004370 0.000000 -0.001958 0.000000
# 3 -0.001878 -0.004370 0.015417 0.000000 0.008385 0.000000
# 4 0.000000 0.000000 0.000000 0.066308 0.000000 -0.021573
# 5 0.010687 -0.001958 0.008385 0.000000 0.036519 0.000000
# 6 0.000000 0.000000 0.000000 -0.021573 0.000000 0.054948
#
#
# Mechanical properties :
#
#
# Convention : Reuss Voigt Hill
#
# Bulk Modulus (GPa) = 24.52472 46.43445 35.47959
# Shear Modulus (GPa) = 20.18357 27.48045 23.83201
#
# Velocity S-wave (km/s) = 3.25179 3.79434 3.53349
# Velocity P-wave (km/s) = 5.19109 6.59719 5.93592
#
# Compressibility (1/GPa) = 0.04077518
#
# Stress axis : x y z
#
# Youngs Moduli (GPa) = 29.17633 112.66039 64.86543
#
# Poissons Ratio (x) = 0.29828 0.12183
# Poissons Ratio (y) = 0.07725 0.28347
# Poissons Ratio (z) = 0.05480 0.49235
#
# Static dielectric constant tensor:
#      x y z
#    x 3.166870 0.000000 -0.128010 
#    y 0.000000 3.391210 0.000000 
#    z -0.128010 0.000000 3.487470 
# 
# 
# High freq. dielectric constant tensor:
#      x y z
#    x 1.704220 0.000000 -0.011050 
#    y 0.000000 1.734320 0.000000 
#    z -0.011050 0.000000 1.748280 
# 
# From -- ./inp_files/78318.got.cif
#   From: 2010.06.25/outbox.cif.g09.slc.cpg/sg10_40_cif.got.tgz:78318.got - 2010.06.27 22:07:45.
