data_PCOD8061624
_publ_section_title
;
Structure prediction by ZEFSAII (Michael W. Deem and Ramdas Pophale) SiO2 
 PCOD8061624
Probable space group: P 2/M
;
_chemical_formula_sum "Si O2"
_cell_formula_units_Z 24
_cell_length_a 9.692397
_cell_length_b 19.077692
_cell_length_c 9.692443
_cell_angle_alpha 90.000000
_cell_angle_beta 45.454616
_cell_angle_gamma 90.000000
_cell_volume 1277.303248
_symmetry_space_group_name_H-M "P 2/M"
_symmetry_group_IT_number 10
_symmetry_cell_setting 'monoclinic'
loop_
_space_group_symop_operation_xyz
x,y,z
-x,y,-z
-x,-y,-z
x,-y,z
loop_
_atom_site_type_symbol
_atom_site_label
_atom_site_fract_x
_atom_site_fract_y
_atom_site_fract_z
Si Si1 0.630437 0.172146 0.542651
Si Si2 0.382397 0.684003 0.289928
Si Si3 0.412129 0.080881 0.912110
Si Si4 0.210078 0.315988 0.117611
Si Si5 0.957338 0.827866 0.869572
Si Si6 0.088418 0.577618 0.588423
O O1 0.500000 0.166784 0.500000
O O2 0.608781 0.249323 0.618627
O O3 0.558866 0.115231 0.701559
O O4 0.852152 0.155228 0.352148
O O5 0.252995 0.703056 0.247013
O O6 0.290468 0.619556 0.438881
O O7 0.596156 0.660437 0.096148
O O8 0.389195 0.000000 0.889084
O O9 0.500000 0.092559 0.000000
O O10 0.201539 0.115199 0.058853
O O11 0.118701 0.249301 0.108744
O O12 0.061089 0.380425 0.209556
O O13 0.000000 0.833208 0.000000
O O14 0.125055 0.500000 0.625110
O O15 0.000000 0.569986 0.500000
#
# Coordination Sequence:
#
# PCOD8061624 Si02
#       6
#     4   4   4   4   4   4
#     4  12  23  40  64  93 119 159 205 250 302 356
#     4  10  19  33  57  86 116 153 196 246 298 353
#     4  11  26  45  64  92 128 159 196 251 304 358
#     4  10  19  33  57  86 116 153 196 246 298 353
#     4  12  23  40  64  93 119 159 205 250 302 356
#     4   9  18  31  50  82 117 150 194 245 297 351
#
# _framework density 18.789587000000001
#
# number of rings (size 3 to 8) (size 9 to 14) (size 15 to 20)
#    0.000    1.333    5.000    1.000    0.000    4.000 
#    0.000    5.000    0.000    1.000    0.000    0.000 
#    0.000    0.000    0.000    0.000    0.000    0.000 
#
# Total GULP energy -297673.374912 kJ/mol
# GULP energy per Si atom -12403.057288 kJ/mol
# Density = 1.874682 g / cm^3
# Si number density = 18.789587 Si / 1000 Ang^3
#
#
#
# Elastic Constant Matrix: (Units=GPa)
#
#
# Indices 1 2 3 4 5 6 
#
# 1 61.3811 60.1845 42.2556 0.0000 -20.0125 0.0000
# 2 60.1845 171.7946 76.7217 0.0000 -9.8605 0.0000
# 3 42.2556 76.7217 149.2736 0.0000 -32.3951 0.0000
# 4 0.0000 0.0000 0.0000 27.3558 0.0000 -15.2714
# 5 -20.0125 -9.8605 -32.3951 0.0000 33.7082 0.0000
# 6 0.0000 0.0000 0.0000 -15.2714 0.0000 1.7278
#
#
#
# Elastic Compliance Matrix: (Units=1/GPa)
#
#
# Indices 1 2 3 4 5 6 
#
# 1 0.031247 -0.009861 -0.000476 0.000000 0.015209 0.000000
# 2 -0.009861 0.010767 -0.004207 0.000000 -0.006748 0.000000
# 3 -0.000476 -0.004207 0.010952 0.000000 0.009012 0.000000
# 4 0.000000 0.000000 0.000000 -0.009292 0.000000 -0.082126
# 5 0.015209 -0.006748 0.009012 0.000000 0.045383 0.000000
# 6 0.000000 0.000000 0.000000 -0.082126 0.000000 -0.147113
#
#
# Mechanical properties :
#
#
# Convention : Reuss Voigt Hill
#
# Bulk Modulus (GPa) = 41.88074 82.30808 62.09441
# Shear Modulus (GPa) = -238.00243 26.11087 -105.94578
#
# Velocity S-wave (km/s) = -11.26686 3.73184 -7.51717
# Velocity P-wave (km/s) = 12.12099 7.90374 6.49805
#
# Compressibility (1/GPa) = 0.02387733
#
# Stress axis : x y z
#
# Youngs Moduli (GPa) = 32.00301 92.87705 91.30858
#
# Poissons Ratio (x) = 0.91586 0.04350
# Poissons Ratio (y) = 0.31558 0.38412
# Poissons Ratio (z) = 0.01525 0.39072
#
# Static dielectric constant tensor:
#      x y z
#    x 3.414610 0.000000 -0.185300 
#    y 0.000000 3.584140 0.000000 
#    z -0.185300 0.000000 3.725460 
# 
# 
# High freq. dielectric constant tensor:
#      x y z
#    x 1.721940 0.000000 -0.013810 
#    y 0.000000 1.728310 0.000000 
#    z -0.013810 0.000000 1.745120 
# 
# From -- ./inp_files/20146.got.cif
#   From: 2010.06.25/outbox.cif.g09.slc.cpg/sg10_11_cif.got.tgz:20146.got - 2010.06.27 22:07:45.
