data_PCOD8061590
_publ_section_title
;
Structure prediction by ZEFSAII (Michael W. Deem and Ramdas Pophale) SiO2 
 PCOD8061590
Probable space group: P 2/M
;
_chemical_formula_sum "Si O2"
_cell_formula_units_Z 24
_cell_length_a 9.479749
_cell_length_b 14.484908
_cell_length_c 14.548410
_cell_angle_alpha 90.000000
_cell_angle_beta 38.327126
_cell_angle_gamma 90.000000
_cell_volume 1238.868508
_symmetry_space_group_name_H-M "P 2/M"
_symmetry_group_IT_number 10
_symmetry_cell_setting 'monoclinic'
loop_
_space_group_symop_operation_xyz
x,y,z
-x,y,-z
-x,-y,-z
x,-y,z
loop_
_atom_site_type_symbol
_atom_site_label
_atom_site_fract_x
_atom_site_fract_y
_atom_site_fract_z
Si Si1 0.020590 0.100897 0.842741
Si Si2 0.474254 0.708927 0.289247
Si Si3 0.732574 0.271355 0.335135
Si Si4 0.423286 0.393978 0.137840
Si Si5 0.109282 0.606177 0.590965
Si Si6 0.378157 0.100339 0.823833
O O1 0.088691 0.187041 0.743367
O O2 0.200269 0.100235 0.832596
O O3 0.032004 0.000000 0.786711
O O4 0.764942 0.117093 0.009750
O O5 0.682455 0.698382 0.255458
O O6 0.548800 0.658236 0.157133
O O7 0.241634 0.667097 0.448171
O O8 0.438667 0.817896 0.284277
O O9 0.500000 0.236109 0.500000
O O10 0.829685 0.360836 0.337512
O O11 0.499412 0.500000 0.103375
O O12 0.155984 0.381647 0.290348
O O13 0.500000 0.352471 0.000000
O O14 0.184836 0.500000 0.541538
O O15 0.502211 0.000000 0.764929
#
# Coordination Sequence:
#
# PCOD8061590 Si02
#       6
#     4   4   4   4   4   4
#     4   8  14  27  47  73 109 142 169 207 259 311
#     4  10  19  33  57  81 101 141 178 214 256 316
#     4   9  19  31  50  83 109 137 175 215 262 308
#     4  10  22  38  55  77 102 136 181 223 261 311
#     4  10  21  37  54  75 109 143 174 215 265 315
#     4   8  15  28  49  77 105 136 172 214 259 307
#
# _framework density 19.372516000000001
#
# number of rings (size 3 to 8) (size 9 to 14) (size 15 to 20)
#    0.000    2.833    0.000    2.000    2.333    5.333 
#    0.000    2.500    0.000    6.500    0.000    0.000 
#    0.000    0.000    0.000    0.000    0.000    0.000 
#
# Total GULP energy -297424.882777 kJ/mol
# GULP energy per Si atom -12392.703449 kJ/mol
# Density = 1.932842 g / cm^3
# Si number density = 19.372516 Si / 1000 Ang^3
#
#
#
# Elastic Constant Matrix: (Units=GPa)
#
#
# Indices 1 2 3 4 5 6 
#
# 1 68.4791 41.2166 24.5204 0.0000 25.1086 0.0000
# 2 41.2166 152.9983 68.9055 0.0000 6.8736 0.0000
# 3 24.5204 68.9055 63.6358 0.0000 12.4227 0.0000
# 4 0.0000 0.0000 0.0000 37.3789 0.0000 0.7140
# 5 25.1086 6.8736 12.4227 0.0000 24.7325 0.0000
# 6 0.0000 0.0000 0.0000 0.7140 0.0000 4.4514
#
#
#
# Elastic Compliance Matrix: (Units=1/GPa)
#
#
# Indices 1 2 3 4 5 6 
#
# 1 0.028624 -0.007735 0.002882 0.000000 -0.028357 0.000000
# 2 -0.007735 0.015171 -0.015696 0.000000 0.011520 0.000000
# 3 0.002882 -0.015696 0.034724 0.000000 -0.016005 0.000000
# 4 0.000000 0.000000 0.000000 0.026835 0.000000 -0.004304
# 5 -0.028357 0.011520 -0.016005 0.000000 0.074058 0.000000
# 6 0.000000 0.000000 0.000000 -0.004304 0.000000 0.225341
#
#
# Mechanical properties :
#
#
# Convention : Reuss Voigt Hill
#
# Bulk Modulus (GPa) = 26.72292 61.59981 44.16137
# Shear Modulus (GPa) = 10.90928 23.34394 17.12661
#
# Velocity S-wave (km/s) = 2.37561 3.47508 2.97655
# Velocity P-wave (km/s) = 4.62049 6.92590 5.88715
#
# Compressibility (1/GPa) = 0.03742106
#
# Stress axis : x y z
#
# Youngs Moduli (GPa) = 34.93552 65.91457 28.79844
#
# Poissons Ratio (x) = 0.50985 -0.08299
# Poissons Ratio (y) = 0.27023 0.45202
# Poissons Ratio (z) = -0.10067 1.03459
#
# Static dielectric constant tensor:
#      x y z
#    x 3.291560 0.000000 0.210970 
#    y 0.000000 4.061890 0.000000 
#    z 0.210970 0.000000 3.521160 
# 
# 
# High freq. dielectric constant tensor:
#      x y z
#    x 1.716910 0.000000 0.015860 
#    y 0.000000 1.762880 0.000000 
#    z 0.015860 0.000000 1.741170 
# 
# From -- ./inp_files/29269.got.cif
#   From: 2010.06.25/outbox.cif.g09.slc.cpg/sg10_15_cif.got.tgz:29269.got - 2010.06.27 22:07:45.
