data_PCOD8061815
_publ_section_title
;
Structure prediction by ZEFSAII (Michael W. Deem and Ramdas Pophale) SiO2 
 PCOD8061815
Probable space group: P 2/M
;
_chemical_formula_sum "Si O2"
_cell_formula_units_Z 32
_cell_length_a 11.537324
_cell_length_b 13.384967
_cell_length_c 10.533611
_cell_angle_alpha 90.000000
_cell_angle_beta 97.720439
_cell_angle_gamma 90.000000
_cell_volume 1611.925579
_symmetry_space_group_name_H-M "P 2/M"
_symmetry_group_IT_number 10
_symmetry_cell_setting 'monoclinic'
loop_
_space_group_symop_operation_xyz
x,y,z
-x,y,-z
-x,-y,-z
x,-y,z
loop_
_atom_site_type_symbol
_atom_site_label
_atom_site_fract_x
_atom_site_fract_y
_atom_site_fract_z
Si Si1 0.963110 0.110347 0.349880
Si Si2 0.620859 0.886769 0.591242
Si Si3 0.584430 0.387098 0.285880
Si Si4 0.890699 0.284655 0.681651
Si Si5 0.646057 0.713826 0.770326
Si Si6 0.059675 0.615995 0.884343
Si Si7 0.678034 0.613813 0.030853
Si Si8 0.224686 0.760790 0.573238
O O1 0.842630 0.176051 0.327795
O O2 0.000000 0.097949 0.500000
O O3 0.065352 0.169518 0.289217
O O4 0.944025 0.000000 0.286174
O O5 0.500000 0.880838 0.500000
O O6 0.615563 0.827558 0.725054
O O7 0.718594 0.838707 0.516827
O O8 0.655717 0.000000 0.628039
O O9 0.610395 0.500000 0.335677
O O10 0.454019 0.355369 0.310267
O O11 0.586571 0.380533 0.132816
O O12 0.680238 0.313243 0.356439
O O13 0.774800 0.315041 0.741731
O O14 0.867744 0.301762 0.527443
O O15 0.996989 0.352865 0.744670
O O16 0.642549 0.695307 0.920388
O O17 0.042438 0.500000 0.894945
O O18 0.195532 0.644186 0.895138
O O19 0.000000 0.667599 0.000000
O O20 0.679772 0.500000 0.974674
#
# Coordination Sequence:
#
# PCOD8061815 Si02
#       8
#     4   4   4   4   4   4   4   4
#     4   9  18  35  59  85 112 145 190 237 289 355
#     4  10  20  37  60  85 115 151 194 243 295 351
#     4  11  23  38  57  86 124 161 202 243 289 351
#     4  10  21  33  56  86 117 147 191 245 300 350
#     4  11  21  36  57  84 116 156 197 241 295 346
#     4  10  19  34  55  80 109 149 198 241 287 349
#     4  10  21  38  60  81 111 158 205 247 292 351
#     4  10  20  37  60  91 119 157 191 240 302 357
#
# _framework density 19.852032999999999
#
# number of rings (size 3 to 8) (size 9 to 14) (size 15 to 20)
#    0.000    1.875    2.500    1.875    0.000    5.000 
#    0.000    6.250    0.000   10.125    0.000    0.000 
#    0.000    0.000    0.000    0.000    0.000    0.000 
#
# Total GULP energy -396575.753745 kJ/mol
# GULP energy per Si atom -12392.992305 kJ/mol
# Density = 1.980685 g / cm^3
# Si number density = 19.852033 Si / 1000 Ang^3
#
#
#
# Elastic Constant Matrix: (Units=GPa)
#
#
# Indices 1 2 3 4 5 6 
#
# 1 106.3757 64.7240 24.4533 0.0000 1.6166 0.0000
# 2 64.7240 101.0677 39.5955 0.0000 10.6899 0.0000
# 3 24.4533 39.5955 59.2617 0.0000 11.9171 0.0000
# 4 0.0000 0.0000 0.0000 24.8478 0.0000 0.3371
# 5 1.6166 10.6899 11.9171 0.0000 31.8161 0.0000
# 6 0.0000 0.0000 0.0000 0.3371 0.0000 28.1659
#
#
#
# Elastic Compliance Matrix: (Units=1/GPa)
#
#
# Indices 1 2 3 4 5 6 
#
# 1 0.015617 -0.010227 -0.000154 0.000000 0.002700 0.000000
# 2 -0.010227 0.020145 -0.008634 0.000000 -0.003015 0.000000
# 3 -0.000154 -0.008634 0.023924 0.000000 -0.006052 0.000000
# 4 0.000000 0.000000 0.000000 0.040252 0.000000 -0.000482
# 5 0.002700 -0.003015 -0.006052 0.000000 0.034573 0.000000
# 6 0.000000 0.000000 0.000000 -0.000482 0.000000 0.035510
#
#
# Mechanical properties :
#
#
# Convention : Reuss Voigt Hill
#
# Bulk Modulus (GPa) = 46.17513 58.25007 52.21260
# Shear Modulus (GPa) = 23.22683 26.16145 24.69414
#
# Velocity S-wave (km/s) = 3.42423 3.63412 3.53074
# Velocity P-wave (km/s) = 6.24051 6.85674 6.55587
#
# Compressibility (1/GPa) = 0.02165668
#
# Stress axis : x y z
#
# Youngs Moduli (GPa) = 64.03108 49.64079 41.79979
#
# Poissons Ratio (x) = 0.50765 0.00646
# Poissons Ratio (y) = 0.65482 0.36088
# Poissons Ratio (z) = 0.00989 0.42858
#
# Static dielectric constant tensor:
#      x y z
#    x 3.910550 0.000000 0.023020 
#    y 0.000000 3.688560 0.000000 
#    z 0.023020 0.000000 3.539770 
# 
# 
# High freq. dielectric constant tensor:
#      x y z
#    x 1.800400 0.000000 0.005080 
#    y 0.000000 1.755970 0.000000 
#    z 0.005080 0.000000 1.743440 
# 
# From -- ./inp_files/46706.got.cif
#   From: 2010.06.25/outbox.cif.g09.slc.cpg/sg10_24_cif.got.tgz:46706.got - 2010.06.27 22:07:45.
