data_PCOD8061896
_publ_section_title
;
Structure prediction by ZEFSAII (Michael W. Deem and Ramdas Pophale) SiO2 
 PCOD8061896
Probable space group: P 2/M
;
_chemical_formula_sum "Si O2"
_cell_formula_units_Z 28
_cell_length_a 14.864016
_cell_length_b 8.447087
_cell_length_c 12.474243
_cell_angle_alpha 90.000000
_cell_angle_beta 74.773416
_cell_angle_gamma 90.000000
_cell_volume 1511.253328
_symmetry_space_group_name_H-M "P 2/M"
_symmetry_group_IT_number 10
_symmetry_cell_setting 'monoclinic'
loop_
_space_group_symop_operation_xyz
x,y,z
-x,y,-z
-x,-y,-z
x,-y,z
loop_
_atom_site_type_symbol
_atom_site_label
_atom_site_fract_x
_atom_site_fract_y
_atom_site_fract_z
Si Si1 0.088095 0.814824 0.839506
Si Si2 0.397258 0.183133 0.497279
Si Si3 0.726413 0.683256 0.285932
Si Si4 0.593134 0.317766 0.733310
Si Si5 0.697065 0.683155 0.912683
Si Si6 0.400069 0.181601 0.855773
Si Si7 0.896168 0.683887 0.932866
O O1 0.166035 0.736088 0.739421
O O2 0.988468 0.737768 0.840179
O O3 0.083947 0.000000 0.818371
O O4 0.113072 0.783650 0.955573
O O5 0.500000 0.240207 0.500000
O O6 0.321960 0.285221 0.585265
O O7 0.382967 0.210167 0.375945
O O8 0.382832 0.000000 0.530220
O O9 0.719537 0.500000 0.257740
O O10 0.678718 0.783540 0.206977
O O11 0.603720 0.500000 0.696681
O O12 0.665780 0.270252 0.803232
O O13 0.488701 0.291213 0.807209
O O14 0.675073 0.500000 0.944449
O O15 0.807021 0.718968 0.886710
O O16 0.639168 0.787941 0.013887
O O17 0.431057 0.000000 0.835901
O O18 0.902962 0.500000 0.962114
#
# Coordination Sequence:
#
# PCOD8061896 Si02
#       7
#     4   4   4   4   4   4   4
#     4  11  21  34  54  84 116 145 182 232 283 333
#     4  11  23  39  59  83 112 145 187 237 283 327
#     4  12  23  37  59  83 112 149 188 231 282 337
#     4  11  23  39  58  81 112 153 195 230 274 333
#     4  10  22  38  57  82 115 153 191 230 274 333
#     4  12  23  35  54  83 116 151 188 231 281 332
#     4  10  19  34  56  81 113 151 187 226 276 334
#
# _framework density 18.527668999999999
#
# number of rings (size 3 to 8) (size 9 to 14) (size 15 to 20)
#    0.000    1.000    2.857    6.429    0.000    4.000 
#    0.000    0.000    0.000    0.857    0.000    6.000 
#    0.000    0.000    0.000    0.000    0.000    0.000 
#
# Total GULP energy -347385.497654 kJ/mol
# GULP energy per Si atom -12406.624916 kJ/mol
# Density = 1.848550 g / cm^3
# Si number density = 18.527669 Si / 1000 Ang^3
#
#
#
# Elastic Constant Matrix: (Units=GPa)
#
#
# Indices 1 2 3 4 5 6 
#
# 1 86.7951 11.3890 54.7483 0.0000 -13.4654 0.0000
# 2 11.3890 64.0009 23.2414 0.0000 -2.2371 0.0000
# 3 54.7483 23.2414 96.5423 0.0000 -4.2209 0.0000
# 4 0.0000 0.0000 0.0000 28.0044 0.0000 -4.8618
# 5 -13.4654 -2.2371 -4.2209 0.0000 32.8862 0.0000
# 6 0.0000 0.0000 0.0000 -4.8618 0.0000 15.9582
#
#
#
# Elastic Compliance Matrix: (Units=1/GPa)
#
#
# Indices 1 2 3 4 5 6 
#
# 1 0.019262 0.000728 -0.010812 0.000000 0.006549 0.000000
# 2 0.000728 0.017162 -0.004505 0.000000 0.000887 0.000000
# 3 -0.010812 -0.004505 0.017465 0.000000 -0.002492 0.000000
# 4 0.000000 0.000000 0.000000 0.037703 0.000000 0.011487
# 5 0.006549 0.000887 -0.002492 0.000000 0.032830 0.000000
# 6 0.000000 0.000000 0.000000 0.011487 0.000000 0.066163
#
#
# Mechanical properties :
#
#
# Convention : Reuss Voigt Hill
#
# Bulk Modulus (GPa) = 40.47005 47.34397 43.90701
# Shear Modulus (GPa) = 21.92962 25.90038 23.91500
#
# Velocity S-wave (km/s) = 3.44410 3.74295 3.59663
# Velocity P-wave (km/s) = 6.14054 6.65493 6.40290
#
# Compressibility (1/GPa) = 0.02470963
#
# Stress axis : x y z
#
# Youngs Moduli (GPa) = 51.91603 58.26675 57.25647
#
# Poissons Ratio (x) = -0.04239 0.61906
# Poissons Ratio (y) = -0.03777 0.25797
# Poissons Ratio (z) = 0.56132 0.26252
#
# Static dielectric constant tensor:
#      x y z
#    x 3.584570 0.000000 -0.143620 
#    y 0.000000 3.451400 0.000000 
#    z -0.143620 0.000000 3.244970 
# 
# 
# High freq. dielectric constant tensor:
#      x y z
#    x 1.716770 0.000000 -0.013420 
#    y 0.000000 1.731510 0.000000 
#    z -0.013420 0.000000 1.698010 
# 
# From -- ./inp_files/49066.got.cif
#   From: 2010.06.25/outbox.cif.g09.slc.cpg/sg10_25_cif.got.tgz:49066.got - 2010.06.27 22:07:45.
