data_PCOD8061163
_publ_section_title
;
Structure prediction by ZEFSAII (Michael W. Deem and Ramdas Pophale) SiO2 
 PCOD8061163
Probable space group: P 2/M
;
_chemical_formula_sum "Si O2"
_cell_formula_units_Z 28
_cell_length_a 16.258558
_cell_length_b 8.664847
_cell_length_c 17.911252
_cell_angle_alpha 90.000000
_cell_angle_beta 34.883623
_cell_angle_gamma 90.000000
_cell_volume 1443.104028
_symmetry_space_group_name_H-M "P 2/M"
_symmetry_group_IT_number 10
_symmetry_cell_setting 'monoclinic'
loop_
_space_group_symop_operation_xyz
x,y,z
-x,y,-z
-x,-y,-z
x,-y,z
loop_
_atom_site_type_symbol
_atom_site_label
_atom_site_fract_x
_atom_site_fract_y
_atom_site_fract_z
Si Si1 0.630192 0.317152 0.695575
Si Si2 0.120379 0.683555 0.216963
Si Si3 0.149792 0.182183 0.353824
Si Si4 0.697566 0.683388 0.058848
Si Si5 0.661654 0.315805 0.377548
Si Si6 0.160046 0.684083 0.895831
Si Si7 0.802175 0.317098 0.423076
O O1 0.642565 0.500000 0.697784
O O2 0.716607 0.233679 0.696176
O O3 0.694451 0.264821 0.568410
O O4 0.466388 0.258456 0.820263
O O5 0.120762 0.500000 0.220528
O O6 0.178187 0.748691 0.251381
O O7 0.222926 0.744272 0.074396
O O8 0.960549 0.749094 0.321243
O O9 0.000000 0.246492 0.500000
O O10 0.144129 0.000000 0.352296
O O11 0.701012 0.500000 0.059389
O O12 0.779733 0.749024 0.070573
O O13 0.500000 0.251414 0.500000
O O14 0.661457 0.500000 0.379167
O O15 0.737941 0.254157 0.246152
O O16 0.745815 0.249691 0.386729
O O17 0.158841 0.500000 0.897932
O O18 0.000000 0.747723 0.000000
O O19 0.809367 0.500000 0.412883
#
# Coordination Sequence:
#
# PCOD8061163 Si02
#       7
#     4   4   4   4   4   4   4
#     4  10  19  33  53  75 103 136 169 206 251 298
#     4  10  19  33  53  75 101 132 169 206 245 297
#     4  11  23  38  55  76 100 125 164 213 260 307
#     4   9  18  30  46  73 106 138 170 205 245 294
#     4   9  15  22  35  60  96 132 163 198 240 283
#     4   9  15  24  39  62 100 142 168 193 240 292
#     4   9  16  26  44  69  96 132 173 205 237 289
#
# _framework density 19.402619999999999
#
# number of rings (size 3 to 8) (size 9 to 14) (size 15 to 20)
#    0.000    2.429    1.429    2.143    0.000    8.000 
#    0.000    3.571    0.000    0.000    0.000    0.000 
#    0.000   22.857    0.000    0.000    0.000    0.000 
#
# Total GULP energy -347214.141830 kJ/mol
# GULP energy per Si atom -12400.505065 kJ/mol
# Density = 1.935846 g / cm^3
# Si number density = 19.402620 Si / 1000 Ang^3
#
#
#
# Elastic Constant Matrix: (Units=GPa)
#
#
# Indices 1 2 3 4 5 6 
#
# 1 151.9333 9.7018 83.4387 0.0000 11.2376 0.0000
# 2 9.7018 12.0506 14.6171 0.0000 2.1956 0.0000
# 3 83.4387 14.6171 188.4232 0.0000 5.4271 0.0000
# 4 0.0000 0.0000 0.0000 7.5014 0.0000 -4.4214
# 5 11.2376 2.1956 5.4271 0.0000 45.7408 0.0000
# 6 0.0000 0.0000 0.0000 -4.4214 0.0000 -2.2336
#
#
#
# Elastic Compliance Matrix: (Units=1/GPa)
#
#
# Indices 1 2 3 4 5 6 
#
# 1 0.008888 -0.002364 -0.003706 0.000000 -0.001631 0.000000
# 2 -0.002364 0.092815 -0.006063 0.000000 -0.003155 0.000000
# 3 -0.003706 -0.006063 0.007409 0.000000 0.000322 0.000000
# 4 0.000000 0.000000 0.000000 0.061524 0.000000 -0.121790
# 5 -0.001631 -0.003155 0.000322 0.000000 0.022376 0.000000
# 6 0.000000 0.000000 0.000000 -0.121790 0.000000 -0.206627
#
#
# Mechanical properties :
#
#
# Convention : Reuss Voigt Hill
#
# Bulk Modulus (GPa) = 11.78572 63.10250 37.44411
# Shear Modulus (GPa) = 128.42537 26.51169 77.46853
#
# Velocity S-wave (km/s) = 8.14453 3.70049 6.32562
# Velocity P-wave (km/s) = 9.72276 7.13102 8.52594
#
# Compressibility (1/GPa) = 0.08484847
#
# Stress axis : x y z
#
# Youngs Moduli (GPa) = 112.50506 10.77409 134.96725
#
# Poissons Ratio (x) = 0.02547 0.50015
# Poissons Ratio (y) = 0.26596 0.81824
# Poissons Ratio (z) = 0.41691 0.06532
#
# Static dielectric constant tensor:
#      x y z
#    x 3.732650 0.000000 0.006560 
#    y 0.000000 2.804060 0.000000 
#    z 0.006560 0.000000 3.823180 
# 
# 
# High freq. dielectric constant tensor:
#      x y z
#    x 1.773250 0.000000 0.002490 
#    y 0.000000 1.681630 0.000000 
#    z 0.002490 0.000000 1.769980 
# 
# From -- ./inp_files/67093.got.cif
#   From: 2010.06.25/outbox.cif.g09.slc.cpg/sg10_34_cif.got.tgz:67093.got - 2010.06.27 22:07:45.
