data_PCOD8061151
_publ_section_title
;
Structure prediction by ZEFSAII (Michael W. Deem and Ramdas Pophale) SiO2 
 PCOD8061151
Probable space group: P 2/M
;
_chemical_formula_sum "Si O2"
_cell_formula_units_Z 24
_cell_length_a 18.567111
_cell_length_b 8.981026
_cell_length_c 24.399092
_cell_angle_alpha 90.000000
_cell_angle_beta 160.743105
_cell_angle_gamma 90.000000
_cell_volume 1341.838370
_symmetry_space_group_name_H-M "P 2/M"
_symmetry_group_IT_number 10
_symmetry_cell_setting 'monoclinic'
loop_
_space_group_symop_operation_xyz
x,y,z
-x,y,-z
-x,-y,-z
x,-y,z
loop_
_atom_site_type_symbol
_atom_site_label
_atom_site_fract_x
_atom_site_fract_y
_atom_site_fract_z
Si Si1 0.506582 0.825444 0.174384
Si Si2 0.076545 0.332461 0.492812
Si Si3 0.748766 0.163663 0.835353
Si Si4 0.699029 0.824703 0.680772
Si Si5 0.658476 0.173886 0.162280
Si Si6 0.843218 0.324401 0.008510
O O1 0.701886 0.762221 0.352581
O O2 0.544478 0.787521 0.137955
O O3 0.488874 0.000000 0.172070
O O4 0.281653 0.746519 0.029645
O O5 0.121033 0.500000 0.504101
O O6 0.000000 0.330953 0.500000
O O7 0.887817 0.259364 0.320104
O O8 0.628470 0.214662 0.692837
O O9 0.665934 0.000000 0.794915
O O10 0.715220 0.279200 0.860635
O O11 0.000000 0.153148 0.000000
O O12 0.500000 0.774032 0.500000
O O13 0.910786 0.734695 0.814021
O O14 0.751109 0.000000 0.712876
O O15 0.710910 0.000000 0.195550
O O16 0.500000 0.227836 0.000000
O O17 0.843814 0.500000 0.014453
#
# Coordination Sequence:
#
# PCOD8061151 Si02
#       6
#     4   4   4   4   4   4
#     4  10  19  33  53  73  97 130 168 208 248 293
#     4   9  17  30  49  73  99 126 159 199 243 291
#     4   8  15  30  51  72  94 124 162 198 235 286
#     4   9  18  34  55  76  99 130 167 203 243 296
#     4   9  18  33  53  76 100 130 168 205 244 296
#     4  11  21  32  49  74 103 131 164 207 251 293
#
# _framework density 17.885909000000002
#
# number of rings (size 3 to 8) (size 9 to 14) (size 15 to 20)
#    0.000    2.667    0.000    3.500    0.000    6.333 
#    0.000    1.667    0.000    4.000    0.000    0.000 
#    0.000    0.000    0.000    0.000    0.000    0.000 
#
# Total GULP energy -297547.664852 kJ/mol
# GULP energy per Si atom -12397.819369 kJ/mol
# Density = 1.784520 g / cm^3
# Si number density = 17.885909 Si / 1000 Ang^3
#
#
#
# Elastic Constant Matrix: (Units=GPa)
#
#
# Indices 1 2 3 4 5 6 
#
# 1 70.0686 44.8623 52.5525 0.0000 -5.1410 0.0000
# 2 44.8623 113.5135 56.8490 0.0000 3.2960 0.0000
# 3 52.5525 56.8490 116.3628 0.0000 -19.0221 0.0000
# 4 0.0000 0.0000 0.0000 19.1573 0.0000 2.9275
# 5 -5.1410 3.2960 -19.0221 0.0000 30.6377 0.0000
# 6 0.0000 0.0000 0.0000 2.9275 0.0000 20.8637
#
#
#
# Elastic Compliance Matrix: (Units=1/GPa)
#
#
# Indices 1 2 3 4 5 6 
#
# 1 0.023795 -0.005239 -0.008283 0.000000 -0.000586 0.000000
# 2 -0.005239 0.013656 -0.005219 0.000000 -0.005589 0.000000
# 3 -0.008283 -0.005219 0.016415 0.000000 0.009363 0.000000
# 4 0.000000 0.000000 0.000000 0.053343 0.000000 -0.007485
# 5 -0.000586 -0.005589 0.009363 0.000000 0.038956 0.000000
# 6 0.000000 0.000000 0.000000 -0.007485 0.000000 0.048980
#
#
# Mechanical properties :
#
#
# Convention : Reuss Voigt Hill
#
# Bulk Modulus (GPa) = 61.03421 67.60806 64.32114
# Shear Modulus (GPa) = 21.00047 23.84381 22.42214
#
# Velocity S-wave (km/s) = 3.43028 3.65513 3.54449
# Velocity P-wave (km/s) = 7.06310 7.46291 7.26576
#
# Compressibility (1/GPa) = 0.01638425
#
# Stress axis : x y z
#
# Youngs Moduli (GPa) = 42.02492 73.22664 60.91960
#
# Poissons Ratio (x) = 0.38364 0.50459
# Poissons Ratio (y) = 0.22017 0.31795
# Poissons Ratio (z) = 0.34809 0.38219
#
# Static dielectric constant tensor:
#      x y z
#    x 3.370360 0.000000 -0.235700 
#    y 0.000000 3.304780 0.000000 
#    z -0.235700 0.000000 3.372990 
# 
# 
# High freq. dielectric constant tensor:
#      x y z
#    x 1.674740 0.000000 -0.005720 
#    y 0.000000 1.692800 0.000000 
#    z -0.005720 0.000000 1.681340 
# 
# From -- ./inp_files/31203.got.cif
#   From: 2010.06.25/outbox.cif.g09.slc.cpg/sg10_16_cif.got.tgz:31203.got - 2010.06.27 22:07:45.
