data_PCOD8061762
_publ_section_title
;
Structure prediction by ZEFSAII (Michael W. Deem and Ramdas Pophale) SiO2 
 PCOD8061762
Probable space group: P 2/M
;
_chemical_formula_sum "Si O2"
_cell_formula_units_Z 28
_cell_length_a 15.780957
_cell_length_b 17.891718
_cell_length_c 9.472426
_cell_angle_alpha 90.000000
_cell_angle_beta 144.136870
_cell_angle_gamma 90.000000
_cell_volume 1566.872853
_symmetry_space_group_name_H-M "P 2/M"
_symmetry_group_IT_number 10
_symmetry_cell_setting 'monoclinic'
loop_
_space_group_symop_operation_xyz
x,y,z
-x,y,-z
-x,-y,-z
x,-y,z
loop_
_atom_site_type_symbol
_atom_site_label
_atom_site_fract_x
_atom_site_fract_y
_atom_site_fract_z
Si Si1 0.635116 0.912467 0.582879
Si Si2 0.223244 0.584085 0.887821
Si Si3 0.149161 0.734860 0.349191
Si Si4 0.840755 0.789139 0.942910
Si Si5 0.597910 0.714386 0.772057
Si Si6 0.572534 0.185943 0.241983
Si Si7 0.083853 0.585196 0.401610
O O1 0.500000 0.888949 0.500000
O O2 0.782394 0.873310 0.836958
O O3 0.602120 0.886541 0.378813
O O4 0.663015 0.000000 0.623742
O O5 0.279930 0.500000 0.968702
O O6 0.170767 0.604640 0.660484
O O7 0.087533 0.594511 0.808922
O O8 0.361710 0.631603 0.122465
O O9 0.184010 0.739866 0.230563
O O10 0.281917 0.771827 0.611530
O O11 0.132536 0.646426 0.353425
O O12 0.010452 0.784950 0.208610
O O13 0.749786 0.755164 0.947886
O O14 0.500000 0.713433 0.500000
O O15 0.521949 0.755231 0.798591
O O16 0.500000 0.157807 0.000000
O O17 0.118177 0.500000 0.397660
#
# Coordination Sequence:
#
# PCOD8061762 Si02
#       7
#     4   4   4   4   4   4   4
#     4  10  19  37  63  85 108 146 183 216 270 330
#     4   9  19  32  51  77 104 144 191 231 273 325
#     4  10  19  34  54  81 109 142 182 232 270 313
#     4  10  19  35  56  81 108 135 189 226 260 325
#     4  12  19  36  57  75 111 148 182 227 274 324
#     4  11  22  36  55  86 116 141 180 226 272 327
#     4   9  17  33  52  74 106 144 188 230 275 325
#
# _framework density 17.869987999999999
#
# number of rings (size 3 to 8) (size 9 to 14) (size 15 to 20)
#    0.000    1.857    5.714    1.714    0.000    0.571 
#    0.000    8.571    0.000    2.571    0.000    2.000 
#    0.000    0.000    0.000    0.000    0.000    0.000 
#
# Total GULP energy -347117.654639 kJ/mol
# GULP energy per Si atom -12397.059094 kJ/mol
# Density = 1.782932 g / cm^3
# Si number density = 17.869988 Si / 1000 Ang^3
#
#
#
# Elastic Constant Matrix: (Units=GPa)
#
#
# Indices 1 2 3 4 5 6 
#
# 1 76.8983 46.8049 38.0962 0.0000 11.4110 0.0000
# 2 46.8049 114.3439 33.5373 0.0000 3.9033 0.0000
# 3 38.0962 33.5373 65.7348 0.0000 7.3940 0.0000
# 4 0.0000 0.0000 0.0000 24.4670 0.0000 4.0511
# 5 11.4110 3.9033 7.3940 0.0000 23.0104 0.0000
# 6 0.0000 0.0000 0.0000 4.0511 0.0000 27.9902
#
#
#
# Elastic Compliance Matrix: (Units=1/GPa)
#
#
# Indices 1 2 3 4 5 6 
#
# 1 0.022296 -0.006266 -0.008923 0.000000 -0.007127 0.000000
# 2 -0.006266 0.012046 -0.002733 0.000000 0.001942 0.000000
# 3 -0.008923 -0.002733 0.022024 0.000000 -0.002189 0.000000
# 4 0.000000 0.000000 0.000000 0.041875 0.000000 -0.006061
# 5 -0.007127 0.001942 -0.002189 0.000000 0.047367 0.000000
# 6 0.000000 0.000000 0.000000 -0.006061 0.000000 0.036604
#
#
# Mechanical properties :
#
#
# Convention : Reuss Voigt Hill
#
# Bulk Modulus (GPa) = 48.72683 54.87264 51.79973
# Shear Modulus (GPa) = 22.23247 24.32942 23.28095
#
# Velocity S-wave (km/s) = 3.53104 3.69381 3.61334
# Velocity P-wave (km/s) = 6.62955 6.99754 6.81603
#
# Compressibility (1/GPa) = 0.02052258
#
# Stress axis : x y z
#
# Youngs Moduli (GPa) = 44.85043 83.01735 45.40451
#
# Poissons Ratio (x) = 0.52020 0.40515
# Poissons Ratio (y) = 0.28104 0.12407
# Poissons Ratio (z) = 0.40021 0.22685
#
# Static dielectric constant tensor:
#      x y z
#    x 3.335660 0.000000 0.168360 
#    y 0.000000 3.210670 0.000000 
#    z 0.168360 0.000000 3.349310 
# 
# 
# High freq. dielectric constant tensor:
#      x y z
#    x 1.688210 0.000000 0.009030 
#    y 0.000000 1.683730 0.000000 
#    z 0.009030 0.000000 1.683500 
# 
# From -- ./inp_files/30161.got.cif
#   From: 2010.06.25/outbox.cif.g09.slc.cpg/sg10_16_cif.got.tgz:30161.got - 2010.06.27 22:07:45.
