data_PCOD8061164
_publ_section_title
;
Structure prediction by ZEFSAII (Michael W. Deem and Ramdas Pophale) SiO2 
 PCOD8061164
Probable space group: P 2/M
;
_chemical_formula_sum "Si O2"
_cell_formula_units_Z 24
_cell_length_a 23.981257
_cell_length_b 8.663828
_cell_length_c 11.378591
_cell_angle_alpha 90.000000
_cell_angle_beta 34.215564
_cell_angle_gamma 90.000000
_cell_volume 1329.365905
_symmetry_space_group_name_H-M "P 2/M"
_symmetry_group_IT_number 10
_symmetry_cell_setting 'monoclinic'
loop_
_space_group_symop_operation_xyz
x,y,z
-x,y,-z
-x,-y,-z
x,-y,z
loop_
_atom_site_type_symbol
_atom_site_label
_atom_site_fract_x
_atom_site_fract_y
_atom_site_fract_z
Si Si1 0.142416 0.180878 0.802658
Si Si2 0.956738 0.680575 0.241783
Si Si3 0.687727 0.681677 0.348809
Si Si4 0.527758 0.330199 0.316386
Si Si5 0.281245 0.821936 0.955365
Si Si6 0.098716 0.321089 0.398663
O O1 0.125353 0.269313 0.709926
O O2 0.249750 0.225570 0.664359
O O3 0.136382 0.000000 0.789621
O O4 0.059077 0.228775 0.042279
O O5 0.979611 0.500000 0.189972
O O6 0.916566 0.723180 0.439440
O O7 0.704121 0.500000 0.336505
O O8 0.572547 0.728342 0.573317
O O9 0.722395 0.723142 0.157043
O O10 0.500000 0.343400 0.500000
O O11 0.558261 0.500000 0.216000
O O12 0.620423 0.215632 0.138415
O O13 0.282233 0.000000 0.918524
O O14 0.186405 0.784736 0.198718
O O15 0.127276 0.500000 0.333065
O O16 0.000000 0.280153 0.500000
#
# Coordination Sequence:
#
# PCOD8061164 Si02
#       6
#     4   4   4   4   4   4
#     4  11  21  33  52  77 105 132 163 211 260 298
#     4  10  20  35  54  74 100 137 175 206 243 297
#     4  10  19  33  53  75 101 134 173 210 246 296
#     4   8  16  31  50  71  98 133 169 206 246 294
#     4  11  21  31  49  77 108 136 162 204 258 304
#     4  10  21  36  54  74  99 135 174 207 241 292
#
# _framework density 18.053720999999999
#
# number of rings (size 3 to 8) (size 9 to 14) (size 15 to 20)
#    0.000    2.000    0.000    7.000    0.000    6.667 
#    0.000    0.000    0.000    1.000    0.000    7.000 
#    0.000    0.000    0.000    0.000    0.000    0.000 
#
# Total GULP energy -297614.089901 kJ/mol
# GULP energy per Si atom -12400.587079 kJ/mol
# Density = 1.801263 g / cm^3
# Si number density = 18.053721 Si / 1000 Ang^3
#
#
#
# Elastic Constant Matrix: (Units=GPa)
#
#
# Indices 1 2 3 4 5 6 
#
# 1 91.8528 13.3828 41.8722 0.0000 -16.3229 0.0000
# 2 13.3828 59.5532 23.2414 0.0000 -3.1519 0.0000
# 3 41.8722 23.2414 78.6962 0.0000 -10.6424 0.0000
# 4 0.0000 0.0000 0.0000 13.3682 0.0000 -4.4891
# 5 -16.3229 -3.1519 -10.6424 0.0000 30.5297 0.0000
# 6 0.0000 0.0000 0.0000 -4.4891 0.0000 18.4219
#
#
#
# Elastic Compliance Matrix: (Units=1/GPa)
#
#
# Indices 1 2 3 4 5 6 
#
# 1 0.015233 -0.000293 -0.007264 0.000000 0.005582 0.000000
# 2 -0.000293 0.018985 -0.005465 0.000000 -0.000102 0.000000
# 3 -0.007264 -0.005465 0.018454 0.000000 0.001985 0.000000
# 4 0.000000 0.000000 0.000000 0.081471 0.000000 0.019853
# 5 0.005582 -0.000102 0.001985 0.000000 0.036421 0.000000
# 6 0.000000 0.000000 0.000000 0.019853 0.000000 0.059121
#
#
# Mechanical properties :
#
#
# Convention : Reuss Voigt Hill
#
# Bulk Modulus (GPa) = 37.55241 43.01056 40.28148
# Shear Modulus (GPa) = 18.89619 22.57102 20.73360
#
# Velocity S-wave (km/s) = 3.23873 3.53967 3.39254
# Velocity P-wave (km/s) = 5.90181 6.37033 6.14054
#
# Compressibility (1/GPa) = 0.02662945
#
# Stress axis : x y z
#
# Youngs Moduli (GPa) = 65.64767 52.67362 54.18822
#
# Poissons Ratio (x) = 0.01543 0.39360
# Poissons Ratio (y) = 0.01923 0.29612
# Poissons Ratio (z) = 0.47684 0.28784
#
# Static dielectric constant tensor:
#      x y z
#    x 3.475870 0.000000 -0.335490 
#    y 0.000000 3.341590 0.000000 
#    z -0.335490 0.000000 3.286660 
# 
# 
# High freq. dielectric constant tensor:
#      x y z
#    x 1.692750 0.000000 -0.024970 
#    y 0.000000 1.704460 0.000000 
#    z -0.024970 0.000000 1.681090 
# 
# From -- ./inp_files/56522.got.cif
#   From: 2010.06.25/outbox.cif.g09.slc.cpg/sg10_29_cif.got.tgz:56522.got - 2010.06.27 22:07:45.
