data_PCOD8061003
_publ_section_title
;
Structure prediction by ZEFSAII (Michael W. Deem and Ramdas Pophale) SiO2 
 PCOD8061003
Probable space group: P 2/M
;
_chemical_formula_sum "Si O2"
_cell_formula_units_Z 32
_cell_length_a 15.220716
_cell_length_b 8.648019
_cell_length_c 23.320627
_cell_angle_alpha 90.000000
_cell_angle_beta 30.663481
_cell_angle_gamma 90.000000
_cell_volume 1565.516532
_symmetry_space_group_name_H-M "P 2/M"
_symmetry_group_IT_number 10
_symmetry_cell_setting 'monoclinic'
loop_
_space_group_symop_operation_xyz
x,y,z
-x,y,-z
-x,-y,-z
x,-y,z
loop_
_atom_site_type_symbol
_atom_site_label
_atom_site_fract_x
_atom_site_fract_y
_atom_site_fract_z
Si Si1 0.801408 0.816016 0.962642
Si Si2 0.599318 0.320451 0.500589
Si Si3 0.466096 0.183075 0.338205
Si Si4 0.942038 0.174120 0.275587
Si Si5 0.891214 0.173599 0.700988
Si Si6 0.183624 0.815760 0.918317
Si Si7 0.876565 0.319977 0.517833
Si Si8 0.483608 0.816091 0.072317
O O1 0.973412 0.768229 0.831331
O O2 0.788995 0.000000 0.970134
O O3 0.803935 0.748269 0.024747
O O4 0.633140 0.744196 0.027322
O O5 0.500000 0.256997 0.500000
O O6 0.561360 0.500000 0.531739
O O7 0.547233 0.233813 0.588124
O O8 0.798496 0.294166 0.375430
O O9 0.651584 0.243149 0.210734
O O10 0.312719 0.243669 0.382567
O O11 0.455126 0.000000 0.342341
O O12 0.089666 0.174422 0.241044
O O13 0.865624 0.000000 0.312095
O O14 0.697576 0.229058 0.796467
O O15 0.024316 0.290251 0.597141
O O16 0.926244 0.000000 0.657734
O O17 0.182431 0.000000 0.918285
O O18 0.000000 0.750889 0.000000
O O19 0.845408 0.500000 0.544867
O O20 0.000000 0.253749 0.500000
O O21 0.498459 0.000000 0.059947
O O22 0.500000 0.742980 0.000000
#
# Coordination Sequence:
#
# PCOD8061003 Si02
#       8
#     4   4   4   4   4   4   4   4
#     4   9  17  30  51  81 118 154 187 233 295 351
#     4  11  25  42  61  85 118 159 198 242 302 364
#     4  11  23  40  65  95 122 153 202 257 303 353
#     4  10  19  33  58  90 117 148 193 243 296 351
#     4  10  19  32  55  86 116 146 190 244 292 345
#     4   9  20  36  54  83 121 155 189 240 301 353
#     4  11  25  42  59  81 118 167 205 242 300 362
#     4   9  15  26  46  78 114 144 178 226 284 343
#
# _framework density 20.440536999999999
#
# number of rings (size 3 to 8) (size 9 to 14) (size 15 to 20)
#    0.000    2.000    2.500    1.125    3.500    2.000 
#    0.000    0.000    0.000    4.125    0.000    0.000 
#    0.000    0.000    0.000    0.000    0.000    0.000 
#
# Total GULP energy -396660.184047 kJ/mol
# GULP energy per Si atom -12395.630751 kJ/mol
# Density = 2.039401 g / cm^3
# Si number density = 20.440537 Si / 1000 Ang^3
#
#
#
# Elastic Constant Matrix: (Units=GPa)
#
#
# Indices 1 2 3 4 5 6 
#
# 1 151.4623 23.4995 80.7919 0.0000 -6.4526 0.0000
# 2 23.4995 38.4514 23.1571 0.0000 -1.9802 0.0000
# 3 80.7919 23.1571 164.3935 0.0000 -3.4230 0.0000
# 4 0.0000 0.0000 0.0000 1.2381 0.0000 -4.0435
# 5 -6.4526 -1.9802 -3.4230 0.0000 34.2124 0.0000
# 6 0.0000 0.0000 0.0000 -4.0435 0.0000 18.9808
#
#
#
# Elastic Compliance Matrix: (Units=1/GPa)
#
#
# Indices 1 2 3 4 5 6 
#
# 1 0.009341 -0.003167 -0.004120 0.000000 0.001166 0.000000
# 2 -0.003167 0.029545 -0.002587 0.000000 0.000854 0.000000
# 3 -0.004120 -0.002587 0.008471 0.000000 -0.000079 0.000000
# 4 0.000000 0.000000 0.000000 2.654319 0.000000 0.565456
# 5 0.001166 0.000854 -0.000079 0.000000 0.029491 0.000000
# 6 0.000000 0.000000 0.000000 0.565456 0.000000 0.173145
#
#
# Mechanical properties :
#
#
# Convention : Reuss Voigt Hill
#
# Bulk Modulus (GPa) = 36.22325 67.68936 51.95631
# Shear Modulus (GPa) = 1.70459 26.01017 13.85738
#
# Velocity S-wave (km/s) = 0.91419 3.57105 2.60655
# Velocity P-wave (km/s) = 4.34443 7.08452 5.87641
#
# Compressibility (1/GPa) = 0.02760658
#
# Stress axis : x y z
#
# Youngs Moduli (GPa) = 107.05191 33.84686 118.05326
#
# Poissons Ratio (x) = 0.10721 0.48642
# Poissons Ratio (y) = 0.33908 0.30545
# Poissons Ratio (z) = 0.44109 0.08758
#
# Static dielectric constant tensor:
#      x y z
#    x 4.063490 0.000000 -0.077660 
#    y 0.000000 3.168500 0.000000 
#    z -0.077660 0.000000 3.774020 
# 
# 
# High freq. dielectric constant tensor:
#      x y z
#    x 1.808020 0.000000 -0.003490 
#    y 0.000000 1.747480 0.000000 
#    z -0.003490 0.000000 1.809560 
# 
# From -- ./inp_files/89571.got.cif
#   From: 2010.06.25/outbox.cif.g09.slc.cpg/sg10_45_cif.got.tgz:89571.got - 2010.06.27 22:07:45.
