data_PCOD8061811
_publ_section_title
;
Structure prediction by ZEFSAII (Michael W. Deem and Ramdas Pophale) SiO2 
 PCOD8061811
Probable space group: P 2/M
;
_chemical_formula_sum "Si O2"
_cell_formula_units_Z 28
_cell_length_a 24.050371
_cell_length_b 8.732913
_cell_length_c 19.049495
_cell_angle_alpha 90.000000
_cell_angle_beta 158.101990
_cell_angle_gamma 90.000000
_cell_volume 1492.180853
_symmetry_space_group_name_H-M "P 2/M"
_symmetry_group_IT_number 10
_symmetry_cell_setting 'monoclinic'
loop_
_space_group_symop_operation_xyz
x,y,z
-x,y,-z
-x,-y,-z
x,-y,z
loop_
_atom_site_type_symbol
_atom_site_label
_atom_site_fract_x
_atom_site_fract_y
_atom_site_fract_z
Si Si1 0.395257 0.174967 0.589479
Si Si2 0.667570 0.819961 0.263081
Si Si3 0.170539 0.323747 0.965744
Si Si4 0.168722 0.675419 0.420263
Si Si5 0.707853 0.175798 0.027165
Si Si6 0.438684 0.180622 0.353528
Si Si7 0.654617 0.319795 0.105359
O O1 0.260389 0.279896 0.458022
O O2 0.535056 0.196405 0.804757
O O3 0.441223 0.227618 0.565099
O O4 0.340864 0.000000 0.525877
O O5 0.787832 0.781836 0.463317
O O6 0.728890 0.765330 0.259157
O O7 0.634159 0.000000 0.223336
O O8 0.516541 0.729791 0.102975
O O9 0.207329 0.500000 0.994452
O O10 0.004376 0.298798 0.799862
O O11 0.187676 0.234891 0.912686
O O12 0.281150 0.260951 0.154888
O O13 0.202124 0.500000 0.479057
O O14 0.746835 0.000000 0.086937
O O15 0.742589 0.271191 0.138231
O O16 0.500000 0.236581 0.500000
O O17 0.410137 0.000000 0.317733
O O18 0.666545 0.500000 0.130548
#
# Coordination Sequence:
#
# PCOD8061811 Si02
#       7
#     4   4   4   4   4   4   4
#     4   9  18  32  55  82 107 138 180 223 267 322
#     4  11  21  33  51  76 108 144 185 232 277 322
#     4  10  22  37  55  81 112 146 181 222 274 329
#     4  11  22  36  53  78 112 147 184 225 274 328
#     4  10  19  34  55  80 107 141 187 232 271 324
#     4   9  19  38  62  86 111 140 178 223 269 323
#     4  11  20  32  52  78 108 142 183 231 280 324
#
# _framework density 18.764482000000001
#
# number of rings (size 3 to 8) (size 9 to 14) (size 15 to 20)
#    0.000    1.857    1.429    5.571    0.000    4.857 
#    0.000    1.429    0.000    8.571    0.000    0.000 
#    0.000    0.000    0.000    0.000    0.000    0.000 
#
# Total GULP energy -347285.605456 kJ/mol
# GULP energy per Si atom -12403.057338 kJ/mol
# Density = 1.872177 g / cm^3
# Si number density = 18.764482 Si / 1000 Ang^3
#
#
#
# Elastic Constant Matrix: (Units=GPa)
#
#
# Indices 1 2 3 4 5 6 
#
# 1 120.1351 34.9491 48.5332 0.0000 -11.4081 0.0000
# 2 34.9491 89.8112 37.2472 0.0000 2.9810 0.0000
# 3 48.5332 37.2472 78.7227 0.0000 3.4729 0.0000
# 4 0.0000 0.0000 0.0000 20.5828 0.0000 2.6895
# 5 -11.4081 2.9810 3.4729 0.0000 27.3728 0.0000
# 6 0.0000 0.0000 0.0000 2.6895 0.0000 27.2300
#
#
#
# Elastic Compliance Matrix: (Units=1/GPa)
#
#
# Indices 1 2 3 4 5 6 
#
# 1 0.012308 -0.002159 -0.006841 0.000000 0.006233 0.000000
# 2 -0.002159 0.014244 -0.005330 0.000000 -0.001775 0.000000
# 3 -0.006841 -0.005330 0.019653 0.000000 -0.004764 0.000000
# 4 0.000000 0.000000 0.000000 0.049220 0.000000 -0.004861
# 5 0.006233 -0.001775 -0.004764 0.000000 0.039928 0.000000
# 6 0.000000 0.000000 0.000000 -0.004861 0.000000 0.037204
#
#
# Mechanical properties :
#
#
# Convention : Reuss Voigt Hill
#
# Bulk Modulus (GPa) = 57.00094 58.90311 57.95203
# Shear Modulus (GPa) = 24.14703 26.23309 25.19006
#
# Velocity S-wave (km/s) = 3.59116 3.74306 3.66790
# Velocity P-wave (km/s) = 6.90204 7.08093 6.99206
#
# Compressibility (1/GPa) = 0.01754357
#
# Stress axis : x y z
#
# Youngs Moduli (GPa) = 81.25006 70.20447 50.88381
#
# Poissons Ratio (x) = 0.15157 0.34811
# Poissons Ratio (y) = 0.17542 0.27122
# Poissons Ratio (z) = 0.55585 0.37420
#
# Static dielectric constant tensor:
#      x y z
#    x 3.598150 0.000000 -0.042390 
#    y 0.000000 3.501550 0.000000 
#    z -0.042390 0.000000 3.152780 
# 
# 
# High freq. dielectric constant tensor:
#      x y z
#    x 1.732180 0.000000 0.001350 
#    y 0.000000 1.739140 0.000000 
#    z 0.001350 0.000000 1.695930 
# 
# From -- ./inp_files/86523.got.cif
#   From: 2010.06.25/outbox.cif.g09.slc.cpg/sg10_44_cif.got.tgz:86523.got - 2010.06.27 22:07:45.
