data_PCOD8061043
_publ_section_title
;
Structure prediction by ZEFSAII (Michael W. Deem and Ramdas Pophale) SiO2 
 PCOD8061043
Probable space group: P 2/M
;
_chemical_formula_sum "Si O2"
_cell_formula_units_Z 32
_cell_length_a 17.712764
_cell_length_b 10.550058
_cell_length_c 17.183955
_cell_angle_alpha 90.000000
_cell_angle_beta 146.769200
_cell_angle_gamma 90.000000
_cell_volume 1759.766868
_symmetry_space_group_name_H-M "P 2/M"
_symmetry_group_IT_number 10
_symmetry_cell_setting 'monoclinic'
loop_
_space_group_symop_operation_xyz
x,y,z
-x,y,-z
-x,-y,-z
x,-y,z
loop_
_atom_site_type_symbol
_atom_site_label
_atom_site_fract_x
_atom_site_fract_y
_atom_site_fract_z
Si Si1 0.907469 0.148074 0.775323
Si Si2 0.075988 0.150075 0.391429
Si Si3 0.635257 0.854281 0.947888
Si Si4 0.652516 0.151167 0.653830
Si Si5 0.669139 0.143422 0.291854
Si Si6 0.208706 0.848864 0.068604
Si Si7 0.350910 0.293093 0.881613
Si Si8 0.060551 0.638070 0.634871
O O1 0.904064 0.178235 0.681591
O O2 0.769371 0.205580 0.695519
O O3 0.904777 0.000000 0.789477
O O4 0.050212 0.201354 0.936126
O O5 0.212245 0.202637 0.552045
O O6 0.958119 0.245083 0.321202
O O7 0.040884 0.000000 0.375035
O O8 0.474646 0.841025 0.786581
O O9 0.723408 0.797400 0.952559
O O10 0.675847 0.000000 0.998250
O O11 0.664376 0.777741 0.050278
O O12 0.500000 0.204790 0.500000
O O13 0.699861 0.199413 0.780003
O O14 0.646985 0.000000 0.646019
O O15 0.662025 0.194116 0.199115
O O16 0.711915 0.000000 0.318364
O O17 0.209764 0.000000 0.067904
O O18 0.224060 0.388883 0.766608
O O19 0.500000 0.362282 0.000000
O O20 0.997992 0.500000 0.606621
O O21 0.000000 0.681256 0.500000
#
# Coordination Sequence:
#
# PCOD8061043 Si02
#       8
#     4   4   4   4   4   4   4   4
#     4   9  17  28  43  65  93 125 163 206 246 294
#     4  10  20  33  53  77 101 132 174 213 252 297
#     4   9  17  27  45  70 101 133 168 212 259 303
#     4   9  17  26  39  60  91 131 166 196 242 303
#     4   9  17  28  44  70 101 133 166 211 255 296
#     4   9  16  26  39  58  90 131 166 199 247 301
#     4  10  19  33  50  70  95 129 173 210 252 298
#     4  11  23  38  53  73 103 136 170 210 255 300
#
# _framework density 18.184227
#
# number of rings (size 3 to 8) (size 9 to 14) (size 15 to 20)
#    0.000    2.500    1.250    1.500    1.750    5.500 
#    0.000    0.000    0.000    0.000    0.000    0.000 
#    0.000    8.500    0.000    0.000    0.000    0.500 
#
# Total GULP energy -396436.457883 kJ/mol
# GULP energy per Si atom -12388.639309 kJ/mol
# Density = 1.814284 g / cm^3
# Si number density = 18.184227 Si / 1000 Ang^3
#
#
#
# Elastic Constant Matrix: (Units=GPa)
#
#
# Indices 1 2 3 4 5 6 
#
# 1 129.5792 31.0043 61.5011 0.0000 0.9153 0.0000
# 2 31.0043 34.0512 12.3413 0.0000 4.1279 0.0000
# 3 61.5011 12.3413 138.5631 0.0000 4.2180 0.0000
# 4 0.0000 0.0000 0.0000 10.6044 0.0000 4.0149
# 5 0.9153 4.1279 4.2180 0.0000 28.7324 0.0000
# 6 0.0000 0.0000 0.0000 4.0149 0.0000 5.9049
#
#
#
# Elastic Compliance Matrix: (Units=1/GPa)
#
#
# Indices 1 2 3 4 5 6 
#
# 1 0.012198 -0.009640 -0.004607 0.000000 0.001673 0.000000
# 2 -0.009640 0.038426 0.001020 0.000000 -0.005363 0.000000
# 3 -0.004607 0.001020 0.009212 0.000000 -0.001352 0.000000
# 4 0.000000 0.000000 0.000000 0.126991 0.000000 -0.086346
# 5 0.001673 -0.005363 -0.001352 0.000000 0.035720 0.000000
# 6 0.000000 0.000000 0.000000 -0.086346 0.000000 0.228061
#
#
# Mechanical properties :
#
#
# Convention : Reuss Voigt Hill
#
# Bulk Modulus (GPa) = 29.95645 56.87631 43.41638
# Shear Modulus (GPa) = 10.24192 22.20479 16.22336
#
# Velocity S-wave (km/s) = 2.37582 3.49822 2.99016
# Velocity P-wave (km/s) = 4.90262 6.90380 5.98741
#
# Compressibility (1/GPa) = 0.03338179
#
# Stress axis : x y z
#
# Youngs Moduli (GPa) = 81.97784 26.02429 108.55527
#
# Poissons Ratio (x) = 0.25088 0.50007
# Poissons Ratio (y) = 0.79027 -0.11068
# Poissons Ratio (z) = 0.37764 -0.02653
#
# Static dielectric constant tensor:
#      x y z
#    x 3.502540 0.000000 0.201610 
#    y 0.000000 2.701660 0.000000 
#    z 0.201610 0.000000 3.806660 
# 
# 
# High freq. dielectric constant tensor:
#      x y z
#    x 1.706350 0.000000 0.006490 
#    y 0.000000 1.627700 0.000000 
#    z 0.006490 0.000000 1.730530 
# 
# From -- ./inp_files/34814.got.cif
#   From: 2010.06.25/outbox.cif.g09.slc.cpg/sg10_18_cif.got.tgz:34814.got - 2010.06.27 22:07:45.
