data_PCOD8061617
_publ_section_title
;
Structure prediction by ZEFSAII (Michael W. Deem and Ramdas Pophale) SiO2 
 PCOD8061617
Probable space group: P 2/M
;
_chemical_formula_sum "Si O2"
_cell_formula_units_Z 32
_cell_length_a 12.252458
_cell_length_b 8.377232
_cell_length_c 16.282753
_cell_angle_alpha 90.000000
_cell_angle_beta 88.172831
_cell_angle_gamma 90.000000
_cell_volume 1670.439414
_symmetry_space_group_name_H-M "P 2/M"
_symmetry_group_IT_number 10
_symmetry_cell_setting 'monoclinic'
loop_
_space_group_symop_operation_xyz
x,y,z
-x,y,-z
-x,-y,-z
x,-y,z
loop_
_atom_site_type_symbol
_atom_site_label
_atom_site_fract_x
_atom_site_fract_y
_atom_site_fract_z
Si Si1 0.634342 0.186325 0.212397
Si Si2 0.852540 0.812616 0.290067
Si Si3 0.732590 0.813447 0.884178
Si Si4 0.116279 0.313450 0.531749
Si Si5 0.761877 0.810785 0.621058
Si Si6 0.083809 0.810711 0.237294
Si Si7 0.407714 0.313911 0.258185
Si Si8 0.614644 0.684743 0.035720
O O1 0.744980 0.258218 0.249589
O O2 0.536583 0.282497 0.257543
O O3 0.639131 0.211423 0.114891
O O4 0.620345 0.000000 0.232069
O O5 0.854558 0.776934 0.385986
O O6 0.961067 0.740187 0.242879
O O7 0.853182 0.000000 0.276529
O O8 0.850822 0.757121 0.846171
O O9 0.640525 0.780922 0.818271
O O10 0.731350 0.000000 0.905397
O O11 0.709922 0.714558 0.967149
O O12 0.111960 0.500000 0.550009
O O13 0.212236 0.272313 0.465775
O O14 0.000000 0.251123 0.500000
O O15 0.852027 0.749266 0.683966
O O16 0.644073 0.751352 0.655924
O O17 0.761414 0.000000 0.610237
O O18 0.082926 0.000000 0.241100
O O19 0.383255 0.500000 0.247595
O O20 0.610002 0.500000 0.061006
O O21 0.500000 0.741165 0.000000
#
# Coordination Sequence:
#
# PCOD8061617 Si02
#       8
#     4   4   4   4   4   4   4   4
#     4  11  23  38  59  84 112 150 194 235 279 339
#     4  10  21  39  60  83 113 152 193 232 280 338
#     4  10  19  33  57  86 112 143 188 236 279 331
#     4  11  22  35  55  88 121 150 188 233 283 336
#     4  10  19  34  59  85 112 147 191 237 278 327
#     4   8  16  32  55  83 111 142 182 229 280 325
#     4  11  21  35  55  82 118 150 182 230 290 343
#     4  11  22  36  56  83 113 149 189 234 288 338
#
# _framework density 19.156635999999999
#
# number of rings (size 3 to 8) (size 9 to 14) (size 15 to 20)
#    0.000    1.750    2.500    3.750    0.000    2.000 
#    0.000    1.875    0.000    7.500    0.000    0.000 
#    0.000    0.000    0.000    0.000    0.000    0.000 
#
# Total GULP energy -396851.254419 kJ/mol
# GULP energy per Si atom -12401.601701 kJ/mol
# Density = 1.911303 g / cm^3
# Si number density = 19.156636 Si / 1000 Ang^3
#
#
#
# Elastic Constant Matrix: (Units=GPa)
#
#
# Indices 1 2 3 4 5 6 
#
# 1 139.3634 8.8352 62.2509 0.0000 -13.2403 0.0000
# 2 8.8352 31.9472 -0.8785 0.0000 0.9958 0.0000
# 3 62.2509 -0.8785 91.6274 0.0000 -14.0439 0.0000
# 4 0.0000 0.0000 0.0000 19.4224 0.0000 -3.2200
# 5 -13.2403 0.9958 -14.0439 0.0000 35.6939 0.0000
# 6 0.0000 0.0000 0.0000 -3.2200 0.0000 17.9815
#
#
#
# Elastic Compliance Matrix: (Units=1/GPa)
#
#
# Indices 1 2 3 4 5 6 
#
# 1 0.010659 -0.003182 -0.007079 0.000000 0.001257 0.000000
# 2 -0.003182 0.032281 0.002290 0.000000 -0.001180 0.000000
# 3 -0.007079 0.002290 0.016317 0.000000 0.003730 0.000000
# 4 0.000000 0.000000 0.000000 0.053062 0.000000 0.009502
# 5 0.001257 -0.001180 0.003730 0.000000 0.029983 0.000000
# 6 0.000000 0.000000 0.000000 0.009502 0.000000 0.057314
#
#
# Mechanical properties :
#
#
# Convention : Reuss Voigt Hill
#
# Bulk Modulus (GPa) = 23.08625 44.81701 33.95163
# Shear Modulus (GPa) = 21.73944 27.46823 24.60383
#
# Velocity S-wave (km/s) = 3.37237 3.79076 3.58767
# Velocity P-wave (km/s) = 5.21932 6.52730 5.90961
#
# Compressibility (1/GPa) = 0.04331582
#
# Stress axis : x y z
#
# Youngs Moduli (GPa) = 93.81892 30.97772 61.28542
#
# Poissons Ratio (x) = 0.09856 0.43386
# Poissons Ratio (y) = 0.29850 -0.14036
# Poissons Ratio (z) = 0.66418 -0.07095
#
# Static dielectric constant tensor:
#      x y z
#    x 3.822060 0.000000 -0.244300 
#    y 0.000000 3.315920 0.000000 
#    z -0.244300 0.000000 3.400950 
# 
# 
# High freq. dielectric constant tensor:
#      x y z
#    x 1.740330 0.000000 -0.027770 
#    y 0.000000 1.738590 0.000000 
#    z -0.027770 0.000000 1.734570 
# 
# From -- ./inp_files/55379.got.cif
#   From: 2010.06.25/outbox.cif.g09.slc.cpg/sg10_28_cif.got.tgz:55379.got - 2010.06.27 22:07:45.
