data_PCOD8061448
_publ_section_title
;
Structure prediction by ZEFSAII (Michael W. Deem and Ramdas Pophale) SiO2 
 PCOD8061448
Probable space group: P 2/M
;
_chemical_formula_sum "Si O2"
_cell_formula_units_Z 32
_cell_length_a 21.768317
_cell_length_b 8.587687
_cell_length_c 12.081564
_cell_angle_alpha 90.000000
_cell_angle_beta 45.194758
_cell_angle_gamma 90.000000
_cell_volume 1602.435120
_symmetry_space_group_name_H-M "P 2/M"
_symmetry_group_IT_number 10
_symmetry_cell_setting 'monoclinic'
loop_
_space_group_symop_operation_xyz
x,y,z
-x,y,-z
-x,-y,-z
x,-y,z
loop_
_atom_site_type_symbol
_atom_site_label
_atom_site_fract_x
_atom_site_fract_y
_atom_site_fract_z
Si Si1 0.037977 0.322972 0.067453
Si Si2 0.743992 0.681171 0.948305
Si Si3 0.578482 0.681205 0.770002
Si Si4 0.864994 0.677676 0.413636
Si Si5 0.395598 0.818771 0.033758
Si Si6 0.723093 0.818622 0.442803
Si Si7 0.095184 0.316513 0.397788
Si Si8 0.217854 0.819225 0.874028
O O1 0.072639 0.500000 0.010585
O O2 0.965260 0.313316 0.253070
O O3 0.115765 0.212522 0.004051
O O4 0.000000 0.262302 0.000000
O O5 0.724843 0.500000 0.954102
O O6 0.840723 0.726085 0.784171
O O7 0.674485 0.779339 0.969290
O O8 0.735843 0.722730 0.087624
O O9 0.556213 0.500000 0.797684
O O10 0.489989 0.775866 0.867369
O O11 0.641453 0.721231 0.589032
O O12 0.624595 0.725637 0.827394
O O13 0.830446 0.500000 0.448045
O O14 0.807846 0.785661 0.407973
O O15 0.860859 0.743185 0.544064
O O16 0.392425 0.000000 0.065840
O O17 0.740678 0.765915 0.294750
O O18 0.701376 0.000000 0.477863
O O19 0.083096 0.500000 0.425760
O O20 0.000000 0.240482 0.500000
O O21 0.233776 0.000000 0.875891
#
# Coordination Sequence:
#
# PCOD8061448 Si02
#       8
#     4   4   4   4   4   4   4   4
#     4  10  19  33  55  82 111 149 199 247 294 349
#     4  11  22  38  61  86 116 156 204 248 290 348
#     4  11  22  39  65  94 122 151 192 240 289 346
#     4  10  19  33  56  83 112 148 193 245 299 356
#     4  11  22  40  65  93 125 156 189 233 292 353
#     4  11  23  38  56  83 117 152 192 243 303 356
#     4   9  18  33  54  81 112 147 188 237 289 336
#     4  11  24  39  56  80 116 160 201 245 302 359
#
# _framework density 19.969608000000001
#
# number of rings (size 3 to 8) (size 9 to 14) (size 15 to 20)
#    0.000    1.500    1.250    5.625    0.000    5.250 
#    0.000    1.250    0.000    6.375    0.000    0.000 
#    0.000    0.000    0.000    0.000    0.000    0.000 
#
# Total GULP energy -396946.073209 kJ/mol
# GULP energy per Si atom -12404.564788 kJ/mol
# Density = 1.992416 g / cm^3
# Si number density = 19.969608 Si / 1000 Ang^3
#
#
#
# Elastic Constant Matrix: (Units=GPa)
#
#
# Indices 1 2 3 4 5 6 
#
# 1 99.5362 19.7501 39.2275 0.0000 9.0369 0.0000
# 2 19.7501 62.7426 24.5875 0.0000 3.1372 0.0000
# 3 39.2275 24.5875 106.2718 0.0000 12.6529 0.0000
# 4 0.0000 0.0000 0.0000 27.2910 0.0000 -0.0047
# 5 9.0369 3.1372 12.6529 0.0000 30.7946 0.0000
# 6 0.0000 0.0000 0.0000 -0.0047 0.0000 31.4997
#
#
#
# Elastic Compliance Matrix: (Units=1/GPa)
#
#
# Indices 1 2 3 4 5 6 
#
# 1 0.012133 -0.002263 -0.003741 0.000000 -0.001793 0.000000
# 2 -0.002263 0.017950 -0.003342 0.000000 0.000209 0.000000
# 3 -0.003741 -0.003342 0.011979 0.000000 -0.003483 0.000000
# 4 0.000000 0.000000 0.000000 0.036642 0.000000 0.000006
# 5 -0.001793 0.000209 -0.003483 0.000000 0.034409 0.000000
# 6 0.000000 0.000000 0.000000 0.000006 0.000000 0.031746
#
#
# Mechanical properties :
#
#
# Convention : Reuss Voigt Hill
#
# Bulk Modulus (GPa) = 42.79460 48.40898 45.60179
# Shear Modulus (GPa) = 29.18118 30.24942 29.71530
#
# Velocity S-wave (km/s) = 3.82682 3.89623 3.86168
# Velocity P-wave (km/s) = 6.40331 6.67344 6.53977
#
# Compressibility (1/GPa) = 0.02336744
#
# Stress axis : x y z
#
# Youngs Moduli (GPa) = 82.41999 55.71036 83.47972
#
# Poissons Ratio (x) = 0.12609 0.31234
# Poissons Ratio (y) = 0.18655 0.27902
# Poissons Ratio (z) = 0.30837 0.18621
#
# Static dielectric constant tensor:
#      x y z
#    x 3.564510 0.000000 0.101910 
#    y 0.000000 3.495890 0.000000 
#    z 0.101910 0.000000 3.714430 
# 
# 
# High freq. dielectric constant tensor:
#      x y z
#    x 1.775040 0.000000 0.005690 
#    y 0.000000 1.767600 0.000000 
#    z 0.005690 0.000000 1.784580 
# 
# From -- ./inp_files/55251.got.cif
#   From: 2010.06.25/outbox.cif.g09.slc.cpg/sg10_28_cif.got.tgz:55251.got - 2010.06.27 22:07:45.
