data_PCOD8061527
_publ_section_title
;
Structure prediction by ZEFSAII (Michael W. Deem and Ramdas Pophale) SiO2 
 PCOD8061527
Probable space group: P 2/M
;
_chemical_formula_sum "Si O2"
_cell_formula_units_Z 20
_cell_length_a 11.418889
_cell_length_b 10.303474
_cell_length_c 8.372739
_cell_angle_alpha 90.000000
_cell_angle_beta 97.420277
_cell_angle_gamma 90.000000
_cell_volume 976.838525
_symmetry_space_group_name_H-M "P 2/M"
_symmetry_group_IT_number 10
_symmetry_cell_setting 'monoclinic'
loop_
_space_group_symop_operation_xyz
x,y,z
-x,y,-z
-x,-y,-z
x,-y,z
loop_
_atom_site_type_symbol
_atom_site_label
_atom_site_fract_x
_atom_site_fract_y
_atom_site_fract_z
Si Si1 0.840268 0.000000 0.327946
Si Si2 0.766434 0.246037 0.728996
Si Si3 0.467680 0.149435 0.177951
Si Si4 0.100044 0.500000 0.289934
Si Si5 0.094114 0.000000 0.291042
Si Si6 0.837982 0.500000 0.328285
Si Si7 0.702305 0.247181 0.348101
O O1 0.764240 0.874102 0.272835
O O2 0.878378 0.000000 0.517448
O O3 0.954480 0.000000 0.235440
O O4 0.654001 0.227808 0.823002
O O5 0.839539 0.375748 0.782560
O O6 0.853376 0.127406 0.780588
O O7 0.722452 0.247463 0.539852
O O8 0.563201 0.232227 0.294121
O O9 0.457942 0.000000 0.240197
O O10 0.500000 0.149380 0.000000
O O11 0.124585 0.500000 0.481622
O O12 0.957407 0.500000 0.241160
O O13 0.757443 0.375053 0.276387
#
# Coordination Sequence:
#
# PCOD8061527 Si02
#       7
#     2   4   4   2   2   2   4
#     4   9  16  27  49  80 106 133 174 219 260 309
#     4  10  19  33  56  82 109 141 178 219 265 321
#     4  11  23  38  55  76 108 144 183 232 276 313
#     4   9  18  33  55  86 118 141 168 217 274 321
#     4   9  16  27  49  80 106 133 174 219 260 309
#     4   9  18  33  55  86 118 141 168 217 274 321
#     4  10  19  33  56  82 109 141 178 219 265 321
#
# _framework density 20.474215000000001
#
# number of rings (size 3 to 8) (size 9 to 14) (size 15 to 20)
#    0.000    2.200    2.000    1.800    0.000    6.400 
#    0.000    5.000    0.000    7.200    0.000    0.000 
#    0.000    0.000    0.000    0.000    0.000    0.000 
#
# Total GULP energy -248004.134864 kJ/mol
# GULP energy per Si atom -12400.206743 kJ/mol
# Density = 2.042761 g / cm^3
# Si number density = 20.474215 Si / 1000 Ang^3
#
#
#
# Elastic Constant Matrix: (Units=GPa)
#
#
# Indices 1 2 3 4 5 6 
#
# 1 154.3907 78.6485 14.7499 0.0000 -40.8074 0.0000
# 2 78.6485 186.5604 15.9702 0.0000 -22.5781 0.0000
# 3 14.7499 15.9702 17.7991 0.0000 -10.9048 0.0000
# 4 0.0000 0.0000 0.0000 11.8472 0.0000 -3.4723
# 5 -40.8074 -22.5781 -10.9048 0.0000 21.1459 0.0000
# 6 0.0000 0.0000 0.0000 -3.4723 0.0000 43.9017
#
#
#
# Elastic Compliance Matrix: (Units=1/GPa)
#
#
# Indices 1 2 3 4 5 6 
#
# 1 0.015690 -0.003638 0.009404 0.000000 0.031244 0.000000
# 2 -0.003638 0.007058 -0.004389 0.000000 -0.001749 0.000000
# 3 0.009404 -0.004389 0.088552 0.000000 0.059127 0.000000
# 4 0.000000 0.000000 0.000000 0.086411 0.000000 0.006835
# 5 0.031244 -0.001749 0.059127 0.000000 0.136209 0.000000
# 6 0.000000 0.000000 0.000000 0.006835 0.000000 0.023319
#
#
# Mechanical properties :
#
#
# Convention : Reuss Voigt Hill
#
# Bulk Modulus (GPa) = 8.76779 64.16527 36.46653
# Shear Modulus (GPa) = 12.73871 32.00442 22.37156
#
# Velocity S-wave (km/s) = 2.49707 3.95797 3.30914
# Velocity P-wave (km/s) = 3.55041 7.23152 5.69651
#
# Compressibility (1/GPa) = 0.11405378
#
# Stress axis : x y z
#
# Youngs Moduli (GPa) = 63.73415 141.68085 11.29274
#
# Poissons Ratio (x) = 0.51548 -0.10620
# Poissons Ratio (y) = 0.23189 0.04956
# Poissons Ratio (z) = -0.59935 0.62185
#
# Static dielectric constant tensor:
#      x y z
#    x 3.912620 0.000000 -0.073840 
#    y 0.000000 3.933040 0.000000 
#    z -0.073840 0.000000 3.106570 
# 
# 
# High freq. dielectric constant tensor:
#      x y z
#    x 1.816210 0.000000 -0.009680 
#    y 0.000000 1.805680 0.000000 
#    z -0.009680 0.000000 1.750660 
# 
# From -- ./inp_files/22322.got.cif
#   From: 2010.06.25/outbox.cif.g09.slc.cpg/sg10_12_cif.got.tgz:22322.got - 2010.06.27 22:07:45.
