data_PCOD8061542
_publ_section_title
;
Structure prediction by ZEFSAII (Michael W. Deem and Ramdas Pophale) SiO2 
 PCOD8061542
Probable space group: P 2/M
;
_chemical_formula_sum "Si O2"
_cell_formula_units_Z 28
_cell_length_a 9.767717
_cell_length_b 8.694540
_cell_length_c 28.153275
_cell_angle_alpha 90.000000
_cell_angle_beta 37.844353
_cell_angle_gamma 90.000000
_cell_volume 1466.885742
_symmetry_space_group_name_H-M "P 2/M"
_symmetry_group_IT_number 10
_symmetry_cell_setting 'monoclinic'
loop_
_space_group_symop_operation_xyz
x,y,z
-x,y,-z
-x,-y,-z
x,-y,z
loop_
_atom_site_type_symbol
_atom_site_label
_atom_site_fract_x
_atom_site_fract_y
_atom_site_fract_z
Si Si1 0.252620 0.321171 0.053773
Si Si2 0.951955 0.178877 0.803935
Si Si3 0.983374 0.182423 0.357160
Si Si4 0.647902 0.179392 0.369593
Si Si5 0.848191 0.816982 0.498697
Si Si6 0.762836 0.827942 0.041174
Si Si7 0.654941 0.680799 0.805925
O O1 0.213275 0.500000 0.073816
O O2 0.073677 0.226607 0.134286
O O3 0.500000 0.268654 0.000000
O O4 0.216350 0.283604 0.009183
O O5 0.778486 0.278374 0.821093
O O6 0.203896 0.214897 0.717644
O O7 0.897748 0.000000 0.810931
O O8 0.211079 0.258098 0.276369
O O9 0.775478 0.242004 0.381749
O O10 0.950929 0.234705 0.420224
O O11 0.006193 0.000000 0.345697
O O12 0.402813 0.253598 0.429594
O O13 0.611006 0.000000 0.387390
O O14 0.000000 0.749802 0.500000
O O15 0.841445 0.000000 0.504335
O O16 0.586839 0.760164 0.127139
O O17 0.689508 0.000000 0.045774
O O18 0.000000 0.832835 0.000000
O O19 0.624426 0.500000 0.810342
#
# Coordination Sequence:
#
# PCOD8061542 Si02
#       7
#     4   4   4   4   4   4   4
#     4  11  22  36  58  86 115 149 185 225 278 336
#     4  10  19  33  56  83 111 143 185 235 278 318
#     4   9  17  31  53  78 103 138 178 219 268 322
#     4   8  15  28  48  75 105 136 174 221 270 317
#     4   9  16  28  49  78 108 135 171 222 273 319
#     4  11  24  41  60  83 110 145 190 235 277 325
#     4  11  21  35  56  81 111 144 182 227 278 332
#
# _framework density 19.088056999999999
#
# number of rings (size 3 to 8) (size 9 to 14) (size 15 to 20)
#    0.000    2.143    1.429    3.857    0.000    3.429 
#    2.571    0.000    0.000    8.143    0.000    0.000 
#    0.000    0.000    0.000    0.000    0.000    0.000 
#
# Total GULP energy -347190.653802 kJ/mol
# GULP energy per Si atom -12399.666207 kJ/mol
# Density = 1.904461 g / cm^3
# Si number density = 19.088057 Si / 1000 Ang^3
#
#
#
# Elastic Constant Matrix: (Units=GPa)
#
#
# Indices 1 2 3 4 5 6 
#
# 1 96.4056 20.1187 71.8024 0.0000 2.5986 0.0000
# 2 20.1187 55.0202 39.7568 0.0000 -5.5151 0.0000
# 3 71.8024 39.7568 164.3839 0.0000 1.0524 0.0000
# 4 0.0000 0.0000 0.0000 18.3724 0.0000 12.3609
# 5 2.5986 -5.5151 1.0524 0.0000 29.0744 0.0000
# 6 0.0000 0.0000 0.0000 12.3609 0.0000 17.6369
#
#
#
# Elastic Compliance Matrix: (Units=1/GPa)
#
#
# Indices 1 2 3 4 5 6 
#
# 1 0.015466 -0.001110 -0.006478 0.000000 -0.001358 0.000000
# 2 -0.001110 0.022674 -0.005028 0.000000 0.004582 0.000000
# 3 -0.006478 -0.005028 0.010134 0.000000 -0.000742 0.000000
# 4 0.000000 0.000000 0.000000 0.102994 0.000000 -0.072183
# 5 -0.001358 0.004582 -0.000742 0.000000 0.035412 0.000000
# 6 0.000000 0.000000 0.000000 -0.072183 0.000000 0.107289
#
#
# Mechanical properties :
#
#
# Convention : Reuss Voigt Hill
#
# Bulk Modulus (GPa) = 43.40240 64.35172 53.87706
# Shear Modulus (GPa) = 15.29603 25.29220 20.29411
#
# Velocity S-wave (km/s) = 2.83387 3.64404 3.26419
# Velocity P-wave (km/s) = 5.78749 7.17577 6.51869
#
# Compressibility (1/GPa) = 0.02304020
#
# Stress axis : x y z
#
# Youngs Moduli (GPa) = 64.65700 44.10404 98.67920
#
# Poissons Ratio (x) = 0.04897 0.63928
# Poissons Ratio (y) = 0.07179 0.49616
# Poissons Ratio (z) = 0.41887 0.22176
#
# Static dielectric constant tensor:
#      x y z
#    x 3.039530 0.000000 -0.047670 
#    y 0.000000 3.232220 0.000000 
#    z -0.047670 0.000000 3.754610 
# 
# 
# High freq. dielectric constant tensor:
#      x y z
#    x 1.719160 0.000000 0.001870 
#    y 0.000000 1.715780 0.000000 
#    z 0.001870 0.000000 1.759850 
# 
# From -- ./inp_files/37033.got.cif
#   From: 2010.06.25/outbox.cif.g09.slc.cpg/sg10_19_cif.got.tgz:37033.got - 2010.06.27 22:07:45.
