data_PCOD8061117
_publ_section_title
;
Structure prediction by ZEFSAII (Michael W. Deem and Ramdas Pophale) SiO2 
 PCOD8061117
Probable space group: P 2/M
;
_chemical_formula_sum "Si O2"
_cell_formula_units_Z 32
_cell_length_a 28.188318
_cell_length_b 8.749398
_cell_length_c 14.034814
_cell_angle_alpha 90.000000
_cell_angle_beta 30.558742
_cell_angle_gamma 90.000000
_cell_volume 1759.859032
_symmetry_space_group_name_H-M "P 2/M"
_symmetry_group_IT_number 10
_symmetry_cell_setting 'monoclinic'
loop_
_space_group_symop_operation_xyz
x,y,z
-x,y,-z
-x,-y,-z
x,-y,z
loop_
_atom_site_type_symbol
_atom_site_label
_atom_site_fract_x
_atom_site_fract_y
_atom_site_fract_z
Si Si1 0.366596 0.179781 0.454020
Si Si2 0.187623 0.321151 0.678145
Si Si3 0.730929 0.820304 0.185903
Si Si4 0.438869 0.679561 0.876241
Si Si5 0.335847 0.173804 0.898089
Si Si6 0.893919 0.322384 0.385652
Si Si7 0.743611 0.827248 0.771428
Si Si8 0.088060 0.819497 0.021841
O O1 0.284497 0.233495 0.526372
O O2 0.341171 0.225721 0.606466
O O3 0.461199 0.263492 0.260319
O O4 0.379794 0.000000 0.420092
O O5 0.203423 0.500000 0.666562
O O6 0.155174 0.281466 0.628402
O O7 0.107012 0.262841 0.888483
O O8 0.698092 0.748243 0.141955
O O9 0.734746 0.000000 0.164908
O O10 0.834154 0.763179 0.036590
O O11 0.432379 0.500000 0.898715
O O12 0.422033 0.730068 0.794495
O O13 0.357902 0.756818 0.081846
O O14 0.371225 0.000000 0.820813
O O15 0.250592 0.175453 0.122535
O O16 0.918634 0.500000 0.349996
O O17 0.825982 0.276256 0.588684
O O18 0.987989 0.226086 0.235094
O O19 0.751489 0.000000 0.718286
O O20 0.095201 0.000000 0.992626
#
# Coordination Sequence:
#
# PCOD8061117 Si02
#       8
#     4   4   4   4   4   4   4   4
#     4  10  19  33  54  79 106 138 174 213 254 304
#     4  10  21  36  53  77 108 139 168 208 264 313
#     4   8  16  32  53  77 105 136 172 212 256 300
#     4  10  19  33  52  75 108 140 169 211 258 305
#     4   8  16  33  54  74 101 137 175 213 252 299
#     4  11  22  36  55  76 104 139 171 211 265 314
#     4   9  19  35  56  76  98 134 178 220 253 297
#     4  10  20  34  55  81 107 137 173 213 253 303
#
# _framework density 18.183275999999999
#
# number of rings (size 3 to 8) (size 9 to 14) (size 15 to 20)
#    0.750    1.750    0.000    3.750    0.000    4.000 
#    0.000    7.500    0.000    7.500    0.000    0.000 
#    0.000    0.000    0.000    0.000    0.000    0.000 
#
# Total GULP energy -396653.926520 kJ/mol
# GULP energy per Si atom -12395.435204 kJ/mol
# Density = 1.814189 g / cm^3
# Si number density = 18.183276 Si / 1000 Ang^3
#
#
#
# Elastic Constant Matrix: (Units=GPa)
#
#
# Indices 1 2 3 4 5 6 
#
# 1 30.3802 15.7562 4.1764 0.0000 -9.4579 0.0000
# 2 15.7562 59.5310 14.0573 0.0000 -6.0259 0.0000
# 3 4.1764 14.0573 68.9886 0.0000 -13.3959 0.0000
# 4 0.0000 0.0000 0.0000 30.8243 0.0000 -4.1799
# 5 -9.4579 -6.0259 -13.3959 0.0000 16.8829 0.0000
# 6 0.0000 0.0000 0.0000 -4.1799 0.0000 20.5124
#
#
#
# Elastic Compliance Matrix: (Units=1/GPa)
#
#
# Indices 1 2 3 4 5 6 
#
# 1 0.045639 -0.010539 0.004278 0.000000 0.025200 0.000000
# 2 -0.010539 0.020321 -0.003831 0.000000 -0.001690 0.000000
# 3 0.004278 -0.003831 0.017988 0.000000 0.015302 0.000000
# 4 0.000000 0.000000 0.000000 0.033364 0.000000 0.006799
# 5 0.025200 -0.001690 0.015302 0.000000 0.084886 0.000000
# 6 0.000000 0.000000 0.000000 0.006799 0.000000 0.050136
#
#
# Mechanical properties :
#
#
# Convention : Reuss Voigt Hill
#
# Bulk Modulus (GPa) = 15.68279 25.20883 20.44581
# Shear Modulus (GPa) = 17.01996 21.97127 19.49561
#
# Velocity S-wave (km/s) = 3.06277 3.47987 3.27796
# Velocity P-wave (km/s) = 4.59902 5.48086 5.05919
#
# Compressibility (1/GPa) = 0.06376415
#
# Stress axis : x y z
#
# Youngs Moduli (GPa) = 21.91107 49.21078 55.59266
#
# Poissons Ratio (x) = 0.51862 -0.23781
# Poissons Ratio (y) = 0.23091 0.21297
# Poissons Ratio (z) = -0.09373 0.18852
#
# Static dielectric constant tensor:
#      x y z
#    x 3.373630 0.000000 -0.049070 
#    y 0.000000 3.265010 0.000000 
#    z -0.049070 0.000000 3.221710 
# 
# 
# High freq. dielectric constant tensor:
#      x y z
#    x 1.689380 0.000000 -0.008230 
#    y 0.000000 1.703820 0.000000 
#    z -0.008230 0.000000 1.696020 
# 
# From -- ./inp_files/72550.got.cif
#   From: 2010.06.25/outbox.cif.g09.slc.cpg/sg10_37_cif.got.tgz:72550.got - 2010.06.27 22:07:45.
