data_PCOD8061902
_publ_section_title
;
Structure prediction by ZEFSAII (Michael W. Deem and Ramdas Pophale) SiO2 
 PCOD8061902
Probable space group: P 2/M
;
_chemical_formula_sum "Si O2"
_cell_formula_units_Z 28
_cell_length_a 31.306636
_cell_length_b 8.519745
_cell_length_c 32.179626
_cell_angle_alpha 90.000000
_cell_angle_beta 170.756844
_cell_angle_gamma 90.000000
_cell_volume 1378.657011
_symmetry_space_group_name_H-M "P 2/M"
_symmetry_group_IT_number 10
_symmetry_cell_setting 'monoclinic'
loop_
_space_group_symop_operation_xyz
x,y,z
-x,y,-z
-x,-y,-z
x,-y,z
loop_
_atom_site_type_symbol
_atom_site_label
_atom_site_fract_x
_atom_site_fract_y
_atom_site_fract_z
Si Si1 0.408761 0.819126 0.459354
Si Si2 0.433731 0.315177 0.813405
Si Si3 0.270355 0.815198 0.081620
Si Si4 0.848095 0.315320 0.942414
Si Si5 0.993415 0.687142 0.661393
Si Si6 0.159095 0.314209 0.393859
Si Si7 0.709377 0.816600 0.235967
O O1 0.500000 0.800929 0.500000
O O2 0.639562 0.752307 0.709678
O O3 0.352214 0.000000 0.416601
O O4 0.144079 0.718039 0.210882
O O5 0.442592 0.500000 0.816511
O O6 0.720187 0.243601 0.076596
O O7 0.217887 0.243650 0.574407
O O8 0.358018 0.276554 0.787463
O O9 0.194549 0.769338 0.055123
O O10 0.553964 0.747427 0.342348
O O11 0.276306 0.000000 0.082798
O O12 0.052243 0.746381 0.841711
O O13 0.804337 0.500000 0.905551
O O14 0.995115 0.500000 0.661984
O O15 0.918882 0.749135 0.635479
O O16 0.162396 0.500000 0.396003
O O17 0.000000 0.765145 0.500000
O O18 0.693801 0.000000 0.230732
O O19 0.500000 0.765336 0.000000
#
# Coordination Sequence:
#
# PCOD8061902 Si02
#       7
#     4   4   4   4   4   4   4
#     4  11  24  43  66  93 127 165 202 247 308 366
#     4  10  19  34  56  82 108 139 182 229 280 334
#     4  12  25  42  62  90 127 161 199 252 308 355
#     4  12  25  42  65  93 124 162 209 254 299 357
#     4   9  19  35  57  83 112 144 181 232 286 338
#     4  11  22  41  66  90 119 160 205 244 295 363
#     4  10  21  36  52  73 105 143 180 221 274 332
#
# _framework density 20.309619000000001
#
# number of rings (size 3 to 8) (size 9 to 14) (size 15 to 20)
#    0.000    1.286    0.000    6.429    0.000    5.714 
#    0.000    4.286    0.000    0.000    0.000    0.000 
#    0.000    0.000    0.000    0.000    0.000    0.000 
#
# Total GULP energy -347352.876208 kJ/mol
# GULP energy per Si atom -12405.459865 kJ/mol
# Density = 2.026339 g / cm^3
# Si number density = 20.309619 Si / 1000 Ang^3
#
#
#
# Elastic Constant Matrix: (Units=GPa)
#
#
# Indices 1 2 3 4 5 6 
#
# 1 191.9351 28.3279 73.4062 0.0000 -17.7162 0.0000
# 2 28.3279 62.4849 26.6650 0.0000 -4.7888 0.0000
# 3 73.4062 26.6650 201.9449 0.0000 -6.0402 0.0000
# 4 0.0000 0.0000 0.0000 60.9739 0.0000 53.9427
# 5 -17.7162 -4.7888 -6.0402 0.0000 49.5126 0.0000
# 6 0.0000 0.0000 0.0000 53.9427 0.0000 198.0428
#
#
#
# Elastic Compliance Matrix: (Units=1/GPa)
#
#
# Indices 1 2 3 4 5 6 
#
# 1 0.006443 -0.001909 -0.002034 0.000000 0.001872 0.000000
# 2 -0.001909 0.017619 -0.001608 0.000000 0.000825 0.000000
# 3 -0.002034 -0.001608 0.005898 0.000000 -0.000164 0.000000
# 4 0.000000 0.000000 0.000000 0.021607 0.000000 -0.005885
# 5 0.001872 0.000825 -0.000164 0.000000 0.020927 0.000000
# 6 0.000000 0.000000 0.000000 -0.005885 0.000000 0.006652
#
#
# Mechanical properties :
#
#
# Convention : Reuss Voigt Hill
#
# Bulk Modulus (GPa) = 53.02725 79.24035 66.13380
# Shear Modulus (GPa) = 51.79541 83.57024 67.68282
#
# Velocity S-wave (km/s) = 5.05552 6.42164 5.77909
# Velocity P-wave (km/s) = 7.76169 9.69970 8.78430
#
# Compressibility (1/GPa) = 0.01885823
#
# Stress axis : x y z
#
# Youngs Moduli (GPa) = 155.21839 56.75766 169.53519
#
# Poissons Ratio (x) = 0.10837 0.34479
# Poissons Ratio (y) = 0.29637 0.27256
# Poissons Ratio (z) = 0.31567 0.09125
#
# Static dielectric constant tensor:
#      x y z
#    x 3.828430 0.000000 0.032360 
#    y 0.000000 3.618510 0.000000 
#    z 0.032360 0.000000 3.879580 
# 
# 
# High freq. dielectric constant tensor:
#      x y z
#    x 1.813380 0.000000 -0.000930 
#    y 0.000000 1.783990 0.000000 
#    z -0.000930 0.000000 1.818910 
# 
# From -- ./inp_files/96038.got.cif
#   From: 2010.06.25/outbox.cif.g09.slc.cpg/sg10_49_cif.got.tgz:96038.got - 2010.06.27 22:07:45.
