data_PCOD8061528
_publ_section_title
;
Structure prediction by ZEFSAII (Michael W. Deem and Ramdas Pophale) SiO2 
 PCOD8061528
Probable space group: P 2/M
;
_chemical_formula_sum "Si O2"
_cell_formula_units_Z 28
_cell_length_a 17.943148
_cell_length_b 8.815090
_cell_length_c 20.066705
_cell_angle_alpha 90.000000
_cell_angle_beta 151.659460
_cell_angle_gamma 90.000000
_cell_volume 1506.713997
_symmetry_space_group_name_H-M "P 2/M"
_symmetry_group_IT_number 10
_symmetry_cell_setting 'monoclinic'
loop_
_space_group_symop_operation_xyz
x,y,z
-x,y,-z
-x,-y,-z
x,-y,z
loop_
_atom_site_type_symbol
_atom_site_label
_atom_site_fract_x
_atom_site_fract_y
_atom_site_fract_z
Si Si1 0.243222 0.320006 0.508108
Si Si2 0.981022 0.326693 0.784510
Si Si3 0.156067 0.178594 0.582841
Si Si4 0.428640 0.825749 0.239070
Si Si5 0.672294 0.664185 0.960598
Si Si6 0.917141 0.179555 0.001395
Si Si7 0.574466 0.669625 0.124128
O O1 0.234017 0.500000 0.508636
O O2 0.140243 0.258985 0.364926
O O3 0.180838 0.253654 0.529437
O O4 0.418659 0.272826 0.623937
O O5 0.937224 0.500000 0.765542
O O6 0.985320 0.241275 0.858741
O O7 0.147546 0.306916 0.879471
O O8 0.298539 0.221640 0.743119
O O9 0.000000 0.232581 0.500000
O O10 0.152894 0.000000 0.568312
O O11 0.397613 0.803417 0.136355
O O12 0.464672 0.000000 0.284021
O O13 0.266456 0.768066 0.146380
O O14 0.657381 0.500000 0.910539
O O15 0.580408 0.653589 0.955296
O O16 0.923040 0.000000 0.010970
O O17 0.000000 0.240819 0.000000
O O18 0.645720 0.500000 0.167885
O O19 0.500000 0.745081 0.000000
#
# Coordination Sequence:
#
# PCOD8061528 Si02
#       7
#     4   4   4   4   4   4   4
#     4  11  22  37  58  82 111 148 188 230 273 329
#     4   9  20  35  55  83 112 143 184 227 272 323
#     4  11  25  41  55  78 112 149 188 233 283 330
#     4  10  19  33  56  82 109 143 179 221 272 324
#     4   9  17  33  53  76 104 136 179 228 269 320
#     4   9  19  37  60  86 114 145 183 223 269 329
#     4  10  21  35  56  81 105 139 184 230 277 327
#
# _framework density 18.583487999999999
#
# number of rings (size 3 to 8) (size 9 to 14) (size 15 to 20)
#    0.000    2.143    1.429    1.286    2.000    3.429 
#    0.000    0.714    0.000    4.286    0.000    0.000 
#    0.000    0.000    0.000    0.000    0.000    0.000 
#
# Total GULP energy -346902.311686 kJ/mol
# GULP energy per Si atom -12389.368274 kJ/mol
# Density = 1.854119 g / cm^3
# Si number density = 18.583488 Si / 1000 Ang^3
#
#
#
# Elastic Constant Matrix: (Units=GPa)
#
#
# Indices 1 2 3 4 5 6 
#
# 1 120.0040 36.6260 81.4284 0.0000 1.0921 0.0000
# 2 36.6260 50.6369 36.7118 0.0000 0.1191 0.0000
# 3 81.4284 36.7118 149.5981 0.0000 -6.6979 0.0000
# 4 0.0000 0.0000 0.0000 12.4552 0.0000 3.5770
# 5 1.0921 0.1191 -6.6979 0.0000 23.7517 0.0000
# 6 0.0000 0.0000 0.0000 3.5770 0.0000 20.9859
#
#
#
# Elastic Compliance Matrix: (Units=1/GPa)
#
#
# Indices 1 2 3 4 5 6 
#
# 1 0.014635 -0.005744 -0.006669 0.000000 -0.002525 0.000000
# 2 -0.005744 0.026354 -0.003377 0.000000 -0.000820 0.000000
# 3 -0.006669 -0.003377 0.011301 0.000000 0.003510 0.000000
# 4 0.000000 0.000000 0.000000 0.084421 0.000000 -0.014389
# 5 -0.002525 -0.000820 0.003510 0.000000 0.043212 0.000000
# 6 0.000000 0.000000 0.000000 -0.014389 0.000000 0.050104
#
#
# Mechanical properties :
#
#
# Convention : Reuss Voigt Hill
#
# Bulk Modulus (GPa) = 48.29165 69.97462 59.13313
# Shear Modulus (GPa) = 18.62129 22.47007 20.54568
#
# Velocity S-wave (km/s) = 3.16893 3.48104 3.32865
# Velocity P-wave (km/s) = 6.27951 7.34117 6.83100
#
# Compressibility (1/GPa) = 0.02070751
#
# Stress axis : x y z
#
# Youngs Moduli (GPa) = 68.33136 37.94525 88.48988
#
# Poissons Ratio (x) = 0.21796 0.59016
# Poissons Ratio (y) = 0.39251 0.29887
# Poissons Ratio (z) = 0.45572 0.12816
#
# Static dielectric constant tensor:
#      x y z
#    x 3.484060 0.000000 0.177780 
#    y 0.000000 3.446460 0.000000 
#    z 0.177780 0.000000 3.599110 
# 
# 
# High freq. dielectric constant tensor:
#      x y z
#    x 1.712060 0.000000 0.009180 
#    y 0.000000 1.717080 0.000000 
#    z 0.009180 0.000000 1.726380 
# 
# From -- ./inp_files/86669.got.cif
#   From: 2010.06.25/outbox.cif.g09.slc.cpg/sg10_44_cif.got.tgz:86669.got - 2010.06.27 22:07:45.
