data_PCOD8061369
_publ_section_title
;
Structure prediction by ZEFSAII (Michael W. Deem and Ramdas Pophale) SiO2 
 PCOD8061369
Probable space group: P 2/M
;
_chemical_formula_sum "Si O2"
_cell_formula_units_Z 28
_cell_length_a 9.203678
_cell_length_b 9.501275
_cell_length_c 26.718941
_cell_angle_alpha 90.000000
_cell_angle_beta 41.107722
_cell_angle_gamma 90.000000
_cell_volume 1536.183084
_symmetry_space_group_name_H-M "P 2/M"
_symmetry_group_IT_number 10
_symmetry_cell_setting 'monoclinic'
loop_
_space_group_symop_operation_xyz
x,y,z
-x,y,-z
-x,-y,-z
x,-y,z
loop_
_atom_site_type_symbol
_atom_site_label
_atom_site_fract_x
_atom_site_fract_y
_atom_site_fract_z
Si Si1 0.258010 0.656448 0.934363
Si Si2 0.650366 0.839563 0.284529
Si Si3 0.634719 0.654826 0.199551
Si Si4 0.139480 0.835809 0.415747
Si Si5 0.469486 0.836099 0.065255
Si Si6 0.063456 0.836908 0.241865
Si Si7 0.874538 0.342060 0.673949
O O1 0.364260 0.500000 0.912513
O O2 0.332635 0.726772 0.862786
O O3 0.333464 0.755422 0.959059
O O4 0.000000 0.644160 0.000000
O O5 0.743931 0.749114 0.214052
O O6 0.395851 0.801632 0.362625
O O7 0.811295 0.810168 0.289598
O O8 0.671230 0.000000 0.261911
O O9 0.747602 0.500000 0.171362
O O10 0.377356 0.641183 0.275711
O O11 0.000000 0.790285 0.500000
O O12 0.033423 0.750563 0.396295
O O13 0.110582 0.000000 0.410519
O O14 0.233870 0.797533 0.152471
O O15 0.515918 0.000000 0.058414
O O16 0.500000 0.788151 0.000000
O O17 0.098373 0.737389 0.280428
O O18 0.097382 0.000000 0.248747
O O19 0.981340 0.500000 0.649125
#
# Coordination Sequence:
#
# PCOD8061369 Si02
#       7
#     4   4   4   4   4   4   4
#     4  10  21  36  52  73 102 135 175 219 263 313
#     4   9  19  33  53  79 103 132 173 213 256 309
#     4   9  18  33  50  72 100 131 171 216 258 304
#     4   9  18  35  58  82 108 137 170 211 260 313
#     4  10  22  37  52  74 105 139 177 222 268 310
#     4  10  20  35  53  75 106 140 175 217 261 311
#     4  10  19  33  55  79 104 137 175 214 257 308
#
# _framework density 18.226994999999999
#
# number of rings (size 3 to 8) (size 9 to 14) (size 15 to 20)
#    0.000    2.429    1.429    0.429    2.000    2.571 
#    0.000    0.714    0.000    4.286    0.000    0.000 
#    0.000    0.000    0.000    0.000    0.000    0.000 
#
# Total GULP energy -347015.042998 kJ/mol
# GULP energy per Si atom -12393.394393 kJ/mol
# Density = 1.818551 g / cm^3
# Si number density = 18.226995 Si / 1000 Ang^3
#
#
#
# Elastic Constant Matrix: (Units=GPa)
#
#
# Indices 1 2 3 4 5 6 
#
# 1 98.4832 61.6535 48.1662 0.0000 17.3186 0.0000
# 2 61.6535 81.9862 46.3326 0.0000 19.2076 0.0000
# 3 48.1662 46.3326 95.6457 0.0000 27.8102 0.0000
# 4 0.0000 0.0000 0.0000 21.0541 0.0000 6.0432
# 5 17.3186 19.2076 27.8102 0.0000 31.8159 0.0000
# 6 0.0000 0.0000 0.0000 6.0432 0.0000 24.5159
#
#
#
# Elastic Compliance Matrix: (Units=1/GPa)
#
#
# Indices 1 2 3 4 5 6 
#
# 1 0.020178 -0.013018 -0.003951 0.000000 0.000329 0.000000
# 2 -0.013018 0.025594 -0.004572 0.000000 -0.004369 0.000000
# 3 -0.003951 -0.004572 0.017741 0.000000 -0.010596 0.000000
# 4 0.000000 0.000000 0.000000 0.051113 0.000000 -0.012600
# 5 0.000329 -0.004369 -0.010596 0.000000 0.043151 0.000000
# 6 0.000000 0.000000 0.000000 -0.012600 0.000000 0.043896
#
#
# Mechanical properties :
#
#
# Convention : Reuss Voigt Hill
#
# Bulk Modulus (GPa) = 48.94674 65.37997 57.16336
# Shear Modulus (GPa) = 19.87540 23.47468 21.67504
#
# Velocity S-wave (km/s) = 3.30576 3.59264 3.45218
# Velocity P-wave (km/s) = 6.44073 7.29089 6.87896
#
# Compressibility (1/GPa) = 0.02043037
#
# Stress axis : x y z
#
# Youngs Moduli (GPa) = 49.55785 39.07098 56.36738
#
# Poissons Ratio (x) = 0.50864 0.22270
# Poissons Ratio (y) = 0.64517 0.25773
# Poissons Ratio (z) = 0.19580 0.17864
#
# Static dielectric constant tensor:
#      x y z
#    x 3.229560 0.000000 -0.027210 
#    y 0.000000 3.652990 0.000000 
#    z -0.027210 0.000000 2.897830 
# 
# 
# High freq. dielectric constant tensor:
#      x y z
#    x 1.697340 0.000000 0.011830 
#    y 0.000000 1.707480 0.000000 
#    z 0.011830 0.000000 1.696100 
# 
# From -- ./inp_files/36901.got.cif
#   From: 2010.06.25/outbox.cif.g09.slc.cpg/sg10_19_cif.got.tgz:36901.got - 2010.06.27 22:07:45.
