data_PCOD8061482
_publ_section_title
;
Structure prediction by ZEFSAII (Michael W. Deem and Ramdas Pophale) SiO2 
 PCOD8061482
Probable space group: P 2/M
;
_chemical_formula_sum "Si O2"
_cell_formula_units_Z 20
_cell_length_a 11.818871
_cell_length_b 10.320734
_cell_length_c 12.249665
_cell_angle_alpha 90.000000
_cell_angle_beta 43.483484
_cell_angle_gamma 90.000000
_cell_volume 1028.231805
_symmetry_space_group_name_H-M "P 2/M"
_symmetry_group_IT_number 10
_symmetry_cell_setting 'monoclinic'
loop_
_space_group_symop_operation_xyz
x,y,z
-x,y,-z
-x,-y,-z
x,-y,z
loop_
_atom_site_type_symbol
_atom_site_label
_atom_site_fract_x
_atom_site_fract_y
_atom_site_fract_z
Si Si1 0.647762 0.154057 0.966675
Si Si2 0.855525 0.358063 0.314781
Si Si3 0.001761 0.152091 0.370077
Si Si4 0.653932 0.852604 0.200860
Si Si5 0.000000 0.747570 0.000000
Si Si6 0.500000 0.709513 0.500000
O O1 0.819483 0.195122 0.794624
O O2 0.636265 0.000000 0.978374
O O3 0.500000 0.214213 0.000000
O O4 0.630750 0.214480 0.099168
O O5 0.899952 0.500000 0.332890
O O6 0.875471 0.244403 0.391799
O O7 0.666466 0.370028 0.405741
O O8 0.975745 0.337308 0.126359
O O9 0.000000 0.179363 0.500000
O O10 0.961654 0.000000 0.373506
O O11 0.526063 0.794404 0.374548
O O12 0.604289 0.000000 0.225998
O O13 0.842833 0.840436 0.103759
#
# Coordination Sequence:
#
# PCOD8061482 Si02
#       6
#     4   4   4   4   2   2
#     4   9  18  33  55  81 114 151 187 233 293 350
#     4  11  23  41  62  85 119 161 202 245 297 355
#     4  10  22  39  62  90 119 152 196 248 298 351
#     4  10  19  33  55  86 119 152 191 242 299 354
#     4  10  20  36  58  84 113 154 199 244 295 356
#     4  10  24  36  54  86 119 160 199 242 291 352
#
# _framework density 19.450866000000001
#
# number of rings (size 3 to 8) (size 9 to 14) (size 15 to 20)
#    0.000    2.000    2.000    1.200    2.800    4.400 
#    0.000    0.000    0.000    0.600    0.000    0.000 
#    0.000    0.000    0.000    0.000    0.000    0.000 
#
# Total GULP energy -247872.045585 kJ/mol
# GULP energy per Si atom -12393.602279 kJ/mol
# Density = 1.940659 g / cm^3
# Si number density = 19.450866 Si / 1000 Ang^3
#
#
#
# Elastic Constant Matrix: (Units=GPa)
#
#
# Indices 1 2 3 4 5 6 
#
# 1 97.6458 36.0117 36.0119 0.0000 16.1660 0.0000
# 2 36.0117 85.9849 29.5537 0.0000 13.5727 0.0000
# 3 36.0119 29.5537 128.7807 0.0000 23.6356 0.0000
# 4 0.0000 0.0000 0.0000 7.3803 0.0000 5.4674
# 5 16.1660 13.5727 23.6356 0.0000 40.0064 0.0000
# 6 0.0000 0.0000 0.0000 5.4674 0.0000 16.9771
#
#
#
# Elastic Compliance Matrix: (Units=1/GPa)
#
#
# Indices 1 2 3 4 5 6 
#
# 1 0.013061 -0.004317 -0.002200 0.000000 -0.002513 0.000000
# 2 -0.004317 0.014357 -0.001698 0.000000 -0.002123 0.000000
# 3 -0.002200 -0.001698 0.009535 0.000000 -0.004168 0.000000
# 4 0.000000 0.000000 0.000000 0.177950 0.000000 -0.057308
# 5 -0.002513 -0.002123 -0.004168 0.000000 0.029194 0.000000
# 6 0.000000 0.000000 0.000000 -0.057308 0.000000 0.077358
#
#
# Mechanical properties :
#
#
# Convention : Reuss Voigt Hill
#
# Bulk Modulus (GPa) = 48.72790 57.28510 53.00650
# Shear Modulus (GPa) = 14.50426 26.92836 20.71631
#
# Velocity S-wave (km/s) = 2.73369 3.72483 3.26706
# Velocity P-wave (km/s) = 5.92201 6.92923 6.44533
#
# Compressibility (1/GPa) = 0.02052212
#
# Stress axis : x y z
#
# Youngs Moduli (GPa) = 76.56514 69.65385 104.87618
#
# Poissons Ratio (x) = 0.30070 0.23076
# Poissons Ratio (y) = 0.33054 0.17806
# Poissons Ratio (z) = 0.16847 0.11826
#
# Static dielectric constant tensor:
#      x y z
#    x 3.719640 0.000000 0.191520 
#    y 0.000000 3.162640 0.000000 
#    z 0.191520 0.000000 3.798650 
# 
# 
# High freq. dielectric constant tensor:
#      x y z
#    x 1.758700 0.000000 0.004410 
#    y 0.000000 1.719000 0.000000 
#    z 0.004410 0.000000 1.773230 
# 
# From -- ./inp_files/23600.got.cif
#   From: 2010.06.25/outbox.cif.g09.slc.cpg/sg10_12_cif.got.tgz:23600.got - 2010.06.27 22:07:45.
