data_PCOD8061654
_publ_section_title
;
Structure prediction by ZEFSAII (Michael W. Deem and Ramdas Pophale) SiO2 
 PCOD8061654
Probable space group: P 2/M
;
_chemical_formula_sum "Si O2"
_cell_formula_units_Z 32
_cell_length_a 10.039053
_cell_length_b 9.652219
_cell_length_c 16.134923
_cell_angle_alpha 90.000000
_cell_angle_beta 86.872817
_cell_angle_gamma 90.000000
_cell_volume 1561.131986
_symmetry_space_group_name_H-M "P 2/M"
_symmetry_group_IT_number 10
_symmetry_cell_setting 'monoclinic'
loop_
_space_group_symop_operation_xyz
x,y,z
-x,y,-z
-x,-y,-z
x,-y,z
loop_
_atom_site_type_symbol
_atom_site_label
_atom_site_fract_x
_atom_site_fract_y
_atom_site_fract_z
Si Si1 0.098138 0.159321 0.761859
Si Si2 0.821922 0.847360 0.712569
Si Si3 0.292873 0.842243 0.891787
Si Si4 0.433285 0.241009 0.196870
Si Si5 0.650952 0.649184 0.967123
Si Si6 0.768704 0.341008 0.564616
Si Si7 0.241100 0.834745 0.592396
Si Si8 0.478395 0.348004 0.636744
O O1 0.186150 0.228969 0.831989
O O2 0.141670 0.208714 0.669197
O O3 0.939319 0.186480 0.775784
O O4 0.138121 0.000000 0.768160
O O5 0.676445 0.860679 0.759161
O O6 0.831567 0.728122 0.643790
O O7 0.852282 0.000000 0.672819
O O8 0.442043 0.838010 0.848469
O O9 0.258228 0.000000 0.913970
O O10 0.275394 0.762995 0.979368
O O11 0.347694 0.321612 0.130752
O O12 0.486234 0.342395 0.266826
O O13 0.720059 0.500000 0.979768
O O14 0.500000 0.642432 0.000000
O O15 0.819485 0.500000 0.554775
O O16 0.813367 0.247731 0.485369
O O17 0.609041 0.336718 0.575588
O O18 0.386635 0.779702 0.613455
O O19 0.248621 0.000000 0.575313
O O20 0.411733 0.500000 0.623664
#
# Coordination Sequence:
#
# PCOD8061654 Si02
#       8
#     4   4   4   4   4   4   4   4
#     4   9  20  38  56  80 114 147 180 229 285 327
#     4  10  21  38  60  82 109 147 188 226 274 334
#     4  10  19  35  57  83 113 141 180 232 275 319
#     4  10  19  33  59  86 110 141 186 229 270 325
#     4   9  19  34  54  83 115 146 180 221 274 331
#     4  10  22  38  54  79 114 146 181 230 282 328
#     4  11  21  35  56  80 109 146 188 231 276 327
#     4  10  20  34  54  80 112 147 180 224 282 333
#
# _framework density 20.497947
#
# number of rings (size 3 to 8) (size 9 to 14) (size 15 to 20)
#    0.000    2.125    1.250    1.875    0.000    8.250 
#    0.000    5.000    0.000    3.000    0.000    0.000 
#    0.000    0.000    0.000    0.000    0.000    0.000 
#
# Total GULP energy -396574.234110 kJ/mol
# GULP energy per Si atom -12392.944816 kJ/mol
# Density = 2.045129 g / cm^3
# Si number density = 20.497947 Si / 1000 Ang^3
#
#
#
# Elastic Constant Matrix: (Units=GPa)
#
#
# Indices 1 2 3 4 5 6 
#
# 1 70.0878 21.0423 11.2821 0.0000 23.0399 0.0000
# 2 21.0423 124.2335 40.3583 0.0000 17.1884 0.0000
# 3 11.2821 40.3583 98.5120 0.0000 23.0007 0.0000
# 4 0.0000 0.0000 0.0000 18.5092 0.0000 7.6879
# 5 23.0399 17.1884 23.0007 0.0000 21.8806 0.0000
# 6 0.0000 0.0000 0.0000 7.6879 0.0000 12.6003
#
#
#
# Elastic Compliance Matrix: (Units=1/GPa)
#
#
# Indices 1 2 3 4 5 6 
#
# 1 0.023187 -0.001520 0.004491 0.000000 -0.027942 0.000000
# 2 -0.001520 0.009711 -0.003177 0.000000 -0.002688 0.000000
# 3 0.004491 -0.003177 0.015187 0.000000 -0.018199 0.000000
# 4 0.000000 0.000000 0.000000 0.072366 0.000000 -0.044153
# 5 -0.027942 -0.002688 -0.018199 0.000000 0.096367 0.000000
# 6 0.000000 0.000000 0.000000 -0.044153 0.000000 0.106302
#
#
# Mechanical properties :
#
#
# Convention : Reuss Voigt Hill
#
# Bulk Modulus (GPa) = 20.97608 48.68875 34.83242
# Shear Modulus (GPa) = 14.73095 25.27474 20.00284
#
# Velocity S-wave (km/s) = 2.68368 3.51527 3.12724
# Velocity P-wave (km/s) = 4.45627 6.34671 5.48357
#
# Compressibility (1/GPa) = 0.04767334
#
# Stress axis : x y z
#
# Youngs Moduli (GPa) = 43.12821 102.97896 65.84567
#
# Poissons Ratio (x) = 0.15657 -0.29574
# Poissons Ratio (y) = 0.06557 0.20916
# Poissons Ratio (z) = -0.19371 0.32711
#
# Static dielectric constant tensor:
#      x y z
#    x 3.506910 0.000000 0.069640 
#    y 0.000000 3.697280 0.000000 
#    z 0.069640 0.000000 3.907580 
# 
# 
# High freq. dielectric constant tensor:
#      x y z
#    x 1.779210 0.000000 0.012850 
#    y 0.000000 1.792420 0.000000 
#    z 0.012850 0.000000 1.803850 
# 
# From -- ./inp_files/75978.got.cif
#   From: 2010.06.25/outbox.cif.g09.slc.cpg/sg10_38_cif.got.tgz:75978.got - 2010.06.27 22:07:45.
