data_PCOD8061545
_publ_section_title
;
Structure prediction by ZEFSAII (Michael W. Deem and Ramdas Pophale) SiO2 
 PCOD8061545
Probable space group: P 2/M
;
_chemical_formula_sum "Si O2"
_cell_formula_units_Z 32
_cell_length_a 21.300276
_cell_length_b 8.977642
_cell_length_c 27.645983
_cell_angle_alpha 90.000000
_cell_angle_beta 18.987183
_cell_angle_gamma 90.000000
_cell_volume 1720.042660
_symmetry_space_group_name_H-M "P 2/M"
_symmetry_group_IT_number 10
_symmetry_cell_setting 'monoclinic'
loop_
_space_group_symop_operation_xyz
x,y,z
-x,y,-z
-x,-y,-z
x,-y,z
loop_
_atom_site_type_symbol
_atom_site_label
_atom_site_fract_x
_atom_site_fract_y
_atom_site_fract_z
Si Si1 0.694863 0.326946 0.093095
Si Si2 0.897188 0.827605 0.687721
Si Si3 0.716281 0.824424 0.335377
Si Si4 0.405218 0.828921 0.174897
Si Si5 0.036806 0.824436 0.176560
Si Si6 0.679500 0.172632 0.653552
Si Si7 0.791424 0.324534 0.862442
Si Si8 0.019686 0.326929 0.931544
O O1 0.699194 0.500000 0.075702
O O2 0.478033 0.271013 0.260348
O O3 0.778057 0.231964 0.988016
O O4 0.818227 0.295904 0.051332
O O5 0.768850 0.795404 0.734458
O O6 0.818044 0.727485 0.788432
O O7 0.114207 0.779626 0.517353
O O8 0.884921 0.000000 0.711981
O O9 0.500000 0.763633 0.500000
O O10 0.841191 0.777365 0.291327
O O11 0.803906 0.754410 0.223205
O O12 0.718697 0.000000 0.326459
O O13 0.325292 0.791982 0.286107
O O14 0.474989 0.000000 0.119977
O O15 0.582304 0.722798 0.033584
O O16 0.041358 0.748307 0.225854
O O17 0.053035 0.000000 0.171004
O O18 0.637279 0.000000 0.674121
O O19 0.811636 0.500000 0.850667
O O20 0.072011 0.500000 0.894262
O O21 0.000000 0.262993 0.000000
#
# Coordination Sequence:
#
# PCOD8061545 Si02
#       8
#     4   4   4   4   4   4   4   4
#     4  10  19  33  56  83 112 145 185 227 268 319
#     4  10  22  39  57  81 112 147 185 227 277 331
#     4   9  19  36  58  85 113 139 178 231 277 319
#     4  10  20  37  62  84 106 142 187 230 273 331
#     4  10  19  35  59  81 108 146 187 227 270 325
#     4  10  20  36  59  84 110 143 184 227 274 327
#     4  12  24  37  55  82 114 147 185 229 277 325
#     4   9  19  36  56  80 113 150 185 219 261 322
#
# _framework density 18.604189999999999
#
# number of rings (size 3 to 8) (size 9 to 14) (size 15 to 20)
#    0.000    2.000    1.250    2.625    0.000    5.500 
#    2.250    0.000    0.000    2.250    0.000    0.000 
#    0.000    0.000    0.000    0.000    0.000    0.000 
#
# Total GULP energy -396921.303576 kJ/mol
# GULP energy per Si atom -12403.790737 kJ/mol
# Density = 1.856185 g / cm^3
# Si number density = 18.604190 Si / 1000 Ang^3
#
#
#
# Elastic Constant Matrix: (Units=GPa)
#
#
# Indices 1 2 3 4 5 6 
#
# 1 84.1282 30.7316 33.6176 0.0000 -3.5577 0.0000
# 2 30.7316 69.5182 32.3756 0.0000 -2.1960 0.0000
# 3 33.6176 32.3756 89.0209 0.0000 -13.1605 0.0000
# 4 0.0000 0.0000 0.0000 9.5702 0.0000 -4.2759
# 5 -3.5577 -2.1960 -13.1605 0.0000 28.1745 0.0000
# 6 0.0000 0.0000 0.0000 -4.2759 0.0000 22.8800
#
#
#
# Elastic Compliance Matrix: (Units=1/GPa)
#
#
# Indices 1 2 3 4 5 6 
#
# 1 0.015270 -0.004878 -0.004043 0.000000 -0.000340 0.000000
# 2 -0.004878 0.018953 -0.005289 0.000000 -0.001609 0.000000
# 3 -0.004043 -0.005289 0.015626 0.000000 0.006376 0.000000
# 4 0.000000 0.000000 0.000000 0.114011 0.000000 0.021307
# 5 -0.000340 -0.001609 0.006376 0.000000 0.038303 0.000000
# 6 0.000000 0.000000 0.000000 0.021307 0.000000 0.047688
#
#
# Mechanical properties :
#
#
# Convention : Reuss Voigt Hill
#
# Bulk Modulus (GPa) = 46.66365 48.45743 47.56054
# Shear Modulus (GPa) = 17.51842 21.85444 19.68643
#
# Velocity S-wave (km/s) = 3.07194 3.43112 3.25648
# Velocity P-wave (km/s) = 6.14160 6.46528 6.30551
#
# Compressibility (1/GPa) = 0.02142996
#
# Stress axis : x y z
#
# Youngs Moduli (GPa) = 65.48946 52.76086 63.99575
#
# Poissons Ratio (x) = 0.25738 0.25871
# Poissons Ratio (y) = 0.31947 0.33846
# Poissons Ratio (z) = 0.26474 0.27904
#
# Static dielectric constant tensor:
#      x y z
#    x 3.604250 0.000000 -0.111750 
#    y 0.000000 3.348500 0.000000 
#    z -0.111750 0.000000 3.399850 
# 
# 
# High freq. dielectric constant tensor:
#      x y z
#    x 1.730470 0.000000 -0.009080 
#    y 0.000000 1.717420 0.000000 
#    z -0.009080 0.000000 1.715240 
# 
# From -- ./inp_files/86883.got.cif
#   From: 2010.06.25/outbox.cif.g09.slc.cpg/sg10_44_cif.got.tgz:86883.got - 2010.06.27 22:07:45.
