data_PCOD8061703
_publ_section_title
;
Structure prediction by ZEFSAII (Michael W. Deem and Ramdas Pophale) SiO2 
 PCOD8061703
Probable space group: P 2/M
;
_chemical_formula_sum "Si O2"
_cell_formula_units_Z 28
_cell_length_a 21.249132
_cell_length_b 12.887439
_cell_length_c 17.889099
_cell_angle_alpha 90.000000
_cell_angle_beta 17.878299
_cell_angle_gamma 90.000000
_cell_volume 1503.935635
_symmetry_space_group_name_H-M "P 2/M"
_symmetry_group_IT_number 10
_symmetry_cell_setting 'monoclinic'
loop_
_space_group_symop_operation_xyz
x,y,z
-x,y,-z
-x,-y,-z
x,-y,z
loop_
_atom_site_type_symbol
_atom_site_label
_atom_site_fract_x
_atom_site_fract_y
_atom_site_fract_z
Si Si1 0.557775 0.279738 0.013824
Si Si2 0.131972 0.114794 0.924448
Si Si3 0.500000 0.271128 0.500000
Si Si4 0.198434 0.881020 0.424490
Si Si5 0.000000 0.807921 0.500000
Si Si6 0.964270 0.229045 0.249665
Si Si7 0.610295 0.614243 0.654522
Si Si8 0.336046 0.384340 0.822001
O O1 0.420997 0.174091 0.171227
O O2 0.497220 0.359919 0.145907
O O3 0.500000 0.333206 0.000000
O O4 0.801398 0.260258 0.747010
O O5 0.303915 0.199085 0.716117
O O6 0.224751 0.000000 0.835203
O O7 0.000000 0.111323 0.000000
O O8 0.990216 0.145092 0.154937
O O9 0.490740 0.343891 0.583274
O O10 0.072526 0.875726 0.489018
O O11 0.056339 0.829742 0.648469
O O12 0.241489 0.000000 0.395658
O O13 0.768369 0.297879 0.452398
O O14 0.152572 0.305992 0.040059
O O15 0.713446 0.500000 0.545470
O O16 0.442609 0.611272 0.780646
O O17 0.259652 0.500000 0.886066
#
# Coordination Sequence:
#
# PCOD8061703 Si02
#       8
#     4   4   2   4   2   4   4   4
#     4   9  20  35  51  74 102 130 164 206 248 295
#     4  10  20  34  53  76 103 136 170 204 246 295
#     4  10  20  34  52  76 106 134 166 208 250 294
#     4  10  20  33  51  75 101 131 167 205 247 296
#     4  10  19  34  53  72 102 134 163 202 249 296
#     4  10  20  35  53  74 102 133 167 208 250 294
#     4  10  20  35  54  75 100 131 167 207 251 297
#     4  10  20  34  53  76 101 132 169 208 251 297
#
# _framework density 18.617819000000001
#
# number of rings (size 3 to 8) (size 9 to 14) (size 15 to 20)
#    0.000    2.143    0.000    3.214    0.000    3.429 
#    0.000    0.357    0.000   16.286    0.000    0.000 
#    0.000    0.000    0.000    0.000    0.000    0.000 
#
# Total GULP energy -347117.701553 kJ/mol
# GULP energy per Si atom -12397.060770 kJ/mol
# Density = 1.857544 g / cm^3
# Si number density = 18.617819 Si / 1000 Ang^3
#
#
#
# Elastic Constant Matrix: (Units=GPa)
#
#
# Indices 1 2 3 4 5 6 
#
# 1 102.1507 52.8124 40.0561 0.0000 17.6650 0.0000
# 2 52.8124 100.7306 23.9262 0.0000 8.4317 0.0000
# 3 40.0561 23.9262 89.0673 0.0000 9.8874 0.0000
# 4 0.0000 0.0000 0.0000 25.9359 0.0000 25.1991
# 5 17.6650 8.4317 9.8874 0.0000 32.3814 0.0000
# 6 0.0000 0.0000 0.0000 25.1991 0.0000 -46.3032
#
#
#
# Elastic Compliance Matrix: (Units=1/GPa)
#
#
# Indices 1 2 3 4 5 6 
#
# 1 0.016202 -0.006883 -0.004818 0.000000 -0.005575 0.000000
# 2 -0.006883 0.013650 -0.000614 0.000000 0.000388 0.000000
# 3 -0.004818 -0.000614 0.013715 0.000000 -0.001399 0.000000
# 4 0.000000 0.000000 0.000000 0.025221 0.000000 0.013726
# 5 -0.005575 0.000388 -0.001399 0.000000 0.034249 0.000000
# 6 0.000000 0.000000 0.000000 0.013726 0.000000 -0.014127
#
#
# Mechanical properties :
#
#
# Convention : Reuss Voigt Hill
#
# Bulk Modulus (GPa) = 52.81426 58.39312 55.60369
# Shear Modulus (GPa) = 41.71793 14.07974 27.89884
#
# Velocity S-wave (km/s) = 4.73879 2.75298 3.87525
# Velocity P-wave (km/s) = 7.64007 6.44495 7.06782
#
# Compressibility (1/GPa) = 0.01893428
#
# Stress axis : x y z
#
# Youngs Moduli (GPa) = 61.72219 73.26157 72.91411
#
# Poissons Ratio (x) = 0.50428 0.35133
# Poissons Ratio (y) = 0.42485 0.04479
# Poissons Ratio (z) = 0.29740 0.04500
#
# Static dielectric constant tensor:
#      x y z
#    x 3.524580 0.000000 0.246240 
#    y 0.000000 3.646370 0.000000 
#    z 0.246240 0.000000 3.526340 
# 
# 
# High freq. dielectric constant tensor:
#      x y z
#    x 1.732310 0.000000 0.013530 
#    y 0.000000 1.725660 0.000000 
#    z 0.013530 0.000000 1.724670 
# 
# From -- ./inp_files/79549.got.cif
#   From: 2010.06.25/outbox.cif.g09.slc.cpg/sg10_40_cif.got.tgz:79549.got - 2010.06.27 22:07:45.
