data_PCOD8061713
_publ_section_title
;
Structure prediction by ZEFSAII (Michael W. Deem and Ramdas Pophale) SiO2 
 PCOD8061713
Probable space group: P 2/M
;
_chemical_formula_sum "Si O2"
_cell_formula_units_Z 28
_cell_length_a 28.381783
_cell_length_b 9.491312
_cell_length_c 9.665291
_cell_angle_alpha 90.000000
_cell_angle_beta 37.720676
_cell_angle_gamma 90.000000
_cell_volume 1592.939284
_symmetry_space_group_name_H-M "P 2/M"
_symmetry_group_IT_number 10
_symmetry_cell_setting 'monoclinic'
loop_
_space_group_symop_operation_xyz
x,y,z
-x,y,-z
-x,-y,-z
x,-y,z
loop_
_atom_site_type_symbol
_atom_site_label
_atom_site_fract_x
_atom_site_fract_y
_atom_site_fract_z
Si Si1 0.439610 0.836752 0.833311
Si Si2 0.680147 0.658690 0.751127
Si Si3 0.245085 0.663133 0.925198
Si Si4 0.090846 0.162616 0.783712
Si Si5 0.817181 0.661417 0.639115
Si Si6 0.607284 0.835947 0.363696
Si Si7 0.190092 0.336762 0.755061
O O1 0.530597 0.804967 0.631456
O O2 0.407580 0.787655 0.758972
O O3 0.423106 0.000000 0.893492
O O4 0.395083 0.755167 0.058110
O O5 0.649868 0.500000 0.812332
O O6 0.735654 0.680132 0.753431
O O7 0.726853 0.700509 0.504422
O O8 0.268573 0.500000 0.881332
O O9 0.323370 0.749953 0.731121
O O10 0.193166 0.692760 0.911096
O O11 0.194020 0.708078 0.175811
O O12 0.119897 0.237068 0.575975
O O13 0.124745 0.239042 0.840500
O O14 0.117342 0.000000 0.721512
O O15 0.000000 0.176515 0.000000
O O16 0.846063 0.500000 0.560460
O O17 0.628172 0.000000 0.320023
O O18 0.170279 0.500000 0.767593
#
# Coordination Sequence:
#
# PCOD8061713 Si02
#       7
#     4   4   4   4   4   4   4
#     4   9  17  29  45  68  98 133 173 215 256 298
#     4   9  16  29  48  72  97 126 170 217 253 294
#     4  10  19  34  53  76 104 134 170 211 253 300
#     4  10  21  37  57  81 105 131 166 203 242 295
#     4   9  18  32  53  79 103 131 169 208 248 298
#     4   9  18  30  45  69 101 134 170 215 260 300
#     4   9  20  36  54  76 105 136 166 205 253 303
#
# _framework density 17.577567999999999
#
# number of rings (size 3 to 8) (size 9 to 14) (size 15 to 20)
#    0.000    2.714    1.429    2.143    0.000    5.143 
#    0.000    2.857    0.000    8.571    0.000    0.000 
#    0.000    0.000    0.000    0.000    0.000    0.000 
#
# Total GULP energy -347188.211915 kJ/mol
# GULP energy per Si atom -12399.578997 kJ/mol
# Density = 1.753756 g / cm^3
# Si number density = 17.577568 Si / 1000 Ang^3
#
#
#
# Elastic Constant Matrix: (Units=GPa)
#
#
# Indices 1 2 3 4 5 6 
#
# 1 73.9826 42.2705 47.6344 0.0000 10.9537 0.0000
# 2 42.2705 81.8155 51.9862 0.0000 -7.6378 0.0000
# 3 47.6344 51.9862 92.0495 0.0000 5.4417 0.0000
# 4 0.0000 0.0000 0.0000 32.0025 0.0000 -4.4853
# 5 10.9537 -7.6378 5.4417 0.0000 28.5549 0.0000
# 6 0.0000 0.0000 0.0000 -4.4853 0.0000 8.9529
#
#
#
# Elastic Compliance Matrix: (Units=1/GPa)
#
#
# Indices 1 2 3 4 5 6 
#
# 1 0.025032 -0.009547 -0.006922 0.000000 -0.010837 0.000000
# 2 -0.009547 0.024305 -0.009494 0.000000 0.011973 0.000000
# 3 -0.006922 -0.009494 0.020026 0.000000 -0.003701 0.000000
# 4 0.000000 0.000000 0.000000 0.033607 0.000000 0.016837
# 5 -0.010837 0.011973 -0.003701 0.000000 0.043085 0.000000
# 6 0.000000 0.000000 0.000000 0.016837 0.000000 0.120131
#
#
# Mechanical properties :
#
#
# Convention : Reuss Voigt Hill
#
# Bulk Modulus (GPa) = 57.34320 59.06997 58.20658
# Shear Modulus (GPa) = 15.43563 20.96581 18.20072
#
# Velocity S-wave (km/s) = 2.96656 3.45738 3.22133
# Velocity P-wave (km/s) = 6.66542 7.04388 6.85726
#
# Compressibility (1/GPa) = 0.01743886
#
# Stress axis : x y z
#
# Youngs Moduli (GPa) = 39.94838 41.14313 49.93417
#
# Poissons Ratio (x) = 0.39278 0.34563
# Poissons Ratio (y) = 0.38138 0.47409
# Poissons Ratio (z) = 0.27651 0.39062
#
# Static dielectric constant tensor:
#      x y z
#    x 3.032250 0.000000 0.157960 
#    y 0.000000 3.246060 0.000000 
#    z 0.157960 0.000000 3.249660 
# 
# 
# High freq. dielectric constant tensor:
#      x y z
#    x 1.652310 0.000000 0.006850 
#    y 0.000000 1.678900 0.000000 
#    z 0.006850 0.000000 1.678910 
# 
# From -- ./inp_files/36985.got.cif
#   From: 2010.06.25/outbox.cif.g09.slc.cpg/sg10_19_cif.got.tgz:36985.got - 2010.06.27 22:07:45.
