data_PCOD8061095
_publ_section_title
;
Structure prediction by ZEFSAII (Michael W. Deem and Ramdas Pophale) SiO2 
 PCOD8061095
Probable space group: P 2/M
;
_chemical_formula_sum "Si O2"
_cell_formula_units_Z 28
_cell_length_a 31.644322
_cell_length_b 8.527001
_cell_length_c 31.644316
_cell_angle_alpha 90.000000
_cell_angle_beta 170.549936
_cell_angle_gamma 90.000000
_cell_volume 1401.938937
_symmetry_space_group_name_H-M "P 2/M"
_symmetry_group_IT_number 10
_symmetry_cell_setting 'monoclinic'
loop_
_space_group_symop_operation_xyz
x,y,z
-x,y,-z
-x,-y,-z
x,-y,z
loop_
_atom_site_type_symbol
_atom_site_label
_atom_site_fract_x
_atom_site_fract_y
_atom_site_fract_z
Si Si1 0.404237 0.185662 0.095759
Si Si2 0.738010 0.813222 0.761990
Si Si3 0.120983 0.186415 0.379019
Si Si4 0.451860 0.187224 0.048152
Si Si5 0.689995 0.814200 0.810002
Si Si6 0.976074 0.186961 0.523938
Si Si7 0.167595 0.683951 0.332402
O O1 0.643699 0.243460 0.359796
O O2 0.427987 0.255231 0.072012
O O3 0.405651 0.000000 0.094350
O O4 0.140199 0.243462 0.856294
O O5 0.500000 0.747133 0.500000
O O6 0.714013 0.750037 0.785983
O O7 0.738277 0.000000 0.761727
O O8 0.000000 0.747134 0.000000
O O9 0.143026 0.275022 0.356967
O O10 0.124845 0.000000 0.375156
O O11 0.713925 0.251212 0.285959
O O12 0.451541 0.000000 0.048473
O O13 0.214060 0.251213 0.786092
O O14 0.427938 0.755322 0.571464
O O15 0.689607 0.000000 0.810393
O O16 0.928533 0.755322 0.072059
O O17 0.000000 0.252253 0.500000
O O18 0.976244 0.000000 0.523766
O O19 0.170916 0.500000 0.329083
#
# Coordination Sequence:
#
# PCOD8061095 Si02
#       7
#     4   4   4   4   4   4   4
#     4   9  17  28  45  67  89 118 162 219 266 304
#     4   9  17  31  55  87 115 140 181 235 277 312
#     4  10  19  33  52  73  97 129 175 220 263 320
#     4   9  15  23  34  51  77 108 150 202 249 291
#     4  11  22  39  64  89 115 152 195 233 273 328
#     4   9  15  21  30  46  73 112 154 192 234 295
#     4  12  25  40  58  84 119 152 185 231 288 339
#
# _framework density 19.972341
#
# number of rings (size 3 to 8) (size 9 to 14) (size 15 to 20)
#    0.000    2.143    0.000    4.714    0.000    8.571 
#    0.000    0.000    0.000    8.571    0.000    0.000 
#    0.000    0.000    0.000    0.000    0.000   50.000 
#
# Total GULP energy -347248.252628 kJ/mol
# GULP energy per Si atom -12401.723308 kJ/mol
# Density = 1.992688 g / cm^3
# Si number density = 19.972341 Si / 1000 Ang^3
#
#
#
# Elastic Constant Matrix: (Units=GPa)
#
#
# Indices 1 2 3 4 5 6 
#
# 1 210.1953 22.3648 115.4476 0.0000 0.2684 0.0000
# 2 22.3648 38.3046 20.8563 0.0000 -0.1336 0.0000
# 3 115.4476 20.8563 225.6016 0.0000 1.0875 0.0000
# 4 0.0000 0.0000 0.0000 7.7935 0.0000 1.2130
# 5 0.2684 -0.1336 1.0875 0.0000 48.9730 0.0000
# 6 0.0000 0.0000 0.0000 1.2130 0.0000 -5.9719
#
#
#
# Elastic Compliance Matrix: (Units=1/GPa)
#
#
# Indices 1 2 3 4 5 6 
#
# 1 0.006786 -0.002181 -0.003271 0.000000 0.000029 0.000000
# 2 -0.002181 0.028192 -0.001491 0.000000 0.000122 0.000000
# 3 -0.003271 -0.001491 0.006245 0.000000 -0.000125 0.000000
# 4 0.000000 0.000000 0.000000 0.124380 0.000000 0.025263
# 5 0.000029 0.000122 -0.000125 0.000000 0.020422 0.000000
# 6 0.000000 0.000000 0.000000 0.025263 0.000000 -0.162318
#
#
# Mechanical properties :
#
#
# Convention : Reuss Voigt Hill
#
# Bulk Modulus (GPa) = 36.58010 87.93764 62.25887
# Shear Modulus (GPa) = 107.05261 31.18777 69.12019
#
# Velocity S-wave (km/s) = 7.32917 3.95593 5.88923
# Velocity P-wave (km/s) = 9.48565 8.06171 8.80252
#
# Compressibility (1/GPa) = 0.02733727
#
# Stress axis : x y z
#
# Youngs Moduli (GPa) = 147.35813 35.47095 160.12797
#
# Poissons Ratio (x) = 0.07736 0.52381
# Poissons Ratio (y) = 0.32139 0.23872
# Poissons Ratio (z) = 0.48204 0.05288
#
# Static dielectric constant tensor:
#      x y z
#    x 3.946750 0.000000 0.004740 
#    y 0.000000 2.983550 0.000000 
#    z 0.004740 0.000000 4.000400 
# 
# 
# High freq. dielectric constant tensor:
#      x y z
#    x 1.802010 0.000000 0.000040 
#    y 0.000000 1.714480 0.000000 
#    z 0.000040 0.000000 1.802500 
# 
# From -- ./inp_files/95998.got.cif
#   From: 2010.06.25/outbox.cif.g09.slc.cpg/sg10_48_cif.got.tgz:95998.got - 2010.06.27 22:07:45.
