data_PCOD8061099
_publ_section_title
;
Structure prediction by ZEFSAII (Michael W. Deem and Ramdas Pophale) SiO2 
 PCOD8061099
Probable space group: P 2/M
;
_chemical_formula_sum "Si O2"
_cell_formula_units_Z 32
_cell_length_a 27.702895
_cell_length_b 8.530779
_cell_length_c 15.638068
_cell_angle_alpha 90.000000
_cell_angle_beta 27.719230
_cell_angle_gamma 90.000000
_cell_volume 1719.015801
_symmetry_space_group_name_H-M "P 2/M"
_symmetry_group_IT_number 10
_symmetry_cell_setting 'monoclinic'
loop_
_space_group_symop_operation_xyz
x,y,z
-x,y,-z
-x,-y,-z
x,-y,z
loop_
_atom_site_type_symbol
_atom_site_label
_atom_site_fract_x
_atom_site_fract_y
_atom_site_fract_z
Si Si1 0.766088 0.820285 0.317455
Si Si2 0.688622 0.816946 0.683913
Si Si3 0.148636 0.184744 0.302214
Si Si4 0.578860 0.318679 0.697793
Si Si5 0.878075 0.317917 0.298084
Si Si6 0.042966 0.315501 0.306118
Si Si7 0.634343 0.183781 0.958362
Si Si8 0.922451 0.817829 0.929468
O O1 0.661716 0.718568 0.493035
O O2 0.852759 0.776985 0.251806
O O3 0.735018 0.000000 0.379837
O O4 0.813331 0.791826 0.149398
O O5 0.604785 0.780764 0.742078
O O6 0.794154 0.721540 0.502635
O O7 0.643604 0.763957 0.845335
O O8 0.715823 0.000000 0.641873
O O9 0.123911 0.276644 0.254143
O O10 0.263065 0.235168 0.151703
O O11 0.067378 0.232758 0.503373
O O12 0.139539 0.000000 0.300357
O O13 0.585564 0.500000 0.710466
O O14 0.463876 0.272902 0.846546
O O15 0.873859 0.500000 0.282274
O O16 0.990638 0.274711 0.155095
O O17 0.025044 0.500000 0.328316
O O18 0.091352 0.251220 0.143021
O O19 0.615801 0.000000 0.995907
O O20 0.952711 0.000000 0.878024
#
# Coordination Sequence:
#
# PCOD8061099 Si02
#       8
#     4   4   4   4   4   4   4   4
#     4  10  21  37  55  73 101 141 182 220 256 306
#     4  10  19  33  52  74 106 144 180 215 252 305
#     4  10  20  37  59  81 109 142 175 211 254 313
#     4  11  22  34  51  75 106 140 174 218 266 308
#     4  11  21  32  50  78 111 141 172 216 265 311
#     4  11  22  36  56  83 113 139 167 212 266 314
#     4  10  21  35  54  77 101 137 180 217 255 304
#     4  11  22  36  55  77 102 139 182 217 257 311
#
# _framework density 18.615302
#
# number of rings (size 3 to 8) (size 9 to 14) (size 15 to 20)
#    0.000    1.500    0.000    8.625    0.000    8.000 
#    0.000    0.000    0.000    0.750    0.000    5.250 
#    0.000    0.000    0.000    0.000    0.000    0.000 
#
# Total GULP energy -396931.471982 kJ/mol
# GULP energy per Si atom -12404.108499 kJ/mol
# Density = 1.857293 g / cm^3
# Si number density = 18.615302 Si / 1000 Ang^3
#
#
#
# Elastic Constant Matrix: (Units=GPa)
#
#
# Indices 1 2 3 4 5 6 
#
# 1 68.1592 12.9880 61.1074 0.0000 -0.2455 0.0000
# 2 12.9880 60.9528 30.1780 0.0000 -0.9678 0.0000
# 3 61.1074 30.1780 110.1083 0.0000 -2.7314 0.0000
# 4 0.0000 0.0000 0.0000 11.4965 0.0000 -3.8096
# 5 -0.2455 -0.9678 -2.7314 0.0000 32.2182 0.0000
# 6 0.0000 0.0000 0.0000 -3.8096 0.0000 18.0714
#
#
#
# Elastic Compliance Matrix: (Units=1/GPa)
#
#
# Indices 1 2 3 4 5 6 
#
# 1 0.029473 0.002099 -0.016961 0.000000 -0.001150 0.000000
# 2 0.002099 0.019132 -0.006407 0.000000 0.000047 0.000000
# 3 -0.016961 -0.006407 0.020286 0.000000 0.001398 0.000000
# 4 0.000000 0.000000 0.000000 0.093516 0.000000 0.019714
# 5 -0.001150 0.000047 0.001398 0.000000 0.031150 0.000000
# 6 0.000000 0.000000 0.000000 0.019714 0.000000 0.059492
#
#
# Mechanical properties :
#
#
# Convention : Reuss Voigt Hill
#
# Bulk Modulus (GPa) = 37.94706 49.75189 43.84948
# Shear Modulus (GPa) = 16.42732 21.35367 18.89050
#
# Velocity S-wave (km/s) = 2.97385 3.39057 3.18902
# Velocity P-wave (km/s) = 5.67634 6.48940 6.09644
#
# Compressibility (1/GPa) = 0.02635250
#
# Stress axis : x y z
#
# Youngs Moduli (GPa) = 33.92884 52.26871 49.29629
#
# Poissons Ratio (x) = -0.10970 0.83610
# Poissons Ratio (y) = -0.07121 0.31585
# Poissons Ratio (z) = 0.57546 0.33489
#
# Static dielectric constant tensor:
#      x y z
#    x 3.253970 0.000000 0.009930 
#    y 0.000000 3.501010 0.000000 
#    z 0.009930 0.000000 3.541820 
# 
# 
# High freq. dielectric constant tensor:
#      x y z
#    x 1.696850 0.000000 -0.000470 
#    y 0.000000 1.735640 0.000000 
#    z -0.000470 0.000000 1.724190 
# 
# From -- ./inp_files/72186.got.cif
#   From: 2010.06.25/outbox.cif.g09.slc.cpg/sg10_37_cif.got.tgz:72186.got - 2010.06.27 22:07:45.
