data_PCOD8061874
_publ_section_title
;
Structure prediction by ZEFSAII (Michael W. Deem and Ramdas Pophale) SiO2 
 PCOD8061874
Probable space group: P 2/M
;
_chemical_formula_sum "Si O2"
_cell_formula_units_Z 32
_cell_length_a 21.561311
_cell_length_b 9.103763
_cell_length_c 27.823783
_cell_angle_alpha 90.000000
_cell_angle_beta 18.766923
_cell_angle_gamma 90.000000
_cell_volume 1757.070477
_symmetry_space_group_name_H-M "P 2/M"
_symmetry_group_IT_number 10
_symmetry_cell_setting 'monoclinic'
loop_
_space_group_symop_operation_xyz
x,y,z
-x,y,-z
-x,-y,-z
x,-y,z
loop_
_atom_site_type_symbol
_atom_site_label
_atom_site_fract_x
_atom_site_fract_y
_atom_site_fract_z
Si Si1 0.480730 0.174160 0.959720
Si Si2 0.787149 0.172145 0.657877
Si Si3 0.806782 0.333460 0.346684
Si Si4 0.893322 0.671575 0.174148
Si Si5 0.571381 0.827802 0.349626
Si Si6 0.787144 0.331636 0.912021
Si Si7 0.720600 0.169716 0.136320
Si Si8 0.454955 0.830290 0.833963
O O1 0.664683 0.229708 0.793617
O O2 0.458892 0.000000 0.973024
O O3 0.500000 0.229767 0.000000
O O4 0.287278 0.244257 0.079878
O O5 0.670770 0.209604 0.694109
O O6 0.000000 0.246811 0.500000
O O7 0.814651 0.000000 0.643986
O O8 0.725148 0.500000 0.407249
O O9 0.883543 0.293498 0.237581
O O10 0.645816 0.219426 0.480593
O O11 0.982456 0.316755 0.255060
O O12 0.889731 0.500000 0.165760
O O13 0.710180 0.744434 0.283911
O O14 0.088267 0.735661 0.009331
O O15 0.618838 0.784359 0.260197
O O16 0.592935 0.000000 0.342821
O O17 0.722318 0.500000 0.955660
O O18 0.700806 0.267029 0.024378
O O19 0.566160 0.201263 0.207203
O O20 0.783666 0.000000 0.090326
O O21 0.411384 0.000000 0.878384
#
# Coordination Sequence:
#
# PCOD8061874 Si02
#       8
#     4   4   4   4   4   4   4   4
#     4   9  18  33  52  79 108 138 177 219 261 311
#     4   8  14  27  49  76 102 131 168 209 252 301
#     4  10  22  39  56  78 108 142 184 227 268 323
#     4  11  22  38  60  81 103 141 187 224 269 329
#     4  11  24  38  53  81 114 142 176 225 281 326
#     4  10  19  34  56  80 106 140 182 222 262 313
#     4  10  21  37  55  80 111 140 178 226 272 324
#     4   9  17  32  55  78 104 139 178 218 263 313
#
# _framework density 18.212132
#
# number of rings (size 3 to 8) (size 9 to 14) (size 15 to 20)
#    0.000    2.250    1.250    2.625    0.000    6.250 
#    2.250    0.000    0.000    6.000    0.000    0.000 
#    0.000    0.000    0.000    0.000    0.000    0.000 
#
# Total GULP energy -396805.690188 kJ/mol
# GULP energy per Si atom -12400.177818 kJ/mol
# Density = 1.817068 g / cm^3
# Si number density = 18.212132 Si / 1000 Ang^3
#
#
#
# Elastic Constant Matrix: (Units=GPa)
#
#
# Indices 1 2 3 4 5 6 
#
# 1 112.1932 37.5121 40.7957 0.0000 -9.4248 0.0000
# 2 37.5121 61.6158 39.9329 0.0000 -0.4042 0.0000
# 3 40.7957 39.9329 90.0039 0.0000 -14.8801 0.0000
# 4 0.0000 0.0000 0.0000 21.0823 0.0000 -4.1845
# 5 -9.4248 -0.4042 -14.8801 0.0000 26.2626 0.0000
# 6 0.0000 0.0000 0.0000 -4.1845 0.0000 21.6167
#
#
#
# Elastic Compliance Matrix: (Units=1/GPa)
#
#
# Indices 1 2 3 4 5 6 
#
# 1 0.011928 -0.005673 -0.002423 0.000000 0.002820 0.000000
# 2 -0.005673 0.026347 -0.010358 0.000000 -0.007499 0.000000
# 3 -0.002423 -0.010358 0.018354 0.000000 0.009370 0.000000
# 4 0.000000 0.000000 0.000000 0.049328 0.000000 0.009549
# 5 0.002820 -0.007499 0.009370 0.000000 0.044283 0.000000
# 6 0.000000 0.000000 0.000000 0.009549 0.000000 0.048109
#
#
# Mechanical properties :
#
#
# Convention : Reuss Voigt Hill
#
# Bulk Modulus (GPa) = 50.70923 55.58828 53.14875
# Shear Modulus (GPa) = 20.67556 23.49713 22.08635
#
# Velocity S-wave (km/s) = 3.37302 3.59582 3.48620
# Velocity P-wave (km/s) = 6.56306 6.91584 6.74176
#
# Compressibility (1/GPa) = 0.01972028
#
# Stress axis : x y z
#
# Youngs Moduli (GPa) = 83.83629 37.95476 54.48419
#
# Poissons Ratio (x) = 0.21531 0.13204
# Poissons Ratio (y) = 0.47558 0.56436
# Poissons Ratio (z) = 0.20317 0.39314
#
# Static dielectric constant tensor:
#      x y z
#    x 3.605730 0.000000 -0.115980 
#    y 0.000000 3.261290 0.000000 
#    z -0.115980 0.000000 3.370830 
# 
# 
# High freq. dielectric constant tensor:
#      x y z
#    x 1.715350 0.000000 -0.009960 
#    y 0.000000 1.695420 0.000000 
#    z -0.009960 0.000000 1.696610 
# 
# From -- ./inp_files/86760.got.cif
#   From: 2010.06.25/outbox.cif.g09.slc.cpg/sg10_44_cif.got.tgz:86760.got - 2010.06.27 22:07:45.
