data_PCOD8061418
_publ_section_title
;
Structure prediction by ZEFSAII (Michael W. Deem and Ramdas Pophale) SiO2 
 PCOD8061418
Probable space group: P 2/M
;
_chemical_formula_sum "Si O2"
_cell_formula_units_Z 20
_cell_length_a 25.794589
_cell_length_b 8.347296
_cell_length_c 5.156689
_cell_angle_alpha 90.000000
_cell_angle_beta 60.377135
_cell_angle_gamma 90.000000
_cell_volume 965.192455
_symmetry_space_group_name_H-M "P 2/M"
_symmetry_group_IT_number 10
_symmetry_cell_setting 'monoclinic'
loop_
_space_group_symop_operation_xyz
x,y,z
-x,y,-z
-x,-y,-z
x,-y,z
loop_
_atom_site_type_symbol
_atom_site_label
_atom_site_fract_x
_atom_site_fract_y
_atom_site_fract_z
Si Si1 0.066431 0.689707 0.855269
Si Si2 0.138092 0.689900 0.181317
Si Si3 0.669067 0.686248 0.793944
Si Si4 0.269088 0.183913 0.861969
Si Si5 0.534061 0.309271 0.166516
O O1 0.062078 0.500000 0.845836
O O2 0.107250 0.752641 0.519706
O O3 0.095476 0.743531 0.052507
O O4 0.000000 0.763710 0.000000
O O5 0.149015 0.500000 0.155075
O O6 0.200156 0.778153 0.991468
O O7 0.669818 0.500000 0.716800
O O8 0.697733 0.783280 0.488767
O O9 0.705117 0.708809 0.970266
O O10 0.602033 0.750864 0.999597
O O11 0.277668 0.000000 0.917915
O O12 0.500000 0.238691 0.500000
O O13 0.532377 0.500000 0.175309
O O14 0.500000 0.241674 0.000000
#
# Coordination Sequence:
#
# PCOD8061418 Si02
#       5
#     4   4   4   4   4
#     4   9  17  30  52  82 110 137 178 235 287 330
#     4  10  19  33  55  80 108 145 190 232 275 338
#     4  11  22  39  64  89 115 152 199 242 284 345
#     4  12  25  40  58  84 122 159 194 241 295 343
#     4   9  17  31  55  87 115 140 181 239 291 334
#
# _framework density 20.721256
#
# number of rings (size 3 to 8) (size 9 to 14) (size 15 to 20)
#    0.000    1.800    0.000    5.400    0.000    7.200 
#    0.000    0.000    0.000   15.600    0.000    0.000 
#    0.000    0.000    0.000    0.000    0.000    0.000 
#
# Total GULP energy -248082.333814 kJ/mol
# GULP energy per Si atom -12404.116691 kJ/mol
# Density = 2.067409 g / cm^3
# Si number density = 20.721256 Si / 1000 Ang^3
#
#
#
# Elastic Constant Matrix: (Units=GPa)
#
#
# Indices 1 2 3 4 5 6 
#
# 1 219.7625 -10.1175 171.0258 0.0000 -68.3530 0.0000
# 2 -10.1175 43.9944 -11.4105 0.0000 6.3182 0.0000
# 3 171.0258 -11.4105 302.8275 0.0000 -76.7344 0.0000
# 4 0.0000 0.0000 0.0000 -9.6799 0.0000 -3.7250
# 5 -68.3530 6.3182 -76.7344 0.0000 84.0140 0.0000
# 6 0.0000 0.0000 0.0000 -3.7250 0.0000 -7.5813
#
#
#
# Elastic Compliance Matrix: (Units=1/GPa)
#
#
# Indices 1 2 3 4 5 6 
#
# 1 0.008822 0.000477 -0.004105 0.000000 0.003393 0.000000
# 2 0.000477 0.023077 0.000337 0.000000 -0.001040 0.000000
# 3 -0.004105 0.000337 0.006220 0.000000 0.002316 0.000000
# 4 0.000000 0.000000 0.000000 -0.127394 0.000000 0.062594
# 5 0.003393 -0.001040 0.002316 0.000000 0.016857 0.000000
# 6 0.000000 0.000000 0.000000 0.062594 0.000000 -0.162659
#
#
# Mechanical properties :
#
#
# Convention : Reuss Voigt Hill
#
# Bulk Modulus (GPa) = 31.70951 96.17555 63.94253
# Shear Modulus (GPa) = -22.93752 41.15633 9.10940
#
# Velocity S-wave (km/s) = -3.33070 4.46150 2.09898
# Velocity P-wave (km/s) = 0.73800 8.54721 6.06627
#
# Compressibility (1/GPa) = 0.03153628
#
# Stress axis : x y z
#
# Youngs Moduli (GPa) = 113.35464 43.33409 160.77283
#
# Poissons Ratio (x) = -0.02067 0.65992
# Poissons Ratio (y) = -0.05407 -0.05412
# Poissons Ratio (z) = 0.46528 -0.01459
#
# Static dielectric constant tensor:
#      x y z
#    x 3.799440 0.000000 -0.058190 
#    y 0.000000 3.262050 0.000000 
#    z -0.058190 0.000000 3.981010 
# 
# 
# High freq. dielectric constant tensor:
#      x y z
#    x 1.828250 0.000000 -0.001330 
#    y 0.000000 1.764350 0.000000 
#    z -0.001330 0.000000 1.831060 
# 
# From -- ./inp_files/11988.got.cif
#   From: 2010.06.25/outbox.cif.g09.slc.cpg/sg10_6_cif.got.tgz:11988.got - 2010.06.27 22:07:45.
