data_PCOD8061303
_publ_section_title
;
Structure prediction by ZEFSAII (Michael W. Deem and Ramdas Pophale) SiO2 
 PCOD8061303
Probable space group: P 2/M
;
_chemical_formula_sum "Si O2"
_cell_formula_units_Z 24
_cell_length_a 21.625828
_cell_length_b 8.785749
_cell_length_c 9.608623
_cell_angle_alpha 90.000000
_cell_angle_beta 45.446060
_cell_angle_gamma 90.000000
_cell_volume 1300.925965
_symmetry_space_group_name_H-M "P 2/M"
_symmetry_group_IT_number 10
_symmetry_cell_setting 'monoclinic'
loop_
_space_group_symop_operation_xyz
x,y,z
-x,y,-z
-x,-y,-z
x,-y,z
loop_
_atom_site_type_symbol
_atom_site_label
_atom_site_fract_x
_atom_site_fract_y
_atom_site_fract_z
Si Si1 0.712089 0.820419 0.956478
Si Si2 0.770020 0.823903 0.562105
Si Si3 0.097114 0.320247 0.843644
Si Si4 0.227143 0.320509 0.874145
Si Si5 0.526577 0.321440 0.301956
Si Si6 0.637686 0.822519 0.534711
O O1 0.753132 0.769545 0.745343
O O2 0.695858 0.000000 0.988143
O O3 0.779677 0.767475 0.968624
O O4 0.622548 0.733564 0.118482
O O5 0.853265 0.736425 0.371477
O O6 0.683776 0.788431 0.608818
O O7 0.793577 0.000000 0.518333
O O8 0.094628 0.500000 0.839915
O O9 0.146702 0.267143 0.905302
O O10 0.000000 0.252041 0.000000
O O11 0.227521 0.500000 0.900292
O O12 0.316676 0.274045 0.658934
O O13 0.500000 0.276881 0.500000
O O14 0.520205 0.500000 0.284982
O O15 0.461303 0.234563 0.299770
O O16 0.642149 0.000000 0.489013
#
# Coordination Sequence:
#
# PCOD8061303 Si02
#       6
#     4   4   4   4   4   4
#     4  11  22  36  54  77 109 145 180 218 266 314
#     4   9  21  38  55  80 110 140 176 220 266 316
#     4   9  19  37  61  85 107 136 174 215 263 322
#     4  10  19  33  54  80 108 137 176 220 262 313
#     4  11  22  34  51  77 109 141 183 226 261 308
#     4  10  19  34  55  76 103 141 183 222 264 309
#
# _framework density 18.448398000000001
#
# number of rings (size 3 to 8) (size 9 to 14) (size 15 to 20)
#    0.000    2.000    1.667    2.000    0.000    4.333 
#    0.000    4.167    0.000    5.000    0.000    0.000 
#    0.000    0.000    0.000    0.000    0.000    0.000 
#
# Total GULP energy -297667.241427 kJ/mol
# GULP energy per Si atom -12402.801726 kJ/mol
# Density = 1.840641 g / cm^3
# Si number density = 18.448398 Si / 1000 Ang^3
#
#
#
# Elastic Constant Matrix: (Units=GPa)
#
#
# Indices 1 2 3 4 5 6 
#
# 1 114.3780 26.9991 73.4958 0.0000 -1.2931 0.0000
# 2 26.9991 39.1369 27.2852 0.0000 3.2905 0.0000
# 3 73.4958 27.2852 114.9007 0.0000 7.8173 0.0000
# 4 0.0000 0.0000 0.0000 23.2402 0.0000 -3.2355
# 5 -1.2931 3.2905 7.8173 0.0000 36.0026 0.0000
# 6 0.0000 0.0000 0.0000 -3.2355 0.0000 19.4457
#
#
#
# Elastic Compliance Matrix: (Units=1/GPa)
#
#
# Indices 1 2 3 4 5 6 
#
# 1 0.015797 -0.004749 -0.009180 0.000000 0.002995 0.000000
# 2 -0.004749 0.032103 -0.004440 0.000000 -0.002141 0.000000
# 3 -0.009180 -0.004440 0.015859 0.000000 -0.003367 0.000000
# 4 0.000000 0.000000 0.000000 0.044049 0.000000 0.007329
# 5 0.002995 -0.002141 -0.003367 0.000000 0.028810 0.000000
# 6 0.000000 0.000000 0.000000 0.007329 0.000000 0.052645
#
#
# Mechanical properties :
#
#
# Convention : Reuss Voigt Hill
#
# Bulk Modulus (GPa) = 37.01014 58.21954 47.61484
# Shear Modulus (GPa) = 21.27581 25.11339 23.19460
#
# Velocity S-wave (km/s) = 3.39965 3.69355 3.54965
# Velocity P-wave (km/s) = 5.95946 7.05807 6.53190
#
# Compressibility (1/GPa) = 0.02701962
#
# Stress axis : x y z
#
# Youngs Moduli (GPa) = 63.30369 31.14967 63.05633
#
# Poissons Ratio (x) = 0.14793 0.57888
# Poissons Ratio (y) = 0.30064 0.27997
# Poissons Ratio (z) = 0.58115 0.13831
#
# Static dielectric constant tensor:
#      x y z
#    x 3.683410 0.000000 0.090380 
#    y 0.000000 3.368760 0.000000 
#    z 0.090380 0.000000 3.339070 
# 
# 
# High freq. dielectric constant tensor:
#      x y z
#    x 1.721210 0.000000 0.005570 
#    y 0.000000 1.721430 0.000000 
#    z 0.005570 0.000000 1.695610 
# 
# From -- ./inp_files/27332.got.cif
#   From: 2010.06.25/outbox.cif.g09.slc.cpg/sg10_14_cif.got.tgz:27332.got - 2010.06.27 22:07:45.
