data_PCOD8061607
_publ_section_title
;
Structure prediction by ZEFSAII (Michael W. Deem and Ramdas Pophale) SiO2 
 PCOD8061607
Probable space group: P 2/M
;
_chemical_formula_sum "Si O2"
_cell_formula_units_Z 28
_cell_length_a 22.076797
_cell_length_b 13.783277
_cell_length_c 9.390512
_cell_angle_alpha 90.000000
_cell_angle_beta 28.089346
_cell_angle_gamma 90.000000
_cell_volume 1345.421633
_symmetry_space_group_name_H-M "P 2/M"
_symmetry_group_IT_number 10
_symmetry_cell_setting 'monoclinic'
loop_
_space_group_symop_operation_xyz
x,y,z
-x,y,-z
-x,-y,-z
x,-y,z
loop_
_atom_site_type_symbol
_atom_site_label
_atom_site_fract_x
_atom_site_fract_y
_atom_site_fract_z
Si Si1 0.389436 0.734299 0.920392
Si Si2 0.270358 0.113380 0.323934
Si Si3 0.015411 0.788143 0.802975
Si Si4 0.148944 0.613051 0.917108
Si Si5 0.640799 0.386634 0.756900
Si Si6 0.326920 0.725572 0.735821
Si Si7 0.234473 0.888850 0.729560
O O1 0.308865 0.741678 0.941372
O O2 0.529369 0.690339 0.597644
O O3 0.395335 0.840850 0.986129
O O4 0.319404 0.661917 0.176524
O O5 0.278246 0.133423 0.476277
O O6 0.158314 0.174370 0.473051
O O7 0.256134 0.000000 0.321373
O O8 0.981661 0.676625 0.827877
O O9 0.914846 0.861517 0.938079
O O10 0.000000 0.801759 0.000000
O O11 0.111136 0.500000 0.997835
O O12 0.247443 0.641096 0.586226
O O13 0.223859 0.643167 0.905334
O O14 0.634646 0.500000 0.793510
O O15 0.500000 0.347817 0.000000
O O16 0.313035 0.825767 0.678967
O O17 0.257651 0.000000 0.720030
#
# Coordination Sequence:
#
# PCOD8061607 Si02
#       7
#     4   4   4   4   4   4   4
#     4  11  22  36  55  79 116 152 187 229 276 333
#     4  10  21  36  58  85 110 144 190 236 280 328
#     4   9  17  33  57  83 111 141 179 231 281 328
#     4  10  20  36  59  85 113 146 185 228 277 332
#     4  10  19  33  57  85 110 140 182 228 271 321
#     4  10  22  36  53  80 113 154 186 224 282 335
#     4   9  18  34  56  79 106 141 184 231 279 331
#
# _framework density 20.811321
#
# number of rings (size 3 to 8) (size 9 to 14) (size 15 to 20)
#    0.000    2.143    1.429    3.000    0.000    3.714 
#    0.000    7.857    0.000    5.143    0.000    0.000 
#    0.000    0.000    0.000    0.000    0.000    0.000 
#
# Total GULP energy -347022.614664 kJ/mol
# GULP energy per Si atom -12393.664809 kJ/mol
# Density = 2.076395 g / cm^3
# Si number density = 20.811321 Si / 1000 Ang^3
#
#
#
# Elastic Constant Matrix: (Units=GPa)
#
#
# Indices 1 2 3 4 5 6 
#
# 1 102.5624 38.1321 21.5068 0.0000 15.5487 0.0000
# 2 38.1321 97.5485 15.9788 0.0000 7.4193 0.0000
# 3 21.5068 15.9788 25.1366 0.0000 4.0027 0.0000
# 4 0.0000 0.0000 0.0000 19.5455 0.0000 -5.8566
# 5 15.5487 7.4193 4.0027 0.0000 25.8710 0.0000
# 6 0.0000 0.0000 0.0000 -5.8566 0.0000 25.6609
#
#
#
# Elastic Compliance Matrix: (Units=1/GPa)
#
#
# Indices 1 2 3 4 5 6 
#
# 1 0.013760 -0.003520 -0.008590 0.000000 -0.005931 0.000000
# 2 -0.003520 0.012468 -0.004799 0.000000 -0.000717 0.000000
# 3 -0.008590 -0.004799 0.050383 0.000000 -0.001256 0.000000
# 4 0.000000 0.000000 0.000000 0.054918 0.000000 0.012534
# 5 -0.005931 -0.000717 -0.001256 0.000000 0.042618 0.000000
# 6 0.000000 0.000000 0.000000 0.012534 0.000000 0.041830
#
#
# Mechanical properties :
#
#
# Convention : Reuss Voigt Hill
#
# Bulk Modulus (GPa) = 23.36959 41.83143 32.60051
# Shear Modulus (GPa) = 18.93497 24.19081 21.56289
#
# Velocity S-wave (km/s) = 3.01963 3.41308 3.22236
# Velocity P-wave (km/s) = 4.83851 5.97295 5.43541
#
# Compressibility (1/GPa) = 0.04279064
#
# Stress axis : x y z
#
# Youngs Moduli (GPa) = 72.67688 80.20412 19.84782
#
# Poissons Ratio (x) = 0.28235 0.17050
# Poissons Ratio (y) = 0.25585 0.09526
# Poissons Ratio (z) = 0.62432 0.38494
#
# Static dielectric constant tensor:
#      x y z
#    x 3.898220 0.000000 -0.223860 
#    y 0.000000 3.730850 0.000000 
#    z -0.223860 0.000000 3.808270 
# 
# 
# High freq. dielectric constant tensor:
#      x y z
#    x 1.810590 0.000000 -0.008420 
#    y 0.000000 1.814590 0.000000 
#    z -0.008420 0.000000 1.794400 
# 
# From -- ./inp_files/29581.got.cif
#   From: 2010.06.25/outbox.cif.g09.slc.cpg/sg10_15_cif.got.tgz:29581.got - 2010.06.27 22:07:45.
