data_PCOD8061010
_publ_section_title
;
Structure prediction by ZEFSAII (Michael W. Deem and Ramdas Pophale) SiO2 
 PCOD8061010
Probable space group: P 2/M
;
_chemical_formula_sum "Si O2"
_cell_formula_units_Z 28
_cell_length_a 19.105670
_cell_length_b 8.502495
_cell_length_c 24.164737
_cell_angle_alpha 90.000000
_cell_angle_beta 22.043688
_cell_angle_gamma 90.000000
_cell_volume 1473.278571
_symmetry_space_group_name_H-M "P 2/M"
_symmetry_group_IT_number 10
_symmetry_cell_setting 'monoclinic'
loop_
_space_group_symop_operation_xyz
x,y,z
-x,y,-z
-x,-y,-z
x,-y,z
loop_
_atom_site_type_symbol
_atom_site_label
_atom_site_fract_x
_atom_site_fract_y
_atom_site_fract_z
Si Si1 0.018483 0.816700 0.294459
Si Si2 0.744056 0.816856 0.661049
Si Si3 0.599679 0.818298 0.161503
Si Si4 0.634601 0.684878 0.447541
Si Si5 0.052213 0.684837 0.151909
Si Si6 0.378881 0.682586 0.419083
Si Si7 0.107060 0.315686 0.342114
O O1 0.090533 0.725161 0.187771
O O2 0.139296 0.757100 0.257875
O O3 0.800872 0.783902 0.466384
O O4 0.051559 0.000000 0.261026
O O5 0.541564 0.777884 0.784875
O O6 0.746009 0.766300 0.723908
O O7 0.896380 0.715980 0.516479
O O8 0.795310 0.000000 0.617337
O O9 0.548052 0.720169 0.254067
O O10 0.591564 0.000000 0.183363
O O11 0.806102 0.773140 0.991992
O O12 0.500000 0.763968 0.500000
O O13 0.638705 0.500000 0.435182
O O14 0.557487 0.726248 0.565178
O O15 0.846257 0.747161 0.286341
O O16 0.074217 0.500000 0.127265
O O17 0.321456 0.500000 0.457971
O O18 0.145188 0.500000 0.312613
#
# Coordination Sequence:
#
# PCOD8061010 Si02
#       7
#     4   4   4   4   4   4   4
#     4  11  20  34  54  77 108 144 183 227 273 328
#     4  10  20  33  50  74 106 144 182 225 278 326
#     4  11  22  36  54  78 112 149 181 221 274 328
#     4   8  16  34  59  86 111 137 175 222 269 318
#     4  10  21  36  57  82 109 142 181 226 270 322
#     4  10  19  32  56  84 108 140 184 227 264 315
#     4  11  20  31  51  78 106 138 183 234 275 315
#
# _framework density 19.005230999999998
#
# number of rings (size 3 to 8) (size 9 to 14) (size 15 to 20)
#    0.000    1.857    1.429    6.000    0.000    1.714 
#    0.000    1.429    0.000   24.000    0.000    0.000 
#    0.000    0.000    0.000    0.000    0.000    0.000 
#
# Total GULP energy -347253.414470 kJ/mol
# GULP energy per Si atom -12401.907660 kJ/mol
# Density = 1.896197 g / cm^3
# Si number density = 19.005231 Si / 1000 Ang^3
#
#
#
# Elastic Constant Matrix: (Units=GPa)
#
#
# Indices 1 2 3 4 5 6 
#
# 1 129.5091 28.7028 45.4935 0.0000 3.4306 0.0000
# 2 28.7028 61.6533 8.1215 0.0000 -5.4902 0.0000
# 3 45.4935 8.1215 95.7007 0.0000 5.6954 0.0000
# 4 0.0000 0.0000 0.0000 24.4941 0.0000 -2.6829
# 5 3.4306 -5.4902 5.6954 0.0000 19.9031 0.0000
# 6 0.0000 0.0000 0.0000 -2.6829 0.0000 11.7036
#
#
#
# Elastic Compliance Matrix: (Units=1/GPa)
#
#
# Indices 1 2 3 4 5 6 
#
# 1 0.010284 -0.004358 -0.004417 0.000000 -0.001711 0.000000
# 2 -0.004358 0.018756 0.000130 0.000000 0.005888 0.000000
# 3 -0.004417 0.000130 0.012707 0.000000 -0.002839 0.000000
# 4 0.000000 0.000000 0.000000 0.041878 0.000000 0.009600
# 5 -0.001711 0.005888 -0.002839 0.000000 0.052975 0.000000
# 6 0.000000 0.000000 0.000000 0.009600 0.000000 0.087644
#
#
# Mechanical properties :
#
#
# Convention : Reuss Voigt Hill
#
# Bulk Modulus (GPa) = 40.89031 50.16655 45.52843
# Shear Modulus (GPa) = 20.02498 24.85651 22.44075
#
# Velocity S-wave (km/s) = 3.24953 3.62038 3.43996
# Velocity P-wave (km/s) = 5.97003 6.62795 6.30757
#
# Compressibility (1/GPa) = 0.02445567
#
# Stress axis : x y z
#
# Youngs Moduli (GPa) = 97.23467 53.31622 78.69668
#
# Poissons Ratio (x) = 0.23237 0.34762
# Poissons Ratio (y) = 0.42379 -0.01021
# Poissons Ratio (z) = 0.42951 -0.00692
#
# Static dielectric constant tensor:
#      x y z
#    x 3.809570 0.000000 0.043090 
#    y 0.000000 3.381850 0.000000 
#    z 0.043090 0.000000 3.233080 
# 
# 
# High freq. dielectric constant tensor:
#      x y z
#    x 1.739190 0.000000 0.013570 
#    y 0.000000 1.739050 0.000000 
#    z 0.013570 0.000000 1.712730 
# 
# From -- ./inp_files/90348.got.cif
#   From: 2010.06.25/outbox.cif.g09.slc.cpg/sg10_46_cif.got.tgz:90348.got - 2010.06.27 22:07:45.
