data_PCOD8061125
_publ_section_title
;
Structure prediction by ZEFSAII (Michael W. Deem and Ramdas Pophale) SiO2 
 PCOD8061125
Probable space group: P 2/M
;
_chemical_formula_sum "Si O2"
_cell_formula_units_Z 28
_cell_length_a 11.710351
_cell_length_b 9.684546
_cell_length_c 14.924713
_cell_angle_alpha 90.000000
_cell_angle_beta 119.878176
_cell_angle_gamma 90.000000
_cell_volume 1467.633520
_symmetry_space_group_name_H-M "P 2/M"
_symmetry_group_IT_number 10
_symmetry_cell_setting 'monoclinic'
loop_
_space_group_symop_operation_xyz
x,y,z
-x,y,-z
-x,-y,-z
x,-y,z
loop_
_atom_site_type_symbol
_atom_site_label
_atom_site_fract_x
_atom_site_fract_y
_atom_site_fract_z
Si Si1 0.736864 0.844371 0.693733
Si Si2 0.630525 0.341681 0.805232
Si Si3 0.117299 0.340163 0.979994
Si Si4 0.907770 0.161201 0.382120
Si Si5 0.032857 0.846801 0.795157
Si Si6 0.356290 0.347280 0.483592
Si Si7 0.660165 0.343981 0.314307
O O1 0.650735 0.759364 0.730024
O O2 0.733151 0.770346 0.595769
O O3 0.888313 0.845605 0.782112
O O4 0.680877 0.000000 0.664817
O O5 0.643034 0.500000 0.775345
O O6 0.483427 0.317031 0.787647
O O7 0.739593 0.311056 0.922625
O O8 0.095445 0.500000 0.948990
O O9 0.118733 0.259488 0.886389
O O10 0.000000 0.289239 0.000000
O O11 0.976232 0.192223 0.313575
O O12 0.768437 0.238337 0.321768
O O13 0.000000 0.216923 0.500000
O O14 0.879918 0.000000 0.386486
O O15 0.094837 0.000000 0.828992
O O16 0.500000 0.333118 0.500000
O O17 0.297958 0.500000 0.440796
O O18 0.362026 0.318899 0.590138
O O19 0.707941 0.500000 0.312549
#
# Coordination Sequence:
#
# PCOD8061125 Si02
#       7
#     4   4   4   4   4   4   4
#     4  11  21  32  52  83 114 147 188 231 281 343
#     4  10  20  37  56  81 118 150 182 231 292 342
#     4  10  20  35  60  88 114 152 195 237 287 343
#     4  10  22  42  63  82 114 155 194 238 286 337
#     4  10  22  38  57  83 116 153 190 238 294 339
#     4  10  19  33  52  76 111 150 181 225 288 341
#     4  10  21  37  58  82 112 150 191 236 286 341
#
# _framework density 19.078333000000001
#
# number of rings (size 3 to 8) (size 9 to 14) (size 15 to 20)
#    0.000    1.857    2.857    1.286    0.000    4.857 
#    0.000    0.714    0.000    4.286    0.000    0.000 
#    0.000    0.000    0.000    0.000    0.000    0.000 
#
# Total GULP energy -347145.891699 kJ/mol
# GULP energy per Si atom -12398.067561 kJ/mol
# Density = 1.903491 g / cm^3
# Si number density = 19.078333 Si / 1000 Ang^3
#
#
#
# Elastic Constant Matrix: (Units=GPa)
#
#
# Indices 1 2 3 4 5 6 
#
# 1 76.7192 36.3712 28.0317 0.0000 11.3808 0.0000
# 2 36.3712 94.4510 54.4386 0.0000 5.5661 0.0000
# 3 28.0317 54.4386 103.6744 0.0000 9.1678 0.0000
# 4 0.0000 0.0000 0.0000 32.3217 0.0000 -1.1130
# 5 11.3808 5.5661 9.1678 0.0000 29.4307 0.0000
# 6 0.0000 0.0000 0.0000 -1.1130 0.0000 28.5386
#
#
#
# Elastic Compliance Matrix: (Units=1/GPa)
#
#
# Indices 1 2 3 4 5 6 
#
# 1 0.016834 -0.005476 -0.001226 0.000000 -0.005092 0.000000
# 2 -0.005476 0.016968 -0.007540 0.000000 0.001257 0.000000
# 3 -0.001226 -0.007540 0.014158 0.000000 -0.002510 0.000000
# 4 0.000000 0.000000 0.000000 0.030981 0.000000 0.001208
# 5 -0.005092 0.001257 -0.002510 0.000000 0.036491 0.000000
# 6 0.000000 0.000000 0.000000 0.001208 0.000000 0.035087
#
#
# Mechanical properties :
#
#
# Convention : Reuss Voigt Hill
#
# Bulk Modulus (GPa) = 51.34504 56.94750 54.14627
# Shear Modulus (GPa) = 26.95476 28.45841 27.70659
#
# Velocity S-wave (km/s) = 3.76286 3.86639 3.81498
# Velocity P-wave (km/s) = 6.77126 7.06018 6.91723
#
# Compressibility (1/GPa) = 0.01947608
#
# Stress axis : x y z
#
# Youngs Moduli (GPa) = 59.40424 58.93436 70.62900
#
# Poissons Ratio (x) = 0.32270 0.08660
# Poissons Ratio (y) = 0.32528 0.53257
# Poissons Ratio (z) = 0.07283 0.44439
#
# Static dielectric constant tensor:
#      x y z
#    x 3.500220 0.000000 0.128720 
#    y 0.000000 3.582480 0.000000 
#    z 0.128720 0.000000 3.517850 
# 
# 
# High freq. dielectric constant tensor:
#      x y z
#    x 1.724950 0.000000 0.009930 
#    y 0.000000 1.743120 0.000000 
#    z 0.009930 0.000000 1.735430 
# 
# From -- ./inp_files/49115.got.cif
#   From: 2010.06.25/outbox.cif.g09.slc.cpg/sg10_25_cif.got.tgz:49115.got - 2010.06.27 22:07:45.
