data_PCOD8061991
_publ_section_title
;
Structure prediction by ZEFSAII (Michael W. Deem and Ramdas Pophale) SiO2 
 PCOD8061991
Probable space group: P 2/M
;
_chemical_formula_sum "Si O2"
_cell_formula_units_Z 26
_cell_length_a 19.515293
_cell_length_b 8.558121
_cell_length_c 13.613379
_cell_angle_alpha 90.000000
_cell_angle_beta 33.727835
_cell_angle_gamma 90.000000
_cell_volume 1262.428691
_symmetry_space_group_name_H-M "P 2/M"
_symmetry_group_IT_number 10
_symmetry_cell_setting 'monoclinic'
loop_
_space_group_symop_operation_xyz
x,y,z
-x,y,-z
-x,-y,-z
x,-y,z
loop_
_atom_site_type_symbol
_atom_site_label
_atom_site_fract_x
_atom_site_fract_y
_atom_site_fract_z
Si Si1 0.900964 0.819676 0.453644
Si Si2 0.339418 0.167175 0.372019
Si Si3 0.500000 0.782671 0.000000
Si Si4 0.559946 0.319413 0.563357
Si Si5 0.160438 0.681683 0.109153
Si Si6 0.679899 0.816731 0.239843
Si Si7 0.727519 0.815798 0.833766
O O1 0.795373 0.774871 0.501128
O O2 0.850707 0.787732 0.623332
O O3 0.016124 0.708705 0.297281
O O4 0.941747 0.000000 0.394413
O O5 0.396431 0.294178 0.377056
O O6 0.327619 0.000000 0.441159
O O7 0.423222 0.130420 0.176585
O O8 0.386367 0.705654 0.072674
O O9 0.527347 0.500000 0.586898
O O10 0.438914 0.217704 0.686176
O O11 0.667517 0.267723 0.359979
O O12 0.190240 0.500000 0.080230
O O13 0.243862 0.770198 0.089584
O O14 0.198522 0.749020 0.957724
O O15 0.694170 0.000000 0.239240
O O16 0.687707 0.000000 0.875721
#
# Coordination Sequence:
#
# PCOD8061991 Si02
#       7
#     4   4   2   4   4   4   4
#     4   9  20  37  56  80 112 153 199 238 271 325
#     4  10  19  35  59  85 114 151 193 231 273 327
#     4  10  19  34  59  88 113 144 189 234 269 318
#     4  11  22  38  59  88 121 146 176 225 286 339
#     4  12  24  37  55  82 114 148 188 237 291 338
#     4  11  22  39  62  84 109 146 191 233 275 332
#     4  10  19  34  57  83 113 150 191 232 277 333
#
# _framework density 20.595223000000001
#
# number of rings (size 3 to 8) (size 9 to 14) (size 15 to 20)
#    0.000    1.538    0.000    8.769    0.000    3.077 
#    0.000    3.846    0.000    4.615    0.000    0.000 
#    0.000    0.000    0.000    0.000    0.000    0.000 
#
# Total GULP energy -322127.950792 kJ/mol
# GULP energy per Si atom -12389.536569 kJ/mol
# Density = 2.054835 g / cm^3
# Si number density = 20.595223 Si / 1000 Ang^3
#
#
#
# Elastic Constant Matrix: (Units=GPa)
#
#
# Indices 1 2 3 4 5 6 
#
# 1 90.3321 20.3073 34.3945 0.0000 2.5784 0.0000
# 2 20.3073 77.7528 25.1793 0.0000 5.3421 0.0000
# 3 34.3945 25.1793 110.6462 0.0000 -2.5874 0.0000
# 4 0.0000 0.0000 0.0000 13.9839 0.0000 3.8650
# 5 2.5784 5.3421 -2.5874 0.0000 27.3941 0.0000
# 6 0.0000 0.0000 0.0000 3.8650 0.0000 5.5763
#
#
#
# Elastic Compliance Matrix: (Units=1/GPa)
#
#
# Indices 1 2 3 4 5 6 
#
# 1 0.012941 -0.002149 -0.003560 0.000000 -0.001135 0.000000
# 2 -0.002149 0.014494 -0.002698 0.000000 -0.002879 0.000000
# 3 -0.003560 -0.002698 0.010802 0.000000 0.001881 0.000000
# 4 0.000000 0.000000 0.000000 0.088456 0.000000 -0.061310
# 5 -0.001135 -0.002879 0.001881 0.000000 0.037350 0.000000
# 6 0.000000 0.000000 0.000000 -0.061310 0.000000 0.221827
#
#
# Mechanical properties :
#
#
# Convention : Reuss Voigt Hill
#
# Bulk Modulus (GPa) = 46.67709 48.72148 47.69928
# Shear Modulus (GPa) = 12.20030 22.64754 17.42392
#
# Velocity S-wave (km/s) = 2.43654 3.31969 2.91179
# Velocity P-wave (km/s) = 5.53433 6.19692 5.87498
#
# Compressibility (1/GPa) = 0.02142379
#
# Stress axis : x y z
#
# Youngs Moduli (GPa) = 77.27140 68.99432 92.57174
#
# Poissons Ratio (x) = 0.14827 0.32959
# Poissons Ratio (y) = 0.16606 0.24972
# Poissons Ratio (z) = 0.27511 0.18612
#
# Static dielectric constant tensor:
#      x y z
#    x 3.657480 0.000000 0.059560 
#    y 0.000000 3.395900 0.000000 
#    z 0.059560 0.000000 3.862810 
# 
# 
# High freq. dielectric constant tensor:
#      x y z
#    x 1.800800 0.000000 0.004560 
#    y 0.000000 1.782900 0.000000 
#    z 0.004560 0.000000 1.811200 
# 
# From -- ./inp_files/69914.got.cif
#   From: 2010.06.25/outbox.cif.g09.slc.cpg/sg10_35_cif.got.tgz:69914.got - 2010.06.27 22:07:45.
