data_PCOD8061779
_publ_section_title
;
Structure prediction by ZEFSAII (Michael W. Deem and Ramdas Pophale) SiO2 
 PCOD8061779
Probable space group: P 2/M
;
_chemical_formula_sum "Si O2"
_cell_formula_units_Z 32
_cell_length_a 21.903246
_cell_length_b 8.986160
_cell_length_c 27.732927
_cell_angle_alpha 90.000000
_cell_angle_beta 161.457642
_cell_angle_gamma 90.000000
_cell_volume 1735.853926
_symmetry_space_group_name_H-M "P 2/M"
_symmetry_group_IT_number 10
_symmetry_cell_setting 'monoclinic'
loop_
_space_group_symop_operation_xyz
x,y,z
-x,y,-z
-x,-y,-z
x,-y,z
loop_
_atom_site_type_symbol
_atom_site_label
_atom_site_fract_x
_atom_site_fract_y
_atom_site_fract_z
Si Si1 0.933835 0.673827 0.627880
Si Si2 0.043901 0.324086 0.856176
Si Si3 0.939995 0.824534 0.531606
Si Si4 0.701578 0.825831 0.261679
Si Si5 0.057168 0.176298 0.966027
Si Si6 0.275299 0.177301 0.442252
Si Si7 0.695416 0.329162 0.036597
Si Si8 0.707225 0.824433 0.766629
O O1 0.884090 0.500000 0.594848
O O2 0.793312 0.763731 0.557561
O O3 0.897686 0.730463 0.547254
O O4 0.154205 0.703351 0.807951
O O5 0.010388 0.500000 0.830975
O O6 0.846716 0.245495 0.692733
O O7 0.107186 0.265567 0.955379
O O8 0.211311 0.278864 0.944201
O O9 0.143800 0.772924 0.662175
O O10 0.773025 0.782342 0.368649
O O11 0.939479 0.000000 0.542777
O O12 0.681598 0.000000 0.243141
O O13 0.496566 0.758929 0.095868
O O14 0.845550 0.224601 0.826321
O O15 0.068868 0.000000 0.964920
O O16 0.211605 0.231366 0.121187
O O17 0.492929 0.234135 0.597215
O O18 0.258763 0.000000 0.428750
O O19 0.637569 0.500000 0.991119
O O20 0.710795 0.000000 0.772039
#
# Coordination Sequence:
#
# PCOD8061779 Si02
#       8
#     4   4   4   4   4   4   4   4
#     4  10  21  36  52  75 105 136 168 207 251 300
#     4  10  21  36  50  73 107 138 168 207 251 300
#     4   9  19  36  54  76 104 133 165 207 252 298
#     4   9  19  35  55  77 102 130 168 212 250 291
#     4   9  17  34  56  76 100 133 169 209 254 302
#     4  10  19  34  55  77 100 132 171 211 252 298
#     4   9  20  36  51  70 102 136 168 206 251 300
#     4   8  17  33  54  78 102 128 168 215 255 297
#
# _framework density 18.434733000000001
#
# number of rings (size 3 to 8) (size 9 to 14) (size 15 to 20)
#    0.000    2.750    0.000    3.375    0.000    6.000 
#    0.000   13.750    0.000    0.000    0.000    0.000 
#    0.000    0.000    0.000    0.000    0.000    0.000 
#
# Total GULP energy -396767.448945 kJ/mol
# GULP energy per Si atom -12398.982780 kJ/mol
# Density = 1.839277 g / cm^3
# Si number density = 18.434733 Si / 1000 Ang^3
#
#
#
# Elastic Constant Matrix: (Units=GPa)
#
#
# Indices 1 2 3 4 5 6 
#
# 1 41.9161 8.6702 -16.8661 0.0000 -12.6570 0.0000
# 2 8.6702 44.9815 8.5412 0.0000 -0.5283 0.0000
# 3 -16.8661 8.5412 45.8999 0.0000 12.0756 0.0000
# 4 0.0000 0.0000 0.0000 17.0246 0.0000 -5.9208
# 5 -12.6570 -0.5283 12.0756 0.0000 23.1723 0.0000
# 6 0.0000 0.0000 0.0000 -5.9208 0.0000 11.5493
#
#
#
# Elastic Compliance Matrix: (Units=1/GPa)
#
#
# Indices 1 2 3 4 5 6 
#
# 1 0.033678 -0.008354 0.010592 0.000000 0.012685 0.000000
# 2 -0.008354 0.025324 -0.007803 0.000000 0.000081 0.000000
# 3 0.010592 -0.007803 0.029732 0.000000 -0.009886 0.000000
# 4 0.000000 0.000000 0.000000 0.071484 0.000000 0.036646
# 5 0.012685 0.000081 -0.009886 0.000000 0.055237 0.000000
# 6 0.000000 0.000000 0.000000 0.036646 0.000000 0.105372
#
#
# Mechanical properties :
#
#
# Convention : Reuss Voigt Hill
#
# Bulk Modulus (GPa) = 12.88594 14.83201 13.85897
# Shear Modulus (GPa) = 13.97335 19.17937 16.57636
#
# Velocity S-wave (km/s) = 2.75615 3.22901 3.00191
# Velocity P-wave (km/s) = 4.13929 4.68670 4.42147
#
# Compressibility (1/GPa) = 0.07760397
#
# Stress axis : x y z
#
# Youngs Moduli (GPa) = 29.69337 39.48785 33.63415
#
# Poissons Ratio (x) = 0.32987 -0.35626
# Poissons Ratio (y) = 0.24805 0.26246
# Poissons Ratio (z) = -0.31452 0.30814
#
# Static dielectric constant tensor:
#      x y z
#    x 3.396580 0.000000 0.120480 
#    y 0.000000 3.195980 0.000000 
#    z 0.120480 0.000000 3.810530 
# 
# 
# High freq. dielectric constant tensor:
#      x y z
#    x 1.716340 0.000000 -0.001310 
#    y 0.000000 1.702590 0.000000 
#    z -0.001310 0.000000 1.716740 
# 
# From -- ./inp_files/93807.got.cif
#   From: 2010.06.25/outbox.cif.g09.slc.cpg/sg10_47_cif.got.tgz:93807.got - 2010.06.27 22:07:45.
