data_PCOD8061510
_publ_section_title
;
Structure prediction by ZEFSAII (Michael W. Deem and Ramdas Pophale) SiO2 
 PCOD8061510
Probable space group: P 2/M
;
_chemical_formula_sum "Si O2"
_cell_formula_units_Z 28
_cell_length_a 28.566864
_cell_length_b 8.665617
_cell_length_c 9.635626
_cell_angle_alpha 90.000000
_cell_angle_beta 141.215622
_cell_angle_gamma 90.000000
_cell_volume 1494.127667
_symmetry_space_group_name_H-M "P 2/M"
_symmetry_group_IT_number 10
_symmetry_cell_setting 'monoclinic'
loop_
_space_group_symop_operation_xyz
x,y,z
-x,y,-z
-x,-y,-z
x,-y,z
loop_
_atom_site_type_symbol
_atom_site_label
_atom_site_fract_x
_atom_site_fract_y
_atom_site_fract_z
Si Si1 0.241014 0.820488 0.575227
Si Si2 0.917578 0.318436 0.301436
Si Si3 0.791561 0.317749 0.215917
Si Si4 0.691132 0.820014 0.766130
Si Si5 0.396358 0.321136 0.876091
Si Si6 0.557920 0.321524 0.330413
Si Si7 0.196991 0.680516 0.190871
O O1 0.201491 0.728438 0.608279
O O2 0.328717 0.782454 0.773150
O O3 0.198363 0.773521 0.336756
O O4 0.230418 0.000000 0.577246
O O5 0.925097 0.500000 0.336247
O O6 0.865414 0.256868 0.305910
O O7 0.000000 0.241393 0.500000
O O8 0.879945 0.278066 0.066452
O O9 0.782209 0.500000 0.177103
O O10 0.718975 0.235896 0.981021
O O11 0.603146 0.781363 0.546200
O O12 0.733434 0.726174 0.743847
O O13 0.706151 0.000000 0.782309
O O14 0.374218 0.500000 0.841548
O O15 0.412694 0.281695 0.754782
O O16 0.469864 0.282048 0.136888
O O17 0.571105 0.500000 0.395216
O O18 0.203609 0.500000 0.239216
#
# Coordination Sequence:
#
# PCOD8061510 Si02
#       7
#     4   4   4   4   4   4   4
#     4  12  23  35  52  79 113 144 180 227 270 315
#     4   8  16  34  61  89 108 129 174 227 263 303
#     4  10  21  37  58  79 107 146 179 216 269 327
#     4  11  20  32  52  80 110 140 180 229 269 314
#     4   9  18  32  52  76 105 141 182 226 272 319
#     4   9  17  31  52  77 104 139 183 228 270 318
#     4  10  19  33  56  81 108 144 182 217 261 321
#
# _framework density 18.740031999999999
#
# number of rings (size 3 to 8) (size 9 to 14) (size 15 to 20)
#    0.000    2.143    1.429    5.143    0.000    0.571 
#    0.000    2.857    0.000   24.000    0.000    0.000 
#    0.000    0.000    0.000    0.000    0.000    0.000 
#
# Total GULP energy -347200.251380 kJ/mol
# GULP energy per Si atom -12400.008978 kJ/mol
# Density = 1.869738 g / cm^3
# Si number density = 18.740032 Si / 1000 Ang^3
#
#
#
# Elastic Constant Matrix: (Units=GPa)
#
#
# Indices 1 2 3 4 5 6 
#
# 1 71.0380 17.2856 42.5214 0.0000 -1.4559 0.0000
# 2 17.2856 61.7733 27.2427 0.0000 8.8510 0.0000
# 3 42.5214 27.2427 114.8992 0.0000 11.1813 0.0000
# 4 0.0000 0.0000 0.0000 15.0901 0.0000 -9.2032
# 5 -1.4559 8.8510 11.1813 0.0000 27.8651 0.0000
# 6 0.0000 0.0000 0.0000 -9.2032 0.0000 15.5064
#
#
#
# Elastic Compliance Matrix: (Units=1/GPa)
#
#
# Indices 1 2 3 4 5 6 
#
# 1 0.018942 -0.002988 -0.006754 0.000000 0.004649 0.000000
# 2 -0.002988 0.019032 -0.002917 0.000000 -0.005031 0.000000
# 3 -0.006754 -0.002917 0.012320 0.000000 -0.004370 0.000000
# 4 0.000000 0.000000 0.000000 0.103865 0.000000 0.061645
# 5 0.004649 -0.005031 -0.004370 0.000000 0.039481 0.000000
# 6 0.000000 0.000000 0.000000 0.061645 0.000000 0.101077
#
#
# Mechanical properties :
#
#
# Convention : Reuss Voigt Hill
#
# Bulk Modulus (GPa) = 40.03953 46.86777 43.45365
# Shear Modulus (GPa) = 15.22722 22.40304 18.81513
#
# Velocity S-wave (km/s) = 2.85362 3.46130 3.17204
# Velocity P-wave (km/s) = 5.68064 6.40608 6.05424
#
# Compressibility (1/GPa) = 0.02497532
#
# Stress axis : x y z
#
# Youngs Moduli (GPa) = 52.79268 52.54415 81.17132
#
# Poissons Ratio (x) = 0.15700 0.54823
# Poissons Ratio (y) = 0.15774 0.23678
# Poissons Ratio (z) = 0.35656 0.15328
#
# Static dielectric constant tensor:
#      x y z
#    x 3.286850 0.000000 0.109310 
#    y 0.000000 3.224700 0.000000 
#    z 0.109310 0.000000 3.706720 
# 
# 
# High freq. dielectric constant tensor:
#      x y z
#    x 1.699520 0.000000 -0.000320 
#    y 0.000000 1.715530 0.000000 
#    z -0.000320 0.000000 1.734900 
# 
# From -- ./inp_files/31595.got.cif
#   From: 2010.06.25/outbox.cif.g09.slc.cpg/sg10_16_cif.got.tgz:31595.got - 2010.06.27 22:07:45.
