data_PCOD8061338
_publ_section_title
;
Structure prediction by ZEFSAII (Michael W. Deem and Ramdas Pophale) SiO2 
 PCOD8061338
Probable space group: P 2/M
;
_chemical_formula_sum "Si O2"
_cell_formula_units_Z 28
_cell_length_a 11.100131
_cell_length_b 15.109389
_cell_length_c 8.673876
_cell_angle_alpha 90.000000
_cell_angle_beta 110.133137
_cell_angle_gamma 90.000000
_cell_volume 1365.857524
_symmetry_space_group_name_H-M "P 2/M"
_symmetry_group_IT_number 10
_symmetry_cell_setting 'monoclinic'
loop_
_space_group_symop_operation_xyz
x,y,z
-x,y,-z
-x,-y,-z
x,-y,z
loop_
_atom_site_type_symbol
_atom_site_label
_atom_site_fract_x
_atom_site_fract_y
_atom_site_fract_z
Si Si1 0.897389 0.166666 0.271379
Si Si2 0.711225 0.402451 0.016588
Si Si3 0.983959 0.339142 0.165986
Si Si4 0.151556 0.100305 0.406569
Si Si5 0.368872 0.223811 0.874389
Si Si6 0.365266 0.770283 0.510381
Si Si7 0.262886 0.598982 0.323970
O O1 0.957461 0.264496 0.282720
O O2 0.872975 0.138124 0.434591
O O3 0.758239 0.168772 0.121987
O O4 0.012815 0.104140 0.255565
O O5 0.657745 0.500000 0.038109
O O6 0.686509 0.382528 0.825868
O O7 0.863649 0.405316 0.114201
O O8 0.639569 0.326821 0.081758
O O9 0.109757 0.392409 0.270164
O O10 0.000000 0.298086 0.000000
O O11 0.259804 0.164862 0.382677
O O12 0.202683 0.000000 0.430973
O O13 0.372623 0.214856 0.694358
O O14 0.500000 0.182049 0.000000
O O15 0.500000 0.798347 0.500000
O O16 0.333003 0.668099 0.465740
O O17 0.300108 0.500000 0.393772
#
# Coordination Sequence:
#
# PCOD8061338 Si02
#       7
#     4   4   4   4   4   4   4
#     4   9  17  33  58  86 112 137 183 231 277 337
#     4   9  18  32  52  79 112 156 199 233 276 338
#     4   9  16  29  52  83 116 154 187 227 283 343
#     4  10  20  37  64  88 110 144 185 234 292 348
#     4  10  21  36  55  80 111 156 191 227 285 343
#     4  11  23  38  59  86 116 150 192 241 287 335
#     4  10  19  33  54  83 120 154 192 238 281 329
#
# _framework density 20.499942999999998
#
# number of rings (size 3 to 8) (size 9 to 14) (size 15 to 20)
#    0.000    2.286    1.429    2.143    0.000    3.143 
#    0.000    0.000    0.000   15.857    0.000    0.000 
#    0.000    0.000    0.000    0.000    0.000    0.000 
#
# Total GULP energy -346869.472593 kJ/mol
# GULP energy per Si atom -12388.195450 kJ/mol
# Density = 2.045328 g / cm^3
# Si number density = 20.499943 Si / 1000 Ang^3
#
#
#
# Elastic Constant Matrix: (Units=GPa)
#
#
# Indices 1 2 3 4 5 6 
#
# 1 122.0765 38.7655 31.5761 0.0000 32.9303 0.0000
# 2 38.7655 109.5732 25.4367 0.0000 7.8056 0.0000
# 3 31.5761 25.4367 55.5217 0.0000 20.3801 0.0000
# 4 0.0000 0.0000 0.0000 5.4452 0.0000 9.8123
# 5 32.9303 7.8056 20.3801 0.0000 30.3119 0.0000
# 6 0.0000 0.0000 0.0000 9.8123 0.0000 4.3483
#
#
#
# Elastic Compliance Matrix: (Units=1/GPa)
#
#
# Indices 1 2 3 4 5 6 
#
# 1 0.012919 -0.003398 -0.001274 0.000000 -0.012303 0.000000
# 2 -0.003398 0.011117 -0.004600 0.000000 0.003922 0.000000
# 3 -0.001274 -0.004600 0.026421 0.000000 -0.015195 0.000000
# 4 0.000000 0.000000 0.000000 -0.059891 0.000000 0.135148
# 5 -0.012303 0.003922 -0.015195 0.000000 0.055563 0.000000
# 6 0.000000 0.000000 0.000000 0.135148 0.000000 -0.074999
#
#
# Mechanical properties :
#
#
# Convention : Reuss Voigt Hill
#
# Bulk Modulus (GPa) = 31.33674 53.19200 42.26437
# Shear Modulus (GPa) = 15960.09040 20.78062 7990.43551
#
# Velocity S-wave (km/s) = 88.33082 3.18731 62.49997
# Velocity P-wave (km/s) = 102.07071 6.28880 72.31175
#
# Compressibility (1/GPa) = 0.03191143
#
# Stress axis : x y z
#
# Youngs Moduli (GPa) = 77.40431 89.95138 37.84905
#
# Poissons Ratio (x) = 0.30569 0.04823
# Poissons Ratio (y) = 0.26305 0.17411
# Poissons Ratio (z) = 0.09864 0.41379
#
# Static dielectric constant tensor:
#      x y z
#    x 4.231380 0.000000 0.394830 
#    y 0.000000 3.513920 0.000000 
#    z 0.394830 0.000000 3.611610 
# 
# 
# High freq. dielectric constant tensor:
#      x y z
#    x 1.814650 0.000000 0.019400 
#    y 0.000000 1.777270 0.000000 
#    z 0.019400 0.000000 1.771690 
# 
# From -- ./inp_files/25428.got.cif
#   From: 2010.06.25/outbox.cif.g09.slc.cpg/sg10_13_cif.got.tgz:25428.got - 2010.06.27 22:07:45.
