data_PCOD8061449
_publ_section_title
;
Structure prediction by ZEFSAII (Michael W. Deem and Ramdas Pophale) SiO2 
 PCOD8061449
Probable space group: P 2/M
;
_chemical_formula_sum "Si O2"
_cell_formula_units_Z 24
_cell_length_a 12.005290
_cell_length_b 9.562318
_cell_length_c 11.432811
_cell_angle_alpha 90.000000
_cell_angle_beta 69.815721
_cell_angle_gamma 90.000000
_cell_volume 1231.866755
_symmetry_space_group_name_H-M "P 2/M"
_symmetry_group_IT_number 10
_symmetry_cell_setting 'monoclinic'
loop_
_space_group_symop_operation_xyz
x,y,z
-x,y,-z
-x,-y,-z
x,-y,z
loop_
_atom_site_type_symbol
_atom_site_label
_atom_site_fract_x
_atom_site_fract_y
_atom_site_fract_z
Si Si1 0.958735 0.841012 0.737178
Si Si2 0.227258 0.834762 0.607546
Si Si3 0.120281 0.657138 0.026986
Si Si4 0.453776 0.662429 0.142968
Si Si5 0.323067 0.337299 0.779896
Si Si6 0.740538 0.841072 0.667088
O O1 0.880514 0.829631 0.647764
O O2 0.091086 0.782531 0.668896
O O3 0.966734 0.000000 0.778492
O O4 0.887776 0.754226 0.858618
O O5 0.311829 0.753415 0.666652
O O6 0.273487 0.794540 0.462157
O O7 0.236873 0.000000 0.626360
O O8 0.150481 0.500000 0.057821
O O9 0.224352 0.714829 0.907017
O O10 0.000000 0.661791 0.000000
O O11 0.420623 0.500000 0.145973
O O12 0.549730 0.690580 0.209119
O O13 0.335660 0.744665 0.219650
O O14 0.500000 0.715387 0.000000
O O15 0.304067 0.500000 0.755420
O O16 0.696607 0.000000 0.699689
#
# Coordination Sequence:
#
# PCOD8061449 Si02
#       6
#     4   4   4   4   4   4
#     4  10  20  35  57  83 113 148 186 229 276 328
#     4  10  21  37  57  82 114 149 184 226 278 332
#     4  10  19  33  55  82 112 144 180 226 277 327
#     4  10  22  41  62  82 109 146 186 228 277 332
#     4  10  21  37  57  83 114 146 183 229 278 329
#     4  10  22  39  58  82 112 148 189 230 273 324
#
# _framework density 19.482624999999999
#
# number of rings (size 3 to 8) (size 9 to 14) (size 15 to 20)
#    0.000    2.000    1.667    1.500    0.000    7.333 
#    0.000    3.333    0.000    3.000    0.000    0.000 
#    0.000    0.000    0.000    0.000    0.000    0.000 
#
# Total GULP energy -297662.806292 kJ/mol
# GULP energy per Si atom -12402.616929 kJ/mol
# Density = 1.943828 g / cm^3
# Si number density = 19.482625 Si / 1000 Ang^3
#
#
#
# Elastic Constant Matrix: (Units=GPa)
#
#
# Indices 1 2 3 4 5 6 
#
# 1 77.4521 26.9845 30.0863 0.0000 6.6824 0.0000
# 2 26.9845 56.8271 48.4777 0.0000 7.8071 0.0000
# 3 30.0863 48.4777 110.9645 0.0000 11.7398 0.0000
# 4 0.0000 0.0000 0.0000 20.6781 0.0000 8.7418
# 5 6.6824 7.8071 11.7398 0.0000 30.8202 0.0000
# 6 0.0000 0.0000 0.0000 8.7418 0.0000 26.3843
#
#
#
# Elastic Compliance Matrix: (Units=1/GPa)
#
#
# Indices 1 2 3 4 5 6 
#
# 1 0.015695 -0.005995 -0.001497 0.000000 -0.001314 0.000000
# 2 -0.005995 0.030534 -0.011497 0.000000 -0.002056 0.000000
# 3 -0.001497 -0.011497 0.014690 0.000000 -0.002359 0.000000
# 4 0.000000 0.000000 0.000000 0.056238 0.000000 -0.018633
# 5 -0.001314 -0.002056 -0.002359 0.000000 0.034150 0.000000
# 6 0.000000 0.000000 0.000000 -0.018633 0.000000 0.044075
#
#
# Mechanical properties :
#
#
# Convention : Reuss Voigt Hill
#
# Bulk Modulus (GPa) = 43.59009 50.70450 47.14729
# Shear Modulus (GPa) = 20.74637 24.88953 22.81795
#
# Velocity S-wave (km/s) = 3.26677 3.57812 3.42599
# Velocity P-wave (km/s) = 6.05404 6.56907 6.31681
#
# Compressibility (1/GPa) = 0.02294100
#
# Stress axis : x y z
#
# Youngs Moduli (GPa) = 63.71516 32.75073 68.07351
#
# Poissons Ratio (x) = 0.19633 0.10193
# Poissons Ratio (y) = 0.38196 0.78261
# Poissons Ratio (z) = 0.09541 0.37652
#
# Static dielectric constant tensor:
#      x y z
#    x 3.591610 0.000000 0.040870 
#    y 0.000000 3.449170 0.000000 
#    z 0.040870 0.000000 3.499670 
# 
# 
# High freq. dielectric constant tensor:
#      x y z
#    x 1.767280 0.000000 0.005290 
#    y 0.000000 1.746830 0.000000 
#    z 0.005290 0.000000 1.758190 
# 
# From -- ./inp_files/45019.got.cif
#   From: 2010.06.25/outbox.cif.g09.slc.cpg/sg10_23_cif.got.tgz:45019.got - 2010.06.27 22:07:45.
