data_PCOD8061457
_publ_section_title
;
Structure prediction by ZEFSAII (Michael W. Deem and Ramdas Pophale) SiO2 
 PCOD8061457
Probable space group: P 2/M
;
_chemical_formula_sum "Si O2"
_cell_formula_units_Z 32
_cell_length_a 14.373147
_cell_length_b 8.883465
_cell_length_c 15.694312
_cell_angle_alpha 90.000000
_cell_angle_beta 56.453632
_cell_angle_gamma 90.000000
_cell_volume 1670.130095
_symmetry_space_group_name_H-M "P 2/M"
_symmetry_group_IT_number 10
_symmetry_cell_setting 'monoclinic'
loop_
_space_group_symop_operation_xyz
x,y,z
-x,y,-z
-x,-y,-z
x,-y,z
loop_
_atom_site_type_symbol
_atom_site_label
_atom_site_fract_x
_atom_site_fract_y
_atom_site_fract_z
Si Si1 0.562106 0.322002 0.553732
Si Si2 0.535068 0.821861 0.888541
Si Si3 0.013239 0.179670 0.313507
Si Si4 0.777952 0.821369 0.505196
Si Si5 0.581576 0.322261 0.211694
Si Si6 0.229465 0.821611 0.299459
Si Si7 0.013489 0.822039 0.124064
Si Si8 0.182397 0.178003 0.897398
O O1 0.500000 0.265013 0.500000
O O2 0.574651 0.500000 0.546202
O O3 0.684623 0.249225 0.491420
O O4 0.496120 0.266709 0.671166
O O5 0.455637 0.749597 0.858332
O O6 0.662570 0.770382 0.808683
O O7 0.521388 0.000000 0.887569
O O8 0.500000 0.765166 0.000000
O O9 0.899098 0.235341 0.414057
O O10 0.020297 0.247309 0.214817
O O11 0.118157 0.245861 0.312727
O O12 0.018154 0.000000 0.309602
O O13 0.759667 0.760197 0.610142
O O14 0.768569 0.000000 0.504404
O O15 0.577405 0.500000 0.204678
O O16 0.705559 0.270512 0.170698
O O17 0.219791 0.000000 0.306864
O O18 0.900124 0.767728 0.135986
O O19 0.007935 0.000000 0.130720
O O20 0.124075 0.775803 0.016073
O O21 0.207041 0.000000 0.881281
#
# Coordination Sequence:
#
# PCOD8061457 Si02
#       8
#     4   4   4   4   4   4   4   4
#     4  10  23  41  57  75 107 151 189 223 275 334
#     4  10  21  36  58  86 111 143 186 228 272 327
#     4   9  17  28  50  81 110 137 171 218 276 326
#     4  10  19  33  55  83 109 135 176 230 276 318
#     4  11  23  38  57  81 110 148 185 228 280 326
#     4   9  17  31  50  78 112 138 169 218 272 324
#     4   8  16  31  50  79 111 140 172 218 274 324
#     4   9  18  33  55  79 109 142 177 220 269 326
#
# _framework density 19.160183
#
# number of rings (size 3 to 8) (size 9 to 14) (size 15 to 20)
#    0.000    2.500    1.250    1.500    3.500    2.500 
#    0.000    1.250    0.000    3.000    0.000    0.000 
#    0.000    0.000    0.000    0.000    0.000    0.000 
#
# Total GULP energy -396791.740646 kJ/mol
# GULP energy per Si atom -12399.741895 kJ/mol
# Density = 1.911657 g / cm^3
# Si number density = 19.160183 Si / 1000 Ang^3
#
#
#
# Elastic Constant Matrix: (Units=GPa)
#
#
# Indices 1 2 3 4 5 6 
#
# 1 141.5632 17.1593 54.0001 0.0000 -1.3133 0.0000
# 2 17.1593 14.6223 14.3320 0.0000 0.5052 0.0000
# 3 54.0001 14.3320 105.3564 0.0000 7.5479 0.0000
# 4 0.0000 0.0000 0.0000 12.3879 0.0000 3.9474
# 5 -1.3133 0.5052 7.5479 0.0000 40.0234 0.0000
# 6 0.0000 0.0000 0.0000 3.9474 0.0000 8.3873
#
#
#
# Elastic Compliance Matrix: (Units=1/GPa)
#
#
# Indices 1 2 3 4 5 6 
#
# 1 0.009460 -0.007279 -0.003941 0.000000 0.001145 0.000000
# 2 -0.007279 0.084553 -0.007783 0.000000 0.000162 0.000000
# 3 -0.003941 -0.007783 0.012745 0.000000 -0.002435 0.000000
# 4 0.000000 0.000000 0.000000 0.094966 0.000000 -0.044695
# 5 0.001145 0.000162 -0.002435 0.000000 0.025480 0.000000
# 6 0.000000 0.000000 0.000000 -0.044695 0.000000 0.140264
#
#
# Mechanical properties :
#
#
# Convention : Reuss Voigt Hill
#
# Bulk Modulus (GPa) = 14.54477 48.05829 31.30153
# Shear Modulus (GPa) = 11.67163 23.89642 17.78402
#
# Velocity S-wave (km/s) = 2.47080 3.53539 3.04990
# Velocity P-wave (km/s) = 3.96830 6.46546 5.36421
#
# Compressibility (1/GPa) = 0.06875323
#
# Stress axis : x y z
#
# Youngs Moduli (GPa) = 105.70784 11.82688 78.46501
#
# Poissons Ratio (x) = 0.08608 0.30920
# Poissons Ratio (y) = 0.76940 0.61070
# Poissons Ratio (z) = 0.41656 0.09205
#
# Static dielectric constant tensor:
#      x y z
#    x 3.689070 0.000000 0.116670 
#    y 0.000000 2.960010 0.000000 
#    z 0.116670 0.000000 3.847910 
# 
# 
# High freq. dielectric constant tensor:
#      x y z
#    x 1.760260 0.000000 -0.000510 
#    y 0.000000 1.692100 0.000000 
#    z -0.000510 0.000000 1.757590 
# 
# From -- ./inp_files/66561.got.cif
#   From: 2010.06.25/outbox.cif.g09.slc.cpg/sg10_34_cif.got.tgz:66561.got - 2010.06.27 22:07:45.
