data_PCOD8061868
_publ_section_title
;
Structure prediction by ZEFSAII (Michael W. Deem and Ramdas Pophale) SiO2 
 PCOD8061868
Probable space group: P 2/M
;
_chemical_formula_sum "Si O2"
_cell_formula_units_Z 28
_cell_length_a 8.982700
_cell_length_b 8.647275
_cell_length_c 28.801821
_cell_angle_alpha 90.000000
_cell_angle_beta 141.076677
_cell_angle_gamma 90.000000
_cell_volume 1405.591783
_symmetry_space_group_name_H-M "P 2/M"
_symmetry_group_IT_number 10
_symmetry_cell_setting 'monoclinic'
loop_
_space_group_symop_operation_xyz
x,y,z
-x,y,-z
-x,-y,-z
x,-y,z
loop_
_atom_site_type_symbol
_atom_site_label
_atom_site_fract_x
_atom_site_fract_y
_atom_site_fract_z
Si Si1 0.236275 0.184380 0.927160
Si Si2 0.626997 0.817142 0.217848
Si Si3 0.498405 0.179850 0.359289
Si Si4 0.691038 0.178039 0.507958
Si Si5 0.809831 0.321087 0.356129
Si Si6 0.962880 0.815907 0.218541
Si Si7 0.899446 0.184467 0.926934
O O1 0.143793 0.247844 0.855460
O O2 0.065035 0.248222 0.925878
O O3 0.236592 0.000000 0.927197
O O4 0.500000 0.248265 0.000000
O O5 0.710410 0.775147 0.289172
O O6 0.364954 0.750063 0.144725
O O7 0.807332 0.748424 0.223255
O O8 0.620297 0.000000 0.211879
O O9 0.575469 0.209285 0.430390
O O10 0.668065 0.277662 0.367782
O O11 0.231555 0.242194 0.288817
O O12 0.518223 0.000000 0.350398
O O13 0.500000 0.224119 0.500000
O O14 0.915900 0.286098 0.569135
O O15 0.770638 0.000000 0.532739
O O16 0.776812 0.500000 0.337075
O O17 0.956647 0.000000 0.218140
O O18 0.899136 0.000000 0.926640
O O19 0.000000 0.247588 0.000000
#
# Coordination Sequence:
#
# PCOD8061868 Si02
#       7
#     4   4   4   4   4   4   4
#     4   9  15  23  38  67 109 145 171 209 264 320
#     4  10  19  34  56  79 107 142 183 228 272 322
#     4  10  20  36  58  81 106 138 178 222 268 319
#     4  10  21  39  63  87 109 137 177 222 269 323
#     4  12  25  38  54  79 112 146 181 220 266 320
#     4   9  17  30  51  78 104 136 178 222 267 315
#     4   9  16  26  45  76 109 140 176 222 274 322
#
# _framework density 19.920435000000001
#
# number of rings (size 3 to 8) (size 9 to 14) (size 15 to 20)
#    0.000    2.143    0.000    4.286    0.000   10.571 
#    0.000    2.143    0.000    0.429    0.000    0.000 
#    0.000    5.143    0.000    0.000    0.000    0.000 
#
# Total GULP energy -347276.695008 kJ/mol
# GULP energy per Si atom -12402.739107 kJ/mol
# Density = 1.987510 g / cm^3
# Si number density = 19.920435 Si / 1000 Ang^3
#
#
#
# Elastic Constant Matrix: (Units=GPa)
#
#
# Indices 1 2 3 4 5 6 
#
# 1 174.9705 16.9490 69.4581 0.0000 4.2630 0.0000
# 2 16.9490 13.2843 10.3185 0.0000 4.8898 0.0000
# 3 69.4581 10.3185 150.2606 0.0000 10.4559 0.0000
# 4 0.0000 0.0000 0.0000 2.3646 0.0000 0.5570
# 5 4.2630 4.8898 10.4559 0.0000 41.7154 0.0000
# 6 0.0000 0.0000 0.0000 0.5570 0.0000 -3.7963
#
#
#
# Elastic Compliance Matrix: (Units=1/GPa)
#
#
# Indices 1 2 3 4 5 6 
#
# 1 0.007661 -0.007715 -0.003074 0.000000 0.000892 0.000000
# 2 -0.007715 0.090067 -0.001973 0.000000 -0.009274 0.000000
# 3 -0.003074 -0.001973 0.008318 0.000000 -0.001540 0.000000
# 4 0.000000 0.000000 0.000000 0.408784 0.000000 0.059976
# 5 0.000892 -0.009274 -0.001540 0.000000 0.025354 0.000000
# 6 0.000000 0.000000 0.000000 0.059976 0.000000 -0.254616
#
#
# Mechanical properties :
#
#
# Convention : Reuss Voigt Hill
#
# Bulk Modulus (GPa) = 12.41895 59.10739 35.76317
# Shear Modulus (GPa) = 14.79582 24.17606 19.48594
#
# Velocity S-wave (km/s) = 2.72829 3.48750 3.13099
# Velocity P-wave (km/s) = 4.02152 6.77887 5.57340
#
# Compressibility (1/GPa) = 0.08052210
#
# Stress axis : x y z
#
# Youngs Moduli (GPa) = 130.53132 11.10288 120.21417
#
# Poissons Ratio (x) = 0.08566 0.36948
# Poissons Ratio (y) = 1.00709 0.23720
# Poissons Ratio (z) = 0.40119 0.02191
#
# Static dielectric constant tensor:
#      x y z
#    x 3.900650 0.000000 0.068110 
#    y 0.000000 2.988420 0.000000 
#    z 0.068110 0.000000 3.811780 
# 
# 
# High freq. dielectric constant tensor:
#      x y z
#    x 1.798850 0.000000 0.000350 
#    y 0.000000 1.711350 0.000000 
#    z 0.000350 0.000000 1.796850 
# 
# From -- ./inp_files/36914.got.cif
#   From: 2010.06.25/outbox.cif.g09.slc.cpg/sg10_19_cif.got.tgz:36914.got - 2010.06.27 22:07:45.
