data_PCOD8061934
_publ_section_title
;
Structure prediction by ZEFSAII (Michael W. Deem and Ramdas Pophale) SiO2 
 PCOD8061934
Probable space group: P 2/M
;
_chemical_formula_sum "Si O2"
_cell_formula_units_Z 32
_cell_length_a 17.488849
_cell_length_b 13.086624
_cell_length_c 13.208331
_cell_angle_alpha 90.000000
_cell_angle_beta 145.247008
_cell_angle_gamma 90.000000
_cell_volume 1723.224558
_symmetry_space_group_name_H-M "P 2/M"
_symmetry_group_IT_number 10
_symmetry_cell_setting 'monoclinic'
loop_
_space_group_symop_operation_xyz
x,y,z
-x,y,-z
-x,-y,-z
x,-y,z
loop_
_atom_site_type_symbol
_atom_site_label
_atom_site_fract_x
_atom_site_fract_y
_atom_site_fract_z
Si Si1 0.798212 0.808046 0.410823
Si Si2 0.027604 0.707542 0.913073
Si Si3 0.687357 0.618772 0.757954
Si Si4 0.793814 0.384693 0.532936
Si Si5 0.569998 0.691380 0.426832
Si Si6 0.945221 0.883188 0.212888
Si Si7 0.435862 0.116273 0.706409
Si Si8 0.712423 0.882273 0.107799
O O1 0.807396 0.688904 0.451051
O O2 0.697686 0.868841 0.374214
O O3 0.753668 0.811538 0.246334
O O4 0.942240 0.861056 0.580216
O O5 0.032201 0.816135 0.862340
O O6 0.908006 0.638502 0.740001
O O7 0.165454 0.647259 0.043572
O O8 0.000000 0.728959 0.000000
O O9 0.680411 0.500000 0.721171
O O10 0.649805 0.684986 0.618883
O O11 0.579033 0.643922 0.727415
O O12 0.809052 0.500000 0.510385
O O13 0.648283 0.370589 0.425410
O O14 0.563055 0.811021 0.390394
O O15 0.802904 0.856746 0.108836
O O16 0.950562 0.000000 0.182987
O O17 0.444826 0.000000 0.676635
O O18 0.559942 0.143019 0.914258
O O19 0.730594 0.000000 0.160499
#
# Coordination Sequence:
#
# PCOD8061934 Si02
#       8
#     4   4   4   4   4   4   4   4
#     4  10  20  33  56  83 106 137 182 220 261 313
#     4  11  22  35  54  82 108 138 181 220 266 317
#     4  11  21  35  55  76 102 137 184 229 262 304
#     4  10  20  36  56  79 108 141 177 223 269 310
#     4  10  20  34  53  78 105 137 178 219 265 313
#     4  10  21  36  54  79 112 144 175 215 265 319
#     4  10  20  34  53  79 111 139 170 216 265 317
#     4  10  19  34  57  80 104 140 179 216 259 312
#
# _framework density 18.569837
#
# number of rings (size 3 to 8) (size 9 to 14) (size 15 to 20)
#    0.000    1.750    1.250    4.500    0.000    2.750 
#    0.000    1.875    0.000   15.750    0.000    0.000 
#    0.000    0.000    0.000    0.000    0.000    0.000 
#
# Total GULP energy -396940.933820 kJ/mol
# GULP energy per Si atom -12404.404182 kJ/mol
# Density = 1.852757 g / cm^3
# Si number density = 18.569837 Si / 1000 Ang^3
#
#
#
# Elastic Constant Matrix: (Units=GPa)
#
#
# Indices 1 2 3 4 5 6 
#
# 1 59.8739 41.9291 26.1106 0.0000 4.3131 0.0000
# 2 41.9291 129.0757 51.4494 0.0000 -9.1800 0.0000
# 3 26.1106 51.4494 80.1955 0.0000 3.3479 0.0000
# 4 0.0000 0.0000 0.0000 22.1117 0.0000 1.1841
# 5 4.3131 -9.1800 3.3479 0.0000 27.7561 0.0000
# 6 0.0000 0.0000 0.0000 1.1841 0.0000 21.2568
#
#
#
# Elastic Compliance Matrix: (Units=1/GPa)
#
#
# Indices 1 2 3 4 5 6 
#
# 1 0.023087 -0.006692 -0.002996 0.000000 -0.005439 0.000000
# 2 -0.006692 0.012878 -0.006336 0.000000 0.006063 0.000000
# 3 -0.002996 -0.006336 0.017667 0.000000 -0.003761 0.000000
# 4 0.000000 0.000000 0.000000 0.045360 0.000000 -0.002527
# 5 -0.005439 0.006063 -0.003761 0.000000 0.039332 0.000000
# 6 0.000000 0.000000 0.000000 -0.002527 0.000000 0.047184
#
#
# Mechanical properties :
#
#
# Convention : Reuss Voigt Hill
#
# Bulk Modulus (GPa) = 46.33356 56.45815 51.39585
# Shear Modulus (GPa) = 22.24671 24.20200 23.22436
#
# Velocity S-wave (km/s) = 3.46497 3.61404 3.54029
# Velocity P-wave (km/s) = 6.40415 6.91984 6.66698
#
# Compressibility (1/GPa) = 0.02158263
#
# Stress axis : x y z
#
# Youngs Moduli (GPa) = 43.31511 77.65139 56.60231
#
# Poissons Ratio (x) = 0.51964 0.16960
# Poissons Ratio (y) = 0.28986 0.35864
# Poissons Ratio (z) = 0.12979 0.49202
#
# Static dielectric constant tensor:
#      x y z
#    x 3.399580 0.000000 0.300820 
#    y 0.000000 3.366690 0.000000 
#    z 0.300820 0.000000 3.483690 
# 
# 
# High freq. dielectric constant tensor:
#      x y z
#    x 1.719370 0.000000 0.023410 
#    y 0.000000 1.715520 0.000000 
#    z 0.023410 0.000000 1.723130 
# 
# From -- ./inp_files/51647.got.cif
#   From: 2010.06.25/outbox.cif.g09.slc.cpg/sg10_26_cif.got.tgz:51647.got - 2010.06.27 22:07:45.
