data_PCOD8061434
_publ_section_title
;
Structure prediction by ZEFSAII (Michael W. Deem and Ramdas Pophale) SiO2 
 PCOD8061434
Probable space group: P 2/M
;
_chemical_formula_sum "Si O2"
_cell_formula_units_Z 28
_cell_length_a 12.353407
_cell_length_b 8.626249
_cell_length_c 14.986856
_cell_angle_alpha 90.000000
_cell_angle_beta 105.742529
_cell_angle_gamma 90.000000
_cell_volume 1537.148344
_symmetry_space_group_name_H-M "P 2/M"
_symmetry_group_IT_number 10
_symmetry_cell_setting 'monoclinic'
loop_
_space_group_symop_operation_xyz
x,y,z
-x,y,-z
-x,-y,-z
x,-y,z
loop_
_atom_site_type_symbol
_atom_site_label
_atom_site_fract_x
_atom_site_fract_y
_atom_site_fract_z
Si Si1 0.406395 0.819970 0.088795
Si Si2 0.747986 0.679943 0.590700
Si Si3 0.388465 0.818897 0.285897
Si Si4 0.797043 0.320859 0.291961
Si Si5 0.359218 0.321216 0.902024
Si Si6 0.636778 0.180869 0.400317
Si Si7 0.983847 0.818868 0.598275
O O1 0.361627 0.778996 0.177101
O O2 0.537848 0.778985 0.112268
O O3 0.392395 0.000000 0.065488
O O4 0.333926 0.726413 0.998893
O O5 0.777939 0.500000 0.590670
O O6 0.696818 0.717497 0.675617
O O7 0.656918 0.725282 0.495628
O O8 0.859844 0.779324 0.603011
O O9 0.516211 0.769439 0.335378
O O10 0.370993 0.000000 0.302693
O O11 0.782541 0.500000 0.315001
O O12 0.749951 0.287481 0.182406
O O13 0.732091 0.218471 0.349750
O O14 0.927362 0.273220 0.320730
O O15 0.394604 0.500000 0.905739
O O16 0.642561 0.000000 0.424406
O O17 0.000000 0.765285 0.500000
O O18 0.005935 0.000000 0.614350
#
# Coordination Sequence:
#
# PCOD8061434 Si02
#       7
#     4   4   4   4   4   4   4
#     4  10  19  33  55  81 110 147 188 226 267 325
#     4  12  25  38  56  81 112 148 187 230 277 331
#     4  10  22  38  56  80 113 151 189 228 271 327
#     4  11  22  35  56  84 115 146 182 229 279 328
#     4  10  20  33  52  82 116 146 177 225 282 329
#     4  11  21  36  56  80 113 151 187 225 272 324
#     4  11  23  39  60  81 106 146 189 230 276 324
#
# _framework density 18.215547999999998
#
# number of rings (size 3 to 8) (size 9 to 14) (size 15 to 20)
#    0.000    1.286    2.857    4.714    0.000    6.286 
#    0.000    0.000    0.000    0.857    0.000    6.000 
#    0.000    0.000    0.000    0.000    0.000    0.000 
#
# Total GULP energy -347339.552685 kJ/mol
# GULP energy per Si atom -12404.984024 kJ/mol
# Density = 1.817409 g / cm^3
# Si number density = 18.215548 Si / 1000 Ang^3
#
#
#
# Elastic Constant Matrix: (Units=GPa)
#
#
# Indices 1 2 3 4 5 6 
#
# 1 67.8049 15.9710 36.0543 0.0000 -2.6898 0.0000
# 2 15.9710 50.1229 37.9724 0.0000 -0.5742 0.0000
# 3 36.0543 37.9724 126.5299 0.0000 -0.7770 0.0000
# 4 0.0000 0.0000 0.0000 29.3438 0.0000 3.2053
# 5 -2.6898 -0.5742 -0.7770 0.0000 27.0833 0.0000
# 6 0.0000 0.0000 0.0000 3.2053 0.0000 24.7694
#
#
#
# Elastic Compliance Matrix: (Units=1/GPa)
#
#
# Indices 1 2 3 4 5 6 
#
# 1 0.017659 -0.002335 -0.004321 0.000000 0.001580 0.000000
# 2 -0.002335 0.026133 -0.007177 0.000000 0.000116 0.000000
# 3 -0.004321 -0.007177 0.011287 0.000000 -0.000258 0.000000
# 4 0.000000 0.000000 0.000000 0.034567 0.000000 -0.004473
# 5 0.001580 0.000116 -0.000258 0.000000 0.037075 0.000000
# 6 0.000000 0.000000 0.000000 -0.004473 0.000000 0.040951
#
#
# Mechanical properties :
#
#
# Convention : Reuss Voigt Hill
#
# Bulk Modulus (GPa) = 36.47912 47.16145 41.82028
# Shear Modulus (GPa) = 24.45276 26.53664 25.49470
#
# Velocity S-wave (km/s) = 3.66787 3.82096 3.74520
# Velocity P-wave (km/s) = 6.16502 6.73894 6.45836
#
# Compressibility (1/GPa) = 0.02741294
#
# Stress axis : x y z
#
# Youngs Moduli (GPa) = 56.62940 38.26546 88.59865
#
# Poissons Ratio (x) = 0.08934 0.38287
# Poissons Ratio (y) = 0.13221 0.63585
# Poissons Ratio (z) = 0.24472 0.27462
#
# Static dielectric constant tensor:
#      x y z
#    x 3.146250 0.000000 0.037360 
#    y 0.000000 3.405540 0.000000 
#    z 0.037360 0.000000 3.605270 
# 
# 
# High freq. dielectric constant tensor:
#      x y z
#    x 1.679220 0.000000 0.001880 
#    y 0.000000 1.717830 0.000000 
#    z 0.001880 0.000000 1.711690 
# 
# From -- ./inp_files/63519.got.cif
#   From: 2010.06.25/outbox.cif.g09.slc.cpg/sg10_32_cif.got.tgz:63519.got - 2010.06.27 22:07:45.
