data_PCOD8061366
_publ_section_title
;
Structure prediction by ZEFSAII (Michael W. Deem and Ramdas Pophale) SiO2 
 PCOD8061366
Probable space group: P 2/M
;
_chemical_formula_sum "Si O2"
_cell_formula_units_Z 32
_cell_length_a 22.876389
_cell_length_b 9.011057
_cell_length_c 28.236302
_cell_angle_alpha 90.000000
_cell_angle_beta 162.806577
_cell_angle_gamma 90.000000
_cell_volume 1720.572964
_symmetry_space_group_name_H-M "P 2/M"
_symmetry_group_IT_number 10
_symmetry_cell_setting 'monoclinic'
loop_
_space_group_symop_operation_xyz
x,y,z
-x,y,-z
-x,-y,-z
x,-y,z
loop_
_atom_site_type_symbol
_atom_site_label
_atom_site_fract_x
_atom_site_fract_y
_atom_site_fract_z
Si Si1 0.612306 0.173030 0.481364
Si Si2 0.834118 0.827553 0.834703
Si Si3 0.832193 0.170492 0.296813
Si Si4 0.273380 0.667361 0.339448
Si Si5 0.232253 0.325925 0.491417
Si Si6 0.416332 0.327830 0.818505
Si Si7 0.289472 0.828579 0.630899
Si Si8 0.788257 0.669622 0.169561
O O1 0.380573 0.203225 0.309587
O O2 0.745830 0.239646 0.627055
O O3 0.669075 0.252823 0.477291
O O4 0.660045 0.000000 0.514846
O O5 0.858909 0.740130 0.804396
O O6 0.864600 0.000000 0.846799
O O7 0.000000 0.770768 0.000000
O O8 0.756859 0.262400 0.283118
O O9 0.733538 0.229433 0.172163
O O10 0.065634 0.193704 0.474626
O O11 0.773077 0.000000 0.258162
O O12 0.500000 0.669324 0.500000
O O13 0.198120 0.500000 0.289952
O O14 0.274410 0.500000 0.523547
O O15 0.332109 0.255480 0.615033
O O16 0.999504 0.288682 0.310949
O O17 0.371117 0.500000 0.775105
O O18 0.428322 0.243774 0.777940
O O19 0.628580 0.300205 0.005884
O O20 0.343898 0.000000 0.666289
O O21 0.785548 0.500000 0.185246
#
# Coordination Sequence:
#
# PCOD8061366 Si02
#       8
#     4   4   4   4   4   4   4   4
#     4  10  19  33  55  79 103 134 172 209 246 294
#     4   9  18  33  53  79 111 141 167 202 250 297
#     4  10  20  33  51  75 101 130 165 205 252 307
#     4   9  17  30  50  77 106 135 169 206 243 285
#     4  10  20  37  57  74  97 132 173 211 251 299
#     4  11  21  33  51  75 101 129 164 207 257 307
#     4  10  21  36  52  73 102 133 168 209 252 301
#     4   9  20  36  52  72  99 130 165 209 255 300
#
# _framework density 18.598455000000001
#
# number of rings (size 3 to 8) (size 9 to 14) (size 15 to 20)
#    0.000    2.250    0.000    3.000    0.000    8.250 
#    0.000    1.250    0.000    0.000    0.000    0.000 
#    0.000    0.000    0.000    0.000    0.000    0.000 
#
# Total GULP energy -396911.935084 kJ/mol
# GULP energy per Si atom -12403.497971 kJ/mol
# Density = 1.855612 g / cm^3
# Si number density = 18.598455 Si / 1000 Ang^3
#
#
#
# Elastic Constant Matrix: (Units=GPa)
#
#
# Indices 1 2 3 4 5 6 
#
# 1 140.6168 76.7514 43.1424 0.0000 -29.5332 0.0000
# 2 76.7514 123.5904 41.5129 0.0000 -19.5427 0.0000
# 3 43.1424 41.5129 59.4051 0.0000 -30.7246 0.0000
# 4 0.0000 0.0000 0.0000 21.8176 0.0000 -7.2420
# 5 -29.5332 -19.5427 -30.7246 0.0000 28.5957 0.0000
# 6 0.0000 0.0000 0.0000 -7.2420 0.0000 41.4116
#
#
#
# Elastic Compliance Matrix: (Units=1/GPa)
#
#
# Indices 1 2 3 4 5 6 
#
# 1 0.012338 -0.006241 -0.000483 0.000000 0.007958 0.000000
# 2 -0.006241 0.013763 -0.008000 0.000000 -0.005635 0.000000
# 3 -0.000483 -0.008000 0.044316 0.000000 0.041649 0.000000
# 4 0.000000 0.000000 0.000000 0.048659 0.000000 0.008509
# 5 0.007958 -0.005635 0.041649 0.000000 0.084088 0.000000
# 6 0.000000 0.000000 0.000000 0.008509 0.000000 0.025636
#
#
# Mechanical properties :
#
#
# Convention : Reuss Voigt Hill
#
# Bulk Modulus (GPa) = 24.40865 71.82508 48.11686
# Shear Modulus (GPa) = 18.38888 29.17869 23.78379
#
# Velocity S-wave (km/s) = 3.14782 3.96520 3.57992
# Velocity P-wave (km/s) = 5.13461 7.72441 6.55861
#
# Compressibility (1/GPa) = 0.04096909
#
# Stress axis : x y z
#
# Youngs Moduli (GPa) = 81.05241 72.65756 22.56543
#
# Poissons Ratio (x) = 0.45349 0.01089
# Poissons Ratio (y) = 0.50588 0.18052
# Poissons Ratio (z) = 0.03911 0.58124
#
# Static dielectric constant tensor:
#      x y z
#    x 3.409430 0.000000 -0.217890 
#    y 0.000000 3.583690 0.000000 
#    z -0.217890 0.000000 3.307550 
# 
# 
# High freq. dielectric constant tensor:
#      x y z
#    x 1.720010 0.000000 -0.021100 
#    y 0.000000 1.735020 0.000000 
#    z -0.021100 0.000000 1.702950 
# 
# From -- ./inp_files/93708.got.cif
#   From: 2010.06.25/outbox.cif.g09.slc.cpg/sg10_47_cif.got.tgz:93708.got - 2010.06.27 22:07:45.
