data_PCOD8061276
_publ_section_title
;
Structure prediction by ZEFSAII (Michael W. Deem and Ramdas Pophale) SiO2 
 PCOD8061276
Probable space group: P 2/M
;
_chemical_formula_sum "Si O2"
_cell_formula_units_Z 28
_cell_length_a 19.366760
_cell_length_b 9.078291
_cell_length_c 15.251885
_cell_angle_alpha 90.000000
_cell_angle_beta 143.789574
_cell_angle_gamma 90.000000
_cell_volume 1584.127596
_symmetry_space_group_name_H-M "P 2/M"
_symmetry_group_IT_number 10
_symmetry_cell_setting 'monoclinic'
loop_
_space_group_symop_operation_xyz
x,y,z
-x,y,-z
-x,-y,-z
x,-y,z
loop_
_atom_site_type_symbol
_atom_site_label
_atom_site_fract_x
_atom_site_fract_y
_atom_site_fract_z
Si Si1 0.844126 0.673278 0.506436
Si Si2 0.138385 0.834155 0.649480
Si Si3 0.734886 0.673408 0.882909
Si Si4 0.493933 0.827513 0.394164
Si Si5 0.114427 0.672264 0.797097
Si Si6 0.259268 0.827163 0.437141
Si Si7 0.134711 0.330676 0.158166
O O1 0.822473 0.500000 0.481120
O O2 0.808437 0.741030 0.376110
O O3 0.758736 0.745373 0.489708
O O4 0.977921 0.711493 0.668190
O O5 0.173592 0.758308 0.776965
O O6 0.000000 0.834131 0.500000
O O7 0.188516 0.000000 0.698336
O O8 0.717207 0.500000 0.867631
O O9 0.609756 0.749620 0.765115
O O10 0.792085 0.724021 0.850340
O O11 0.819793 0.724474 0.048064
O O12 0.500000 0.767103 0.500000
O O13 0.612532 0.786932 0.466107
O O14 0.468681 0.000000 0.368908
O O15 0.129965 0.500000 0.794546
O O16 0.164337 0.770908 0.270590
O O17 0.242006 0.000000 0.433100
O O18 0.163308 0.500000 0.210998
O O19 0.000000 0.310273 0.000000
#
# Coordination Sequence:
#
# PCOD8061276 Si02
#       7
#     4   4   4   4   4   4   4
#     4  10  19  33  54  78 108 141 171 209 259 311
#     4   9  17  30  50  78 109 139 173 209 248 305
#     4  10  20  33  53  77 101 133 176 218 252 302
#     4  10  21  38  54  70  99 137 177 219 264 308
#     4   9  18  33  52  78 109 139 170 208 259 311
#     4  11  22  35  52  74 102 136 175 218 259 306
#     4  10  20  34  51  74 105 137 168 207 257 309
#
# _framework density 17.675345
#
# number of rings (size 3 to 8) (size 9 to 14) (size 15 to 20)
#    0.000    2.143    1.429    2.143    0.000    6.857 
#    0.000    1.429    0.000    0.857    0.000    6.000 
#    0.000    0.000    0.000    0.000    0.000    0.000 
#
# Total GULP energy -347297.590784 kJ/mol
# GULP energy per Si atom -12403.485385 kJ/mol
# Density = 1.763511 g / cm^3
# Si number density = 17.675345 Si / 1000 Ang^3
#
#
#
# Elastic Constant Matrix: (Units=GPa)
#
#
# Indices 1 2 3 4 5 6 
#
# 1 128.4930 57.3326 31.8670 0.0000 -12.5135 0.0000
# 2 57.3326 71.4841 23.1605 0.0000 -3.1821 0.0000
# 3 31.8670 23.1605 40.3592 0.0000 2.5730 0.0000
# 4 0.0000 0.0000 0.0000 21.2855 0.0000 -4.3290
# 5 -12.5135 -3.1821 2.5730 0.0000 20.4347 0.0000
# 6 0.0000 0.0000 0.0000 -4.3290 0.0000 33.5046
#
#
#
# Elastic Compliance Matrix: (Units=1/GPa)
#
#
# Indices 1 2 3 4 5 6 
#
# 1 0.014168 -0.008855 -0.006624 0.000000 0.008131 0.000000
# 2 -0.008855 0.023041 -0.006163 0.000000 -0.001059 0.000000
# 3 -0.006624 -0.006163 0.034138 0.000000 -0.009314 0.000000
# 4 0.000000 0.000000 0.000000 0.048248 0.000000 0.006234
# 5 0.008131 -0.001059 -0.009314 0.000000 0.054923 0.000000
# 6 0.000000 0.000000 0.000000 0.006234 0.000000 0.030652
#
#
# Mechanical properties :
#
#
# Convention : Reuss Voigt Hill
#
# Bulk Modulus (GPa) = 35.63346 51.67293 43.65319
# Shear Modulus (GPa) = 19.39419 23.57671 21.48545
#
# Velocity S-wave (km/s) = 3.31606 3.65619 3.49027
# Velocity P-wave (km/s) = 5.90470 6.86451 6.40262
#
# Compressibility (1/GPa) = 0.02806351
#
# Stress axis : x y z
#
# Youngs Moduli (GPa) = 70.57978 43.40085 29.29307
#
# Poissons Ratio (x) = 0.38434 0.19403
# Poissons Ratio (y) = 0.62502 0.18052
# Poissons Ratio (z) = 0.46750 0.26746
#
# Static dielectric constant tensor:
#      x y z
#    x 3.352950 0.000000 -0.134950 
#    y 0.000000 3.305350 0.000000 
#    z -0.134950 0.000000 3.119870 
# 
# 
# High freq. dielectric constant tensor:
#      x y z
#    x 1.684900 0.000000 -0.013520 
#    y 0.000000 1.686950 0.000000 
#    z -0.013520 0.000000 1.663240 
# 
# From -- ./inp_files/54696.got.cif
#   From: 2010.06.25/outbox.cif.g09.slc.cpg/sg10_28_cif.got.tgz:54696.got - 2010.06.27 22:07:45.
