data_PCOD8061331
_publ_section_title
;
Structure prediction by ZEFSAII (Michael W. Deem and Ramdas Pophale) SiO2 
 PCOD8061331
Probable space group: P 2/M
;
_chemical_formula_sum "Si O2"
_cell_formula_units_Z 26
_cell_length_a 11.332325
_cell_length_b 9.590045
_cell_length_c 19.882246
_cell_angle_alpha 90.000000
_cell_angle_beta 39.927583
_cell_angle_gamma 90.000000
_cell_volume 1386.812024
_symmetry_space_group_name_H-M "P 2/M"
_symmetry_group_IT_number 10
_symmetry_cell_setting 'monoclinic'
loop_
_space_group_symop_operation_xyz
x,y,z
-x,y,-z
-x,-y,-z
x,-y,z
loop_
_atom_site_type_symbol
_atom_site_label
_atom_site_fract_x
_atom_site_fract_y
_atom_site_fract_z
Si Si1 0.991218 0.663136 0.171533
Si Si2 0.575228 0.346715 0.325136
Si Si3 0.070690 0.162739 0.399194
Si Si4 0.158303 0.162569 0.984685
Si Si5 0.500000 0.756319 0.500000
Si Si6 0.523883 0.839085 0.749175
Si Si7 0.096728 0.157992 0.664956
O O1 0.042398 0.500000 0.157562
O O2 0.791748 0.683053 0.226092
O O3 0.997999 0.738640 0.240580
O O4 0.134003 0.740634 0.060364
O O5 0.531586 0.500000 0.316215
O O6 0.505941 0.340663 0.431911
O O7 0.469802 0.236912 0.325249
O O8 0.287344 0.192734 0.294170
O O9 0.000000 0.232665 0.500000
O O10 0.960289 0.220548 0.382980
O O11 0.028414 0.000000 0.422031
O O12 0.157177 0.000000 0.006483
O O13 0.353813 0.209501 0.868948
O O14 0.000000 0.193018 0.000000
O O15 0.682927 0.849921 0.423347
O O16 0.503496 0.000000 0.739408
O O17 0.021873 0.000000 0.707774
#
# Coordination Sequence:
#
# PCOD8061331 Si02
#       7
#     4   4   4   4   2   4   4
#     4  10  21  35  53  78 110 144 175 218 272 323
#     4  10  20  33  50  75 108 142 176 216 266 321
#     4   9  18  34  55  80 109 140 176 219 266 318
#     4  10  19  33  54  82 110 138 176 226 270 313
#     4  10  20  32  52  80 106 138 176 222 268 318
#     4  10  20  34  55  80 107 138 177 221 268 317
#     4  10  20  35  56  80 107 140 180 224 269 317
#
# _framework density 18.748035000000002
#
# number of rings (size 3 to 8) (size 9 to 14) (size 15 to 20)
#    0.000    2.154    1.538    1.846    0.000    5.846 
#    0.000    1.538    0.000    6.462    0.000    0.000 
#    0.000    0.000    0.000    0.000    0.000    0.000 
#
# Total GULP energy -322380.763563 kJ/mol
# GULP energy per Si atom -12399.260137 kJ/mol
# Density = 1.870536 g / cm^3
# Si number density = 18.748035 Si / 1000 Ang^3
#
#
#
# Elastic Constant Matrix: (Units=GPa)
#
#
# Indices 1 2 3 4 5 6 
#
# 1 113.7616 41.8066 54.7061 0.0000 16.4757 0.0000
# 2 41.8066 77.6773 42.2208 0.0000 15.0852 0.0000
# 3 54.7061 42.2208 122.2606 0.0000 12.8427 0.0000
# 4 0.0000 0.0000 0.0000 17.1287 0.0000 7.3562
# 5 16.4757 15.0852 12.8427 0.0000 28.2205 0.0000
# 6 0.0000 0.0000 0.0000 7.3562 0.0000 11.5695
#
#
#
# Elastic Compliance Matrix: (Units=1/GPa)
#
#
# Indices 1 2 3 4 5 6 
#
# 1 0.012645 -0.004008 -0.003910 0.000000 -0.003460 0.000000
# 2 -0.004008 0.018255 -0.003919 0.000000 -0.005635 0.000000
# 3 -0.003910 -0.003919 0.011366 0.000000 -0.000795 0.000000
# 4 0.000000 0.000000 0.000000 0.080312 0.000000 -0.051064
# 5 -0.003460 -0.005635 -0.000795 0.000000 0.040829 0.000000
# 6 0.000000 0.000000 0.000000 -0.051064 0.000000 0.118902
#
#
# Mechanical properties :
#
#
# Convention : Reuss Voigt Hill
#
# Bulk Modulus (GPa) = 53.78870 65.68514 59.73692
# Shear Modulus (GPa) = 16.01635 23.04813 19.53224
#
# Velocity S-wave (km/s) = 2.92600 3.51003 3.23124
# Velocity P-wave (km/s) = 6.33782 7.17906 6.77151
#
# Compressibility (1/GPa) = 0.01859126
#
# Stress axis : x y z
#
# Youngs Moduli (GPa) = 79.08361 54.77843 87.98370
#
# Poissons Ratio (x) = 0.21956 0.34405
# Poissons Ratio (y) = 0.31698 0.34479
# Poissons Ratio (z) = 0.30925 0.21467
#
# Static dielectric constant tensor:
#      x y z
#    x 3.386750 0.000000 0.024180 
#    y 0.000000 3.213600 0.000000 
#    z 0.024180 0.000000 3.514860 
# 
# 
# High freq. dielectric constant tensor:
#      x y z
#    x 1.714990 0.000000 0.006800 
#    y 0.000000 1.709120 0.000000 
#    z 0.006800 0.000000 1.730970 
# 
# From -- ./inp_files/55433.got.cif
#   From: 2010.06.25/outbox.cif.g09.slc.cpg/sg10_28_cif.got.tgz:55433.got - 2010.06.27 22:07:45.
