data_PCOD8061065
_publ_section_title
;
Structure prediction by ZEFSAII (Michael W. Deem and Ramdas Pophale) SiO2 
 PCOD8061065
Probable space group: P 2/M
;
_chemical_formula_sum "Si O2"
_cell_formula_units_Z 28
_cell_length_a 22.354720
_cell_length_b 7.895484
_cell_length_c 25.335306
_cell_angle_alpha 90.000000
_cell_angle_beta 162.014704
_cell_angle_gamma 90.000000
_cell_volume 1380.744555
_symmetry_space_group_name_H-M "P 2/M"
_symmetry_group_IT_number 10
_symmetry_cell_setting 'monoclinic'
loop_
_space_group_symop_operation_xyz
x,y,z
-x,y,-z
-x,-y,-z
x,-y,z
loop_
_atom_site_type_symbol
_atom_site_label
_atom_site_fract_x
_atom_site_fract_y
_atom_site_fract_z
Si Si1 0.978844 0.701144 0.107693
Si Si2 0.392623 0.701137 0.263296
Si Si3 0.024423 0.810833 0.679624
Si Si4 0.470667 0.185952 0.037374
Si Si5 0.004580 0.500000 0.415346
Si Si6 0.687865 0.298213 0.688166
Si Si7 0.165667 0.298036 0.373751
Si Si8 0.711017 0.500000 0.252389
O O1 0.985556 0.500000 0.114024
O O2 0.120870 0.769680 0.180945
O O3 0.056299 0.767363 0.229133
O O4 0.758976 0.763353 0.909428
O O5 0.397122 0.500000 0.268602
O O6 0.316349 0.770571 0.255530
O O7 0.611263 0.766539 0.437048
O O8 0.252703 0.784510 0.872527
O O9 0.937275 0.667278 0.568416
O O10 0.944392 0.789408 0.670888
O O11 0.972748 0.000000 0.615275
O O12 0.542120 0.000000 0.116388
O O13 0.500000 0.199982 0.000000
O O14 0.592074 0.332249 0.166915
O O15 0.114237 0.500000 0.561513
O O16 0.780830 0.500000 0.248953
O O17 0.500000 0.228683 0.500000
O O18 0.685788 0.500000 0.686327
O O19 0.154893 0.500000 0.369370
#
# Coordination Sequence:
#
# PCOD8061065 Si02
#       8
#     4   4   4   4   2   4   4   2
#     4   9  16  26  43  71 102 143 191 240 298 356
#     4   9  16  26  42  69 105 145 189 241 298 356
#     4  11  23  41  62  85 119 161 203 244 297 359
#     4  10  20  37  62  90 120 158 202 246 291 349
#     4  11  23  40  61  96 125 159 192 240 304 361
#     4   9  13  21  39  65 104 143 180 236 301 355
#     4  10  19  33  51  73 109 150 197 245 291 353
#     4  11  22  37  66  95 128 153 191 247 305 353
#
# _framework density 20.278915000000001
#
# number of rings (size 3 to 8) (size 9 to 14) (size 15 to 20)
#    0.000    2.143    3.571    1.071    0.000    2.286 
#    2.571    1.429    0.000    0.000    0.000    2.000 
#    0.000    2.286    0.000    0.000    0.000    0.000 
#
# Total GULP energy -347022.977094 kJ/mol
# GULP energy per Si atom -12393.677753 kJ/mol
# Density = 2.023276 g / cm^3
# Si number density = 20.278915 Si / 1000 Ang^3
#
#
#
# Elastic Constant Matrix: (Units=GPa)
#
#
# Indices 1 2 3 4 5 6 
#
# 1 137.9919 33.2372 69.3016 0.0000 15.1435 0.0000
# 2 33.2372 87.6589 29.2613 0.0000 -2.8044 0.0000
# 3 69.3016 29.2613 140.3101 0.0000 -0.4545 0.0000
# 4 0.0000 0.0000 0.0000 -19.4295 0.0000 -43.1765
# 5 15.1435 -2.8044 -0.4545 0.0000 29.7399 0.0000
# 6 0.0000 0.0000 0.0000 -43.1765 0.0000 -119.3074
#
#
#
# Elastic Compliance Matrix: (Units=1/GPa)
#
#
# Indices 1 2 3 4 5 6 
#
# 1 0.011012 -0.002734 -0.004888 0.000000 -0.005940 0.000000
# 2 -0.002734 0.012977 -0.001348 0.000000 0.002595 0.000000
# 3 -0.004888 -0.001348 0.009831 0.000000 0.002512 0.000000
# 4 0.000000 0.000000 0.000000 -0.262865 0.000000 0.095129
# 5 -0.005940 0.002595 0.002512 0.000000 0.036933 0.000000
# 6 0.000000 0.000000 0.000000 0.095129 0.000000 -0.042808
#
#
# Mechanical properties :
#
#
# Convention : Reuss Voigt Hill
#
# Bulk Modulus (GPa) = 62.96945 69.95121 66.46033
# Shear Modulus (GPa) = -23.61963 -6.18867 -14.90415
#
# Velocity S-wave (km/s) = -3.41653 -1.74883 -2.71395
# Velocity P-wave (km/s) = 3.94405 5.52192 4.79829
#
# Compressibility (1/GPa) = 0.01588072
#
# Stress axis : x y z
#
# Youngs Moduli (GPa) = 90.81021 77.05776 101.72302
#
# Poissons Ratio (x) = 0.21065 0.49724
# Poissons Ratio (y) = 0.24825 0.13710
# Poissons Ratio (z) = 0.44389 0.10386
#
# Static dielectric constant tensor:
#      x y z
#    x 3.466920 0.000000 -0.050800 
#    y 0.000000 3.461610 0.000000 
#    z -0.050800 0.000000 3.671520 
# 
# 
# High freq. dielectric constant tensor:
#      x y z
#    x 1.786390 0.000000 0.010510 
#    y 0.000000 1.764350 0.000000 
#    z 0.010510 0.000000 1.788040 
# 
# From -- ./inp_files/90420.got.cif
#   From: 2010.06.25/outbox.cif.g09.slc.cpg/sg10_46_cif.got.tgz:90420.got - 2010.06.27 22:07:45.
