data_PCOD8061727
_publ_section_title
;
Structure prediction by ZEFSAII (Michael W. Deem and Ramdas Pophale) SiO2 
 PCOD8061727
Probable space group: P 2/M
;
_chemical_formula_sum "Si O2"
_cell_formula_units_Z 28
_cell_length_a 14.072864
_cell_length_b 18.454816
_cell_length_c 19.155238
_cell_angle_alpha 90.000000
_cell_angle_beta 160.650084
_cell_angle_gamma 90.000000
_cell_volume 1648.348547
_symmetry_space_group_name_H-M "P 2/M"
_symmetry_group_IT_number 10
_symmetry_cell_setting 'monoclinic'
loop_
_space_group_symop_operation_xyz
x,y,z
-x,y,-z
-x,-y,-z
x,-y,z
loop_
_atom_site_type_symbol
_atom_site_label
_atom_site_fract_x
_atom_site_fract_y
_atom_site_fract_z
Si Si1 0.711574 0.919028 0.711559
Si Si2 0.556949 0.689232 0.427444
Si Si3 0.961062 0.310742 0.831597
Si Si4 0.734597 0.083739 0.367283
Si Si5 0.740463 0.843474 0.516456
Si Si6 0.734398 0.580253 0.867177
Si Si7 0.844434 0.843495 0.068458
O O1 0.500000 0.915825 0.500000
O O2 0.561010 0.879833 0.671791
O O3 0.004239 0.879865 0.893412
O O4 0.786339 0.000000 0.786400
O O5 0.255995 0.711093 0.255974
O O6 0.780401 0.662056 0.640226
O O7 0.684159 0.757586 0.473942
O O8 0.519338 0.623761 0.347093
O O9 0.156661 0.242392 0.946475
O O10 0.169722 0.376210 0.997492
O O11 0.828648 0.124919 0.502981
O O12 0.000000 0.088584 0.500000
O O13 0.654259 0.000000 0.327152
O O14 0.474083 0.124933 0.148358
O O15 0.992058 0.862044 0.746016
O O16 0.624442 0.500000 0.812262
O O17 0.000000 0.572442 0.000000
#
# Coordination Sequence:
#
# PCOD8061727 Si02
#       7
#     4   4   4   4   4   4   4
#     4   9  16  27  47  75  98 116 148 196 250 301
#     4   9  16  28  47  70  96 126 159 196 241 289
#     4   9  16  28  47  70  96 126 159 196 241 289
#     4  11  25  39  49  67  95 131 174 208 241 293
#     4  10  19  34  54  73  96 126 160 204 252 294
#     4   9  17  26  38  62  98 139 171 189 214 267
#     4  10  19  34  54  73  96 126 160 204 252 294
#
# _framework density 16.986699000000002
#
# number of rings (size 3 to 8) (size 9 to 14) (size 15 to 20)
#    0.000    2.429    1.429    1.714    0.000    3.429 
#    0.000    5.714    0.000    0.000    0.000    0.000 
#    0.000    9.143    0.000   25.143    0.000    1.143 
#
# Total GULP energy -347163.654282 kJ/mol
# GULP energy per Si atom -12398.701939 kJ/mol
# Density = 1.694804 g / cm^3
# Si number density = 16.986699 Si / 1000 Ang^3
#
#
#
# Elastic Constant Matrix: (Units=GPa)
#
#
# Indices 1 2 3 4 5 6 
#
# 1 69.6447 43.8680 36.3371 0.0000 -12.4616 0.0000
# 2 43.8680 129.9106 57.2113 0.0000 -16.7523 0.0000
# 3 36.3371 57.2113 90.7697 0.0000 -14.0816 0.0000
# 4 0.0000 0.0000 0.0000 20.8053 0.0000 -5.5069
# 5 -12.4616 -16.7523 -14.0816 0.0000 23.6480 0.0000
# 6 0.0000 0.0000 0.0000 -5.5069 0.0000 16.4310
#
#
#
# Elastic Compliance Matrix: (Units=1/GPa)
#
#
# Indices 1 2 3 4 5 6 
#
# 1 0.020333 -0.004127 -0.004771 0.000000 0.004951 0.000000
# 2 -0.004127 0.011831 -0.005335 0.000000 0.003030 0.000000
# 3 -0.004771 -0.005335 0.016872 0.000000 0.003753 0.000000
# 4 0.000000 0.000000 0.000000 0.052744 0.000000 0.017677
# 5 0.004951 0.003030 0.003753 0.000000 0.049277 0.000000
# 6 0.000000 0.000000 0.000000 0.017677 0.000000 0.066785
#
#
# Mechanical properties :
#
#
# Convention : Reuss Voigt Hill
#
# Bulk Modulus (GPa) = 48.61255 62.79533 55.70394
# Shear Modulus (GPa) = 19.75012 22.37078 21.06045
#
# Velocity S-wave (km/s) = 3.41351 3.63293 3.52493
# Velocity P-wave (km/s) = 6.64953 7.39224 7.03070
#
# Compressibility (1/GPa) = 0.02057082
#
# Stress axis : x y z
#
# Youngs Moduli (GPa) = 49.18168 84.52136 59.27099
#
# Poissons Ratio (x) = 0.34878 0.28276
# Poissons Ratio (y) = 0.20295 0.31622
# Poissons Ratio (z) = 0.23463 0.45094
#
# Static dielectric constant tensor:
#      x y z
#    x 2.881990 0.000000 -0.225440 
#    y 0.000000 3.323540 0.000000 
#    z -0.225440 0.000000 3.060110 
# 
# 
# High freq. dielectric constant tensor:
#      x y z
#    x 1.619110 0.000000 -0.032220 
#    y 0.000000 1.656970 0.000000 
#    z -0.032220 0.000000 1.644630 
# 
# From -- ./inp_files/85460.got.cif
#   From: 2010.06.25/outbox.cif.g09.slc.cpg/sg10_43_cif.got.tgz:85460.got - 2010.06.27 22:07:45.
