data_PCOD8061883
_publ_section_title
;
Structure prediction by ZEFSAII (Michael W. Deem and Ramdas Pophale) SiO2 
 PCOD8061883
Probable space group: P 2/M
;
_chemical_formula_sum "Si O2"
_cell_formula_units_Z 32
_cell_length_a 19.930581
_cell_length_b 8.844804
_cell_length_c 25.538247
_cell_angle_alpha 90.000000
_cell_angle_beta 21.533787
_cell_angle_gamma 90.000000
_cell_volume 1652.434588
_symmetry_space_group_name_H-M "P 2/M"
_symmetry_group_IT_number 10
_symmetry_cell_setting 'monoclinic'
loop_
_space_group_symop_operation_xyz
x,y,z
-x,y,-z
-x,-y,-z
x,-y,z
loop_
_atom_site_type_symbol
_atom_site_label
_atom_site_fract_x
_atom_site_fract_y
_atom_site_fract_z
Si Si1 0.793396 0.179989 0.645342
Si Si2 0.498811 0.821349 0.942079
Si Si3 0.250675 0.679042 0.533544
Si Si4 0.153479 0.327747 0.144246
Si Si5 0.921946 0.679718 0.110190
Si Si6 0.599487 0.178178 0.680612
Si Si7 0.475796 0.680309 0.576091
Si Si8 0.219124 0.672983 0.975913
O O1 0.667754 0.243056 0.784481
O O2 0.711296 0.237710 0.649985
O O3 0.000000 0.243484 0.500000
O O4 0.793470 0.000000 0.647081
O O5 0.515566 0.000000 0.932088
O O6 0.500000 0.753093 0.000000
O O7 0.307359 0.780104 0.055306
O O8 0.269592 0.500000 0.516997
O O9 0.320427 0.746590 0.428964
O O10 0.369463 0.741245 0.496340
O O11 0.041353 0.728879 0.693066
O O12 0.192747 0.500000 0.132940
O O13 0.150525 0.312933 0.084412
O O14 0.914350 0.500000 0.114148
O O15 0.718599 0.744088 0.263794
O O16 0.000000 0.747534 0.000000
O O17 0.050803 0.733302 0.063774
O O18 0.389771 0.221101 0.840468
O O19 0.617837 0.000000 0.661737
O O20 0.500000 0.744601 0.500000
O O21 0.481338 0.500000 0.571024
O O22 0.271499 0.500000 0.923647
#
# Coordination Sequence:
#
# PCOD8061883 Si02
#       8
#     4   4   4   4   4   4   4   4
#     4   9  19  36  56  80 107 136 177 228 271 311
#     4  10  21  37  60  84 107 140 184 228 269 317
#     4  10  21  36  55  82 115 148 182 228 278 325
#     4  10  21  36  55  81 115 148 178 219 278 334
#     4   9  16  26  46  76 103 133 175 221 264 310
#     4  11  22  36  57  82 110 145 185 227 272 327
#     4   9  16  29  51  78 106 137 182 231 270 313
#     4  10  19  34  56  80 110 145 180 224 278 328
#
# _framework density 19.365365000000001
#
# number of rings (size 3 to 8) (size 9 to 14) (size 15 to 20)
#    0.000    2.250    1.250    1.875    1.750    5.750 
#    0.000    0.000    0.000    5.625    0.000    0.000 
#    0.000    0.000    0.000    0.000    0.000    0.000 
#
# Total GULP energy -396788.670721 kJ/mol
# GULP energy per Si atom -12399.645960 kJ/mol
# Density = 1.932129 g / cm^3
# Si number density = 19.365365 Si / 1000 Ang^3
#
#
#
# Elastic Constant Matrix: (Units=GPa)
#
#
# Indices 1 2 3 4 5 6 
#
# 1 131.3620 9.7969 47.0782 0.0000 -1.4619 0.0000
# 2 9.7969 5.9067 7.5949 0.0000 -3.1649 0.0000
# 3 47.0782 7.5949 131.5242 0.0000 -6.0518 0.0000
# 4 0.0000 0.0000 0.0000 21.8299 0.0000 -1.5490
# 5 -1.4619 -3.1649 -6.0518 0.0000 36.8116 0.0000
# 6 0.0000 0.0000 0.0000 -1.5490 0.0000 16.6351
#
#
#
# Elastic Compliance Matrix: (Units=1/GPa)
#
#
# Indices 1 2 3 4 5 6 
#
# 1 0.009541 -0.012960 -0.002721 0.000000 -0.001183 0.000000
# 2 -0.012960 0.208037 -0.006625 0.000000 0.016283 0.000000
# 3 -0.002721 -0.006625 0.008997 0.000000 0.000801 0.000000
# 4 0.000000 0.000000 0.000000 0.046113 0.000000 0.004294
# 5 -0.001183 0.016283 0.000801 0.000000 0.028650 0.000000
# 6 0.000000 0.000000 0.000000 0.004294 0.000000 0.060514
#
#
# Mechanical properties :
#
#
# Convention : Reuss Voigt Hill
#
# Bulk Modulus (GPa) = 5.49562 44.19255 24.84408
# Shear Modulus (GPa) = 10.70392 28.67686 19.69039
#
# Velocity S-wave (km/s) = 2.35358 3.85233 3.19216
# Velocity P-wave (km/s) = 3.19841 6.53125 5.14233
#
# Compressibility (1/GPa) = 0.18196303
#
# Stress axis : x y z
#
# Youngs Moduli (GPa) = 104.80870 4.80683 111.15242
#
# Poissons Ratio (x) = 0.06230 0.30248
# Poissons Ratio (y) = 1.35830 0.73639
# Poissons Ratio (z) = 0.28521 0.03185
#
# Static dielectric constant tensor:
#      x y z
#    x 3.770860 0.000000 0.134940 
#    y 0.000000 3.147400 0.000000 
#    z 0.134940 0.000000 3.619820 
# 
# 
# High freq. dielectric constant tensor:
#      x y z
#    x 1.770870 0.000000 0.002470 
#    y 0.000000 1.700420 0.000000 
#    z 0.002470 0.000000 1.771520 
# 
# From -- ./inp_files/93686.got.cif
#   From: 2010.06.25/outbox.cif.g09.slc.cpg/sg10_47_cif.got.tgz:93686.got - 2010.06.27 22:07:45.
