data_PCOD8061491
_publ_section_title
;
Structure prediction by ZEFSAII (Michael W. Deem and Ramdas Pophale) SiO2 
 PCOD8061491
Probable space group: P 2/M
;
_chemical_formula_sum "Si O2"
_cell_formula_units_Z 32
_cell_length_a 26.139843
_cell_length_b 9.208037
_cell_length_c 21.149811
_cell_angle_alpha 90.000000
_cell_angle_beta 19.987615
_cell_angle_gamma 90.000000
_cell_volume 1740.083926
_symmetry_space_group_name_H-M "P 2/M"
_symmetry_group_IT_number 10
_symmetry_cell_setting 'monoclinic'
loop_
_space_group_symop_operation_xyz
x,y,z
-x,y,-z
-x,-y,-z
x,-y,z
loop_
_atom_site_type_symbol
_atom_site_label
_atom_site_fract_x
_atom_site_fract_y
_atom_site_fract_z
Si Si1 0.359917 0.672667 0.202818
Si Si2 0.438276 0.330349 0.252415
Si Si3 0.041704 0.672611 0.520712
Si Si4 0.239315 0.330466 0.070732
Si Si5 0.657815 0.831555 0.167714
Si Si6 0.667735 0.336101 0.282981
Si Si7 0.830034 0.663047 0.215196
Si Si8 0.331458 0.831537 0.495126
O O1 0.359117 0.500000 0.199682
O O2 0.383928 0.723293 0.246997
O O3 0.202199 0.733922 0.358613
O O4 0.500000 0.734581 0.000000
O O5 0.406697 0.500000 0.299030
O O6 0.339548 0.243000 0.417443
O O7 0.615018 0.296474 0.055368
O O8 0.049808 0.500000 0.508273
O O9 0.000000 0.734986 0.500000
O O10 0.909248 0.722950 0.720975
O O11 0.232005 0.500000 0.062956
O O12 0.243055 0.243342 0.001201
O O13 0.700192 0.763318 0.185268
O O14 0.483701 0.803448 0.356567
O O15 0.698032 0.000000 0.122088
O O16 0.500000 0.336591 0.500000
O O17 0.722788 0.500000 0.203588
O O18 0.753936 0.266750 0.242057
O O19 0.767126 0.500000 0.301073
O O20 0.801851 0.760393 0.309726
O O21 0.000000 0.657106 0.000000
O O22 0.297351 0.000000 0.524699
#
# Coordination Sequence:
#
# PCOD8061491 Si02
#       8
#     4   4   4   4   4   4   4   4
#     4   9  16  27  46  74 104 131 164 206 251 298
#     4   9  17  30  50  73  98 132 170 207 248 298
#     4   9  16  27  46  74 105 132 161 204 255 300
#     4   9  17  30  49  72 100 133 168 206 251 300
#     4  10  20  33  52  77 103 134 172 213 253 299
#     4  10  19  33  56  80 101 129 169 213 255 302
#     4  10  21  37  55  77 103 132 167 211 260 307
#     4  10  20  34  53  75 102 136 173 211 252 302
#
# _framework density 18.389918999999999
#
# number of rings (size 3 to 8) (size 9 to 14) (size 15 to 20)
#    0.000    2.500    1.250    1.500    0.000    5.000 
#    2.250    0.000    0.000    0.750    0.000    0.000 
#    0.000    0.000    0.000    0.000    0.000    0.000 
#
# Total GULP energy -396773.124548 kJ/mol
# GULP energy per Si atom -12399.160142 kJ/mol
# Density = 1.834806 g / cm^3
# Si number density = 18.389919 Si / 1000 Ang^3
#
#
#
# Elastic Constant Matrix: (Units=GPa)
#
#
# Indices 1 2 3 4 5 6 
#
# 1 147.0995 45.1642 68.2474 0.0000 17.4968 0.0000
# 2 45.1642 61.4204 41.2169 0.0000 17.9697 0.0000
# 3 68.2474 41.2169 116.0202 0.0000 17.2552 0.0000
# 4 0.0000 0.0000 0.0000 8.2071 0.0000 -6.3188
# 5 17.4968 17.9697 17.2552 0.0000 32.6040 0.0000
# 6 0.0000 0.0000 0.0000 -6.3188 0.0000 5.9383
#
#
#
# Elastic Compliance Matrix: (Units=1/GPa)
#
#
# Indices 1 2 3 4 5 6 
#
# 1 0.010262 -0.004392 -0.004361 0.000000 -0.000779 0.000000
# 2 -0.004392 0.025627 -0.005178 0.000000 -0.009027 0.000000
# 3 -0.004361 -0.005178 0.013298 0.000000 -0.001844 0.000000
# 4 0.000000 0.000000 0.000000 0.674107 0.000000 0.717301
# 5 -0.000779 -0.009027 -0.001844 0.000000 0.037040 0.000000
# 6 0.000000 0.000000 0.000000 0.717301 0.000000 0.931663
#
#
# Mechanical properties :
#
#
# Convention : Reuss Voigt Hill
#
# Bulk Modulus (GPa) = 46.89175 70.42191 58.65683
# Shear Modulus (GPa) = 2.89525 20.67730 11.78628
#
# Velocity S-wave (km/s) = 1.25610 3.35682 2.53437
# Velocity P-wave (km/s) = 5.25906 7.30761 6.36627
#
# Compressibility (1/GPa) = 0.02132571
#
# Stress axis : x y z
#
# Youngs Moduli (GPa) = 97.44324 39.02201 75.19974
#
# Poissons Ratio (x) = 0.17139 0.32791
# Poissons Ratio (y) = 0.42799 0.38937
# Poissons Ratio (z) = 0.42491 0.20205
#
# Static dielectric constant tensor:
#      x y z
#    x 3.429900 0.000000 0.043060 
#    y 0.000000 3.103720 0.000000 
#    z 0.043060 0.000000 3.364790 
# 
# 
# High freq. dielectric constant tensor:
#      x y z
#    x 1.718570 0.000000 0.009770 
#    y 0.000000 1.677110 0.000000 
#    z 0.009770 0.000000 1.711060 
# 
# From -- ./inp_files/86837.got.cif
#   From: 2010.06.25/outbox.cif.g09.slc.cpg/sg10_44_cif.got.tgz:86837.got - 2010.06.27 22:07:45.
