data_PCOD8061335
_publ_section_title
;
Structure prediction by ZEFSAII (Michael W. Deem and Ramdas Pophale) SiO2 
 PCOD8061335
Probable space group: P 2/M
;
_chemical_formula_sum "Si O2"
_cell_formula_units_Z 28
_cell_length_a 9.347662
_cell_length_b 12.897775
_cell_length_c 14.882677
_cell_angle_alpha 90.000000
_cell_angle_beta 57.483232
_cell_angle_gamma 90.000000
_cell_volume 1513.028288
_symmetry_space_group_name_H-M "P 2/M"
_symmetry_group_IT_number 10
_symmetry_cell_setting 'monoclinic'
loop_
_space_group_symop_operation_xyz
x,y,z
-x,y,-z
-x,-y,-z
x,-y,z
loop_
_atom_site_type_symbol
_atom_site_label
_atom_site_fract_x
_atom_site_fract_y
_atom_site_fract_z
Si Si1 0.878454 0.883297 0.390028
Si Si2 0.589226 0.878344 0.620638
Si Si3 0.309141 0.743128 0.057348
Si Si4 0.745017 0.883669 0.753054
Si Si5 0.011297 0.382081 0.889698
Si Si6 0.190690 0.118334 0.940133
Si Si7 0.249509 0.788528 0.739005
O O1 0.754896 0.841669 0.509481
O O2 0.874379 0.818476 0.299496
O O3 0.071833 0.875828 0.357369
O O4 0.825890 0.000000 0.383348
O O5 0.612642 0.859349 0.718982
O O6 0.442444 0.798133 0.637179
O O7 0.548528 0.000000 0.614898
O O8 0.273322 0.804836 0.159985
O O9 0.165300 0.655741 0.095236
O O10 0.500000 0.695399 0.000000
O O11 0.303137 0.819088 0.973431
O O12 0.716382 0.000000 0.800426
O O13 0.038337 0.500000 0.850160
O O14 0.180076 0.321015 0.799373
O O15 0.000000 0.371956 0.000000
O O16 0.257872 0.127159 0.816414
O O17 0.190064 0.000000 0.972497
O O18 0.000000 0.164907 0.000000
#
# Coordination Sequence:
#
# PCOD8061335 Si02
#       7
#     4   4   4   4   4   4   4
#     4  10  19  33  54  82 117 155 190 220 260 319
#     4  10  21  33  52  85 122 153 186 223 257 315
#     4  12  22  36  57  84 112 143 184 229 283 340
#     4  10  20  34  52  79 120 160 184 210 258 325
#     4  11  24  44  62  79 105 140 187 242 293 339
#     4  11  20  32  51  80 118 152 180 211 261 334
#     4  12  19  35  56  80 106 147 186 226 279 321
#
# _framework density 18.505932999999999
#
# number of rings (size 3 to 8) (size 9 to 14) (size 15 to 20)
#    0.000    1.143    4.286    3.429    0.000    7.714 
#    0.000    0.000    0.000    1.714    0.000    1.000 
#    0.000    0.000    0.000    0.000    0.000    0.000 
#
# Total GULP energy -347089.625623 kJ/mol
# GULP energy per Si atom -12396.058058 kJ/mol
# Density = 1.846381 g / cm^3
# Si number density = 18.505933 Si / 1000 Ang^3
#
#
#
# Elastic Constant Matrix: (Units=GPa)
#
#
# Indices 1 2 3 4 5 6 
#
# 1 98.6939 33.9241 17.5407 0.0000 -9.9714 0.0000
# 2 33.9241 86.8992 29.1420 0.0000 -4.3989 0.0000
# 3 17.5407 29.1420 67.7089 0.0000 -3.3944 0.0000
# 4 0.0000 0.0000 0.0000 17.7330 0.0000 -0.1621
# 5 -9.9714 -4.3989 -3.3944 0.0000 32.4516 0.0000
# 6 0.0000 0.0000 0.0000 -0.1621 0.0000 16.2859
#
#
#
# Elastic Compliance Matrix: (Units=1/GPa)
#
#
# Indices 1 2 3 4 5 6 
#
# 1 0.012080 -0.004165 -0.001185 0.000000 0.003023 0.000000
# 2 -0.004165 0.014934 -0.005339 0.000000 0.000186 0.000000
# 3 -0.001185 -0.005339 0.017411 0.000000 0.000733 0.000000
# 4 0.000000 0.000000 0.000000 0.056397 0.000000 0.000561
# 5 0.003023 0.000186 0.000733 0.000000 0.031846 0.000000
# 6 0.000000 0.000000 0.000000 0.000561 0.000000 0.061408
#
#
# Mechanical properties :
#
#
# Convention : Reuss Voigt Hill
#
# Bulk Modulus (GPa) = 43.39257 46.05730 44.72494
# Shear Modulus (GPa) = 22.40776 24.80713 23.60744
#
# Velocity S-wave (km/s) = 3.48349 3.66525 3.57553
# Velocity P-wave (km/s) = 6.29908 6.54629 6.42388
#
# Compressibility (1/GPa) = 0.02304542
#
# Stress axis : x y z
#
# Youngs Moduli (GPa) = 82.78002 66.96319 57.43563
#
# Poissons Ratio (x) = 0.27893 0.06807
# Poissons Ratio (y) = 0.34482 0.30665
# Poissons Ratio (z) = 0.09810 0.35752
#
# Static dielectric constant tensor:
#      x y z
#    x 3.616470 0.000000 -0.138710 
#    y 0.000000 3.064010 0.000000 
#    z -0.138710 0.000000 3.438780 
# 
# 
# High freq. dielectric constant tensor:
#      x y z
#    x 1.736970 0.000000 -0.004070 
#    y 0.000000 1.662320 0.000000 
#    z -0.004070 0.000000 1.725780 
# 
# From -- ./inp_files/28690.got.cif
#   From: 2010.06.25/outbox.cif.g09.slc.cpg/sg10_15_cif.got.tgz:28690.got - 2010.06.27 22:07:45.
