data_PCOD8061439
_publ_section_title
;
Structure prediction by ZEFSAII (Michael W. Deem and Ramdas Pophale) SiO2 
 PCOD8061439
Probable space group: P 2/M
;
_chemical_formula_sum "Si O2"
_cell_formula_units_Z 28
_cell_length_a 10.754624
_cell_length_b 8.809457
_cell_length_c 14.891998
_cell_angle_alpha 90.000000
_cell_angle_beta 100.730324
_cell_angle_gamma 90.000000
_cell_volume 1386.233093
_symmetry_space_group_name_H-M "P 2/M"
_symmetry_group_IT_number 10
_symmetry_cell_setting 'monoclinic'
loop_
_space_group_symop_operation_xyz
x,y,z
-x,y,-z
-x,-y,-z
x,-y,z
loop_
_atom_site_type_symbol
_atom_site_label
_atom_site_fract_x
_atom_site_fract_y
_atom_site_fract_z
Si Si1 0.136162 0.820556 0.556300
Si Si2 0.208716 0.675412 0.278582
Si Si3 0.208325 0.821259 0.901072
Si Si4 0.073296 0.324129 0.727052
Si Si5 0.272579 0.322728 0.095709
Si Si6 0.480273 0.835445 0.893270
Si Si7 0.644208 0.319178 0.533829
O O1 0.147322 0.770514 0.661594
O O2 0.257700 0.749957 0.523910
O O3 0.000000 0.762170 0.500000
O O4 0.145457 0.000000 0.549307
O O5 0.236425 0.500000 0.265641
O O6 0.212339 0.746524 0.179047
O O7 0.315160 0.738477 0.361167
O O8 0.075291 0.702957 0.308596
O O9 0.100265 0.736064 0.831016
O O10 0.336184 0.779477 0.863011
O O11 0.183598 0.000000 0.899745
O O12 0.210468 0.764207 0.003824
O O13 0.110308 0.500000 0.724506
O O14 0.248572 0.500000 0.077433
O O15 0.422822 0.291813 0.127702
O O16 0.502162 0.000000 0.848194
O O17 0.500000 0.863533 0.000000
O O18 0.500000 0.262803 0.500000
O O19 0.653969 0.500000 0.526710
#
# Coordination Sequence:
#
# PCOD8061439 Si02
#       7
#     4   4   4   4   4   4   4
#     4  11  23  40  63  91 123 159 199 247 307 368
#     4   9  20  37  56  83 117 152 193 246 300 352
#     4  10  21  37  54  80 118 151 193 246 297 355
#     4  11  22  38  62  85 112 154 203 247 296 357
#     4  10  19  33  55  81 114 154 197 242 292 351
#     4   8  16  32  51  72 105 148 186 231 291 345
#     4  10  21  40  66  94 124 160 205 255 306 363
#
# _framework density 20.198623000000001
#
# number of rings (size 3 to 8) (size 9 to 14) (size 15 to 20)
#    0.000    2.143    1.429    2.571    0.000    5.714 
#    0.000    8.571    0.000    0.000    0.000    0.000 
#    0.000    0.000    0.000    0.000    0.000    0.000 
#
# Total GULP energy -347040.755665 kJ/mol
# GULP energy per Si atom -12394.312702 kJ/mol
# Density = 2.015265 g / cm^3
# Si number density = 20.198623 Si / 1000 Ang^3
#
#
#
# Elastic Constant Matrix: (Units=GPa)
#
#
# Indices 1 2 3 4 5 6 
#
# 1 92.3805 35.3579 56.3906 0.0000 -0.4374 0.0000
# 2 35.3579 58.5049 27.8177 0.0000 0.3792 0.0000
# 3 56.3906 27.8177 132.0183 0.0000 -1.3204 0.0000
# 4 0.0000 0.0000 0.0000 13.2383 0.0000 14.6315
# 5 -0.4374 0.3792 -1.3204 0.0000 35.8948 0.0000
# 6 0.0000 0.0000 0.0000 14.6315 0.0000 24.0669
#
#
#
# Elastic Compliance Matrix: (Units=1/GPa)
#
#
# Indices 1 2 3 4 5 6 
#
# 1 0.017294 -0.007713 -0.005761 0.000000 0.000080 0.000000
# 2 -0.007713 0.022440 -0.001438 0.000000 -0.000384 0.000000
# 3 -0.005761 -0.001438 0.010342 0.000000 0.000325 0.000000
# 4 0.000000 0.000000 0.000000 0.230253 0.000000 -0.139982
# 5 0.000080 -0.000384 0.000325 0.000000 0.027876 0.000000
# 6 0.000000 0.000000 0.000000 -0.139982 0.000000 0.126653
#
#
# Mechanical properties :
#
#
# Convention : Reuss Voigt Hill
#
# Bulk Modulus (GPa) = 49.37692 58.00400 53.69046
# Shear Modulus (GPa) = 10.60600 25.52915 18.06758
#
# Velocity S-wave (km/s) = 2.29396 3.55900 2.99406
# Velocity P-wave (km/s) = 5.61383 6.75780 6.21220
#
# Compressibility (1/GPa) = 0.02025238
#
# Stress axis : x y z
#
# Youngs Moduli (GPa) = 57.82414 44.56312 96.69668
#
# Poissons Ratio (x) = 0.34372 0.55706
# Poissons Ratio (y) = 0.44600 0.13902
# Poissons Ratio (z) = 0.33312 0.06407
#
# Static dielectric constant tensor:
#      x y z
#    x 3.995740 0.000000 0.096580 
#    y 0.000000 3.485450 0.000000 
#    z 0.096580 0.000000 3.723070 
# 
# 
# High freq. dielectric constant tensor:
#      x y z
#    x 1.785870 0.000000 0.002400 
#    y 0.000000 1.775000 0.000000 
#    z 0.002400 0.000000 1.789000 
# 
# From -- ./inp_files/63213.got.cif
#   From: 2010.06.25/outbox.cif.g09.slc.cpg/sg10_32_cif.got.tgz:63213.got - 2010.06.27 22:07:45.
