data_PCOD8061936
_publ_section_title
;
Structure prediction by ZEFSAII (Michael W. Deem and Ramdas Pophale) SiO2 
 PCOD8061936
Probable space group: P 2/M
;
_chemical_formula_sum "Si O2"
_cell_formula_units_Z 32
_cell_length_a 31.156035
_cell_length_b 9.238290
_cell_length_c 12.111895
_cell_angle_alpha 90.000000
_cell_angle_beta 151.545130
_cell_angle_gamma 90.000000
_cell_volume 1661.032571
_symmetry_space_group_name_H-M "P 2/M"
_symmetry_group_IT_number 10
_symmetry_cell_setting 'monoclinic'
loop_
_space_group_symop_operation_xyz
x,y,z
-x,y,-z
-x,-y,-z
x,-y,z
loop_
_atom_site_type_symbol
_atom_site_label
_atom_site_fract_x
_atom_site_fract_y
_atom_site_fract_z
Si Si1 0.998602 0.662205 0.183952
Si Si2 0.409427 0.831171 0.502172
Si Si3 0.311440 0.169250 0.687873
Si Si4 0.409617 0.331022 0.730468
Si Si5 0.859799 0.663167 0.689409
Si Si6 0.939494 0.828079 0.466185
Si Si7 0.733871 0.171241 0.000945
Si Si8 0.605571 0.830960 0.899793
O O1 0.001508 0.500000 0.239674
O O2 0.072110 0.681321 0.256310
O O3 0.013171 0.773814 0.315703
O O4 0.903809 0.691870 0.909061
O O5 0.411641 0.733931 0.614329
O O6 0.320887 0.787801 0.233307
O O7 0.500298 0.797930 0.635958
O O8 0.408349 0.000000 0.533394
O O9 0.330139 0.256526 0.618654
O O10 0.211056 0.211062 0.494769
O O11 0.321218 0.000000 0.686732
O O12 0.375515 0.222335 0.932715
O O13 0.390985 0.500000 0.679312
O O14 0.500000 0.293518 0.000000
O O15 0.818979 0.500000 0.595448
O O16 0.000000 0.773225 0.500000
O O17 0.937922 0.000000 0.465595
O O18 0.836174 0.767119 0.225487
O O19 0.675930 0.240457 0.971727
O O20 0.738415 0.000000 0.023981
O O21 0.624777 0.000000 0.936679
#
# Coordination Sequence:
#
# PCOD8061936 Si02
#       8
#     4   4   4   4   4   4   4   4
#     4   9  19  37  59  80 108 148 186 224 273 335
#     4  10  19  34  57  80 106 141 185 232 272 322
#     4  11  21  33  55  85 113 143 185 229 272 325
#     4  11  23  38  54  74 109 152 186 222 273 322
#     4   9  19  36  56  82 114 144 180 226 279 332
#     4  10  21  36  54  78 112 146 181 231 282 326
#     4   9  18  33  54  81 109 140 178 223 281 334
#     4   9  17  30  52  81 109 137 176 227 275 324
#
# _framework density 19.265124
#
# number of rings (size 3 to 8) (size 9 to 14) (size 15 to 20)
#    0.000    2.250    1.250    2.625    0.000    5.250 
#    0.000    3.125    0.000    3.000    0.000    0.000 
#    0.000    0.000    0.000    0.000    0.000    0.000 
#
# Total GULP energy -396660.649304 kJ/mol
# GULP energy per Si atom -12395.645291 kJ/mol
# Density = 1.922128 g / cm^3
# Si number density = 19.265124 Si / 1000 Ang^3
#
#
#
# Elastic Constant Matrix: (Units=GPa)
#
#
# Indices 1 2 3 4 5 6 
#
# 1 95.0313 27.7707 30.5239 0.0000 -10.3135 0.0000
# 2 27.7707 36.8987 22.6730 0.0000 -8.2954 0.0000
# 3 30.5239 22.6730 77.6271 0.0000 -3.4597 0.0000
# 4 0.0000 0.0000 0.0000 25.6679 0.0000 -0.9424
# 5 -10.3135 -8.2954 -3.4597 0.0000 27.4861 0.0000
# 6 0.0000 0.0000 0.0000 -0.9424 0.0000 22.6876
#
#
#
# Elastic Compliance Matrix: (Units=1/GPa)
#
#
# Indices 1 2 3 4 5 6 
#
# 1 0.014180 -0.008242 -0.003059 0.000000 0.002448 0.000000
# 2 -0.008242 0.040083 -0.008111 0.000000 0.007984 0.000000
# 3 -0.003059 -0.008111 0.016386 0.000000 -0.001533 0.000000
# 4 0.000000 0.000000 0.000000 0.039019 0.000000 0.001621
# 5 0.002448 0.007984 -0.001533 0.000000 0.039517 0.000000
# 6 0.000000 0.000000 0.000000 0.001621 0.000000 0.044144
#
#
# Mechanical properties :
#
#
# Convention : Reuss Voigt Hill
#
# Bulk Modulus (GPa) = 31.42211 41.27692 36.34952
# Shear Modulus (GPa) = 20.59653 23.74096 22.16875
#
# Velocity S-wave (km/s) = 3.27327 3.51426 3.39591
# Velocity P-wave (km/s) = 5.53457 6.15946 5.85536
#
# Compressibility (1/GPa) = 0.03182472
#
# Stress axis : x y z
#
# Youngs Moduli (GPa) = 70.52384 24.94846 61.02906
#
# Poissons Ratio (x) = 0.20562 0.18671
# Poissons Ratio (y) = 0.58123 0.49498
# Poissons Ratio (z) = 0.21575 0.20235
#
# Static dielectric constant tensor:
#      x y z
#    x 3.636840 0.000000 0.032920 
#    y 0.000000 3.211040 0.000000 
#    z 0.032920 0.000000 3.753120 
# 
# 
# High freq. dielectric constant tensor:
#      x y z
#    x 1.754450 0.000000 0.001460 
#    y 0.000000 1.716150 0.000000 
#    z 0.001460 0.000000 1.755890 
# 
# From -- ./inp_files/58271.got.cif
#   From: 2010.06.25/outbox.cif.g09.slc.cpg/sg10_30_cif.got.tgz:58271.got - 2010.06.27 22:07:45.
