data_PCOD8061689
_publ_section_title
;
Structure prediction by ZEFSAII (Michael W. Deem and Ramdas Pophale) SiO2 
 PCOD8061689
Probable space group: P 2/M
;
_chemical_formula_sum "Si O2"
_cell_formula_units_Z 24
_cell_length_a 19.856055
_cell_length_b 9.197157
_cell_length_c 9.553295
_cell_angle_alpha 90.000000
_cell_angle_beta 130.239699
_cell_angle_gamma 90.000000
_cell_volume 1331.749927
_symmetry_space_group_name_H-M "P 2/M"
_symmetry_group_IT_number 10
_symmetry_cell_setting 'monoclinic'
loop_
_space_group_symop_operation_xyz
x,y,z
-x,y,-z
-x,-y,-z
x,-y,z
loop_
_atom_site_type_symbol
_atom_site_label
_atom_site_fract_x
_atom_site_fract_y
_atom_site_fract_z
Si Si1 0.638405 0.166950 0.484967
Si Si2 0.213676 0.171497 0.535424
Si Si3 0.538730 0.832279 0.901100
Si Si4 0.098796 0.329799 0.168489
Si Si5 0.718547 0.329241 0.111046
Si Si6 0.750708 0.667522 0.841019
O O1 0.697819 0.211985 0.431279
O O2 0.536476 0.198453 0.315062
O O3 0.666540 0.252039 0.661501
O O4 0.654863 0.000000 0.540952
O O5 0.129054 0.238565 0.343998
O O6 0.221574 0.244708 0.697393
O O7 0.200916 0.000000 0.536169
O O8 0.570816 0.000000 0.939818
O O9 0.500000 0.795227 0.000000
O O10 0.618576 0.726116 0.975832
O O11 0.105108 0.500000 0.213241
O O12 0.159218 0.287949 0.116507
O O13 0.000000 0.282384 0.000000
O O14 0.719218 0.500000 0.145900
O O15 0.761267 0.293783 0.017882
O O16 0.729663 0.500000 0.791705
#
# Coordination Sequence:
#
# PCOD8061689 Si02
#       6
#     4   4   4   4   4   4
#     4   9  18  33  53  74  98 136 179 217 255 300
#     4  10  19  34  55  78 105 137 174 214 258 307
#     4  10  19  34  52  73 104 138 180 222 254 296
#     4   9  18  36  61  83 102 131 172 214 258 312
#     4  11  22  34  50  76 108 141 174 211 261 308
#     4   9  20  36  52  75 108 137 167 214 263 310
#
# _framework density 18.021401999999998
#
# number of rings (size 3 to 8) (size 9 to 14) (size 15 to 20)
#    0.000    2.333    1.667    1.000    0.000    4.000 
#    0.000    4.167    0.000    5.000    0.000    0.000 
#    0.000    0.000    0.000    0.000    0.000    0.000 
#
# Total GULP energy -297655.641299 kJ/mol
# GULP energy per Si atom -12402.318387 kJ/mol
# Density = 1.798038 g / cm^3
# Si number density = 18.021402 Si / 1000 Ang^3
#
#
#
# Elastic Constant Matrix: (Units=GPa)
#
#
# Indices 1 2 3 4 5 6 
#
# 1 67.6594 41.2627 66.3393 0.0000 0.5827 0.0000
# 2 41.2627 79.7601 74.2116 0.0000 -5.9755 0.0000
# 3 66.3393 74.2116 151.7170 0.0000 -4.6885 0.0000
# 4 0.0000 0.0000 0.0000 35.7009 0.0000 -0.0518
# 5 0.5827 -5.9755 -4.6885 0.0000 26.2335 0.0000
# 6 0.0000 0.0000 0.0000 -0.0518 0.0000 21.2860
#
#
#
# Elastic Compliance Matrix: (Units=1/GPa)
#
#
# Indices 1 2 3 4 5 6 
#
# 1 0.027456 -0.005873 -0.009244 0.000000 -0.003600 0.000000
# 2 -0.005873 0.024544 -0.009313 0.000000 0.004057 0.000000
# 3 -0.009244 -0.009313 0.015213 0.000000 0.000803 0.000000
# 4 0.000000 0.000000 0.000000 0.028011 0.000000 0.000068
# 5 -0.003600 0.004057 0.000803 0.000000 0.039267 0.000000
# 6 0.000000 0.000000 0.000000 0.000068 0.000000 0.046979
#
#
# Mechanical properties :
#
#
# Convention : Reuss Voigt Hill
#
# Bulk Modulus (GPa) = 54.48042 73.64040 64.06041
# Shear Modulus (GPa) = 21.14635 24.46559 22.80597
#
# Velocity S-wave (km/s) = 3.42921 3.68854 3.56124
# Velocity P-wave (km/s) = 6.78055 7.68713 7.24803
#
# Compressibility (1/GPa) = 0.01835522
#
# Stress axis : x y z
#
# Youngs Moduli (GPa) = 36.42179 40.74249 65.73243
#
# Poissons Ratio (x) = 0.23927 0.60763
# Poissons Ratio (y) = 0.21390 0.61213
# Poissons Ratio (z) = 0.33668 0.37941
#
# Static dielectric constant tensor:
#      x y z
#    x 3.301780 0.000000 -0.044330 
#    y 0.000000 3.323650 0.000000 
#    z -0.044330 0.000000 3.406200 
# 
# 
# High freq. dielectric constant tensor:
#      x y z
#    x 1.676540 0.000000 -0.004550 
#    y 0.000000 1.699230 0.000000 
#    z -0.004550 0.000000 1.704950 
# 
# From -- ./inp_files/27047.got.cif
#   From: 2010.06.25/outbox.cif.g09.slc.cpg/sg10_14_cif.got.tgz:27047.got - 2010.06.27 22:07:45.
