data_PCOD8061343
_publ_section_title
;
Structure prediction by ZEFSAII (Michael W. Deem and Ramdas Pophale) SiO2 
 PCOD8061343
Probable space group: P 2/M
;
_chemical_formula_sum "Si O2"
_cell_formula_units_Z 32
_cell_length_a 23.332279
_cell_length_b 9.390424
_cell_length_c 17.093960
_cell_angle_alpha 90.000000
_cell_angle_beta 25.873220
_cell_angle_gamma 90.000000
_cell_volume 1634.372952
_symmetry_space_group_name_H-M "P 2/M"
_symmetry_group_IT_number 10
_symmetry_cell_setting 'monoclinic'
loop_
_space_group_symop_operation_xyz
x,y,z
-x,y,-z
-x,-y,-z
x,-y,z
loop_
_atom_site_type_symbol
_atom_site_label
_atom_site_fract_x
_atom_site_fract_y
_atom_site_fract_z
Si Si1 0.228667 0.662306 0.027428
Si Si2 0.094809 0.661790 0.036506
Si Si3 0.590992 0.841853 0.694531
Si Si4 0.809941 0.663032 0.364430
Si Si5 0.687093 0.337357 0.344963
Si Si6 0.420372 0.666329 0.019736
Si Si7 0.857741 0.667165 0.698277
Si Si8 0.530052 0.157738 0.324772
O O1 0.279991 0.500000 0.975301
O O2 0.109640 0.668997 0.112010
O O3 0.339849 0.756210 0.852375
O O4 0.181721 0.727298 0.167785
O O5 0.090898 0.500000 0.010627
O O6 0.216289 0.730975 0.839459
O O7 0.955464 0.732231 0.186394
O O8 0.725338 0.751839 0.531523
O O9 0.477733 0.757698 0.878805
O O10 0.551872 0.856467 0.653309
O O11 0.611001 0.000000 0.706488
O O12 0.811534 0.500000 0.392630
O O13 0.756912 0.672402 0.342503
O O14 0.647533 0.500000 0.373977
O O15 0.555304 0.242958 0.506256
O O16 0.442027 0.500000 0.975016
O O17 0.500000 0.710455 0.000000
O O18 0.262146 0.699952 0.216062
O O19 0.878498 0.500000 0.680802
O O20 0.000000 0.735319 0.500000
O O21 0.563903 0.000000 0.315229
#
# Coordination Sequence:
#
# PCOD8061343 Si02
#       8
#     4   4   4   4   4   4   4   4
#     4  10  19  33  55  76 101 137 175 215 262 317
#     4   9  18  31  50  79 106 135 177 222 264 314
#     4  10  20  34  53  76 104 138 176 216 259 312
#     4   9  17  31  53  77 104 137 173 217 265 312
#     4   9  17  31  52  76 104 137 175 219 268 314
#     4  10  20  34  56  84 108 134 174 222 268 321
#     4   9  18  33  54  80 108 136 169 214 269 321
#     4  10  20  34  52  74 102 138 181 220 259 307
#
# _framework density 19.579374999999999
#
# number of rings (size 3 to 8) (size 9 to 14) (size 15 to 20)
#    0.000    2.500    1.250    1.125    0.000    4.250 
#    0.000    8.125    0.000    4.500    0.000    0.000 
#    0.000    0.000    0.000    0.000    0.000    0.000 
#
# Total GULP energy -396614.593624 kJ/mol
# GULP energy per Si atom -12394.206051 kJ/mol
# Density = 1.953481 g / cm^3
# Si number density = 19.579375 Si / 1000 Ang^3
#
#
#
# Elastic Constant Matrix: (Units=GPa)
#
#
# Indices 1 2 3 4 5 6 
#
# 1 51.1177 17.1367 33.4485 0.0000 -4.2831 0.0000
# 2 17.1367 73.5297 42.3209 0.0000 -0.3858 0.0000
# 3 33.4485 42.3209 143.9205 0.0000 -3.9304 0.0000
# 4 0.0000 0.0000 0.0000 -3.4506 0.0000 -1.6704
# 5 -4.2831 -0.3858 -3.9304 0.0000 14.3816 0.0000
# 6 0.0000 0.0000 0.0000 -1.6704 0.0000 11.2438
#
#
#
# Elastic Compliance Matrix: (Units=1/GPa)
#
#
# Indices 1 2 3 4 5 6 
#
# 1 0.024020 -0.002944 -0.004558 0.000000 0.005829 0.000000
# 2 -0.002944 0.016743 -0.004283 0.000000 -0.001598 0.000000
# 3 -0.004558 -0.004283 0.009296 0.000000 0.001068 0.000000
# 4 0.000000 0.000000 0.000000 -0.270358 0.000000 -0.040165
# 5 0.005829 -0.001598 0.001068 0.000000 0.071518 0.000000
# 6 0.000000 0.000000 0.000000 -0.040165 0.000000 0.082971
#
#
# Mechanical properties :
#
#
# Convention : Reuss Voigt Hill
#
# Bulk Modulus (GPa) = 37.75021 50.48666 44.11844
# Shear Modulus (GPa) = -149.65444 16.14573 -66.75436
#
# Velocity S-wave (km/s) = -8.75218 2.87475 -5.84536
# Velocity P-wave (km/s) = 9.10010 6.07129 4.79329
#
# Compressibility (1/GPa) = 0.02648992
#
# Stress axis : x y z
#
# Youngs Moduli (GPa) = 41.63125 59.72741 107.57286
#
# Poissons Ratio (x) = 0.17586 0.49027
# Poissons Ratio (y) = 0.12258 0.46070
# Poissons Ratio (z) = 0.18974 0.25579
#
# Static dielectric constant tensor:
#      x y z
#    x 3.511270 0.000000 -0.022120 
#    y 0.000000 3.478110 0.000000 
#    z -0.022120 0.000000 3.774370 
# 
# 
# High freq. dielectric constant tensor:
#      x y z
#    x 1.754530 0.000000 -0.003950 
#    y 0.000000 1.724740 0.000000 
#    z -0.003950 0.000000 1.768650 
# 
# From -- ./inp_files/86839.got.cif
#   From: 2010.06.25/outbox.cif.g09.slc.cpg/sg10_44_cif.got.tgz:86839.got - 2010.06.27 22:07:45.
