data_PCOD8061659
_publ_section_title
;
Structure prediction by ZEFSAII (Michael W. Deem and Ramdas Pophale) SiO2 
 PCOD8061659
Probable space group: P 2/M
;
_chemical_formula_sum "Si O2"
_cell_formula_units_Z 20
_cell_length_a 24.847005
_cell_length_b 7.581009
_cell_length_c 9.481934
_cell_angle_alpha 90.000000
_cell_angle_beta 31.562357
_cell_angle_gamma 90.000000
_cell_volume 934.874806
_symmetry_space_group_name_H-M "P 2/M"
_symmetry_group_IT_number 10
_symmetry_cell_setting 'monoclinic'
loop_
_space_group_symop_operation_xyz
x,y,z
-x,y,-z
-x,-y,-z
x,-y,z
loop_
_atom_site_type_symbol
_atom_site_label
_atom_site_fract_x
_atom_site_fract_y
_atom_site_fract_z
Si Si1 0.092745 0.297293 0.699603
Si Si2 0.263867 0.801166 0.717705
Si Si3 0.643581 0.500000 0.303637
Si Si4 0.594394 0.500000 0.095681
Si Si5 0.960397 0.296954 0.733553
Si Si6 0.310356 0.197299 0.299270
O O1 0.116199 0.500000 0.689030
O O2 0.195049 0.187344 0.496575
O O3 0.058228 0.276948 0.616105
O O4 0.000000 0.221459 0.000000
O O5 0.303372 0.674723 0.753268
O O6 0.308841 0.739705 0.465846
O O7 0.300271 0.000000 0.670381
O O8 0.140049 0.801420 0.984353
O O9 0.657089 0.500000 0.103524
O O10 0.525365 0.500000 0.608643
O O11 0.620388 0.326846 0.947687
O O12 0.928186 0.500000 0.785372
O O13 0.000000 0.212275 0.500000
O O14 0.356746 0.000000 0.184214
#
# Coordination Sequence:
#
# PCOD8061659 Si02
#       6
#     4   4   2   2   4   4
#     4  10  19  33  59  92 131 178 215 256 306 370
#     4  11  24  42  68 101 133 171 218 266 322 386
#     4  11  27  49  71  93 127 166 212 276 338 393
#     4  11  27  49  71  95 123 167 216 271 342 391
#     4  10  21  35  58  93 134 179 219 256 309 377
#     4  11  24  41  68 102 133 170 219 266 319 387
#
# _framework density 21.393239999999999
#
# number of rings (size 3 to 8) (size 9 to 14) (size 15 to 20)
#    0.000    1.400    4.000    0.600    2.800    4.800 
#    0.000    4.000    0.000    0.000    0.000    0.000 
#    0.000    0.000    0.000    0.000    0.000    0.000 
#
# Total GULP energy -248046.873735 kJ/mol
# GULP energy per Si atom -12402.343687 kJ/mol
# Density = 2.134455 g / cm^3
# Si number density = 21.393240 Si / 1000 Ang^3
#
#
#
# Elastic Constant Matrix: (Units=GPa)
#
#
# Indices 1 2 3 4 5 6 
#
# 1 75.9699 30.6017 9.3613 0.0000 17.5733 0.0000
# 2 30.6017 102.6304 29.1941 0.0000 15.2817 0.0000
# 3 9.3613 29.1941 75.3926 0.0000 23.1705 0.0000
# 4 0.0000 0.0000 0.0000 2.5301 0.0000 5.6351
# 5 17.5733 15.2817 23.1705 0.0000 40.0359 0.0000
# 6 0.0000 0.0000 0.0000 5.6351 0.0000 11.4252
#
#
#
# Elastic Compliance Matrix: (Units=1/GPa)
#
#
# Indices 1 2 3 4 5 6 
#
# 1 0.016189 -0.004340 0.001636 0.000000 -0.006396 0.000000
# 2 -0.004340 0.012260 -0.004082 0.000000 -0.000412 0.000000
# 3 0.001636 -0.004082 0.017495 0.000000 -0.009285 0.000000
# 4 0.000000 0.000000 0.000000 -4.011257 0.000000 1.978437
# 5 -0.006396 -0.000412 -0.009285 0.000000 0.033316 0.000000
# 6 0.000000 0.000000 0.000000 1.978437 0.000000 -0.888281
#
#
# Mechanical properties :
#
#
# Convention : Reuss Voigt Hill
#
# Bulk Modulus (GPa) = 30.88993 43.58969 37.23981
# Shear Modulus (GPa) = -1.04255 23.12062 11.03903
#
# Velocity S-wave (km/s) = -0.69885 3.29103 2.27404
# Velocity P-wave (km/s) = 3.71743 5.90431 4.93357
#
# Compressibility (1/GPa) = 0.03237301
#
# Stress axis : x y z
#
# Youngs Moduli (GPa) = 61.76868 81.56346 57.15913
#
# Poissons Ratio (x) = 0.35401 -0.09353
# Poissons Ratio (y) = 0.26809 0.23332
# Poissons Ratio (z) = -0.10107 0.33294
#
# Static dielectric constant tensor:
#      x y z
#    x 3.872660 0.000000 0.171170 
#    y 0.000000 3.771620 0.000000 
#    z 0.171170 0.000000 3.813190 
# 
# 
# High freq. dielectric constant tensor:
#      x y z
#    x 1.839630 0.000000 0.010780 
#    y 0.000000 1.834890 0.000000 
#    z 0.010780 0.000000 1.835400 
# 
# From -- ./inp_files/31467.got.cif
#   From: 2010.06.25/outbox.cif.g09.slc.cpg/sg10_16_cif.got.tgz:31467.got - 2010.06.27 22:07:45.
