data_PCOD8061468
_publ_section_title
;
Structure prediction by ZEFSAII (Michael W. Deem and Ramdas Pophale) SiO2 
 PCOD8061468
Probable space group: P 2/M
;
_chemical_formula_sum "Si O2"
_cell_formula_units_Z 18
_cell_length_a 8.127044
_cell_length_b 20.044298
_cell_length_c 9.166406
_cell_angle_alpha 90.000000
_cell_angle_beta 33.409263
_cell_angle_gamma 90.000000
_cell_volume 822.188018
_symmetry_space_group_name_H-M "P 2/M"
_symmetry_group_IT_number 10
_symmetry_cell_setting 'monoclinic'
loop_
_space_group_symop_operation_xyz
x,y,z
-x,y,-z
-x,-y,-z
x,-y,z
loop_
_atom_site_type_symbol
_atom_site_label
_atom_site_fract_x
_atom_site_fract_y
_atom_site_fract_z
Si Si1 0.882222 0.369955 0.428848
Si Si2 0.155900 0.500000 0.729475
Si Si3 0.749701 0.700212 0.065897
Si Si4 0.164191 0.925970 0.531634
Si Si5 0.662397 0.155085 0.033596
O O1 0.933337 0.434880 0.293728
O O2 0.000000 0.388156 0.500000
O O3 0.106562 0.314492 0.198483
O O4 0.541157 0.344200 0.682779
O O5 0.500000 0.500000 0.500000
O O6 0.000000 0.500000 0.000000
O O7 0.668047 0.777829 0.124516
O O8 0.000000 0.683079 0.000000
O O9 0.493747 0.898405 0.258945
O O10 0.000000 0.930823 0.500000
O O11 0.183834 0.000000 0.587080
O O12 0.991412 0.875029 0.765698
O O13 0.500000 0.168837 0.000000
#
# Coordination Sequence:
#
# PCOD8061468 Si02
#       5
#     4   2   4   4   4
#     4  12  25  44  68  96 127 165 213 260 306 363
#     4  12  25  44  69  98 133 168 205 250 311 372
#     4  12  25  42  64  92 128 168 209 258 318 375
#     4   9  17  30  52  82 114 150 198 254 306 359
#     4  10  19  33  55  83 115 154 202 253 304 364
#
# _framework density 21.892800999999999
#
# number of rings (size 3 to 8) (size 9 to 14) (size 15 to 20)
#    0.000    1.111    0.000    8.333    0.000    4.444 
#    0.000    3.333    0.000    4.000    0.000    0.000 
#    0.000    0.000    0.000    0.000    0.000    0.000 
#
# Total GULP energy -223254.230879 kJ/mol
# GULP energy per Si atom -12403.012827 kJ/mol
# Density = 2.184297 g / cm^3
# Si number density = 21.892801 Si / 1000 Ang^3
#
#
#
# Elastic Constant Matrix: (Units=GPa)
#
#
# Indices 1 2 3 4 5 6 
#
# 1 75.8851 50.0978 42.1698 0.0000 5.3019 0.0000
# 2 50.0978 134.4579 54.1978 0.0000 3.6864 0.0000
# 3 42.1698 54.1978 163.6884 0.0000 -4.0660 0.0000
# 4 0.0000 0.0000 0.0000 31.6804 0.0000 -1.0995
# 5 5.3019 3.6864 -4.0660 0.0000 29.4626 0.0000
# 6 0.0000 0.0000 0.0000 -1.0995 0.0000 9.3907
#
#
#
# Elastic Compliance Matrix: (Units=1/GPa)
#
#
# Indices 1 2 3 4 5 6 
#
# 1 0.018858 -0.005715 -0.003043 0.000000 -0.003099 0.000000
# 2 -0.005715 0.010379 -0.001978 0.000000 -0.000543 0.000000
# 3 -0.003043 -0.001978 0.007594 0.000000 0.001843 0.000000
# 4 0.000000 0.000000 0.000000 0.031694 0.000000 0.003711
# 5 -0.003099 -0.000543 0.001843 0.000000 0.034821 0.000000
# 6 0.000000 0.000000 0.000000 0.003711 0.000000 0.106922
#
#
# Mechanical properties :
#
#
# Convention : Reuss Voigt Hill
#
# Bulk Modulus (GPa) = 65.10640 74.10693 69.60666
# Shear Modulus (GPa) = 21.10961 29.27782 25.19372
#
# Velocity S-wave (km/s) = 3.10857 3.66091 3.39599
# Velocity P-wave (km/s) = 6.53357 7.19674 6.87316
#
# Compressibility (1/GPa) = 0.01535947
#
# Stress axis : x y z
#
# Youngs Moduli (GPa) = 53.02749 96.35215 131.68806
#
# Poissons Ratio (x) = 0.55063 0.40073
# Poissons Ratio (y) = 0.30304 0.26043
# Poissons Ratio (z) = 0.16137 0.19055
#
# Static dielectric constant tensor:
#      x y z
#    x 3.740770 0.000000 -0.062000 
#    y 0.000000 3.844250 0.000000 
#    z -0.062000 0.000000 4.127960 
# 
# 
# High freq. dielectric constant tensor:
#      x y z
#    x 1.837820 0.000000 -0.004320 
#    y 0.000000 1.876000 0.000000 
#    z -0.004320 0.000000 1.878720 
# 
# From -- ./inp_files/4033.got.cif
#   From: 2010.06.25/outbox.cif.g09.slc.cpg/sg10_3_cif.got.tgz:4033.got - 2010.06.27 22:07:45.
