data_PCOD8061344
_publ_section_title
;
Structure prediction by ZEFSAII (Michael W. Deem and Ramdas Pophale) SiO2 
 PCOD8061344
Probable space group: P 2/M
;
_chemical_formula_sum "Si O2"
_cell_formula_units_Z 28
_cell_length_a 17.526241
_cell_length_b 10.170565
_cell_length_c 20.570569
_cell_angle_alpha 90.000000
_cell_angle_beta 23.640322
_cell_angle_gamma 90.000000
_cell_volume 1470.340260
_symmetry_space_group_name_H-M "P 2/M"
_symmetry_group_IT_number 10
_symmetry_cell_setting 'monoclinic'
loop_
_space_group_symop_operation_xyz
x,y,z
-x,y,-z
-x,-y,-z
x,-y,z
loop_
_atom_site_type_symbol
_atom_site_label
_atom_site_fract_x
_atom_site_fract_y
_atom_site_fract_z
Si Si1 0.993469 0.787100 0.693147
Si Si2 0.083838 0.000000 0.529034
Si Si3 0.061977 0.142983 0.123610
Si Si4 0.383752 0.648143 0.881461
Si Si5 0.672436 0.000000 0.784851
Si Si6 0.362924 0.152868 0.548239
Si Si7 0.651777 0.647358 0.553166
Si Si8 0.569994 0.737235 0.010884
O O1 0.957152 0.876456 0.784347
O O2 0.121340 0.661202 0.612534
O O3 0.114164 0.869598 0.547260
O O4 0.792535 0.745407 0.821561
O O5 0.866042 0.000000 0.674726
O O6 0.257051 0.000000 0.344030
O O7 0.853388 0.180731 0.258578
O O8 0.127800 0.000000 0.044156
O O9 0.214672 0.255908 0.990334
O O10 0.304805 0.500000 0.938163
O O11 0.553864 0.672104 0.698920
O O12 0.460718 0.668687 0.895208
O O13 0.539701 0.124121 0.902838
O O14 0.500000 0.190785 0.500000
O O15 0.420016 0.245359 0.443015
O O16 0.386686 0.000000 0.509044
O O17 0.610549 0.500000 0.559455
O O18 0.500000 0.659709 0.000000
#
# Coordination Sequence:
#
# PCOD8061344 Si02
#       8
#     4   2   4   4   2   4   4   4
#     4  10  19  33  55  76 107 142 188 234 279 331
#     4  11  19  32  51  78 110 141 186 230 297 339
#     4   9  18  33  58  84 110 145 184 227 272 333
#     4  10  23  39  55  79 114 151 191 238 285 334
#     4  11  22  31  50  79 110 142 177 244 293 343
#     4   9  19  37  62  91 119 144 179 228 278 334
#     4  10  22  40  58  82 114 150 191 232 277 337
#     4  11  21  35  54  75 109 144 191 236 290 332
#
# _framework density 19.043210999999999
#
# number of rings (size 3 to 8) (size 9 to 14) (size 15 to 20)
#    0.000    2.000    2.143    1.500    4.000    6.286 
#    0.000    0.714    0.000    6.000    0.000    0.000 
#    0.000    0.000    0.000    0.000    0.000    0.000 
#
# Total GULP energy -346928.468154 kJ/mol
# GULP energy per Si atom -12390.302434 kJ/mol
# Density = 1.899987 g / cm^3
# Si number density = 19.043211 Si / 1000 Ang^3
#
#
#
# Elastic Constant Matrix: (Units=GPa)
#
#
# Indices 1 2 3 4 5 6 
#
# 1 104.1463 41.1921 46.3363 0.0000 -14.3763 0.0000
# 2 41.1921 108.9898 44.7986 0.0000 2.2686 0.0000
# 3 46.3363 44.7986 86.8199 0.0000 -3.2490 0.0000
# 4 0.0000 0.0000 0.0000 32.9730 0.0000 0.6193
# 5 -14.3763 2.2686 -3.2490 0.0000 33.2985 0.0000
# 6 0.0000 0.0000 0.0000 0.6193 0.0000 21.7693
#
#
#
# Elastic Compliance Matrix: (Units=1/GPa)
#
#
# Indices 1 2 3 4 5 6 
#
# 1 0.014191 -0.003122 -0.005747 0.000000 0.005779 0.000000
# 2 -0.003122 0.012396 -0.004830 0.000000 -0.002663 0.000000
# 3 -0.005747 -0.004830 0.017059 0.000000 -0.000488 0.000000
# 4 0.000000 0.000000 0.000000 0.030344 0.000000 -0.000863
# 5 0.005779 -0.002663 -0.000488 0.000000 0.032660 0.000000
# 6 0.000000 0.000000 0.000000 -0.000863 0.000000 0.045961
#
#
# Mechanical properties :
#
#
# Convention : Reuss Voigt Hill
#
# Bulk Modulus (GPa) = 61.54071 62.73445 62.13758
# Shear Modulus (GPa) = 26.96527 28.78343 27.87435
#
# Velocity S-wave (km/s) = 3.76707 3.89199 3.83004
# Velocity P-wave (km/s) = 7.16293 7.29462 7.22908
#
# Compressibility (1/GPa) = 0.01624941
#
# Stress axis : x y z
#
# Youngs Moduli (GPa) = 70.46661 80.67401 58.61966
#
# Poissons Ratio (x) = 0.25183 0.33688
# Poissons Ratio (y) = 0.21997 0.28312
# Poissons Ratio (z) = 0.40497 0.38963
#
# Static dielectric constant tensor:
#      x y z
#    x 3.533520 0.000000 -0.080490 
#    y 0.000000 3.442210 0.000000 
#    z -0.080490 0.000000 3.523030 
# 
# 
# High freq. dielectric constant tensor:
#      x y z
#    x 1.731040 0.000000 -0.004990 
#    y 0.000000 1.732800 0.000000 
#    z -0.004990 0.000000 1.739330 
# 
# From -- ./inp_files/90377.got.cif
#   From: 2010.06.25/outbox.cif.g09.slc.cpg/sg10_46_cif.got.tgz:90377.got - 2010.06.27 22:07:45.
