data_PCOD8061013
_publ_section_title
;
Structure prediction by ZEFSAII (Michael W. Deem and Ramdas Pophale) SiO2 
 PCOD8061013
Probable space group: P 2/M
;
_chemical_formula_sum "Si O2"
_cell_formula_units_Z 32
_cell_length_a 28.538939
_cell_length_b 9.008834
_cell_length_c 12.098382
_cell_angle_alpha 90.000000
_cell_angle_beta 145.656975
_cell_angle_gamma 90.000000
_cell_volume 1754.790971
_symmetry_space_group_name_H-M "P 2/M"
_symmetry_group_IT_number 10
_symmetry_cell_setting 'monoclinic'
loop_
_space_group_symop_operation_xyz
x,y,z
-x,y,-z
-x,-y,-z
x,-y,z
loop_
_atom_site_type_symbol
_atom_site_label
_atom_site_fract_x
_atom_site_fract_y
_atom_site_fract_z
Si Si1 0.027335 0.824671 0.172673
Si Si2 0.731474 0.325881 0.538880
Si Si3 0.295185 0.328713 0.934233
Si Si4 0.250170 0.330178 0.090285
Si Si5 0.785627 0.175801 0.428359
Si Si6 0.536820 0.169921 0.689030
Si Si7 0.119271 0.670477 0.009195
Si Si8 0.630479 0.169849 0.519727
O O1 0.119523 0.767882 0.379355
O O2 0.023131 0.000000 0.165799
O O3 0.000000 0.761532 0.000000
O O4 0.964232 0.765391 0.142467
O O5 0.720268 0.500000 0.500214
O O6 0.731878 0.247199 0.421452
O O7 0.815732 0.285875 0.768170
O O8 0.653408 0.265392 0.456599
O O9 0.294359 0.500000 0.895318
O O10 0.243605 0.306035 0.946791
O O11 0.389566 0.278846 0.134368
O O12 0.250970 0.227127 0.758627
O O13 0.274207 0.500000 0.167214
O O14 0.161114 0.293015 0.972229
O O15 0.321335 0.225297 0.277549
O O16 0.779385 0.000000 0.426236
O O17 0.500000 0.221278 0.500000
O O18 0.467330 0.185323 0.648546
O O19 0.568801 0.000000 0.743265
O O20 0.093575 0.500000 0.968696
O O21 0.655863 0.000000 0.547893
#
# Coordination Sequence:
#
# PCOD8061013 Si02
#       8
#     4   4   4   4   4   4   4   4
#     4  10  20  35  55  82 111 141 185 232 275 328
#     4  10  20  35  55  82 115 146 184 228 277 333
#     4  11  23  38  58  82 114 152 189 229 279 335
#     4   9  19  35  53  80 114 147 184 227 276 328
#     4  11  23  39  58  80 113 150 186 231 282 336
#     4  10  20  36  57  85 116 146 187 232 275 328
#     4   9  18  32  54  82 110 141 180 228 275 323
#     4  10  19  32  56  85 113 145 183 229 277 324
#
# _framework density 18.235790000000001
#
# number of rings (size 3 to 8) (size 9 to 14) (size 15 to 20)
#    0.000    2.000    2.500    2.250    0.000    5.000 
#    0.000    1.250    0.000    7.500    0.000    0.000 
#    0.000    0.000    0.000    0.000    0.000    0.000 
#
# Total GULP energy -396901.188710 kJ/mol
# GULP energy per Si atom -12403.162147 kJ/mol
# Density = 1.819428 g / cm^3
# Si number density = 18.235790 Si / 1000 Ang^3
#
#
#
# Elastic Constant Matrix: (Units=GPa)
#
#
# Indices 1 2 3 4 5 6 
#
# 1 122.7513 44.9852 47.8471 0.0000 -1.4559 0.0000
# 2 44.9852 72.4385 33.4822 0.0000 -1.3523 0.0000
# 3 47.8471 33.4822 81.3312 0.0000 -3.1533 0.0000
# 4 0.0000 0.0000 0.0000 25.5377 0.0000 2.6576
# 5 -1.4559 -1.3523 -3.1533 0.0000 24.8188 0.0000
# 6 0.0000 0.0000 0.0000 2.6576 0.0000 33.1291
#
#
#
# Elastic Compliance Matrix: (Units=1/GPa)
#
#
# Indices 1 2 3 4 5 6 
#
# 1 0.011948 -0.005151 -0.004916 0.000000 -0.000204 0.000000
# 2 -0.005151 0.019270 -0.004898 0.000000 0.000126 0.000000
# 3 -0.004916 -0.004898 0.017267 0.000000 0.001639 0.000000
# 4 0.000000 0.000000 0.000000 0.039487 0.000000 -0.003168
# 5 -0.000204 0.000126 0.001639 0.000000 0.040495 0.000000
# 6 0.000000 0.000000 0.000000 -0.003168 0.000000 0.030439
#
#
# Mechanical properties :
#
#
# Convention : Reuss Voigt Hill
#
# Bulk Modulus (GPa) = 53.89385 58.79446 56.34415
# Shear Modulus (GPa) = 25.63796 26.71088 26.17442
#
# Velocity S-wave (km/s) = 3.75362 3.83136 3.79269
# Velocity P-wave (km/s) = 6.95732 7.20303 7.08124
#
# Compressibility (1/GPa) = 0.01855499
#
# Stress axis : x y z
#
# Youngs Moduli (GPa) = 83.69340 51.89409 57.91238
#
# Poissons Ratio (x) = 0.26733 0.28472
# Poissons Ratio (y) = 0.43114 0.28363
# Poissons Ratio (z) = 0.41147 0.25415
#
# Static dielectric constant tensor:
#      x y z
#    x 3.508480 0.000000 0.036010 
#    y 0.000000 3.365280 0.000000 
#    z 0.036010 0.000000 3.112940 
# 
# 
# High freq. dielectric constant tensor:
#      x y z
#    x 1.720840 0.000000 0.005800 
#    y 0.000000 1.713020 0.000000 
#    z 0.005800 0.000000 1.674300 
# 
# From -- ./inp_files/49872.got.cif
#   From: 2010.06.25/outbox.cif.g09.slc.cpg/sg10_25_cif.got.tgz:49872.got - 2010.06.27 22:07:45.
