data_PCOD8061575
_publ_section_title
;
Structure prediction by ZEFSAII (Michael W. Deem and Ramdas Pophale) SiO2 
 PCOD8061575
Probable space group: P 2/M
;
_chemical_formula_sum "Si O2"
_cell_formula_units_Z 28
_cell_length_a 15.131278
_cell_length_b 8.673212
_cell_length_c 11.692591
_cell_angle_alpha 90.000000
_cell_angle_beta 116.469878
_cell_angle_gamma 90.000000
_cell_volume 1373.634772
_symmetry_space_group_name_H-M "P 2/M"
_symmetry_group_IT_number 10
_symmetry_cell_setting 'monoclinic'
loop_
_space_group_symop_operation_xyz
x,y,z
-x,y,-z
-x,-y,-z
x,-y,z
loop_
_atom_site_type_symbol
_atom_site_label
_atom_site_fract_x
_atom_site_fract_y
_atom_site_fract_z
Si Si1 0.195997 0.321054 0.373968
Si Si2 0.417751 0.320389 0.543015
Si Si3 0.543156 0.818704 0.191195
Si Si4 0.883641 0.323235 0.430802
Si Si5 0.973588 0.817882 0.860301
Si Si6 0.639308 0.318696 0.029035
Si Si7 0.840007 0.180142 0.173880
O O1 0.170978 0.500000 0.351251
O O2 0.311751 0.286891 0.424041
O O3 0.161558 0.259303 0.477677
O O4 0.134510 0.238334 0.239168
O O5 0.500000 0.267031 0.500000
O O6 0.429170 0.500000 0.581121
O O7 0.427769 0.222207 0.663357
O O8 0.615601 0.731924 0.145181
O O9 0.553842 0.000000 0.177406
O O10 0.431301 0.766473 0.102036
O O11 0.851585 0.500000 0.389421
O O12 0.839001 0.215609 0.307487
O O13 0.000000 0.305599 0.500000
O O14 0.057477 0.759320 0.820874
O O15 0.971069 0.000000 0.862321
O O16 0.000000 0.750372 0.000000
O O17 0.624175 0.500000 0.007315
O O18 0.750669 0.271056 0.061913
O O19 0.824683 0.000000 0.143599
#
# Coordination Sequence:
#
# PCOD8061575 Si02
#       7
#     4   4   4   4   4   4   4
#     4  10  21  38  60  85 114 151 195 245 293 344
#     4  10  22  40  61  87 121 161 206 248 293 353
#     4  11  22  39  62  90 121 153 197 249 302 356
#     4  10  19  33  56  85 117 150 190 240 296 354
#     4  10  23  41  58  80 116 157 194 238 292 350
#     4  11  22  38  62  88 120 158 194 241 303 363
#     4  11  22  36  57  87 119 153 196 243 294 354
#
# _framework density 20.383875
#
# number of rings (size 3 to 8) (size 9 to 14) (size 15 to 20)
#    0.000    1.571    1.429    4.714    0.000    4.857 
#    0.000    2.857    0.000    0.000    0.000    0.000 
#    0.000    0.000    0.000    0.000    0.000    0.000 
#
# Total GULP energy -347332.687312 kJ/mol
# GULP energy per Si atom -12404.738833 kJ/mol
# Density = 2.033748 g / cm^3
# Si number density = 20.383875 Si / 1000 Ang^3
#
#
#
# Elastic Constant Matrix: (Units=GPa)
#
#
# Indices 1 2 3 4 5 6 
#
# 1 112.6643 20.3888 44.2955 0.0000 14.1246 0.0000
# 2 20.3888 59.5206 21.9378 0.0000 3.7104 0.0000
# 3 44.2955 21.9378 115.7380 0.0000 6.9500 0.0000
# 4 0.0000 0.0000 0.0000 35.1921 0.0000 7.6969
# 5 14.1246 3.7104 6.9500 0.0000 27.1001 0.0000
# 6 0.0000 0.0000 0.0000 7.6969 0.0000 17.4099
#
#
#
# Elastic Compliance Matrix: (Units=1/GPa)
#
#
# Indices 1 2 3 4 5 6 
#
# 1 0.011286 -0.002244 -0.003615 0.000000 -0.004648 0.000000
# 2 -0.002244 0.018579 -0.002621 0.000000 -0.000702 0.000000
# 3 -0.003615 -0.002621 0.010548 0.000000 -0.000462 0.000000
# 4 0.000000 0.000000 0.000000 0.031457 0.000000 -0.013907
# 5 -0.004648 -0.000702 -0.000462 0.000000 0.039537 0.000000
# 6 0.000000 0.000000 0.000000 -0.013907 0.000000 0.063587
#
#
# Mechanical properties :
#
#
# Convention : Reuss Voigt Hill
#
# Bulk Modulus (GPa) = 42.63598 51.24079 46.93839
# Shear Modulus (GPa) = 25.02854 29.36048 27.19451
#
# Velocity S-wave (km/s) = 3.50788 3.79935 3.65652
# Velocity P-wave (km/s) = 6.11301 6.66627 6.39563
#
# Compressibility (1/GPa) = 0.02345437
#
# Stress axis : x y z
#
# Youngs Moduli (GPa) = 88.60546 53.82356 94.80257
#
# Poissons Ratio (x) = 0.12077 0.34271
# Poissons Ratio (y) = 0.19882 0.24845
# Poissons Ratio (z) = 0.32031 0.14105
#
# Static dielectric constant tensor:
#      x y z
#    x 3.862120 0.000000 0.080340 
#    y 0.000000 3.560790 0.000000 
#    z 0.080340 0.000000 3.705980 
# 
# 
# High freq. dielectric constant tensor:
#      x y z
#    x 1.802570 0.000000 0.013670 
#    y 0.000000 1.788540 0.000000 
#    z 0.013670 0.000000 1.795840 
# 
# From -- ./inp_files/49356.got.cif
#   From: 2010.06.25/outbox.cif.g09.slc.cpg/sg10_25_cif.got.tgz:49356.got - 2010.06.27 22:07:45.
