data_PCOD8061203
_publ_section_title
;
Structure prediction by ZEFSAII (Michael W. Deem and Ramdas Pophale) SiO2 
 PCOD8061203
Probable space group: P 2/M
;
_chemical_formula_sum "Si O2"
_cell_formula_units_Z 24
_cell_length_a 13.598632
_cell_length_b 8.962508
_cell_length_c 14.992385
_cell_angle_alpha 90.000000
_cell_angle_beta 132.022857
_cell_angle_gamma 90.000000
_cell_volume 1357.415805
_symmetry_space_group_name_H-M "P 2/M"
_symmetry_group_IT_number 10
_symmetry_cell_setting 'monoclinic'
loop_
_space_group_symop_operation_xyz
x,y,z
-x,y,-z
-x,-y,-z
x,-y,z
loop_
_atom_site_type_symbol
_atom_site_label
_atom_site_fract_x
_atom_site_fract_y
_atom_site_fract_z
Si Si1 0.874782 0.670755 0.230701
Si Si2 0.193849 0.333417 0.611053
Si Si3 0.867259 0.173001 0.598704
Si Si4 0.571269 0.174654 0.452869
Si Si5 0.385384 0.823221 0.997662
Si Si6 0.506148 0.671258 0.233872
O O1 0.857445 0.500000 0.189645
O O2 0.879861 0.686396 0.340519
O O3 0.015510 0.734979 0.281516
O O4 0.756541 0.767676 0.120340
O O5 0.167796 0.500000 0.556259
O O6 0.138714 0.211254 0.509769
O O7 0.349357 0.309986 0.721396
O O8 0.726312 0.216784 0.556722
O O9 0.899375 0.000000 0.629562
O O10 0.500000 0.223996 0.500000
O O11 0.501678 0.262583 0.330495
O O12 0.554894 0.000000 0.423191
O O13 0.406805 0.760031 0.109742
O O14 0.384679 0.000000 0.001398
O O15 0.500000 0.765614 0.000000
O O16 0.461251 0.500000 0.211027
#
# Coordination Sequence:
#
# PCOD8061203 Si02
#       6
#     4   4   4   4   4   4
#     4  11  21  33  49  70 104 145 177 208 253 307
#     4   9  18  31  47  69 101 140 174 206 250 306
#     4  10  20  32  49  75 103 132 172 217 260 308
#     4   9  19  37  59  80 104 135 171 217 271 318
#     4  11  22  34  51  75 106 143 182 217 250 299
#     4  10  19  33  53  78 107 138 176 217 258 306
#
# _framework density 17.680655999999999
#
# number of rings (size 3 to 8) (size 9 to 14) (size 15 to 20)
#    0.000    2.000    1.667    2.500    0.000    5.667 
#    0.000    0.000    0.000    1.000    0.000    7.000 
#    0.000    0.000    0.000    0.000    0.000    0.000 
#
# Total GULP energy -297638.348613 kJ/mol
# GULP energy per Si atom -12401.597859 kJ/mol
# Density = 1.764041 g / cm^3
# Si number density = 17.680656 Si / 1000 Ang^3
#
#
#
# Elastic Constant Matrix: (Units=GPa)
#
#
# Indices 1 2 3 4 5 6 
#
# 1 89.1679 39.5274 53.5646 0.0000 2.0025 0.0000
# 2 39.5274 80.1770 47.0718 0.0000 -0.6615 0.0000
# 3 53.5646 47.0718 85.9015 0.0000 11.6863 0.0000
# 4 0.0000 0.0000 0.0000 34.1859 0.0000 1.5081
# 5 2.0025 -0.6615 11.6863 0.0000 21.2055 0.0000
# 6 0.0000 0.0000 0.0000 1.5081 0.0000 20.6120
#
#
#
# Elastic Compliance Matrix: (Units=1/GPa)
#
#
# Indices 1 2 3 4 5 6 
#
# 1 0.018860 -0.003009 -0.010655 0.000000 0.003997 0.000000
# 2 -0.003009 0.019771 -0.009816 0.000000 0.006311 0.000000
# 3 -0.010655 -0.009816 0.025479 0.000000 -0.013341 0.000000
# 4 0.000000 0.000000 0.000000 0.029347 0.000000 -0.002147
# 5 0.003997 0.006311 -0.013341 0.000000 0.054330 0.000000
# 6 0.000000 0.000000 0.000000 -0.002147 0.000000 0.048673
#
#
# Mechanical properties :
#
#
# Convention : Reuss Voigt Hill
#
# Bulk Modulus (GPa) = 58.31114 59.50821 58.90968
# Shear Modulus (GPa) = 20.06945 22.87283 21.47114
#
# Velocity S-wave (km/s) = 3.37279 3.60066 3.48858
# Velocity P-wave (km/s) = 6.94402 7.14259 7.04401
#
# Compressibility (1/GPa) = 0.01714938
#
# Stress axis : x y z
#
# Youngs Moduli (GPa) = 53.02360 50.57893 39.24812
#
# Poissons Ratio (x) = 0.15222 0.41817
# Poissons Ratio (y) = 0.15957 0.38526
# Poissons Ratio (z) = 0.56495 0.49648
#
# Static dielectric constant tensor:
#      x y z
#    x 3.160620 0.000000 0.170630 
#    y 0.000000 3.339090 0.000000 
#    z 0.170630 0.000000 3.156040 
# 
# 
# High freq. dielectric constant tensor:
#      x y z
#    x 1.655640 0.000000 0.018830 
#    y 0.000000 1.694190 0.000000 
#    z 0.018830 0.000000 1.678170 
# 
# From -- ./inp_files/48661.got.cif
#   From: 2010.06.25/outbox.cif.g09.slc.cpg/sg10_25_cif.got.tgz:48661.got - 2010.06.27 22:07:45.
