data_PCOD8061882
_publ_section_title
;
Structure prediction by ZEFSAII (Michael W. Deem and Ramdas Pophale) SiO2 
 PCOD8061882
Probable space group: P 2/M
;
_chemical_formula_sum "Si O2"
_cell_formula_units_Z 28
_cell_length_a 21.171535
_cell_length_b 8.998523
_cell_length_c 25.427300
_cell_angle_alpha 90.000000
_cell_angle_beta 17.073737
_cell_angle_gamma 90.000000
_cell_volume 1422.273452
_symmetry_space_group_name_H-M "P 2/M"
_symmetry_group_IT_number 10
_symmetry_cell_setting 'monoclinic'
loop_
_space_group_symop_operation_xyz
x,y,z
-x,y,-z
-x,-y,-z
x,-y,z
loop_
_atom_site_type_symbol
_atom_site_label
_atom_site_fract_x
_atom_site_fract_y
_atom_site_fract_z
Si Si1 0.038509 0.675613 0.385080
Si Si2 0.143129 0.176627 0.019198
Si Si3 0.927530 0.827215 0.367260
Si Si4 0.671780 0.324792 0.754052
Si Si5 0.240984 0.676627 0.044753
Si Si6 0.345691 0.822954 0.576779
Si Si7 0.505611 0.172448 0.338446
O O1 0.029119 0.500000 0.381794
O O2 0.255677 0.720073 0.244518
O O3 0.036066 0.757564 0.331894
O O4 0.838181 0.736498 0.578326
O O5 0.277216 0.259952 0.957791
O O6 0.896161 0.232190 0.217034
O O7 0.160849 0.000000 0.013524
O O8 0.262525 0.224371 0.869386
O O9 0.672508 0.797136 0.565212
O O10 0.024778 0.749624 0.238466
O O11 0.982839 0.000000 0.321764
O O12 0.685689 0.500000 0.738439
O O13 0.434305 0.268414 0.929094
O O14 0.222946 0.500000 0.057630
O O15 0.500000 0.763744 0.500000
O O16 0.436661 0.753951 0.449264
O O17 0.343282 0.000000 0.576570
O O18 0.519358 0.000000 0.340073
#
# Coordination Sequence:
#
# PCOD8061882 Si02
#       7
#     4   4   4   4   4   4   4
#     4   9  17  34  55  74  98 134 178 224 273 318
#     4  10  19  34  56  80 110 143 174 219 271 312
#     4  11  21  34  50  74 109 141 175 222 271 318
#     4   8  17  33  53  74 100 133 176 228 271 316
#     4  11  21  34  53  77 103 137 182 223 264 318
#     4   9  17  31  53  83 115 142 173 214 259 315
#     4   9  18  32  52  79 110 143 177 216 265 313
#
# _framework density 19.686792000000001
#
# number of rings (size 3 to 8) (size 9 to 14) (size 15 to 20)
#    0.000    2.429    1.429    2.571    0.000    1.143 
#    0.000   10.000    0.000    0.429    0.000    1.000 
#    0.000    0.000    0.000    0.000    0.000    0.000 
#
# Total GULP energy -347005.508449 kJ/mol
# GULP energy per Si atom -12393.053873 kJ/mol
# Density = 1.964198 g / cm^3
# Si number density = 19.686792 Si / 1000 Ang^3
#
#
#
# Elastic Constant Matrix: (Units=GPa)
#
#
# Indices 1 2 3 4 5 6 
#
# 1 132.4040 29.1920 66.4838 0.0000 4.2856 0.0000
# 2 29.1920 43.9456 26.2919 0.0000 -0.3236 0.0000
# 3 66.4838 26.2919 139.1724 0.0000 6.4673 0.0000
# 4 0.0000 0.0000 0.0000 14.8394 0.0000 -5.6047
# 5 4.2856 -0.3236 6.4673 0.0000 28.1627 0.0000
# 6 0.0000 0.0000 0.0000 -5.6047 0.0000 -7.4606
#
#
#
# Elastic Compliance Matrix: (Units=1/GPa)
#
#
# Indices 1 2 3 4 5 6 
#
# 1 0.010704 -0.004596 -0.004212 0.000000 -0.000714 0.000000
# 2 -0.004596 0.027685 -0.003115 0.000000 0.001733 0.000000
# 3 -0.004212 -0.003115 0.009863 0.000000 -0.001660 0.000000
# 4 0.000000 0.000000 0.000000 0.052494 0.000000 -0.039435
# 5 -0.000714 0.001733 -0.001660 0.000000 0.036018 0.000000
# 6 0.000000 0.000000 0.000000 -0.039435 0.000000 -0.104412
#
#
# Mechanical properties :
#
#
# Convention : Reuss Voigt Hill
#
# Bulk Modulus (GPa) = 40.97353 62.16196 51.56774
# Shear Modulus (GPa) = 77.72061 20.01190 48.86626
#
# Velocity S-wave (km/s) = 6.29001 3.19174 4.98756
# Velocity P-wave (km/s) = 8.57964 6.72510 7.70835
#
# Compressibility (1/GPa) = 0.02440600
#
# Stress axis : x y z
#
# Youngs Moduli (GPa) = 93.42336 36.12099 101.38829
#
# Poissons Ratio (x) = 0.16600 0.42704
# Poissons Ratio (y) = 0.42935 0.31585
# Poissons Ratio (z) = 0.39350 0.11252
#
# Static dielectric constant tensor:
#      x y z
#    x 3.772410 0.000000 -0.023810 
#    y 0.000000 3.071000 0.000000 
#    z -0.023810 0.000000 3.846010 
# 
# 
# High freq. dielectric constant tensor:
#      x y z
#    x 1.772260 0.000000 0.001510 
#    y 0.000000 1.714210 0.000000 
#    z 0.001510 0.000000 1.774690 
# 
# From -- ./inp_files/90353.got.cif
#   From: 2010.06.25/outbox.cif.g09.slc.cpg/sg10_46_cif.got.tgz:90353.got - 2010.06.27 22:07:45.
