data_PCOD8061909
_publ_section_title
;
Structure prediction by ZEFSAII (Michael W. Deem and Ramdas Pophale) SiO2 
 PCOD8061909
Probable space group: P 2/M
;
_chemical_formula_sum "Si O2"
_cell_formula_units_Z 24
_cell_length_a 14.086927
_cell_length_b 9.260658
_cell_length_c 9.987746
_cell_angle_alpha 90.000000
_cell_angle_beta 89.633159
_cell_angle_gamma 90.000000
_cell_volume 1302.916841
_symmetry_space_group_name_H-M "P 2/M"
_symmetry_group_IT_number 10
_symmetry_cell_setting 'monoclinic'
loop_
_space_group_symop_operation_xyz
x,y,z
-x,y,-z
-x,-y,-z
x,-y,z
loop_
_atom_site_type_symbol
_atom_site_label
_atom_site_fract_x
_atom_site_fract_y
_atom_site_fract_z
Si Si1 0.391721 0.666304 0.014521
Si Si2 0.108080 0.329531 0.845757
Si Si3 0.288205 0.332773 0.288318
Si Si4 0.897562 0.329722 0.850301
Si Si5 0.607033 0.831685 0.483982
Si Si6 0.713620 0.831205 0.213241
O O1 0.376785 0.500000 0.971520
O O2 0.328268 0.765507 0.921459
O O3 0.500000 0.714977 0.000000
O O4 0.361980 0.691032 0.167526
O O5 0.126676 0.500000 0.832874
O O6 0.184992 0.243830 0.756560
O O7 0.002192 0.289143 0.794243
O O8 0.117347 0.273370 0.998512
O O9 0.281307 0.500000 0.328245
O O10 0.184661 0.270019 0.246457
O O11 0.322385 0.246480 0.416042
O O12 0.886882 0.500000 0.860332
O O13 0.500000 0.771455 0.500000
O O14 0.641499 0.798470 0.334063
O O15 0.610124 0.000000 0.518411
O O16 0.730006 0.000000 0.193205
#
# Coordination Sequence:
#
# PCOD8061909 Si02
#       6
#     4   4   4   4   4   4
#     4  10  20  34  55  82 108 134 173 227 277 320
#     4   9  16  32  57  80 108 142 174 216 269 318
#     4  10  19  34  56  83 108 133 177 226 267 317
#     4   8  15  30  55  83 108 138 173 216 269 319
#     4  10  23  41  55  71 105 151 188 217 261 321
#     4  11  22  35  53  79 109 142 181 222 266 319
#
# _framework density 18.420210000000001
#
# number of rings (size 3 to 8) (size 9 to 14) (size 15 to 20)
#    0.000    2.333    1.667    2.500    0.000    2.667 
#    0.000    3.333    0.000    5.000    0.000    0.000 
#    0.000    0.000    0.000    0.000    0.000    0.000 
#
# Total GULP energy -297585.683831 kJ/mol
# GULP energy per Si atom -12399.403493 kJ/mol
# Density = 1.837828 g / cm^3
# Si number density = 18.420210 Si / 1000 Ang^3
#
#
#
# Elastic Constant Matrix: (Units=GPa)
#
#
# Indices 1 2 3 4 5 6 
#
# 1 125.0752 33.7959 12.0161 0.0000 4.3124 0.0000
# 2 33.7959 50.4245 23.8920 0.0000 -1.4966 0.0000
# 3 12.0161 23.8920 43.0454 0.0000 10.7780 0.0000
# 4 0.0000 0.0000 0.0000 24.9608 0.0000 -4.9712
# 5 4.3124 -1.4966 10.7780 0.0000 31.9293 0.0000
# 6 0.0000 0.0000 0.0000 -4.9712 0.0000 18.1954
#
#
#
# Elastic Compliance Matrix: (Units=1/GPa)
#
#
# Indices 1 2 3 4 5 6 
#
# 1 0.009973 -0.007769 0.002137 0.000000 -0.002433 0.000000
# 2 -0.007769 0.034421 -0.019228 0.000000 0.009153 0.000000
# 3 0.002137 -0.019228 0.036708 0.000000 -0.013581 0.000000
# 4 0.000000 0.000000 0.000000 0.042368 0.000000 0.011576
# 5 -0.002433 0.009153 -0.013581 0.000000 0.036661 0.000000
# 6 0.000000 0.000000 0.000000 0.011576 0.000000 0.058122
#
#
# Mechanical properties :
#
#
# Convention : Reuss Voigt Hill
#
# Bulk Modulus (GPa) = 31.86586 39.77258 35.81922
# Shear Modulus (GPa) = 17.95764 24.93985 21.44874
#
# Velocity S-wave (km/s) = 3.12571 3.68358 3.41605
# Velocity P-wave (km/s) = 5.51032 6.30321 5.92005
#
# Compressibility (1/GPa) = 0.03138155
#
# Stress axis : x y z
#
# Youngs Moduli (GPa) = 100.27114 29.05200 27.24228
#
# Poissons Ratio (x) = 0.22571 -0.05822
# Poissons Ratio (y) = 0.77901 0.52382
# Poissons Ratio (z) = -0.21431 0.55862
#
# Static dielectric constant tensor:
#      x y z
#    x 3.907060 0.000000 0.070330 
#    y 0.000000 3.146870 0.000000 
#    z 0.070330 0.000000 3.162060 
# 
# 
# High freq. dielectric constant tensor:
#      x y z
#    x 1.737070 0.000000 0.001720 
#    y 0.000000 1.689270 0.000000 
#    z 0.001720 0.000000 1.692580 
# 
# From -- ./inp_files/27190.got.cif
#   From: 2010.06.25/outbox.cif.g09.slc.cpg/sg10_14_cif.got.tgz:27190.got - 2010.06.27 22:07:45.
