data_PCOD8061963
_publ_section_title
;
Structure prediction by ZEFSAII (Michael W. Deem and Ramdas Pophale) SiO2 
 PCOD8061963
Probable space group: P 2/M
;
_chemical_formula_sum "Si O2"
_cell_formula_units_Z 28
_cell_length_a 9.331609
_cell_length_b 8.367743
_cell_length_c 29.374116
_cell_angle_alpha 90.000000
_cell_angle_beta 142.392382
_cell_angle_gamma 90.000000
_cell_volume 1399.709198
_symmetry_space_group_name_H-M "P 2/M"
_symmetry_group_IT_number 10
_symmetry_cell_setting 'monoclinic'
loop_
_space_group_symop_operation_xyz
x,y,z
-x,y,-z
-x,-y,-z
x,-y,z
loop_
_atom_site_type_symbol
_atom_site_label
_atom_site_fract_x
_atom_site_fract_y
_atom_site_fract_z
Si Si1 0.413585 0.689741 0.430067
Si Si2 0.590245 0.814307 0.295300
Si Si3 0.469841 0.812724 0.131285
Si Si4 0.341833 0.812620 0.000047
Si Si5 0.171077 0.313928 0.136630
Si Si6 0.728534 0.312721 0.425387
Si Si7 0.115363 0.312620 0.710468
O O1 0.500000 0.762042 0.500000
O O2 0.413897 0.500000 0.433307
O O3 0.588779 0.747819 0.434623
O O4 0.150889 0.750943 0.353641
O O5 0.331283 0.752163 0.217760
O O6 0.630504 0.785363 0.358378
O O7 0.784578 0.720308 0.314795
O O8 0.609365 0.000000 0.287994
O O9 0.293684 0.716814 0.119263
O O10 0.737135 0.780350 0.213927
O O11 0.412258 0.000000 0.120404
O O12 0.427645 0.743754 0.070174
O O13 0.072951 0.776956 0.922565
O O14 0.383217 0.000000 0.011480
O O15 0.500000 0.734603 0.000000
O O16 0.127109 0.500000 0.132475
O O17 0.689298 0.500000 0.406749
O O18 0.000000 0.271131 0.500000
O O19 0.131716 0.500000 0.724506
#
# Coordination Sequence:
#
# PCOD8061963 Si02
#       7
#     4   4   4   4   4   4   4
#     4   9  18  33  55  83 111 142 181 225 273 323
#     4  11  22  37  57  81 112 146 184 226 272 329
#     4  10  20  36  58  81 109 145 183 222 271 331
#     4  10  22  39  57  80 113 150 184 222 274 331
#     4  11  22  37  59  84 110 142 185 231 275 324
#     4  10  20  36  59  84 112 146 184 227 275 326
#     4  10  19  34  57  82 109 140 181 230 276 324
#
# _framework density 20.004154
#
# number of rings (size 3 to 8) (size 9 to 14) (size 15 to 20)
#    0.000    1.857    0.000    6.429    0.000    6.857 
#    0.000    4.286    0.000    3.000    0.000    0.000 
#    0.000    0.000    0.000    0.000    0.000    0.000 
#
# Total GULP energy -347298.962110 kJ/mol
# GULP energy per Si atom -12403.534361 kJ/mol
# Density = 1.995862 g / cm^3
# Si number density = 20.004154 Si / 1000 Ang^3
#
#
#
# Elastic Constant Matrix: (Units=GPa)
#
#
# Indices 1 2 3 4 5 6 
#
# 1 111.6828 -19.4912 72.7428 0.0000 1.9303 0.0000
# 2 -19.4912 6.7380 -13.7995 0.0000 -12.9746 0.0000
# 3 72.7428 -13.7995 121.8217 0.0000 -4.2211 0.0000
# 4 0.0000 0.0000 0.0000 26.7274 0.0000 -11.4066
# 5 1.9303 -12.9746 -4.2211 0.0000 37.9596 0.0000
# 6 0.0000 0.0000 0.0000 -11.4066 0.0000 -0.1526
#
#
#
# Elastic Compliance Matrix: (Units=1/GPa)
#
#
# Indices 1 2 3 4 5 6 
#
# 1 -0.005792 -0.144007 -0.014606 0.000000 -0.050551 0.000000
# 2 -0.144007 -1.008765 -0.040127 0.000000 -0.341935 0.000000
# 3 -0.014606 -0.040127 0.011981 0.000000 -0.011640 0.000000
# 4 0.000000 0.000000 0.000000 0.001137 0.000000 -0.085005
# 5 -0.050551 -0.341935 -0.011640 0.000000 -0.089253 0.000000
# 6 0.000000 0.000000 0.000000 -0.085005 0.000000 -0.199179
#
#
# Mechanical properties :
#
#
# Convention : Reuss Voigt Hill
#
# Bulk Modulus (GPa) = -0.71426 35.46073 17.37324
# Shear Modulus (GPa) = -3.67897 26.29292 11.30697
#
# Velocity S-wave (km/s) = -1.35761 3.62936 2.38004
# Velocity P-wave (km/s) = 1.67788 5.94375 4.03193
#
# Compressibility (1/GPa) = -1.40005536
#
# Stress axis : x y z
#
# Youngs Moduli (GPa) = -172.66447 -0.99131 83.46248
#
# Poissons Ratio (x) = -0.14276 1.21904
# Poissons Ratio (y) = -24.86485 3.34913
# Poissons Ratio (z) = -2.52192 -0.03978
#
# Static dielectric constant tensor:
#      x y z
#    x 3.737970 0.000000 -0.012070 
#    y 0.000000 3.397780 0.000000 
#    z -0.012070 0.000000 3.845350 
# 
# 
# High freq. dielectric constant tensor:
#      x y z
#    x 1.778240 0.000000 0.000600 
#    y 0.000000 1.764910 0.000000 
#    z 0.000600 0.000000 1.795480 
# 
# From -- ./inp_files/91960.got.cif
#   From: 2010.06.25/outbox.cif.g09.slc.cpg/sg10_46_cif.got.tgz:91960.got - 2010.06.27 22:07:45.
