data_PCOD8061526
_publ_section_title
;
Structure prediction by ZEFSAII (Michael W. Deem and Ramdas Pophale) SiO2 
 PCOD8061526
Probable space group: P 2/M
;
_chemical_formula_sum "Si O2"
_cell_formula_units_Z 26
_cell_length_a 24.904596
_cell_length_b 13.021136
_cell_length_c 22.605330
_cell_angle_alpha 90.000000
_cell_angle_beta 168.981536
_cell_angle_gamma 90.000000
_cell_volume 1401.062335
_symmetry_space_group_name_H-M "P 2/M"
_symmetry_group_IT_number 10
_symmetry_cell_setting 'monoclinic'
loop_
_space_group_symop_operation_xyz
x,y,z
-x,y,-z
-x,-y,-z
x,-y,z
loop_
_atom_site_type_symbol
_atom_site_label
_atom_site_fract_x
_atom_site_fract_y
_atom_site_fract_z
Si Si1 0.992652 0.881860 0.835454
Si Si2 0.071761 0.202715 0.697759
Si Si3 0.181042 0.500000 0.137875
Si Si4 0.507476 0.882790 0.941345
Si Si5 0.188525 0.384445 0.646425
Si Si6 0.365520 0.118250 0.124710
Si Si7 0.820938 0.277293 0.865351
O O1 0.679991 0.849743 0.480201
O O2 0.008007 0.000000 0.873374
O O3 0.183613 0.862147 0.985579
O O4 0.098839 0.812003 0.003277
O O5 0.809134 0.126455 0.425706
O O6 0.940922 0.315660 0.546483
O O7 0.256663 0.176931 0.840146
O O8 0.266050 0.195187 0.965503
O O9 0.500000 0.500000 0.500000
O O10 0.121369 0.390085 0.040912
O O11 0.000000 0.500000 0.000000
O O12 0.604510 0.000000 0.045232
O O13 0.500000 0.838904 0.000000
O O14 0.197646 0.500000 0.631076
O O15 0.000000 0.376192 0.500000
O O16 0.500000 0.346242 0.000000
O O17 0.348066 0.000000 0.083755
O O18 0.500000 0.263955 0.500000
O O19 0.000000 0.263717 0.000000
#
# Coordination Sequence:
#
# PCOD8061526 Si02
#       7
#     4   4   2   4   4   4   4
#     4  10  21  36  53  76 110 142 181 223 261 314
#     4  12  21  35  57  75 103 142 182 218 263 325
#     4   8  16  30  50  78 106 134 166 204 253 314
#     4  11  22  33  49  79 111 133 164 218 273 323
#     4  10  21  37  57  80 104 134 175 224 278 328
#     4  10  21  36  53  74 104 146 183 214 255 316
#     4  10  19  33  56  82 109 139 175 220 269 322
#
# _framework density 18.557345999999999
#
# number of rings (size 3 to 8) (size 9 to 14) (size 15 to 20)
#    0.000    1.692    0.000    6.000    0.000    3.077 
#    0.000    0.000    3.385    0.000    0.000    0.000 
#    0.000    0.000    0.000    0.000    0.000    0.000 
#
# Total GULP energy -322346.079456 kJ/mol
# GULP energy per Si atom -12397.926133 kJ/mol
# Density = 1.851511 g / cm^3
# Si number density = 18.557346 Si / 1000 Ang^3
#
#
#
# Elastic Constant Matrix: (Units=GPa)
#
#
# Indices 1 2 3 4 5 6 
#
# 1 76.1931 56.9161 57.1230 0.0000 1.1707 0.0000
# 2 56.9161 131.9087 64.2138 0.0000 -21.0912 0.0000
# 3 57.1230 64.2138 136.6313 0.0000 9.7547 0.0000
# 4 0.0000 0.0000 0.0000 30.9015 0.0000 -4.0328
# 5 1.1707 -21.0912 9.7547 0.0000 41.7943 0.0000
# 6 0.0000 0.0000 0.0000 -4.0328 0.0000 24.8820
#
#
#
# Elastic Compliance Matrix: (Units=1/GPa)
#
#
# Indices 1 2 3 4 5 6 
#
# 1 0.023370 -0.007705 -0.005924 0.000000 -0.003161 0.000000
# 2 -0.007705 0.014211 -0.004052 0.000000 0.008333 0.000000
# 3 -0.005924 -0.004052 0.012035 0.000000 -0.004688 0.000000
# 4 0.000000 0.000000 0.000000 0.033060 0.000000 0.005358
# 5 -0.003161 0.008333 -0.004688 0.000000 0.029315 0.000000
# 6 0.000000 0.000000 0.000000 0.005358 0.000000 0.041058
#
#
# Mechanical properties :
#
#
# Convention : Reuss Voigt Hill
#
# Bulk Modulus (GPa) = 70.16038 77.91546 74.03792
# Shear Modulus (GPa) = 25.88507 30.61425 28.24966
#
# Velocity S-wave (km/s) = 3.73885 4.06607 3.90589
# Velocity P-wave (km/s) = 7.51851 8.00758 7.76690
#
# Compressibility (1/GPa) = 0.01425306
#
# Stress axis : x y z
#
# Youngs Moduli (GPa) = 42.78982 70.36920 83.09381
#
# Poissons Ratio (x) = 0.54223 0.49221
# Poissons Ratio (y) = 0.32972 0.33671
# Poissons Ratio (z) = 0.25347 0.28515
#
# Static dielectric constant tensor:
#      x y z
#    x 3.251460 0.000000 0.265770 
#    y 0.000000 3.726390 0.000000 
#    z 0.265770 0.000000 3.522070 
# 
# 
# High freq. dielectric constant tensor:
#      x y z
#    x 1.706310 0.000000 0.030200 
#    y 0.000000 1.724090 0.000000 
#    z 0.030200 0.000000 1.732460 
# 
# From -- ./inp_files/86627.got.cif
#   From: 2010.06.25/outbox.cif.g09.slc.cpg/sg10_44_cif.got.tgz:86627.got - 2010.06.27 22:07:45.
