data_PCOD8061420
_publ_section_title
;
Structure prediction by ZEFSAII (Michael W. Deem and Ramdas Pophale) SiO2 
 PCOD8061420
Probable space group: P 2/M
;
_chemical_formula_sum "Si O2"
_cell_formula_units_Z 32
_cell_length_a 14.086093
_cell_length_b 9.533252
_cell_length_c 14.073870
_cell_angle_alpha 90.000000
_cell_angle_beta 118.519311
_cell_angle_gamma 90.000000
_cell_volume 1660.596651
_symmetry_space_group_name_H-M "P 2/M"
_symmetry_group_IT_number 10
_symmetry_cell_setting 'monoclinic'
loop_
_space_group_symop_operation_xyz
x,y,z
-x,y,-z
-x,-y,-z
x,-y,z
loop_
_atom_site_type_symbol
_atom_site_label
_atom_site_fract_x
_atom_site_fract_y
_atom_site_fract_z
Si Si1 0.903601 0.340840 0.882118
Si Si2 0.587846 0.159810 0.114243
Si Si3 0.243521 0.154796 0.961613
Si Si4 0.335489 0.661445 0.681775
Si Si5 0.309003 0.836962 0.194130
Si Si6 0.095551 0.333172 0.610118
Si Si7 0.508759 0.338204 0.613261
Si Si8 0.931553 0.658277 0.191451
O O1 0.863394 0.500000 0.884774
O O2 0.806964 0.230573 0.838951
O O3 0.948640 0.333628 0.795173
O O4 0.000000 0.299917 0.000000
O O5 0.701092 0.168975 0.114054
O O6 0.591829 0.252038 0.210122
O O7 0.558339 0.000000 0.128627
O O8 0.500000 0.222231 0.000000
O O9 0.146849 0.264606 0.920392
O O10 0.193150 0.000000 0.948914
O O11 0.327329 0.179655 0.088943
O O12 0.338354 0.500000 0.715376
O O13 0.211548 0.715995 0.623226
O O14 0.390579 0.681903 0.604997
O O15 0.403392 0.757800 0.293876
O O16 0.308821 0.000000 0.225114
O O17 0.087723 0.500000 0.605923
O O18 0.075010 0.274265 0.706582
O O19 0.000000 0.268899 0.500000
O O20 0.500000 0.290910 0.500000
O O21 0.546213 0.500000 0.638937
O O22 0.889116 0.500000 0.176888
#
# Coordination Sequence:
#
# PCOD8061420 Si02
#       8
#     4   4   4   4   4   4   4   4
#     4  10  20  34  55  84 117 154 193 237 292 346
#     4  10  20  34  53  79 114 153 188 227 284 346
#     4  10  20  33  52  79 113 150 185 231 289 341
#     4  10  20  36  60  87 112 145 190 238 284 334
#     4  11  23  38  59  86 116 155 198 241 289 347
#     4   9  18  33  55  84 114 144 184 232 281 335
#     4  10  23  42  62  85 115 152 194 245 295 340
#     4  10  19  33  55  80 109 148 189 233 284 337
#
# _framework density 19.270182999999999
#
# number of rings (size 3 to 8) (size 9 to 14) (size 15 to 20)
#    0.000    2.000    2.500    1.125    0.000    4.250 
#    0.000    3.750    0.000    1.500    0.000    0.000 
#    0.000    0.000    0.000    0.000    0.000    0.000 
#
# Total GULP energy -396723.513063 kJ/mol
# GULP energy per Si atom -12397.609783 kJ/mol
# Density = 1.922632 g / cm^3
# Si number density = 19.270183 Si / 1000 Ang^3
#
#
#
# Elastic Constant Matrix: (Units=GPa)
#
#
# Indices 1 2 3 4 5 6 
#
# 1 91.4353 31.2629 49.0015 0.0000 -7.6339 0.0000
# 2 31.2629 69.5202 46.4465 0.0000 1.5565 0.0000
# 3 49.0015 46.4465 117.5263 0.0000 -2.9933 0.0000
# 4 0.0000 0.0000 0.0000 9.6751 0.0000 -0.9475
# 5 -7.6339 1.5565 -2.9933 0.0000 33.6414 0.0000
# 6 0.0000 0.0000 0.0000 -0.9475 0.0000 20.2890
#
#
#
# Elastic Compliance Matrix: (Units=1/GPa)
#
#
# Indices 1 2 3 4 5 6 
#
# 1 0.014979 -0.003652 -0.004722 0.000000 0.003148 0.000000
# 2 -0.003652 0.020521 -0.006648 0.000000 -0.002370 0.000000
# 3 -0.004722 -0.006648 0.013115 0.000000 0.000403 0.000000
# 4 0.000000 0.000000 0.000000 0.103833 0.000000 0.004849
# 5 0.003148 -0.002370 0.000403 0.000000 0.030585 0.000000
# 6 0.000000 0.000000 0.000000 0.004849 0.000000 0.049514
#
#
# Mechanical properties :
#
#
# Convention : Reuss Voigt Hill
#
# Bulk Modulus (GPa) = 53.84466 59.10041 56.47254
# Shear Modulus (GPa) = 18.60258 22.83915 20.72087
#
# Velocity S-wave (km/s) = 3.11039 3.44642 3.28271
# Velocity P-wave (km/s) = 6.39546 6.82444 6.61343
#
# Compressibility (1/GPa) = 0.01857194
#
# Stress axis : x y z
#
# Youngs Moduli (GPa) = 66.76208 48.73113 76.24902
#
# Poissons Ratio (x) = 0.17794 0.36004
# Poissons Ratio (y) = 0.24379 0.50688
# Poissons Ratio (z) = 0.31524 0.32395
#
# Static dielectric constant tensor:
#      x y z
#    x 3.637560 0.000000 -0.158900 
#    y 0.000000 3.362300 0.000000 
#    z -0.158900 0.000000 3.511910 
# 
# 
# High freq. dielectric constant tensor:
#      x y z
#    x 1.758690 0.000000 -0.010360 
#    y 0.000000 1.730380 0.000000 
#    z -0.010360 0.000000 1.739340 
# 
# From -- ./inp_files/66598.got.cif
#   From: 2010.06.25/outbox.cif.g09.slc.cpg/sg10_34_cif.got.tgz:66598.got - 2010.06.27 22:07:45.
