data_PCOD8061411
_publ_section_title
;
Structure prediction by ZEFSAII (Michael W. Deem and Ramdas Pophale) SiO2 
 PCOD8061411
Probable space group: P 2/M
;
_chemical_formula_sum "Si O2"
_cell_formula_units_Z 24
_cell_length_a 11.810595
_cell_length_b 8.603949
_cell_length_c 12.725509
_cell_angle_alpha 90.000000
_cell_angle_beta 89.650449
_cell_angle_gamma 90.000000
_cell_volume 1293.113617
_symmetry_space_group_name_H-M "P 2/M"
_symmetry_group_IT_number 10
_symmetry_cell_setting 'monoclinic'
loop_
_space_group_symop_operation_xyz
x,y,z
-x,y,-z
-x,-y,-z
x,-y,z
loop_
_atom_site_type_symbol
_atom_site_label
_atom_site_fract_x
_atom_site_fract_y
_atom_site_fract_z
Si Si1 0.259443 0.180101 0.185177
Si Si2 0.886327 0.819090 0.615301
Si Si3 0.509189 0.316836 0.877887
Si Si4 0.732924 0.684238 0.196958
Si Si5 0.874476 0.316663 0.002985
Si Si6 0.872828 0.316508 0.393890
O O1 0.211293 0.219455 0.300610
O O2 0.390403 0.226695 0.180389
O O3 0.189832 0.280419 0.103245
O O4 0.244882 0.000000 0.157896
O O5 0.839889 0.767529 0.502183
O O6 0.000438 0.726247 0.643733
O O7 0.916995 0.000000 0.612946
O O8 0.530975 0.500000 0.868683
O O9 0.396502 0.262600 0.817158
O O10 0.500000 0.268370 0.000000
O O11 0.739964 0.500000 0.190020
O O12 0.783151 0.742584 0.307355
O O13 0.807321 0.756403 0.101953
O O14 0.881930 0.500000 0.016104
O O15 0.000000 0.243240 0.000000
O O16 0.865749 0.500000 0.410462
#
# Coordination Sequence:
#
# PCOD8061411 Si02
#       6
#     4   4   4   4   4   4
#     4  11  23  36  52  78 111 144 182 223 262 318
#     4  10  21  37  54  76 112 148 177 214 269 323
#     4  10  19  36  59  77 104 145 182 221 271 320
#     4   9  18  33  53  82 109 133 173 224 273 317
#     4  10  19  33  55  80 108 140 174 218 272 326
#     4  10  19  34  59  85 107 134 179 227 266 317
#
# _framework density 18.559854000000001
#
# number of rings (size 3 to 8) (size 9 to 14) (size 15 to 20)
#    0.000    2.000    1.667    3.500    0.000    4.667 
#    0.000    4.167    0.000    5.000    0.000    0.000 
#    0.000    0.000    0.000    0.000    0.000    0.000 
#
# Total GULP energy -297634.162339 kJ/mol
# GULP energy per Si atom -12401.423431 kJ/mol
# Density = 1.851761 g / cm^3
# Si number density = 18.559854 Si / 1000 Ang^3
#
#
#
# Elastic Constant Matrix: (Units=GPa)
#
#
# Indices 1 2 3 4 5 6 
#
# 1 142.5245 6.5944 74.7168 0.0000 5.7271 0.0000
# 2 6.5944 16.5389 11.9417 0.0000 0.4181 0.0000
# 3 74.7168 11.9417 125.8859 0.0000 6.7543 0.0000
# 4 0.0000 0.0000 0.0000 18.3593 0.0000 -11.1266
# 5 5.7271 0.4181 6.7543 0.0000 36.1316 0.0000
# 6 0.0000 0.0000 0.0000 -11.1266 0.0000 15.8139
#
#
#
# Elastic Compliance Matrix: (Units=1/GPa)
#
#
# Indices 1 2 3 4 5 6 
#
# 1 0.010196 0.000319 -0.006056 0.000000 -0.000488 0.000000
# 2 0.000319 0.064925 -0.006369 0.000000 0.000389 0.000000
# 3 -0.006056 -0.006369 0.012209 0.000000 -0.001249 0.000000
# 4 0.000000 0.000000 0.000000 0.094960 0.000000 0.066813
# 5 -0.000488 0.000389 -0.001249 0.000000 0.027983 0.000000
# 6 0.000000 0.000000 0.000000 0.066813 0.000000 0.110245
#
#
# Mechanical properties :
#
#
# Convention : Reuss Voigt Hill
#
# Bulk Modulus (GPa) = 15.84307 52.38392 34.11349
# Shear Modulus (GPa) = 13.66985 26.84072 20.25529
#
# Velocity S-wave (km/s) = 2.71685 3.80698 3.30714
# Velocity P-wave (km/s) = 4.28911 6.89998 5.74483
#
# Compressibility (1/GPa) = 0.06311908
#
# Stress axis : x y z
#
# Youngs Moduli (GPa) = 98.08031 15.40231 81.90632
#
# Poissons Ratio (x) = -0.00492 0.49599
# Poissons Ratio (y) = -0.03133 0.52169
# Poissons Ratio (z) = 0.59393 0.09810
#
# Static dielectric constant tensor:
#      x y z
#    x 3.604500 0.000000 -0.018840 
#    y 0.000000 3.233520 0.000000 
#    z -0.018840 0.000000 3.532610 
# 
# 
# High freq. dielectric constant tensor:
#      x y z
#    x 1.722810 0.000000 -0.000300 
#    y 0.000000 1.704170 0.000000 
#    z -0.000300 0.000000 1.722250 
# 
# From -- ./inp_files/45169.got.cif
#   From: 2010.06.25/outbox.cif.g09.slc.cpg/sg10_23_cif.got.tgz:45169.got - 2010.06.27 22:07:45.
