data_PCOD8061385
_publ_section_title
;
Structure prediction by ZEFSAII (Michael W. Deem and Ramdas Pophale) SiO2 
 PCOD8061385
Probable space group: P 2/M
;
_chemical_formula_sum "Si O2"
_cell_formula_units_Z 32
_cell_length_a 22.572493
_cell_length_b 8.653280
_cell_length_c 13.836800
_cell_angle_alpha 90.000000
_cell_angle_beta 140.013613
_cell_angle_gamma 90.000000
_cell_volume 1736.762541
_symmetry_space_group_name_H-M "P 2/M"
_symmetry_group_IT_number 10
_symmetry_cell_setting 'monoclinic'
loop_
_space_group_symop_operation_xyz
x,y,z
-x,y,-z
-x,-y,-z
x,-y,z
loop_
_atom_site_type_symbol
_atom_site_label
_atom_site_fract_x
_atom_site_fract_y
_atom_site_fract_z
Si Si1 0.977629 0.815972 0.361930
Si Si2 0.299476 0.178689 0.532548
Si Si3 0.733697 0.329196 0.198288
Si Si4 0.603272 0.833468 0.156115
Si Si5 0.415151 0.683032 0.509883
Si Si6 0.223494 0.177109 0.934949
Si Si7 0.857051 0.678289 0.535181
Si Si8 0.391886 0.815399 0.270916
O O1 0.879019 0.748660 0.200292
O O2 0.000000 0.754665 0.500000
O O3 0.045014 0.758990 0.360669
O O4 0.977273 0.000000 0.364688
O O5 0.380652 0.205562 0.711651
O O6 0.334239 0.273314 0.483400
O O7 0.202211 0.241303 0.453825
O O8 0.286195 0.000000 0.487363
O O9 0.738662 0.500000 0.158701
O O10 0.638399 0.307426 0.135489
O O11 0.734995 0.198322 0.119371
O O12 0.812426 0.300829 0.374671
O O13 0.653908 0.000000 0.199536
O O14 0.500000 0.855644 0.000000
O O15 0.419301 0.500000 0.502242
O O16 0.387156 0.762855 0.375027
O O17 0.517054 0.744451 0.667631
O O18 0.212762 0.000000 0.948251
O O19 0.297469 0.249002 0.102853
O O20 0.869445 0.500000 0.579487
O O21 0.398706 0.000000 0.271261
#
# Coordination Sequence:
#
# PCOD8061385 Si02
#       8
#     4   4   4   4   4   4   4   4
#     4  10  19  33  55  79 108 147 187 224 266 317
#     4  10  20  35  56  78 104 142 184 222 266 320
#     4  10  20  31  46  71 106 142 177 217 263 313
#     4   9  19  33  48  69  99 138 180 218 255 309
#     4  11  22  38  59  83 111 140 177 225 280 329
#     4  10  21  35  54  79 107 143 183 225 267 315
#     4  10  20  34  51  77 111 145 182 223 266 315
#     4  10  21  38  59  82 109 141 184 227 269 324
#
# _framework density 18.425087000000001
#
# number of rings (size 3 to 8) (size 9 to 14) (size 15 to 20)
#    0.000    2.000    1.250    3.375    1.750    3.500 
#    0.000    0.000    0.000    0.750    0.000    5.250 
#    0.000    0.000    0.000    0.000    0.000    0.000 
#
# Total GULP energy -396475.726702 kJ/mol
# GULP energy per Si atom -12389.866459 kJ/mol
# Density = 1.838315 g / cm^3
# Si number density = 18.425087 Si / 1000 Ang^3
#
#
#
# Elastic Constant Matrix: (Units=GPa)
#
#
# Indices 1 2 3 4 5 6 
#
# 1 100.2767 21.4452 45.0095 0.0000 -0.0184 0.0000
# 2 21.4452 40.1821 16.4205 0.0000 6.3898 0.0000
# 3 45.0095 16.4205 85.7887 0.0000 19.4946 0.0000
# 4 0.0000 0.0000 0.0000 13.4790 0.0000 -1.3819
# 5 -0.0184 6.3898 19.4946 0.0000 19.6825 0.0000
# 6 0.0000 0.0000 0.0000 -1.3819 0.0000 29.7504
#
#
#
# Elastic Compliance Matrix: (Units=1/GPa)
#
#
# Indices 1 2 3 4 5 6 
#
# 1 0.015640 -0.006250 -0.009644 0.000000 0.011596 0.000000
# 2 -0.006250 0.029838 -0.000296 0.000000 -0.009399 0.000000
# 3 -0.009644 -0.000296 0.021619 0.000000 -0.021326 0.000000
# 4 0.000000 0.000000 0.000000 0.074544 0.000000 0.003463
# 5 0.011596 -0.009399 -0.021326 0.000000 0.074991 0.000000
# 6 0.000000 0.000000 0.000000 0.003463 0.000000 0.033774
#
#
# Mechanical properties :
#
#
# Convention : Reuss Voigt Hill
#
# Bulk Modulus (GPa) = 28.80510 43.55532 36.18021
# Shear Modulus (GPa) = 16.98605 22.14056 19.56331
#
# Velocity S-wave (km/s) = 3.03957 3.47025 3.26202
# Velocity P-wave (km/s) = 5.29020 6.30454 5.81952
#
# Compressibility (1/GPa) = 0.03471607
#
# Stress axis : x y z
#
# Youngs Moduli (GPa) = 63.93838 33.51440 46.25497
#
# Poissons Ratio (x) = 0.20946 0.44610
# Poissons Ratio (y) = 0.39961 0.01371
# Poissons Ratio (z) = 0.61665 0.00993
#
# Static dielectric constant tensor:
#      x y z
#    x 3.075980 0.000000 0.065370 
#    y 0.000000 3.724690 0.000000 
#    z 0.065370 0.000000 3.387020 
# 
# 
# High freq. dielectric constant tensor:
#      x y z
#    x 1.712330 0.000000 0.009950 
#    y 0.000000 1.716860 0.000000 
#    z 0.009950 0.000000 1.691940 
# 
# From -- ./inp_files/55389.got.cif
#   From: 2010.06.25/outbox.cif.g09.slc.cpg/sg10_28_cif.got.tgz:55389.got - 2010.06.27 22:07:45.
