data_PCOD8061089
_publ_section_title
;
Structure prediction by ZEFSAII (Michael W. Deem and Ramdas Pophale) SiO2 
 PCOD8061089
Probable space group: P 2/M
;
_chemical_formula_sum "Si O2"
_cell_formula_units_Z 28
_cell_length_a 32.489588
_cell_length_b 8.528110
_cell_length_c 31.642030
_cell_angle_alpha 90.000000
_cell_angle_beta 9.201552
_cell_angle_gamma 90.000000
_cell_volume 1401.946136
_symmetry_space_group_name_H-M "P 2/M"
_symmetry_group_IT_number 10
_symmetry_cell_setting 'monoclinic'
loop_
_space_group_symop_operation_xyz
x,y,z
-x,y,-z
-x,-y,-z
x,-y,z
loop_
_atom_site_type_symbol
_atom_site_label
_atom_site_fract_x
_atom_site_fract_y
_atom_site_fract_z
Si Si1 0.381570 0.816106 0.855276
Si Si2 0.237868 0.687081 0.286394
Si Si3 0.096027 0.314147 0.711927
Si Si4 0.523948 0.686953 0.428149
Si Si5 0.809804 0.314380 0.570729
Si Si6 0.048015 0.313234 0.855958
Si Si7 0.664947 0.313601 0.004978
O O1 0.641821 0.744437 0.573771
O O2 0.356982 0.775064 0.929004
O O3 0.384903 0.000000 0.845275
O O4 0.142582 0.744434 0.073009
O O5 0.237492 0.500000 0.287506
O O6 0.214020 0.755376 0.357958
O O7 0.000000 0.750976 0.500000
O O8 0.500000 0.750976 0.000000
O O9 0.096380 0.500000 0.710872
O O10 0.072004 0.249965 0.783988
O O11 0.500000 0.751808 0.500000
O O12 0.523905 0.500000 0.428265
O O13 0.286184 0.752232 0.641792
O O14 0.785839 0.752228 0.142137
O O15 0.808310 0.500000 0.575057
O O16 0.570423 0.256567 0.785513
O O17 0.073904 0.256609 0.282063
O O18 0.047812 0.500000 0.856581
O O19 0.661059 0.500000 0.016625
#
# Coordination Sequence:
#
# PCOD8061089 Si02
#       7
#     4   4   4   4   4   4   4
#     4  12  25  40  58  84 115 144 185 239 291 337
#     4   9  15  23  37  61  97 134 163 201 259 314
#     4  11  22  39  61  83 112 151 192 230 277 338
#     4   9  15  24  40  67 106 143 170 208 268 323
#     4   9  17  28  45  70  99 134 175 215 257 316
#     4   9  17  28  45  71 102 139 180 218 260 320
#     4  10  19  33  52  73 101 138 179 219 266 324
#
# _framework density 19.972237
#
# number of rings (size 3 to 8) (size 9 to 14) (size 15 to 20)
#    0.000    2.143    0.000    4.714    0.000    8.571 
#    0.000    0.000    0.000    0.000    0.000    0.000 
#    0.000   51.429    0.000    0.000    0.000    0.000 
#
# Total GULP energy -347250.449671 kJ/mol
# GULP energy per Si atom -12401.801774 kJ/mol
# Density = 1.992678 g / cm^3
# Si number density = 19.972237 Si / 1000 Ang^3
#
#
#
# Elastic Constant Matrix: (Units=GPa)
#
#
# Indices 1 2 3 4 5 6 
#
# 1 210.2557 22.5209 115.6055 0.0000 -0.6334 0.0000
# 2 22.5209 38.9030 21.1237 0.0000 0.2512 0.0000
# 3 115.6055 21.1237 225.0029 0.0000 -2.1291 0.0000
# 4 0.0000 0.0000 0.0000 8.0126 0.0000 -2.3332
# 5 -0.6334 0.2512 -2.1291 0.0000 49.1973 0.0000
# 6 0.0000 0.0000 0.0000 -2.3332 0.0000 -5.0153
#
#
#
# Elastic Compliance Matrix: (Units=1/GPa)
#
#
# Indices 1 2 3 4 5 6 
#
# 1 0.006795 -0.002147 -0.003290 0.000000 -0.000044 0.000000
# 2 -0.002147 0.027767 -0.001506 0.000000 -0.000235 0.000000
# 3 -0.003290 -0.001506 0.006278 0.000000 0.000237 0.000000
# 4 0.000000 0.000000 0.000000 0.109914 0.000000 -0.051134
# 5 -0.000044 -0.000235 0.000237 0.000000 0.020337 0.000000
# 6 0.000000 0.000000 0.000000 -0.051134 0.000000 -0.175603
#
#
# Mechanical properties :
#
#
# Convention : Reuss Voigt Hill
#
# Bulk Modulus (GPa) = 37.09948 88.07353 62.58651
# Shear Modulus (GPa) = 272.33614 31.43302 151.88458
#
# Velocity S-wave (km/s) = 11.68988 3.97146 8.73000
# Velocity P-wave (km/s) = 14.17111 8.07612 11.53352
#
# Compressibility (1/GPa) = 0.02695456
#
# Stress axis : x y z
#
# Youngs Moduli (GPa) = 147.16871 36.01395 159.27525
#
# Poissons Ratio (x) = 0.07732 0.52403
# Poissons Ratio (y) = 0.31595 0.23987
# Poissons Ratio (z) = 0.48420 0.05424
#
# Static dielectric constant tensor:
#      x y z
#    x 3.948860 0.000000 -0.009860 
#    y 0.000000 2.987560 0.000000 
#    z -0.009860 0.000000 4.004310 
# 
# 
# High freq. dielectric constant tensor:
#      x y z
#    x 1.802030 0.000000 -0.000080 
#    y 0.000000 1.714860 0.000000 
#    z -0.000080 0.000000 1.802470 
# 
# From -- ./inp_files/95989.got.cif
#   From: 2010.06.25/outbox.cif.g09.slc.cpg/sg10_48_cif.got.tgz:95989.got - 2010.06.27 22:07:45.
