data_PCOD8061017
_publ_section_title
;
Structure prediction by ZEFSAII (Michael W. Deem and Ramdas Pophale) SiO2 
 PCOD8061017
Probable space group: P 2/M
;
_chemical_formula_sum "Si O2"
_cell_formula_units_Z 32
_cell_length_a 16.144903
_cell_length_b 8.715592
_cell_length_c 24.721031
_cell_angle_alpha 90.000000
_cell_angle_beta 152.983247
_cell_angle_gamma 90.000000
_cell_volume 1580.137241
_symmetry_space_group_name_H-M "P 2/M"
_symmetry_group_IT_number 10
_symmetry_cell_setting 'monoclinic'
loop_
_space_group_symop_operation_xyz
x,y,z
-x,y,-z
-x,-y,-z
x,-y,z
loop_
_atom_site_type_symbol
_atom_site_label
_atom_site_fract_x
_atom_site_fract_y
_atom_site_fract_z
Si Si1 0.583352 0.679639 0.676033
Si Si2 0.722870 0.818203 0.981836
Si Si3 0.468171 0.820665 0.238038
Si Si4 0.443226 0.182837 0.908494
Si Si5 0.156596 0.677975 0.549787
Si Si6 0.252612 0.174797 0.421305
Si Si7 0.966887 0.825038 0.342813
Si Si8 0.129209 0.182079 0.233665
O O1 0.608919 0.500000 0.686438
O O2 0.577742 0.725908 0.735281
O O3 0.399044 0.724747 0.538086
O O4 0.758431 0.759575 0.751971
O O5 0.669043 0.771425 0.889512
O O6 0.579097 0.750140 0.941780
O O7 0.719862 0.000000 0.985908
O O8 0.923735 0.751653 0.110754
O O9 0.669985 0.780890 0.334553
O O10 0.455436 0.000000 0.244192
O O11 0.238234 0.239380 0.777234
O O12 0.447700 0.000000 0.912113
O O13 0.500000 0.248441 0.000000
O O14 0.209949 0.500000 0.584558
O O15 0.000000 0.725204 0.500000
O O16 0.088960 0.715173 0.450500
O O17 0.226782 0.238549 0.345549
O O18 0.054204 0.182665 0.333900
O O19 0.325604 0.000000 0.463111
O O20 0.973063 0.000000 0.368267
O O21 0.121231 0.000000 0.227922
#
# Coordination Sequence:
#
# PCOD8061017 Si02
#       8
#     4   4   4   4   4   4   4   4
#     4  12  25  40  59  85 118 155 197 247 303 354
#     4   9  19  35  57  86 118 154 195 243 293 344
#     4  11  22  39  62  86 116 153 199 247 293 348
#     4   9  16  29  53  88 124 152 187 237 289 341
#     4  11  23  37  54  81 117 156 194 236 288 343
#     4  10  20  36  60  90 120 152 193 243 295 354
#     4  10  19  32  56  87 116 151 193 236 285 342
#     4  10  21  39  62  87 117 153 196 244 298 356
#
# _framework density 20.251405999999999
#
# number of rings (size 3 to 8) (size 9 to 14) (size 15 to 20)
#    0.000    1.750    1.250    3.750    0.000    7.500 
#    0.000    3.750    0.000    1.125    0.000    0.000 
#    0.000    0.000    0.000    0.000    0.000    0.000 
#
# Total GULP energy -396889.902196 kJ/mol
# GULP energy per Si atom -12402.809444 kJ/mol
# Density = 2.020531 g / cm^3
# Si number density = 20.251406 Si / 1000 Ang^3
#
#
#
# Elastic Constant Matrix: (Units=GPa)
#
#
# Indices 1 2 3 4 5 6 
#
# 1 114.3410 10.9862 46.9132 0.0000 2.6982 0.0000
# 2 10.9862 15.0876 18.8332 0.0000 -5.1949 0.0000
# 3 46.9132 18.8332 119.8844 0.0000 0.4459 0.0000
# 4 0.0000 0.0000 0.0000 0.1437 0.0000 3.7951
# 5 2.6982 -5.1949 0.4459 0.0000 40.1244 0.0000
# 6 0.0000 0.0000 0.0000 3.7951 0.0000 15.2688
#
#
#
# Elastic Compliance Matrix: (Units=1/GPa)
#
#
# Indices 1 2 3 4 5 6 
#
# 1 0.010586 -0.003654 -0.003564 0.000000 -0.001145 0.000000
# 2 -0.003654 0.088688 -0.012547 0.000000 0.011868 0.000000
# 3 -0.003564 -0.012547 0.011713 0.000000 -0.001515 0.000000
# 4 0.000000 0.000000 0.000000 -1.250727 0.000000 0.310869
# 5 -0.001145 0.011868 -0.001515 0.000000 0.026553 0.000000
# 6 0.000000 0.000000 0.000000 0.310869 0.000000 -0.011774
#
#
# Mechanical properties :
#
#
# Convention : Reuss Voigt Hill
#
# Bulk Modulus (GPa) = 13.99435 44.75314 29.37374
# Shear Modulus (GPa) = -4.70982 22.61273 8.95145
#
# Velocity S-wave (km/s) = -1.52667 3.34518 2.10470
# Velocity P-wave (km/s) = 1.95389 6.08827 4.52133
#
# Compressibility (1/GPa) = 0.07145742
#
# Stress axis : x y z
#
# Youngs Moduli (GPa) = 94.46173 11.27550 85.37622
#
# Poissons Ratio (x) = 0.04120 0.30432
# Poissons Ratio (y) = 0.34513 1.07120
# Poissons Ratio (z) = 0.33670 0.14147
#
# Static dielectric constant tensor:
#      x y z
#    x 3.880990 0.000000 0.062780 
#    y 0.000000 3.279370 0.000000 
#    z 0.062780 0.000000 3.800630 
# 
# 
# High freq. dielectric constant tensor:
#      x y z
#    x 1.807010 0.000000 0.002830 
#    y 0.000000 1.752580 0.000000 
#    z 0.002830 0.000000 1.797090 
# 
# From -- ./inp_files/89618.got.cif
#   From: 2010.06.25/outbox.cif.g09.slc.cpg/sg10_45_cif.got.tgz:89618.got - 2010.06.27 22:07:45.
