data_PCOD8061463
_publ_section_title
;
Structure prediction by ZEFSAII (Michael W. Deem and Ramdas Pophale) SiO2 
 PCOD8061463
Probable space group: P 2/M
;
_chemical_formula_sum "Si O2"
_cell_formula_units_Z 32
_cell_length_a 28.625566
_cell_length_b 8.747930
_cell_length_c 12.136843
_cell_angle_alpha 90.000000
_cell_angle_beta 145.392492
_cell_angle_gamma 90.000000
_cell_volume 1726.141705
_symmetry_space_group_name_H-M "P 2/M"
_symmetry_group_IT_number 10
_symmetry_cell_setting 'monoclinic'
loop_
_space_group_symop_operation_xyz
x,y,z
-x,y,-z
-x,-y,-z
x,-y,z
loop_
_atom_site_type_symbol
_atom_site_label
_atom_site_fract_x
_atom_site_fract_y
_atom_site_fract_z
Si Si1 0.032213 0.822337 0.184674
Si Si2 0.743299 0.177956 0.557622
Si Si3 0.284254 0.180140 0.926273
Si Si4 0.242166 0.323484 0.065296
Si Si5 0.791743 0.320023 0.436615
Si Si6 0.534128 0.178307 0.680372
Si Si7 0.122684 0.678630 0.026692
Si Si8 0.629664 0.175719 0.530974
O O1 0.115544 0.731744 0.364279
O O2 0.048169 0.000000 0.237591
O O3 0.000000 0.789981 0.000000
O O4 0.965683 0.759761 0.142787
O O5 0.732584 0.251911 0.416898
O O6 0.820797 0.251384 0.768603
O O7 0.659702 0.208115 0.464691
O O8 0.762384 0.000000 0.580897
O O9 0.236028 0.220383 0.944699
O O10 0.377531 0.247156 0.114887
O O11 0.281986 0.000000 0.901101
O O12 0.238968 0.263297 0.739940
O O13 0.247345 0.500000 0.041256
O O14 0.161715 0.289928 0.982698
O O15 0.323271 0.282435 0.291875
O O16 0.786505 0.500000 0.431286
O O17 0.500000 0.250835 0.500000
O O18 0.467815 0.209830 0.648837
O O19 0.548624 0.000000 0.688479
O O20 0.113210 0.500000 0.032269
O O21 0.648505 0.000000 0.600415
#
# Coordination Sequence:
#
# PCOD8061463 Si02
#       8
#     4   4   4   4   4   4   4   4
#     4  11  22  37  60  88 114 142 187 238 277 326
#     4  10  19  33  55  83 113 146 189 234 278 330
#     4  11  22  38  60  82 113 152 192 234 280 334
#     4  10  20  34  53  83 119 150 185 226 279 337
#     4  12  25  40  58  80 115 153 187 228 284 344
#     4   9  16  31  57  87 112 142 189 238 280 326
#     4  10  20  34  56  85 116 149 183 228 281 331
#     4   9  17  32  56  84 112 145 188 237 281 324
#
# _framework density 18.538454999999999
#
# number of rings (size 3 to 8) (size 9 to 14) (size 15 to 20)
#    0.000    1.750    2.500    3.000    0.000    2.500 
#    0.000    3.125    0.000    7.500    0.000    0.000 
#    0.000    0.000    0.000    0.000    0.000    0.000 
#
# Total GULP energy -396846.824389 kJ/mol
# GULP energy per Si atom -12401.463262 kJ/mol
# Density = 1.849626 g / cm^3
# Si number density = 18.538455 Si / 1000 Ang^3
#
#
#
# Elastic Constant Matrix: (Units=GPa)
#
#
# Indices 1 2 3 4 5 6 
#
# 1 135.7603 66.2212 55.8672 0.0000 0.9421 0.0000
# 2 66.2212 153.3573 74.6355 0.0000 -4.4685 0.0000
# 3 55.8672 74.6355 91.2998 0.0000 -6.6867 0.0000
# 4 0.0000 0.0000 0.0000 14.1249 0.0000 -6.2113
# 5 0.9421 -4.4685 -6.6867 0.0000 25.3698 0.0000
# 6 0.0000 0.0000 0.0000 -6.2113 0.0000 29.3094
#
#
#
# Elastic Compliance Matrix: (Units=1/GPa)
#
#
# Indices 1 2 3 4 5 6 
#
# 1 0.010409 -0.002295 -0.004641 0.000000 -0.002014 0.000000
# 2 -0.002295 0.011340 -0.007865 0.000000 0.000010 0.000000
# 3 -0.004641 -0.007865 0.020530 0.000000 0.004198 0.000000
# 4 0.000000 0.000000 0.000000 0.078073 0.000000 0.016545
# 5 -0.002014 0.000010 0.004198 0.000000 0.040600 0.000000
# 6 0.000000 0.000000 0.000000 0.016545 0.000000 0.037625
#
#
# Mechanical properties :
#
#
# Convention : Reuss Voigt Hill
#
# Bulk Modulus (GPa) = 78.88363 85.98502 82.43432
# Shear Modulus (GPa) = 21.51435 26.00704 23.76070
#
# Velocity S-wave (km/s) = 3.41034 3.74955 3.58396
# Velocity P-wave (km/s) = 7.62568 8.07640 7.85427
#
# Compressibility (1/GPa) = 0.01267690
#
# Stress axis : x y z
#
# Youngs Moduli (GPa) = 96.07009 88.18650 48.70995
#
# Poissons Ratio (x) = 0.20237 0.22606
# Poissons Ratio (y) = 0.22046 0.38310
# Poissons Ratio (z) = 0.44586 0.69359
#
# Static dielectric constant tensor:
#      x y z
#    x 3.723080 0.000000 0.117120 
#    y 0.000000 3.406720 0.000000 
#    z 0.117120 0.000000 3.224120 
# 
# 
# High freq. dielectric constant tensor:
#      x y z
#    x 1.736670 0.000000 0.009360 
#    y 0.000000 1.719510 0.000000 
#    z 0.009360 0.000000 1.688220 
# 
# From -- ./inp_files/58373.got.cif
#   From: 2010.06.25/outbox.cif.g09.slc.cpg/sg10_30_cif.got.tgz:58373.got - 2010.06.27 22:07:45.
