data_PCOD8061506
_publ_section_title
;
Structure prediction by ZEFSAII (Michael W. Deem and Ramdas Pophale) SiO2 
 PCOD8061506
Probable space group: P 2/M
;
_chemical_formula_sum "Si O2"
_cell_formula_units_Z 24
_cell_length_a 14.819253
_cell_length_b 9.188894
_cell_length_c 16.420063
_cell_angle_alpha 90.000000
_cell_angle_beta 143.266491
_cell_angle_gamma 90.000000
_cell_volume 1337.315221
_symmetry_space_group_name_H-M "P 2/M"
_symmetry_group_IT_number 10
_symmetry_cell_setting 'monoclinic'
loop_
_space_group_symop_operation_xyz
x,y,z
-x,y,-z
-x,-y,-z
x,-y,z
loop_
_atom_site_type_symbol
_atom_site_label
_atom_site_fract_x
_atom_site_fract_y
_atom_site_fract_z
Si Si1 0.659046 0.169396 0.075972
Si Si2 0.906515 0.333606 0.666893
Si Si3 0.172829 0.828991 0.112282
Si Si4 0.964659 0.829573 0.384659
Si Si5 0.211824 0.329825 0.977340
Si Si6 0.323550 0.334145 0.365079
O O1 0.793003 0.210178 0.235827
O O2 0.672255 0.263471 0.003904
O O3 0.667255 0.000000 0.058466
O O4 0.500000 0.211196 0.000000
O O5 0.916999 0.500000 0.646545
O O6 0.751176 0.298851 0.601332
O O7 0.916513 0.238481 0.592703
O O8 0.041812 0.295153 0.826476
O O9 0.264973 0.779613 0.257282
O O10 0.192395 0.000000 0.113365
O O11 0.241301 0.746591 0.084439
O O12 0.000000 0.784239 0.000000
O O13 0.000000 0.766802 0.500000
O O14 0.993512 0.000000 0.403661
O O15 0.243912 0.500000 0.009688
O O16 0.500000 0.312068 0.500000
O O17 0.281876 0.500000 0.309386
#
# Coordination Sequence:
#
# PCOD8061506 Si02
#       6
#     4   4   4   4   4   4
#     4   9  18  34  54  75 106 139 170 216 270 317
#     4   9  18  33  54  78 103 137 176 217 262 311
#     4  11  22  35  56  83 109 140 183 226 267 321
#     4   9  18  33  53  75  99 134 175 213 257 312
#     4  10  19  33  56  81 106 139 181 223 265 316
#     4  10  21  38  57  78 111 147 179 219 272 323
#
# _framework density 17.946404000000001
#
# number of rings (size 3 to 8) (size 9 to 14) (size 15 to 20)
#    0.000    2.333    1.667    1.000    0.000    3.000 
#    3.000    0.000    0.000    0.000    0.000    0.000 
#    0.000    0.000    0.000    0.000    0.000    0.000 
#
# Total GULP energy -297672.602808 kJ/mol
# GULP energy per Si atom -12403.025117 kJ/mol
# Density = 1.790556 g / cm^3
# Si number density = 17.946404 Si / 1000 Ang^3
#
#
#
# Elastic Constant Matrix: (Units=GPa)
#
#
# Indices 1 2 3 4 5 6 
#
# 1 151.7059 59.4101 63.4412 0.0000 -3.1431 0.0000
# 2 59.4101 69.0775 38.4874 0.0000 -9.1548 0.0000
# 3 63.4412 38.4874 74.2811 0.0000 -12.0828 0.0000
# 4 0.0000 0.0000 0.0000 21.1333 0.0000 -9.6031
# 5 -3.1431 -9.1548 -12.0828 0.0000 32.7243 0.0000
# 6 0.0000 0.0000 0.0000 -9.6031 0.0000 28.2140
#
#
#
# Elastic Compliance Matrix: (Units=1/GPa)
#
#
# Indices 1 2 3 4 5 6 
#
# 1 0.012393 -0.006902 -0.007584 0.000000 -0.003541 0.000000
# 2 -0.006902 0.024309 -0.006066 0.000000 0.003898 0.000000
# 3 -0.007584 -0.006066 0.024138 0.000000 0.006487 0.000000
# 4 0.000000 0.000000 0.000000 0.055976 0.000000 0.019052
# 5 -0.003541 0.003898 0.006487 0.000000 0.033704 0.000000
# 6 0.000000 0.000000 0.000000 0.019052 0.000000 0.041928
#
#
# Mechanical properties :
#
#
# Convention : Reuss Voigt Hill
#
# Bulk Modulus (GPa) = 50.67183 68.63800 59.65491
# Shear Modulus (GPa) = 20.82184 25.32937 23.07560
#
# Velocity S-wave (km/s) = 3.40990 3.76092 3.58970
# Velocity P-wave (km/s) = 6.61813 7.56231 7.10592
#
# Compressibility (1/GPa) = 0.01973483
#
# Stress axis : x y z
#
# Youngs Moduli (GPa) = 80.69131 41.13657 41.42816
#
# Poissons Ratio (x) = 0.28393 0.31420
# Poissons Ratio (y) = 0.55695 0.25132
# Poissons Ratio (z) = 0.61197 0.24955
#
# Static dielectric constant tensor:
#      x y z
#    x 3.241730 0.000000 -0.201360 
#    y 0.000000 3.301040 0.000000 
#    z -0.201360 0.000000 2.999580 
# 
# 
# High freq. dielectric constant tensor:
#      x y z
#    x 1.702560 0.000000 -0.006880 
#    y 0.000000 1.695730 0.000000 
#    z -0.006880 0.000000 1.675920 
# 
# From -- ./inp_files/54599.got.cif
#   From: 2010.06.25/outbox.cif.g09.slc.cpg/sg10_28_cif.got.tgz:54599.got - 2010.06.27 22:07:45.
