data_PCOD8061189
_publ_section_title
;
Structure prediction by ZEFSAII (Michael W. Deem and Ramdas Pophale) SiO2 
 PCOD8061189
Probable space group: P 2/M
;
_chemical_formula_sum "Si O2"
_cell_formula_units_Z 28
_cell_length_a 8.709487
_cell_length_b 19.141052
_cell_length_c 15.223929
_cell_angle_alpha 90.000000
_cell_angle_beta 145.297690
_cell_angle_gamma 90.000000
_cell_volume 1444.893964
_symmetry_space_group_name_H-M "P 2/M"
_symmetry_group_IT_number 10
_symmetry_cell_setting 'monoclinic'
loop_
_space_group_symop_operation_xyz
x,y,z
-x,y,-z
-x,-y,-z
x,-y,z
loop_
_atom_site_type_symbol
_atom_site_label
_atom_site_fract_x
_atom_site_fract_y
_atom_site_fract_z
Si Si1 0.277597 0.578989 0.326565
Si Si2 0.689920 0.578866 0.854028
Si Si3 0.268416 0.842433 0.323529
Si Si4 0.938304 0.708729 0.199563
Si Si5 0.728653 0.082179 0.038868
Si Si6 0.533020 0.294167 0.154426
Si Si7 0.307430 0.174999 0.145737
O O1 0.500000 0.603319 0.500000
O O2 0.175560 0.500000 0.296890
O O3 0.413796 0.583628 0.294713
O O4 0.024520 0.630162 0.216327
O O5 0.667146 0.500000 0.880350
O O6 0.507632 0.627543 0.829354
O O7 0.000000 0.603926 0.000000
O O8 0.500000 0.866279 0.500000
O O9 0.382179 0.851917 0.278136
O O10 0.185395 0.762218 0.304589
O O11 0.008718 0.891660 0.212313
O O12 0.824599 0.709838 0.245570
O O13 0.700009 0.730198 0.022068
O O14 0.741753 0.000000 0.031909
O O15 0.500000 0.105088 0.000000
O O16 0.662877 0.113921 0.912232
O O17 0.513739 0.238515 0.224216
O O18 0.000000 0.203597 0.000000
#
# Coordination Sequence:
#
# PCOD8061189 Si02
#       7
#     4   4   4   4   4   4   4
#     4  10  21  37  54  73 104 145 183 225 283 344
#     4  10  19  33  53  77 104 138 187 237 280 334
#     4  11  23  38  59  88 119 151 191 236 279 328
#     4  11  21  34  55  81 113 143 183 236 284 337
#     4  10  21  40  65  90 118 152 189 227 274 334
#     4  11  20  33  56  82 109 142 185 238 285 330
#     4  10  19  35  60  83 112 153 191 230 270 331
#
# _framework density 19.378585000000001
#
# number of rings (size 3 to 8) (size 9 to 14) (size 15 to 20)
#    0.000    1.571    4.286    2.571    0.000    3.429 
#    0.000    6.429    0.000    4.286    0.000    0.000 
#    0.000    0.000    0.000    0.000    0.000    0.000 
#
# Total GULP energy -347255.380546 kJ/mol
# GULP energy per Si atom -12401.977877 kJ/mol
# Density = 1.933448 g / cm^3
# Si number density = 19.378585 Si / 1000 Ang^3
#
#
#
# Elastic Constant Matrix: (Units=GPa)
#
#
# Indices 1 2 3 4 5 6 
#
# 1 133.5972 56.6166 39.8867 0.0000 -11.6026 0.0000
# 2 56.6166 93.7731 20.6157 0.0000 0.7190 0.0000
# 3 39.8867 20.6157 92.9680 0.0000 -18.5632 0.0000
# 4 0.0000 0.0000 0.0000 12.9931 0.0000 -4.8514
# 5 -11.6026 0.7190 -18.5632 0.0000 21.8091 0.0000
# 6 0.0000 0.0000 0.0000 -4.8514 0.0000 32.3803
#
#
#
# Elastic Compliance Matrix: (Units=1/GPa)
#
#
# Indices 1 2 3 4 5 6 
#
# 1 0.011271 -0.006249 -0.002664 0.000000 0.003934 0.000000
# 2 -0.006249 0.014840 -0.001652 0.000000 -0.005220 0.000000
# 3 -0.002664 -0.001652 0.014449 0.000000 0.010936 0.000000
# 4 0.000000 0.000000 0.000000 0.081524 0.000000 0.012214
# 5 0.003934 -0.005220 0.010936 0.000000 0.057426 0.000000
# 6 0.000000 0.000000 0.000000 0.012214 0.000000 0.032713
#
#
# Mechanical properties :
#
#
# Convention : Reuss Voigt Hill
#
# Bulk Modulus (GPa) = 51.46800 61.61957 56.54378
# Shear Modulus (GPa) = 20.84802 26.98445 23.91624
#
# Velocity S-wave (km/s) = 3.28354 3.73565 3.51687
# Velocity P-wave (km/s) = 6.40253 7.10448 6.76262
#
# Compressibility (1/GPa) = 0.01942955
#
# Stress axis : x y z
#
# Youngs Moduli (GPa) = 88.72621 67.38411 69.20736
#
# Poissons Ratio (x) = 0.42110 0.18438
# Poissons Ratio (y) = 0.55447 0.11433
# Poissons Ratio (z) = 0.23638 0.11132
#
# Static dielectric constant tensor:
#      x y z
#    x 3.715680 0.000000 -0.227220 
#    y 0.000000 3.453170 0.000000 
#    z -0.227220 0.000000 3.319690 
# 
# 
# High freq. dielectric constant tensor:
#      x y z
#    x 1.757330 0.000000 -0.019010 
#    y 0.000000 1.756810 0.000000 
#    z -0.019010 0.000000 1.724720 
# 
# From -- ./inp_files/62358.got.cif
#   From: 2010.06.25/outbox.cif.g09.slc.cpg/sg10_32_cif.got.tgz:62358.got - 2010.06.27 22:07:45.
