data_PCOD8061374
_publ_section_title
;
Structure prediction by ZEFSAII (Michael W. Deem and Ramdas Pophale) SiO2 
 PCOD8061374
Probable space group: P 2/M
;
_chemical_formula_sum "Si O2"
_cell_formula_units_Z 28
_cell_length_a 8.959387
_cell_length_b 13.419097
_cell_length_c 17.425133
_cell_angle_alpha 90.000000
_cell_angle_beta 47.638790
_cell_angle_gamma 90.000000
_cell_volume 1547.997387
_symmetry_space_group_name_H-M "P 2/M"
_symmetry_group_IT_number 10
_symmetry_cell_setting 'monoclinic'
loop_
_space_group_symop_operation_xyz
x,y,z
-x,y,-z
-x,-y,-z
x,-y,z
loop_
_atom_site_type_symbol
_atom_site_label
_atom_site_fract_x
_atom_site_fract_y
_atom_site_fract_z
Si Si1 0.913743 0.384022 0.215752
Si Si2 0.231697 0.389150 0.895753
Si Si3 0.702216 0.284349 0.978664
Si Si4 0.190540 0.115015 0.486345
Si Si5 0.626692 0.885875 0.303563
Si Si6 0.009779 0.115826 0.085131
Si Si7 0.285078 0.752845 0.592449
O O1 0.893855 0.500000 0.242144
O O2 0.764388 0.355547 0.195633
O O3 0.855442 0.323465 0.312558
O O4 0.146167 0.362881 0.113379
O O5 0.325070 0.500000 0.870625
O O6 0.348702 0.317205 0.915330
O O7 0.000000 0.390284 0.000000
O O8 0.805621 0.175445 0.940861
O O9 0.500000 0.278639 0.000000
O O10 0.391544 0.134141 0.364238
O O11 0.173173 0.200011 0.557671
O O12 0.000000 0.133483 0.500000
O O13 0.194707 0.000000 0.516251
O O14 0.659330 0.849824 0.378103
O O15 0.796392 0.838314 0.189231
O O16 0.680222 0.000000 0.281763
O O17 0.047979 0.000000 0.089186
O O18 0.000000 0.140515 0.000000
O O19 0.500000 0.698532 0.500000
#
# Coordination Sequence:
#
# PCOD8061374 Si02
#       7
#     4   4   4   4   4   4   4
#     4  10  20  36  56  79 106 138 182 226 268 320
#     4   8  16  32  55  76  98 132 177 224 262 308
#     4  11  21  34  54  81 110 143 178 225 273 315
#     4   9  18  34  56  84 110 136 177 224 265 311
#     4   9  17  32  55  78 103 139 179 217 257 309
#     4  10  20  35  54  77 109 147 182 214 258 323
#     4  10  19  33  55  79 104 139 176 219 268 317
#
# _framework density 18.087886000000001
#
# number of rings (size 3 to 8) (size 9 to 14) (size 15 to 20)
#    0.000    2.429    1.429    3.000    0.000    3.429 
#    2.571    0.000    0.000    0.429    0.000    0.000 
#    0.000    0.000    0.000    0.000    0.000    0.000 
#
# Total GULP energy -346887.771765 kJ/mol
# GULP energy per Si atom -12388.848992 kJ/mol
# Density = 1.804672 g / cm^3
# Si number density = 18.087886 Si / 1000 Ang^3
#
#
#
# Elastic Constant Matrix: (Units=GPa)
#
#
# Indices 1 2 3 4 5 6 
#
# 1 123.4356 60.9733 55.1257 0.0000 -12.4985 0.0000
# 2 60.9733 82.8116 38.6408 0.0000 1.8218 0.0000
# 3 55.1257 38.6408 93.2490 0.0000 3.4794 0.0000
# 4 0.0000 0.0000 0.0000 23.6836 0.0000 -4.9308
# 5 -12.4985 1.8218 3.4794 0.0000 21.9463 0.0000
# 6 0.0000 0.0000 0.0000 -4.9308 0.0000 -36.5173
#
#
#
# Elastic Compliance Matrix: (Units=1/GPa)
#
#
# Indices 1 2 3 4 5 6 
#
# 1 0.016927 -0.009727 -0.006403 0.000000 0.011462 0.000000
# 2 -0.009727 0.020562 -0.002514 0.000000 -0.006848 0.000000
# 3 -0.006403 -0.002514 0.015773 0.000000 -0.005939 0.000000
# 4 0.000000 0.000000 0.000000 0.041069 0.000000 -0.005545
# 5 0.011462 -0.006848 -0.005939 0.000000 0.053604 0.000000
# 6 0.000000 0.000000 0.000000 -0.005545 0.000000 -0.026635
#
#
# Mechanical properties :
#
#
# Convention : Reuss Voigt Hill
#
# Bulk Modulus (GPa) = 62.61301 67.66397 65.13849
# Shear Modulus (GPa) = 30.50418 11.47295 20.98857
#
# Velocity S-wave (km/s) = 4.11109 2.52124 3.41011
# Velocity P-wave (km/s) = 7.56478 6.77976 7.18300
#
# Compressibility (1/GPa) = 0.01597112
#
# Stress axis : x y z
#
# Youngs Moduli (GPa) = 59.07836 48.63451 63.39950
#
# Poissons Ratio (x) = 0.47308 0.40597
# Poissons Ratio (y) = 0.57467 0.15942
# Poissons Ratio (z) = 0.37830 0.12229
#
# Static dielectric constant tensor:
#      x y z
#    x 3.155130 0.000000 0.101540 
#    y 0.000000 3.362060 0.000000 
#    z 0.101540 0.000000 3.587860 
# 
# 
# High freq. dielectric constant tensor:
#      x y z
#    x 1.674100 0.000000 0.008920 
#    y 0.000000 1.705060 0.000000 
#    z 0.008920 0.000000 1.692120 
# 
# From -- ./inp_files/29422.got.cif
#   From: 2010.06.25/outbox.cif.g09.slc.cpg/sg10_15_cif.got.tgz:29422.got - 2010.06.27 22:07:45.
