data_PCOD8061794
_publ_section_title
;
Structure prediction by ZEFSAII (Michael W. Deem and Ramdas Pophale) SiO2 
 PCOD8061794
Probable space group: P 2/M
;
_chemical_formula_sum "Si O2"
_cell_formula_units_Z 28
_cell_length_a 30.007919
_cell_length_b 8.898745
_cell_length_c 10.156360
_cell_angle_alpha 90.000000
_cell_angle_beta 33.513899
_cell_angle_gamma 90.000000
_cell_volume 1497.446630
_symmetry_space_group_name_H-M "P 2/M"
_symmetry_group_IT_number 10
_symmetry_cell_setting 'monoclinic'
loop_
_space_group_symop_operation_xyz
x,y,z
-x,y,-z
-x,-y,-z
x,-y,z
loop_
_atom_site_type_symbol
_atom_site_label
_atom_site_fract_x
_atom_site_fract_y
_atom_site_fract_z
Si Si1 0.173878 0.321867 0.203068
Si Si2 0.001845 0.665949 0.339080
Si Si3 0.412675 0.672448 0.456126
Si Si4 0.330664 0.176201 0.901255
Si Si5 0.693932 0.674568 0.530365
Si Si6 0.598289 0.673091 0.024936
Si Si7 0.838912 0.823849 0.047673
O O1 0.181442 0.500000 0.171572
O O2 0.087727 0.277432 0.481997
O O3 0.243841 0.257406 0.123162
O O4 0.183732 0.256235 0.032714
O O5 0.019599 0.500000 0.236859
O O6 0.000000 0.656388 0.500000
O O7 0.071847 0.778653 0.119726
O O8 0.395292 0.500000 0.539248
O O9 0.378316 0.779181 0.653143
O O10 0.370820 0.714181 0.422208
O O11 0.507091 0.701824 0.204154
O O12 0.316155 0.000000 0.937127
O O13 0.383147 0.222655 0.897087
O O14 0.717591 0.500000 0.467013
O O15 0.656210 0.719132 0.762826
O O16 0.774363 0.773271 0.315445
O O17 0.611078 0.500000 0.034183
O O18 0.836005 0.000000 0.032341
#
# Coordination Sequence:
#
# PCOD8061794 Si02
#       7
#     4   4   4   4   4   4   4
#     4  10  19  34  55  78 106 143 186 229 268 315
#     4   8  16  30  50  76 106 140 179 223 269 315
#     4  10  20  37  61  83 106 140 187 237 275 320
#     4  12  24  36  54  82 115 149 181 223 281 334
#     4  10  20  36  59  82 109 145 187 232 272 320
#     4  10  22  39  58  81 107 145 192 231 273 323
#     4  11  20  30  50  82 116 145 175 217 274 330
#
# _framework density 18.698495999999999
#
# number of rings (size 3 to 8) (size 9 to 14) (size 15 to 20)
#    0.000    1.857    1.429    4.714    0.000    7.714 
#    0.000    0.000    0.000    3.429    0.000    6.000 
#    0.000    0.000    0.000    0.000    0.000    0.000 
#
# Total GULP energy -347247.547577 kJ/mol
# GULP energy per Si atom -12401.698128 kJ/mol
# Density = 1.865594 g / cm^3
# Si number density = 18.698496 Si / 1000 Ang^3
#
#
#
# Elastic Constant Matrix: (Units=GPa)
#
#
# Indices 1 2 3 4 5 6 
#
# 1 34.0401 21.8827 28.0440 0.0000 -3.1872 0.0000
# 2 21.8827 97.6645 43.1959 0.0000 -6.8737 0.0000
# 3 28.0440 43.1959 76.8344 0.0000 -25.1192 0.0000
# 4 0.0000 0.0000 0.0000 8.1663 0.0000 -7.4146
# 5 -3.1872 -6.8737 -25.1192 0.0000 29.7623 0.0000
# 6 0.0000 0.0000 0.0000 -7.4146 0.0000 10.9906
#
#
#
# Elastic Compliance Matrix: (Units=1/GPa)
#
#
# Indices 1 2 3 4 5 6 
#
# 1 0.045648 -0.002641 -0.019028 0.000000 -0.011781 0.000000
# 2 -0.002641 0.014249 -0.008374 0.000000 -0.004059 0.000000
# 3 -0.019028 -0.008374 0.032274 0.000000 0.023268 0.000000
# 4 0.000000 0.000000 0.000000 0.316036 0.000000 0.213209
# 5 -0.011781 -0.004059 0.023268 0.000000 0.051038 0.000000
# 6 0.000000 0.000000 0.000000 0.213209 0.000000 0.234825
#
#
# Mechanical properties :
#
#
# Convention : Reuss Voigt Hill
#
# Bulk Modulus (GPa) = 31.16633 43.86489 37.51561
# Shear Modulus (GPa) = 6.53722 17.47827 12.00774
#
# Velocity S-wave (km/s) = 1.87182 3.06067 2.53687
# Velocity P-wave (km/s) = 4.62338 6.00002 5.35611
#
# Compressibility (1/GPa) = 0.03208591
#
# Stress axis : x y z
#
# Youngs Moduli (GPa) = 21.90680 70.18121 30.98422
#
# Poissons Ratio (x) = 0.18537 0.58956
# Poissons Ratio (y) = 0.05786 0.25945
# Poissons Ratio (z) = 0.41684 0.58768
#
# Static dielectric constant tensor:
#      x y z
#    x 3.419430 0.000000 -0.392410 
#    y 0.000000 3.351150 0.000000 
#    z -0.392410 0.000000 3.578000 
# 
# 
# High freq. dielectric constant tensor:
#      x y z
#    x 1.707370 0.000000 -0.028700 
#    y 0.000000 1.719380 0.000000 
#    z -0.028700 0.000000 1.727100 
# 
# From -- ./inp_files/37069.got.cif
#   From: 2010.06.25/outbox.cif.g09.slc.cpg/sg10_19_cif.got.tgz:37069.got - 2010.06.27 22:07:45.
