data_PCOD8061333
_publ_section_title
;
Structure prediction by ZEFSAII (Michael W. Deem and Ramdas Pophale) SiO2 
 PCOD8061333
Probable space group: P 2/M
;
_chemical_formula_sum "Si O2"
_cell_formula_units_Z 24
_cell_length_a 12.182399
_cell_length_b 9.669357
_cell_length_c 24.821534
_cell_angle_alpha 90.000000
_cell_angle_beta 25.205125
_cell_angle_gamma 90.000000
_cell_volume 1245.162726
_symmetry_space_group_name_H-M "P 2/M"
_symmetry_group_IT_number 10
_symmetry_cell_setting 'monoclinic'
loop_
_space_group_symop_operation_xyz
x,y,z
-x,y,-z
-x,-y,-z
x,-y,z
loop_
_atom_site_type_symbol
_atom_site_label
_atom_site_fract_x
_atom_site_fract_y
_atom_site_fract_z
Si Si1 0.102800 0.652202 0.510691
Si Si2 0.229939 0.839577 0.648786
Si Si3 0.724572 0.839113 0.139642
Si Si4 0.408641 0.650910 0.203098
Si Si5 0.712973 0.336882 0.861351
Si Si6 0.555857 0.156903 0.331934
O O1 0.220015 0.500000 0.445268
O O2 0.309635 0.747806 0.447281
O O3 0.000000 0.717598 0.500000
O O4 0.889946 0.637954 0.650613
O O5 0.500000 0.793061 0.500000
O O6 0.256463 0.820006 0.701181
O O7 0.982208 0.747390 0.743536
O O8 0.174290 0.000000 0.658488
O O9 0.518322 0.762127 0.195191
O O10 0.702964 0.802740 0.212022
O O11 0.688346 0.000000 0.143906
O O12 0.000000 0.783496 0.000000
O O13 0.541739 0.500000 0.151847
O O14 0.428038 0.697165 0.132488
O O15 0.778073 0.500000 0.837959
O O16 0.500000 0.290052 0.000000
O O17 0.455922 0.000000 0.374275
#
# Coordination Sequence:
#
# PCOD8061333 Si02
#       6
#     4   4   4   4   4   4
#     4  10  19  33  54  82 112 142 180 223 273 333
#     4  10  22  40  61  87 118 152 195 241 285 341
#     4  10  22  37  54  80 112 146 185 227 275 332
#     4  10  21  38  58  81 112 145 182 230 279 332
#     4  10  23  41  60  86 117 151 195 242 287 341
#     4  10  21  36  56  83 114 145 182 230 278 330
#
# _framework density 19.274587
#
# number of rings (size 3 to 8) (size 9 to 14) (size 15 to 20)
#    0.000    2.000    1.667    1.000    2.333    3.333 
#    0.000    0.000    0.000    0.000    0.000    0.000 
#    0.000    0.000    0.000    0.000    0.000    0.000 
#
# Total GULP energy -297520.610281 kJ/mol
# GULP energy per Si atom -12396.692095 kJ/mol
# Density = 1.923072 g / cm^3
# Si number density = 19.274587 Si / 1000 Ang^3
#
#
#
# Elastic Constant Matrix: (Units=GPa)
#
#
# Indices 1 2 3 4 5 6 
#
# 1 92.3808 37.9330 36.3147 0.0000 17.8803 0.0000
# 2 37.9330 64.2680 39.8820 0.0000 -7.4721 0.0000
# 3 36.3147 39.8820 105.9195 0.0000 9.4384 0.0000
# 4 0.0000 0.0000 0.0000 27.4713 0.0000 -3.8762
# 5 17.8803 -7.4721 9.4384 0.0000 35.7993 0.0000
# 6 0.0000 0.0000 0.0000 -3.8762 0.0000 28.3092
#
#
#
# Elastic Compliance Matrix: (Units=1/GPa)
#
#
# Indices 1 2 3 4 5 6 
#
# 1 0.017993 -0.011352 -0.000904 0.000000 -0.011118 0.000000
# 2 -0.011352 0.029008 -0.008270 0.000000 0.013905 0.000000
# 3 -0.000904 -0.008270 0.013291 0.000000 -0.004779 0.000000
# 4 0.000000 0.000000 0.000000 0.037119 0.000000 0.005082
# 5 -0.011118 0.013905 -0.004779 0.000000 0.037649 0.000000
# 6 0.000000 0.000000 0.000000 0.005082 0.000000 0.036020
#
#
# Mechanical properties :
#
#
# Convention : Reuss Voigt Hill
#
# Bulk Modulus (GPa) = 51.97111 54.53642 53.25377
# Shear Modulus (GPa) = 22.87865 28.21187 25.54526
#
# Velocity S-wave (km/s) = 3.44900 3.82996 3.64446
# Velocity P-wave (km/s) = 6.54850 6.92200 6.73784
#
# Compressibility (1/GPa) = 0.01924146
#
# Stress axis : x y z
#
# Youngs Moduli (GPa) = 55.57654 34.47272 75.24077
#
# Poissons Ratio (x) = 0.39133 0.06802
# Poissons Ratio (y) = 0.63089 0.62221
# Poissons Ratio (z) = 0.05024 0.28508
#
# Static dielectric constant tensor:
#      x y z
#    x 3.485610 0.000000 0.255870 
#    y 0.000000 3.537210 0.000000 
#    z 0.255870 0.000000 3.614480 
# 
# 
# High freq. dielectric constant tensor:
#      x y z
#    x 1.753090 0.000000 0.019700 
#    y 0.000000 1.746270 0.000000 
#    z 0.019700 0.000000 1.751000 
# 
# From -- ./inp_files/56539.got.cif
#   From: 2010.06.25/outbox.cif.g09.slc.cpg/sg10_29_cif.got.tgz:56539.got - 2010.06.27 22:07:45.
