data_PCOD8061159
_publ_section_title
;
Structure prediction by ZEFSAII (Michael W. Deem and Ramdas Pophale) SiO2 
 PCOD8061159
Probable space group: P 2/M
;
_chemical_formula_sum "Si O2"
_cell_formula_units_Z 32
_cell_length_a 9.740321
_cell_length_b 17.402473
_cell_length_c 13.991879
_cell_angle_alpha 90.000000
_cell_angle_beta 134.402451
_cell_angle_gamma 90.000000
_cell_volume 1694.445917
_symmetry_space_group_name_H-M "P 2/M"
_symmetry_group_IT_number 10
_symmetry_cell_setting 'monoclinic'
loop_
_space_group_symop_operation_xyz
x,y,z
-x,y,-z
-x,-y,-z
x,-y,z
loop_
_atom_site_type_symbol
_atom_site_label
_atom_site_fract_x
_atom_site_fract_y
_atom_site_fract_z
Si Si1 0.913161 0.591166 0.752411
Si Si2 0.507478 0.811468 0.390623
Si Si3 0.515259 0.912533 0.110108
Si Si4 0.546706 0.641414 0.696837
Si Si5 0.221336 0.909345 0.598067
Si Si6 0.790990 0.152495 0.913293
Si Si7 0.169607 0.676426 0.013188
Si Si8 0.134101 0.412939 0.483432
O O1 0.945965 0.500000 0.777741
O O2 0.710432 0.611795 0.704072
O O3 0.900498 0.622624 0.638133
O O4 0.103692 0.636239 0.882829
O O5 0.500000 0.825041 0.500000
O O6 0.536334 0.722549 0.380122
O O7 0.689611 0.861667 0.445793
O O8 0.313590 0.837920 0.240476
O O9 0.683230 0.877215 0.257552
O O10 0.317742 0.906859 0.071892
O O11 0.569470 0.000000 0.116670
O O12 0.500000 0.869499 0.000000
O O13 0.631850 0.644686 0.846057
O O14 0.361825 0.587442 0.616294
O O15 0.000000 0.890473 0.500000
O O16 0.262072 0.000000 0.601897
O O17 0.813274 0.231651 0.983808
O O18 0.000000 0.116275 0.000000
O O19 0.000000 0.651169 0.000000
O O20 0.064610 0.500000 0.443714
O O21 0.000000 0.372137 0.500000
#
# Coordination Sequence:
#
# PCOD8061159 Si02
#       8
#     4   4   4   4   4   4   4   4
#     4  10  19  33  55  78  98 128 170 209 248 297
#     4  10  20  33  51  77 105 131 165 208 251 298
#     4   9  18  33  52  74 100 130 168 211 248 291
#     4  10  19  33  53  75 100 131 166 205 250 300
#     4   9  19  36  54  73 101 136 173 211 250 294
#     4   9  18  33  50  71 102 134 161 199 252 299
#     4   8  17  32  50  74 100 125 161 209 250 290
#     4  10  21  35  49  70 102 134 164 203 249 296
#
# _framework density 18.88523
#
# number of rings (size 3 to 8) (size 9 to 14) (size 15 to 20)
#    0.000    2.625    0.000    2.250    0.000    5.750 
#    0.000    4.375    0.000    2.250    0.000    0.000 
#    0.000    0.000    0.000    0.000    0.000    0.000 
#
# Total GULP energy -396517.987571 kJ/mol
# GULP energy per Si atom -12391.187112 kJ/mol
# Density = 1.884225 g / cm^3
# Si number density = 18.885230 Si / 1000 Ang^3
#
#
#
# Elastic Constant Matrix: (Units=GPa)
#
#
# Indices 1 2 3 4 5 6 
#
# 1 107.4572 23.1364 76.4309 0.0000 -0.1643 0.0000
# 2 23.1364 42.0479 27.3724 0.0000 0.0226 0.0000
# 3 76.4309 27.3724 131.8537 0.0000 -3.0940 0.0000
# 4 0.0000 0.0000 0.0000 4.0351 0.0000 -4.7668
# 5 -0.1643 0.0226 -3.0940 0.0000 25.5607 0.0000
# 6 0.0000 0.0000 0.0000 -4.7668 0.0000 9.9670
#
#
#
# Elastic Compliance Matrix: (Units=1/GPa)
#
#
# Indices 1 2 3 4 5 6 
#
# 1 0.016231 -0.003227 -0.008761 0.000000 -0.000953 0.000000
# 2 -0.003227 0.028153 -0.003986 0.000000 -0.000528 0.000000
# 3 -0.008761 -0.003986 0.013527 0.000000 0.001585 0.000000
# 4 0.000000 0.000000 0.000000 0.569686 0.000000 0.272458
# 5 -0.000953 -0.000528 0.001585 0.000000 0.039309 0.000000
# 6 0.000000 0.000000 0.000000 0.272458 0.000000 0.230637
#
#
# Mechanical properties :
#
#
# Convention : Reuss Voigt Hill
#
# Bulk Modulus (GPa) = 38.51655 59.47091 48.99373
# Shear Modulus (GPa) = 5.32966 18.20716 11.76841
#
# Velocity S-wave (km/s) = 1.68174 3.10836 2.49901
# Velocity P-wave (km/s) = 4.92040 6.66645 5.85884
#
# Compressibility (1/GPa) = 0.02596286
#
# Stress axis : x y z
#
# Youngs Moduli (GPa) = 61.61176 35.51967 73.92518
#
# Poissons Ratio (x) = 0.11463 0.64764
# Poissons Ratio (y) = 0.19883 0.29469
# Poissons Ratio (z) = 0.53977 0.14159
#
# Static dielectric constant tensor:
#      x y z
#    x 3.413770 0.000000 -0.062760 
#    y 0.000000 3.276170 0.000000 
#    z -0.062760 0.000000 3.833590 
# 
# 
# High freq. dielectric constant tensor:
#      x y z
#    x 1.713470 0.000000 0.003550 
#    y 0.000000 1.716710 0.000000 
#    z 0.003550 0.000000 1.748770 
# 
# From -- ./inp_files/43618.got.cif
#   From: 2010.06.25/outbox.cif.g09.slc.cpg/sg10_22_cif.got.tgz:43618.got - 2010.06.27 22:07:45.
