data_PCOD8061857
_publ_section_title
;
Structure prediction by ZEFSAII (Michael W. Deem and Ramdas Pophale) SiO2 
 PCOD8061857
Probable space group: P 2/M
;
_chemical_formula_sum "Si O2"
_cell_formula_units_Z 32
_cell_length_a 27.106723
_cell_length_b 8.707058
_cell_length_c 21.426845
_cell_angle_alpha 90.000000
_cell_angle_beta 18.318619
_cell_angle_gamma 90.000000
_cell_volume 1589.470240
_symmetry_space_group_name_H-M "P 2/M"
_symmetry_group_IT_number 10
_symmetry_cell_setting 'monoclinic'
loop_
_space_group_symop_operation_xyz
x,y,z
-x,y,-z
-x,-y,-z
x,-y,z
loop_
_atom_site_type_symbol
_atom_site_label
_atom_site_fract_x
_atom_site_fract_y
_atom_site_fract_z
Si Si1 0.597053 0.679605 0.746752
Si Si2 0.216674 0.818913 0.368512
Si Si3 0.272869 0.819261 0.162773
Si Si4 0.656306 0.183048 0.277815
Si Si5 0.711425 0.181871 0.486316
Si Si6 0.392962 0.817203 0.802695
Si Si7 0.867398 0.179641 0.792077
Si Si8 0.024730 0.817464 0.040216
O O1 0.569932 0.500000 0.773776
O O2 0.668427 0.720282 0.727758
O O3 0.706400 0.738660 0.559655
O O4 0.433845 0.766573 0.938584
O O5 0.236704 0.751593 0.274459
O O6 0.042881 0.784632 0.603368
O O7 0.256950 0.000000 0.324310
O O8 0.145397 0.764128 0.264630
O O9 0.272665 0.000000 0.171116
O O10 0.500000 0.243361 0.500000
O O11 0.645379 0.246210 0.220240
O O12 0.660764 0.000000 0.273282
O O13 0.813928 0.246790 0.122607
O O14 0.565417 0.236123 0.618457
O O15 0.874295 0.236926 0.260374
O O16 0.707676 0.000000 0.500395
O O17 0.386088 0.000000 0.809761
O O18 0.260292 0.745192 0.007992
O O19 0.832525 0.000000 0.834244
O O20 0.033492 0.000000 0.027553
O O21 0.000000 0.752421 0.000000
#
# Coordination Sequence:
#
# PCOD8061857 Si02
#       8
#     4   4   4   4   4   4   4   4
#     4  12  25  38  53  77 112 150 188 226 274 328
#     4  10  21  35  58  84 108 138 179 230 282 335
#     4  10  19  37  60  83 106 137 181 230 281 334
#     4   9  16  25  40  70 112 146 171 207 264 324
#     4  10  19  34  56  78 107 143 184 229 273 320
#     4   9  16  27  47  74 103 137 173 218 267 316
#     4   9  17  31  54  83 109 133 176 228 280 331
#     4   9  17  28  47  79 114 145 176 216 267 320
#
# _framework density 20.132494000000001
#
# number of rings (size 3 to 8) (size 9 to 14) (size 15 to 20)
#    0.000    2.250    1.250    2.625    1.750    6.500 
#    0.000    0.625    0.000    1.875    0.000    0.000 
#    0.000    2.000    0.000    0.000    0.000    0.000 
#
# Total GULP energy -396683.568357 kJ/mol
# GULP energy per Si atom -12396.361511 kJ/mol
# Density = 2.008667 g / cm^3
# Si number density = 20.132494 Si / 1000 Ang^3
#
#
#
# Elastic Constant Matrix: (Units=GPa)
#
#
# Indices 1 2 3 4 5 6 
#
# 1 136.3684 -23.0717 17.9183 0.0000 7.9872 0.0000
# 2 -23.0717 67.5301 18.3590 0.0000 5.3357 0.0000
# 3 17.9183 18.3590 105.9603 0.0000 9.1785 0.0000
# 4 0.0000 0.0000 0.0000 -2.5514 0.0000 8.0521
# 5 7.9872 5.3357 9.1785 0.0000 38.1785 0.0000
# 6 0.0000 0.0000 0.0000 8.0521 0.0000 -5.7051
#
#
#
# Elastic Compliance Matrix: (Units=1/GPa)
#
#
# Indices 1 2 3 4 5 6 
#
# 1 0.008265 0.003465 -0.001845 0.000000 -0.001770 0.000000
# 2 0.003465 0.017084 -0.003346 0.000000 -0.002308 0.000000
# 3 -0.001845 -0.003346 0.010473 0.000000 -0.001664 0.000000
# 4 0.000000 0.000000 0.000000 0.113465 0.000000 0.160143
# 5 -0.001770 -0.002308 -0.001664 0.000000 0.027286 0.000000
# 6 0.000000 0.000000 0.000000 0.160143 0.000000 0.050744
#
#
# Mechanical properties :
#
#
# Convention : Reuss Voigt Hill
#
# Bulk Modulus (GPa) = 30.89115 37.36332 34.12724
# Shear Modulus (GPa) = 20.69889 25.76129 23.23009
#
# Velocity S-wave (km/s) = 3.20993 3.58101 3.40054
# Velocity P-wave (km/s) = 5.39587 5.97471 5.69266
#
# Compressibility (1/GPa) = 0.03237173
#
# Stress axis : x y z
#
# Youngs Moduli (GPa) = 120.98596 58.53366 95.48021
#
# Poissons Ratio (x) = -0.20283 0.17614
# Poissons Ratio (y) = -0.41925 0.31949
# Poissons Ratio (z) = 0.22319 0.19586
#
# Static dielectric constant tensor:
#      x y z
#    x 3.839700 0.000000 0.098700 
#    y 0.000000 2.924900 0.000000 
#    z 0.098700 0.000000 3.836680 
# 
# 
# High freq. dielectric constant tensor:
#      x y z
#    x 1.803690 0.000000 0.001650 
#    y 0.000000 1.707060 0.000000 
#    z 0.001650 0.000000 1.800580 
# 
# From -- ./inp_files/86847.got.cif
#   From: 2010.06.25/outbox.cif.g09.slc.cpg/sg10_44_cif.got.tgz:86847.got - 2010.06.27 22:07:45.
