data_PCOD8061257
_publ_section_title
;
Structure prediction by ZEFSAII (Michael W. Deem and Ramdas Pophale) SiO2 
 PCOD8061257
Probable space group: P 2/M
;
_chemical_formula_sum "Si O2"
_cell_formula_units_Z 32
_cell_length_a 32.945838
_cell_length_b 8.984177
_cell_length_c 12.890846
_cell_angle_alpha 90.000000
_cell_angle_beta 25.675215
_cell_angle_gamma 90.000000
_cell_volume 1653.172422
_symmetry_space_group_name_H-M "P 2/M"
_symmetry_group_IT_number 10
_symmetry_cell_setting 'monoclinic'
loop_
_space_group_symop_operation_xyz
x,y,z
-x,y,-z
-x,-y,-z
x,-y,z
loop_
_atom_site_type_symbol
_atom_site_label
_atom_site_fract_x
_atom_site_fract_y
_atom_site_fract_z
Si Si1 0.574292 0.828033 0.205957
Si Si2 0.033525 0.826436 0.033532
Si Si3 0.142837 0.825575 0.439531
Si Si4 0.756238 0.170156 0.448080
Si Si5 0.596246 0.324848 0.474395
Si Si6 0.573941 0.829778 0.741771
Si Si7 0.288827 0.326442 0.246266
Si Si8 0.275886 0.169903 0.960469
O O1 0.476732 0.739497 0.443290
O O2 0.646135 0.798203 0.132415
O O3 0.547880 0.000000 0.256839
O O4 0.620342 0.767358 0.994852
O O5 0.965465 0.785338 0.287516
O O6 0.028533 0.000000 0.026599
O O7 0.138327 0.781314 0.827367
O O8 0.000000 0.752945 0.000000
O O9 0.198056 0.725952 0.393688
O O10 0.165917 0.000000 0.407241
O O11 0.175496 0.788055 0.245672
O O12 0.682593 0.183593 0.524738
O O13 0.724689 0.291673 0.603029
O O14 0.756341 0.000000 0.491639
O O15 0.594814 0.500000 0.478693
O O16 0.566258 0.267449 0.656290
O O17 0.699261 0.269350 0.197778
O O18 0.548460 0.000000 0.773345
O O19 0.500000 0.772664 0.000000
O O20 0.306965 0.500000 0.185820
O O21 0.275637 0.000000 0.923572
#
# Coordination Sequence:
#
# PCOD8061257 Si02
#       8
#     4   4   4   4   4   4   4   4
#     4  10  20  35  55  77 105 141 181 222 267 317
#     4   9  15  27  53  83 110 137 176 228 274 321
#     4   9  17  32  52  76 107 144 178 215 267 322
#     4  10  19  33  54  77 104 144 187 225 271 322
#     4  12  24  36  54  78 107 139 175 223 274 322
#     4  10  22  39  58  78 103 141 187 227 262 313
#     4  11  20  29  46  76 113 145 175 215 263 321
#     4   9  19  34  54  77 104 140 180 219 264 322
#
# _framework density 19.356722000000001
#
# number of rings (size 3 to 8) (size 9 to 14) (size 15 to 20)
#    0.000    2.000    1.250    4.500    0.000    5.750 
#    0.000    1.250    0.000    0.750    0.000    5.250 
#    0.000    0.000    0.000    0.000    0.000    0.000 
#
# Total GULP energy -396543.358980 kJ/mol
# GULP energy per Si atom -12391.979968 kJ/mol
# Density = 1.931267 g / cm^3
# Si number density = 19.356722 Si / 1000 Ang^3
#
#
#
# Elastic Constant Matrix: (Units=GPa)
#
#
# Indices 1 2 3 4 5 6 
#
# 1 33.3062 19.8266 30.4706 0.0000 1.5473 0.0000
# 2 19.8266 78.3393 34.5597 0.0000 12.3681 0.0000
# 3 30.4706 34.5597 149.3994 0.0000 10.7520 0.0000
# 4 0.0000 0.0000 0.0000 9.9455 0.0000 3.6849
# 5 1.5473 12.3681 10.7520 0.0000 33.0012 0.0000
# 6 0.0000 0.0000 0.0000 3.6849 0.0000 8.7085
#
#
#
# Elastic Compliance Matrix: (Units=1/GPa)
#
#
# Indices 1 2 3 4 5 6 
#
# 1 0.040688 -0.007843 -0.006716 0.000000 0.003220 0.000000
# 2 -0.007843 0.016367 -0.001814 0.000000 -0.005175 0.000000
# 3 -0.006716 -0.001814 0.008613 0.000000 -0.001811 0.000000
# 4 0.000000 0.000000 0.000000 0.119242 0.000000 -0.050455
# 5 0.003220 -0.005175 -0.001811 0.000000 0.032681 0.000000
# 6 0.000000 0.000000 0.000000 -0.050455 0.000000 0.136179
#
#
# Mechanical properties :
#
#
# Convention : Reuss Voigt Hill
#
# Bulk Modulus (GPa) = 30.37460 47.86207 39.11834
# Shear Modulus (GPa) = 12.57891 22.07691 17.32791
#
# Velocity S-wave (km/s) = 2.55198 3.38084 2.99522
# Velocity P-wave (km/s) = 4.94060 6.32614 5.67581
#
# Compressibility (1/GPa) = 0.03292225
#
# Stress axis : x y z
#
# Youngs Moduli (GPa) = 24.57735 61.09737 116.10087
#
# Poissons Ratio (x) = 0.47920 0.77972
# Poissons Ratio (y) = 0.19276 0.21061
# Poissons Ratio (z) = 0.16506 0.11083
#
# Static dielectric constant tensor:
#      x y z
#    x 3.205550 0.000000 -0.028410 
#    y 0.000000 3.282200 0.000000 
#    z -0.028410 0.000000 4.311550 
# 
# 
# High freq. dielectric constant tensor:
#      x y z
#    x 1.709820 0.000000 0.011060 
#    y 0.000000 1.727580 0.000000 
#    z 0.011060 0.000000 1.774150 
# 
# From -- ./inp_files/58083.got.cif
#   From: 2010.06.25/outbox.cif.g09.slc.cpg/sg10_30_cif.got.tgz:58083.got - 2010.06.27 22:07:45.
