data_PCOD8061145
_publ_section_title
;
Structure prediction by ZEFSAII (Michael W. Deem and Ramdas Pophale) SiO2 
 PCOD8061145
Probable space group: P 2/M
;
_chemical_formula_sum "Si O2"
_cell_formula_units_Z 28
_cell_length_a 16.558324
_cell_length_b 8.539938
_cell_length_c 21.341798
_cell_angle_alpha 90.000000
_cell_angle_beta 31.795190
_cell_angle_gamma 90.000000
_cell_volume 1590.074512
_symmetry_space_group_name_H-M "P 2/M"
_symmetry_group_IT_number 10
_symmetry_cell_setting 'monoclinic'
loop_
_space_group_symop_operation_xyz
x,y,z
-x,y,-z
-x,-y,-z
x,-y,z
loop_
_atom_site_type_symbol
_atom_site_label
_atom_site_fract_x
_atom_site_fract_y
_atom_site_fract_z
Si Si1 0.171865 0.317864 0.901293
Si Si2 0.302820 0.681931 0.584406
Si Si3 0.609778 0.818458 0.344512
Si Si4 0.264814 0.325392 0.171302
Si Si5 0.969991 0.314217 0.766210
Si Si6 0.515000 0.322531 0.092592
Si Si7 0.239076 0.818544 0.989168
O O1 0.190998 0.500000 0.872961
O O2 0.287654 0.220364 0.782530
O O3 0.210841 0.286916 0.947398
O O4 0.000000 0.260891 0.000000
O O5 0.308099 0.500000 0.598040
O O6 0.448799 0.726338 0.446012
O O7 0.301051 0.774932 0.650818
O O8 0.149910 0.724447 0.646556
O O9 0.570373 0.000000 0.371112
O O10 0.234570 0.500000 0.215186
O O11 0.103263 0.253622 0.252369
O O12 0.354405 0.245505 0.171380
O O13 0.370167 0.326819 0.040879
O O14 0.938187 0.500000 0.795282
O O15 0.892254 0.223666 0.874727
O O16 0.489998 0.500000 0.133943
O O17 0.589418 0.217429 0.097989
O O18 0.228193 0.000000 0.978543
#
# Coordination Sequence:
#
# PCOD8061145 Si02
#       7
#     4   4   4   4   4   4   4
#     4  11  23  38  54  70  91 122 160 197 232 277
#     4  10  19  33  53  73  95 125 161 196 230 275
#     4  11  22  35  51  71  97 125 155 194 238 280
#     4   7  11  22  42  65  88 119 158 195 229 267
#     4   9  17  30  48  70  96 127 162 197 232 273
#     4   8  13  25  43  61  88 125 160 191 226 274
#     4  11  21  30  44  69 100 129 157 192 236 284
#
# _framework density 17.609235999999999
#
# number of rings (size 3 to 8) (size 9 to 14) (size 15 to 20)
#    0.000    2.429    0.000    6.857    0.000    5.714 
#    0.000    5.714    0.000    0.000    0.000    1.000 
#    0.000    8.000    0.000    0.000    0.000    0.000 
#
# Total GULP energy -346933.158303 kJ/mol
# GULP energy per Si atom -12390.469939 kJ/mol
# Density = 1.756916 g / cm^3
# Si number density = 17.609236 Si / 1000 Ang^3
#
#
#
# Elastic Constant Matrix: (Units=GPa)
#
#
# Indices 1 2 3 4 5 6 
#
# 1 147.8657 14.3410 46.3594 0.0000 -29.0046 0.0000
# 2 14.3410 44.2561 9.2706 0.0000 -4.5547 0.0000
# 3 46.3594 9.2706 58.2676 0.0000 -12.5838 0.0000
# 4 0.0000 0.0000 0.0000 18.0854 0.0000 2.6154
# 5 -29.0046 -4.5547 -12.5838 0.0000 25.5195 0.0000
# 6 0.0000 0.0000 0.0000 2.6154 0.0000 6.9649
#
#
#
# Elastic Compliance Matrix: (Units=1/GPa)
#
#
# Indices 1 2 3 4 5 6 
#
# 1 0.010570 -0.001204 -0.006346 0.000000 0.008669 0.000000
# 2 -0.001204 0.023669 -0.002452 0.000000 0.001647 0.000000
# 3 -0.006346 -0.002452 0.023446 0.000000 0.003911 0.000000
# 4 0.000000 0.000000 0.000000 0.058468 0.000000 -0.021955
# 5 0.008669 0.001647 0.003911 0.000000 0.051261 0.000000
# 6 0.000000 0.000000 0.000000 -0.021955 0.000000 0.151822
#
#
# Mechanical properties :
#
#
# Convention : Reuss Voigt Hill
#
# Bulk Modulus (GPa) = 26.53860 43.37013 34.95437
# Shear Modulus (GPa) = 14.21263 22.14187 18.17725
#
# Velocity S-wave (km/s) = 2.84405 3.54983 3.21636
# Velocity P-wave (km/s) = 5.08807 6.44084 5.80400
#
# Compressibility (1/GPa) = 0.03768096
#
# Stress axis : x y z
#
# Youngs Moduli (GPa) = 94.61024 42.24936 42.65120
#
# Poissons Ratio (x) = 0.05085 0.27066
# Poissons Ratio (y) = 0.11387 0.10460
# Poissons Ratio (z) = 0.60038 0.10362
#
# Static dielectric constant tensor:
#      x y z
#    x 3.869030 0.000000 -0.353310 
#    y 0.000000 3.141250 0.000000 
#    z -0.353310 0.000000 2.937340 
# 
# 
# High freq. dielectric constant tensor:
#      x y z
#    x 1.699510 0.000000 -0.022700 
#    y 0.000000 1.668170 0.000000 
#    z -0.022700 0.000000 1.630150 
# 
# From -- ./inp_files/77703.got.cif
#   From: 2010.06.25/outbox.cif.g09.slc.cpg/sg10_39_cif.got.tgz:77703.got - 2010.06.27 22:07:45.
