data_PCOD8061827
_publ_section_title
;
Structure prediction by ZEFSAII (Michael W. Deem and Ramdas Pophale) SiO2 
 PCOD8061827
Probable space group: P 2/M
;
_chemical_formula_sum "Si O2"
_cell_formula_units_Z 28
_cell_length_a 11.752439
_cell_length_b 13.741627
_cell_length_c 9.468868
_cell_angle_alpha 90.000000
_cell_angle_beta 60.456926
_cell_angle_gamma 90.000000
_cell_volume 1330.381251
_symmetry_space_group_name_H-M "P 2/M"
_symmetry_group_IT_number 10
_symmetry_cell_setting 'monoclinic'
loop_
_space_group_symop_operation_xyz
x,y,z
-x,y,-z
-x,-y,-z
x,-y,z
loop_
_atom_site_type_symbol
_atom_site_label
_atom_site_fract_x
_atom_site_fract_y
_atom_site_fract_z
Si Si1 0.372450 0.609506 0.666302
Si Si2 0.927957 0.112156 0.356665
Si Si3 0.171346 0.227457 0.127679
Si Si4 0.714101 0.110163 0.715908
Si Si5 0.627475 0.389734 0.003888
Si Si6 0.221785 0.210307 0.793406
Si Si7 0.478286 0.888828 0.678333
O O1 0.500000 0.641180 0.500000
O O2 0.328554 0.500000 0.651006
O O3 0.252580 0.683810 0.704799
O O4 0.406565 0.616082 0.810227
O O5 0.853610 0.120156 0.550699
O O6 0.827660 0.132447 0.289433
O O7 0.036157 0.197865 0.288123
O O8 0.981338 0.000000 0.305574
O O9 0.279297 0.156464 0.132555
O O10 0.235520 0.333665 0.114609
O O11 0.130316 0.216010 0.988111
O O12 0.600918 0.157097 0.687972
O O13 0.675841 0.000000 0.763297
O O14 0.654038 0.500000 0.938550
O O15 0.500000 0.347921 0.000000
O O16 0.353178 0.174821 0.792480
O O17 0.500000 0.877905 0.500000
O O18 0.453506 0.000000 0.735806
#
# Coordination Sequence:
#
# PCOD8061827 Si02
#       7
#     4   4   4   4   4   4   4
#     4   9  19  35  57  87 117 144 184 237 290 342
#     4  11  23  41  59  79 115 163 201 231 280 346
#     4  11  24  36  58  86 115 148 193 236 284 343
#     4  10  22  38  58  81 113 154 196 241 288 336
#     4   9  20  39  61  85 116 150 185 233 295 351
#     4  11  22  35  58  85 115 151 191 239 289 344
#     4  10  19  34  55  82 111 146 190 240 292 341
#
# _framework density 21.046597999999999
#
# number of rings (size 3 to 8) (size 9 to 14) (size 15 to 20)
#    0.000    1.857    1.429    2.143    4.000    4.000 
#    0.000    2.143    0.000    5.143    0.000    0.000 
#    0.000    0.000    0.000    0.000    0.000    0.000 
#
# Total GULP energy -346918.297213 kJ/mol
# GULP energy per Si atom -12389.939186 kJ/mol
# Density = 2.099870 g / cm^3
# Si number density = 21.046598 Si / 1000 Ang^3
#
#
#
# Elastic Constant Matrix: (Units=GPa)
#
#
# Indices 1 2 3 4 5 6 
#
# 1 70.4141 30.0025 17.4264 0.0000 -3.5908 0.0000
# 2 30.0025 87.0942 37.1338 0.0000 -4.0298 0.0000
# 3 17.4264 37.1338 48.5356 0.0000 9.2816 0.0000
# 4 0.0000 0.0000 0.0000 28.0966 0.0000 -4.8126
# 5 -3.5908 -4.0298 9.2816 0.0000 24.7786 0.0000
# 6 0.0000 0.0000 0.0000 -4.8126 0.0000 32.6946
#
#
#
# Elastic Compliance Matrix: (Units=1/GPa)
#
#
# Indices 1 2 3 4 5 6 
#
# 1 0.017023 -0.004254 -0.003443 0.000000 0.003065 0.000000
# 2 -0.004254 0.019826 -0.015231 0.000000 0.008313 0.000000
# 3 -0.003443 -0.015231 0.036690 0.000000 -0.016719 0.000000
# 4 0.000000 0.000000 0.000000 0.036512 0.000000 0.005375
# 5 0.003065 0.008313 -0.016719 0.000000 0.048416 0.000000
# 6 0.000000 0.000000 0.000000 0.005375 0.000000 0.031377
#
#
# Mechanical properties :
#
#
# Convention : Reuss Voigt Hill
#
# Bulk Modulus (GPa) = 36.12432 41.68548 38.90490
# Shear Modulus (GPa) = 20.41423 25.21269 22.81346
#
# Velocity S-wave (km/s) = 3.11779 3.46489 3.29591
# Velocity P-wave (km/s) = 5.49200 5.98803 5.74537
#
# Compressibility (1/GPa) = 0.02768218
#
# Stress axis : x y z
#
# Youngs Moduli (GPa) = 58.74479 50.43945 27.25564
#
# Poissons Ratio (x) = 0.21458 0.09385
# Poissons Ratio (y) = 0.24991 0.41512
# Poissons Ratio (z) = 0.20227 0.76822
#
# Static dielectric constant tensor:
#      x y z
#    x 3.882470 0.000000 0.041840 
#    y 0.000000 4.012670 0.000000 
#    z 0.041840 0.000000 3.832170 
# 
# 
# High freq. dielectric constant tensor:
#      x y z
#    x 1.823810 0.000000 0.013160 
#    y 0.000000 1.815350 0.000000 
#    z 0.013160 0.000000 1.819360 
# 
# From -- ./inp_files/25220.got.cif
#   From: 2010.06.25/outbox.cif.g09.slc.cpg/sg10_13_cif.got.tgz:25220.got - 2010.06.27 22:07:45.
