data_PCOD8061054
_publ_section_title
;
Structure prediction by ZEFSAII (Michael W. Deem and Ramdas Pophale) SiO2 
 PCOD8061054
Probable space group: P 2/M
;
_chemical_formula_sum "Si O2"
_cell_formula_units_Z 32
_cell_length_a 27.859731
_cell_length_b 9.058911
_cell_length_c 14.299271
_cell_angle_alpha 90.000000
_cell_angle_beta 151.302631
_cell_angle_gamma 90.000000
_cell_volume 1732.901139
_symmetry_space_group_name_H-M "P 2/M"
_symmetry_group_IT_number 10
_symmetry_cell_setting 'monoclinic'
loop_
_space_group_symop_operation_xyz
x,y,z
-x,y,-z
-x,-y,-z
x,-y,z
loop_
_atom_site_type_symbol
_atom_site_label
_atom_site_fract_x
_atom_site_fract_y
_atom_site_fract_z
Si Si1 0.602597 0.670188 0.291916
Si Si2 0.808651 0.330713 0.959764
Si Si3 0.991217 0.326066 0.593254
Si Si4 0.515201 0.667009 0.421631
Si Si5 0.793398 0.826688 0.284476
Si Si6 0.684468 0.173867 0.602266
Si Si7 0.291994 0.336059 0.025844
Si Si8 0.375376 0.670333 0.886256
O O1 0.611052 0.500000 0.336533
O O2 0.676509 0.765059 0.483293
O O3 0.638636 0.693166 0.248100
O O4 0.487059 0.720652 0.106438
O O5 0.817554 0.500000 0.943867
O O6 0.910311 0.275880 0.182079
O O7 0.782289 0.236855 0.822403
O O8 0.718840 0.306628 0.881494
O O9 0.974737 0.500000 0.571534
O O10 0.900034 0.245757 0.490288
O O11 0.000000 0.275894 0.500000
O O12 0.500000 0.725755 0.500000
O O13 0.560159 0.500000 0.497624
O O14 0.584412 0.777940 0.484321
O O15 0.406381 0.668133 0.187676
O O16 0.707067 0.768566 0.204560
O O17 0.801567 0.000000 0.309829
O O18 0.769112 0.784768 0.135893
O O19 0.693227 0.000000 0.614067
O O20 0.246390 0.500000 0.927334
O O21 0.358573 0.500000 0.884865
#
# Coordination Sequence:
#
# PCOD8061054 Si02
#       8
#     4   4   4   4   4   4   4   4
#     4   9  19  38  63  86 109 143 190 235 271 318
#     4  10  20  37  58  76 100 142 193 234 268 314
#     4  10  20  38  61  80 102 141 195 242 276 319
#     4  10  19  33  51  70  99 143 190 227 258 305
#     4  12  24  34  52  83 119 148 173 220 287 346
#     4  12  24  34  50  79 117 151 178 219 279 342
#     4  10  19  34  54  74 101 142 191 232 264 311
#     4   9  19  38  63  87 109 141 189 237 273 317
#
# _framework density 18.466144
#
# number of rings (size 3 to 8) (size 9 to 14) (size 15 to 20)
#    0.000    1.750    2.500    3.750    0.000    6.000 
#    0.000    1.250    0.000    0.750    0.000    5.250 
#    0.000    0.000    0.000    0.000    0.000    0.000 
#
# Total GULP energy -396815.055770 kJ/mol
# GULP energy per Si atom -12400.470493 kJ/mol
# Density = 1.842411 g / cm^3
# Si number density = 18.466144 Si / 1000 Ang^3
#
#
#
# Elastic Constant Matrix: (Units=GPa)
#
#
# Indices 1 2 3 4 5 6 
#
# 1 58.9206 36.9921 31.4834 0.0000 -6.5629 0.0000
# 2 36.9921 95.0875 53.0251 0.0000 -6.6321 0.0000
# 3 31.4834 53.0251 114.9857 0.0000 -13.2089 0.0000
# 4 0.0000 0.0000 0.0000 18.3498 0.0000 -0.8507
# 5 -6.5629 -6.6321 -13.2089 0.0000 30.9307 0.0000
# 6 0.0000 0.0000 0.0000 -0.8507 0.0000 5.3812
#
#
#
# Elastic Compliance Matrix: (Units=1/GPa)
#
#
# Indices 1 2 3 4 5 6 
#
# 1 0.023316 -0.007402 -0.002718 0.000000 0.002199 0.000000
# 2 -0.007402 0.016509 -0.005637 0.000000 -0.000438 0.000000
# 3 -0.002718 -0.005637 0.012446 0.000000 0.003530 0.000000
# 4 0.000000 0.000000 0.000000 0.054899 0.000000 0.008679
# 5 0.002199 -0.000438 0.003530 0.000000 0.034211 0.000000
# 6 0.000000 0.000000 0.000000 0.008679 0.000000 0.187205
#
#
# Mechanical properties :
#
#
# Convention : Reuss Voigt Hill
#
# Bulk Modulus (GPa) = 48.17430 56.88833 52.53132
# Shear Modulus (GPa) = 13.62333 20.76521 17.19427
#
# Velocity S-wave (km/s) = 2.71909 3.35700 3.05474
# Velocity P-wave (km/s) = 6.00021 6.77492 6.39930
#
# Compressibility (1/GPa) = 0.02075796
#
# Stress axis : x y z
#
# Youngs Moduli (GPa) = 42.88834 60.57363 80.34857
#
# Poissons Ratio (x) = 0.44834 0.21840
# Poissons Ratio (y) = 0.31744 0.45290
# Poissons Ratio (z) = 0.11658 0.34143
#
# Static dielectric constant tensor:
#      x y z
#    x 3.260610 0.000000 -0.062470 
#    y 0.000000 3.151780 0.000000 
#    z -0.062470 0.000000 3.509320 
# 
# 
# High freq. dielectric constant tensor:
#      x y z
#    x 1.697960 0.000000 -0.008010 
#    y 0.000000 1.696150 0.000000 
#    z -0.008010 0.000000 1.720380 
# 
# From -- ./inp_files/72210.got.cif
#   From: 2010.06.25/outbox.cif.g09.slc.cpg/sg10_37_cif.got.tgz:72210.got - 2010.06.27 22:07:45.
