data_PCOD8061483
_publ_section_title
;
Structure prediction by ZEFSAII (Michael W. Deem and Ramdas Pophale) SiO2 
 PCOD8061483
Probable space group: P 2/M
;
_chemical_formula_sum "Si O2"
_cell_formula_units_Z 30
_cell_length_a 12.446987
_cell_length_b 17.606028
_cell_length_c 15.846764
_cell_angle_alpha 90.000000
_cell_angle_beta 26.965355
_cell_angle_gamma 90.000000
_cell_volume 1574.697737
_symmetry_space_group_name_H-M "P 2/M"
_symmetry_group_IT_number 10
_symmetry_cell_setting 'monoclinic'
loop_
_space_group_symop_operation_xyz
x,y,z
-x,y,-z
-x,-y,-z
x,-y,z
loop_
_atom_site_type_symbol
_atom_site_label
_atom_site_fract_x
_atom_site_fract_y
_atom_site_fract_z
Si Si1 0.000000 0.617480 0.000000
Si Si2 0.075023 0.815096 0.159314
Si Si3 0.601637 0.583332 0.156941
Si Si4 0.175984 0.410610 0.579646
Si Si5 0.289423 0.678606 0.083187
Si Si6 0.631453 0.912393 0.493352
Si Si7 0.212909 0.912147 0.910833
Si Si8 0.247410 0.689758 0.684836
O O1 0.154015 0.571961 0.960914
O O2 0.203075 0.665966 0.811671
O O3 0.242126 0.770536 0.109223
O O4 0.869372 0.865328 0.346139
O O5 0.962874 0.745704 0.187945
O O6 0.224197 0.866393 0.990226
O O7 0.548483 0.500000 0.155055
O O8 0.380449 0.609038 0.369322
O O9 0.637650 0.644899 0.058842
O O10 0.122876 0.500000 0.621064
O O11 0.255338 0.382867 0.616807
O O12 0.938880 0.365084 0.719292
O O13 0.500000 0.665228 0.000000
O O14 0.500000 0.885596 0.500000
O O15 0.461125 0.898853 0.691469
O O16 0.704861 0.000000 0.432302
O O17 0.168435 0.000000 0.963840
O O18 0.000000 0.882787 0.000000
O O19 0.500000 0.732149 0.500000
#
# Coordination Sequence:
#
# PCOD8061483 Si02
#       8
#     2   4   4   4   4   4   4   4
#     4  12  21  36  56  88 123 156 186 228 297 368
#     4  11  22  35  57  80 113 156 193 231 285 345
#     4  11  23  39  62  88 116 154 195 244 302 361
#     4  10  22  40  60  84 112 148 198 250 302 351
#     4  11  26  45  61  82 113 152 203 258 301 344
#     4  10  19  33  55  87 125 158 186 223 274 340
#     4  10  20  33  54  87 124 155 184 222 268 331
#     4  11  23  33  51  85 126 159 190 228 286 363
#
# _framework density 19.051276000000001
#
# number of rings (size 3 to 8) (size 9 to 14) (size 15 to 20)
#    0.000    1.333    5.333    1.400    0.933    4.533 
#    0.000    1.333    0.000    1.600    0.000    1.867 
#    0.000    0.000    0.000    0.000    0.000    0.000 
#
# Total GULP energy -371866.272354 kJ/mol
# GULP energy per Si atom -12395.542412 kJ/mol
# Density = 1.900791 g / cm^3
# Si number density = 19.051276 Si / 1000 Ang^3
#
#
#
# Elastic Constant Matrix: (Units=GPa)
#
#
# Indices 1 2 3 4 5 6 
#
# 1 79.3325 27.3334 38.8096 0.0000 -10.6330 0.0000
# 2 27.3334 89.4474 45.2357 0.0000 5.6545 0.0000
# 3 38.8096 45.2357 136.3524 0.0000 7.4254 0.0000
# 4 0.0000 0.0000 0.0000 30.3648 0.0000 -2.6908
# 5 -10.6330 5.6545 7.4254 0.0000 19.0104 0.0000
# 6 0.0000 0.0000 0.0000 -2.6908 0.0000 10.4242
#
#
#
# Elastic Compliance Matrix: (Units=1/GPa)
#
#
# Indices 1 2 3 4 5 6 
#
# 1 0.017920 -0.004036 -0.004468 0.000000 0.012968 0.000000
# 2 -0.004036 0.014442 -0.003357 0.000000 -0.005242 0.000000
# 3 -0.004468 -0.003357 0.010014 0.000000 -0.005412 0.000000
# 4 0.000000 0.000000 0.000000 0.033704 0.000000 0.008700
# 5 0.012968 -0.005242 -0.005412 0.000000 0.063529 0.000000
# 6 0.000000 0.000000 0.000000 0.008700 0.000000 0.098176
#
#
# Mechanical properties :
#
#
# Convention : Reuss Voigt Hill
#
# Bulk Modulus (GPa) = 53.60770 58.65441 56.13105
# Shear Modulus (GPa) = 18.67590 24.87679 21.77635
#
# Velocity S-wave (km/s) = 3.13437 3.61748 3.38455
# Velocity P-wave (km/s) = 6.42641 6.95001 6.69333
#
# Compressibility (1/GPa) = 0.01865404
#
# Stress axis : x y z
#
# Youngs Moduli (GPa) = 55.80490 69.24113 99.86092
#
# Poissons Ratio (x) = 0.27948 0.44613
# Poissons Ratio (y) = 0.22525 0.33523
# Poissons Ratio (z) = 0.24931 0.23244
#
# Static dielectric constant tensor:
#      x y z
#    x 3.271170 0.000000 -0.031660 
#    y 0.000000 3.621170 0.000000 
#    z -0.031660 0.000000 3.723190 
# 
# 
# High freq. dielectric constant tensor:
#      x y z
#    x 1.687500 0.000000 0.004980 
#    y 0.000000 1.745140 0.000000 
#    z 0.004980 0.000000 1.763870 
# 
# From -- ./inp_files/65325.got.cif
#   From: 2010.06.25/outbox.cif.g09.slc.cpg/sg10_33_cif.got.tgz:65325.got - 2010.06.27 22:07:45.
