data_PCOD8061965
_publ_section_title
;
Structure prediction by ZEFSAII (Michael W. Deem and Ramdas Pophale) SiO2 
 PCOD8061965
Probable space group: P 2/M
;
_chemical_formula_sum "Si O2"
_cell_formula_units_Z 28
_cell_length_a 13.945307
_cell_length_b 9.397317
_cell_length_c 18.164334
_cell_angle_alpha 90.000000
_cell_angle_beta 142.961988
_cell_angle_gamma 90.000000
_cell_volume 1433.826335
_symmetry_space_group_name_H-M "P 2/M"
_symmetry_group_IT_number 10
_symmetry_cell_setting 'monoclinic'
loop_
_space_group_symop_operation_xyz
x,y,z
-x,y,-z
-x,-y,-z
x,-y,z
loop_
_atom_site_type_symbol
_atom_site_label
_atom_site_fract_x
_atom_site_fract_y
_atom_site_fract_z
Si Si1 0.966429 0.335449 0.317568
Si Si2 0.244874 0.666743 0.682778
Si Si3 0.414156 0.330271 0.369853
Si Si4 0.692322 0.333567 0.437563
Si Si5 0.496651 0.844774 0.911111
Si Si6 0.852531 0.839681 0.115129
Si Si7 0.914283 0.168843 0.870725
O O1 0.924586 0.500000 0.280806
O O2 0.152348 0.304574 0.417358
O O3 0.915211 0.290467 0.370018
O O4 0.867428 0.250631 0.197740
O O5 0.246118 0.500000 0.671359
O O6 0.268566 0.739657 0.617284
O O7 0.393975 0.713049 0.822176
O O8 0.500000 0.289515 0.500000
O O9 0.384141 0.500000 0.349009
O O10 0.535884 0.273594 0.381582
O O11 0.249085 0.250864 0.249845
O O12 0.666379 0.500000 0.411290
O O13 0.426050 0.000000 0.844721
O O14 0.500000 0.836890 0.000000
O O15 0.669270 0.829128 0.979146
O O16 0.961272 0.783650 0.115539
O O17 0.901511 0.000000 0.165095
O O18 0.879491 0.000000 0.849994
O O19 0.000000 0.214671 0.000000
#
# Coordination Sequence:
#
# PCOD8061965 Si02
#       7
#     4   4   4   4   4   4   4
#     4  10  19  34  57  82 109 144 182 219 264 325
#     4  10  20  33  53  81 111 141 179 222 265 319
#     4  10  21  39  62  86 114 149 192 238 285 339
#     4   9  19  35  55  81 113 144 175 221 278 325
#     4  10  20  35  54  76 107 145 179 217 269 325
#     4  10  21  37  56  78 109 146 181 221 273 327
#     4  10  23  41  60  84 115 149 190 240 289 337
#
# _framework density 19.528167
#
# number of rings (size 3 to 8) (size 9 to 14) (size 15 to 20)
#    0.000    2.143    1.429    1.286    2.000    4.857 
#    0.000    1.429    0.000    1.714    0.000    0.000 
#    0.000    0.000    0.000    0.000    0.000    0.000 
#
# Total GULP energy -346931.717502 kJ/mol
# GULP energy per Si atom -12390.418482 kJ/mol
# Density = 1.948372 g / cm^3
# Si number density = 19.528167 Si / 1000 Ang^3
#
#
#
# Elastic Constant Matrix: (Units=GPa)
#
#
# Indices 1 2 3 4 5 6 
#
# 1 138.9758 33.6522 39.7488 0.0000 13.8459 0.0000
# 2 33.6522 20.1390 21.9813 0.0000 -1.1387 0.0000
# 3 39.7488 21.9813 72.5359 0.0000 6.1043 0.0000
# 4 0.0000 0.0000 0.0000 41.2257 0.0000 -3.4241
# 5 13.8459 -1.1387 6.1043 0.0000 32.5168 0.0000
# 6 0.0000 0.0000 0.0000 -3.4241 0.0000 27.1872
#
#
#
# Elastic Compliance Matrix: (Units=1/GPa)
#
#
# Indices 1 2 3 4 5 6 
#
# 1 0.013317 -0.022789 0.000156 0.000000 -0.006498 0.000000
# 2 -0.022789 0.114765 -0.023822 0.000000 0.018195 0.000000
# 3 0.000156 -0.023822 0.021333 0.000000 -0.004905 0.000000
# 4 0.000000 0.000000 0.000000 0.024513 0.000000 0.003087
# 5 -0.006498 0.018195 -0.004905 0.000000 0.035078 0.000000
# 6 0.000000 0.000000 0.000000 0.003087 0.000000 0.037171
#
#
# Mechanical properties :
#
#
# Convention : Reuss Voigt Hill
#
# Bulk Modulus (GPa) = 17.69781 46.93504 32.31642
# Shear Modulus (GPa) = 13.96953 29.27049 21.62001
#
# Velocity S-wave (km/s) = 2.67751 3.87574 3.33095
# Velocity P-wave (km/s) = 4.31754 6.64193 5.60162
#
# Compressibility (1/GPa) = 0.05650415
#
# Stress axis : x y z
#
# Youngs Moduli (GPa) = 75.09399 8.71344 46.87625
#
# Poissons Ratio (x) = 0.19857 -0.00729
# Poissons Ratio (y) = 1.71133 1.11666
# Poissons Ratio (z) = -0.01168 0.20757
#
# Static dielectric constant tensor:
#      x y z
#    x 4.043930 0.000000 -0.003260 
#    y 0.000000 3.362020 0.000000 
#    z -0.003260 0.000000 3.476040 
# 
# 
# High freq. dielectric constant tensor:
#      x y z
#    x 1.785420 0.000000 0.004140 
#    y 0.000000 1.730650 0.000000 
#    z 0.004140 0.000000 1.754930 
# 
# From -- ./inp_files/77815.got.cif
#   From: 2010.06.25/outbox.cif.g09.slc.cpg/sg10_39_cif.got.tgz:77815.got - 2010.06.27 22:07:45.
