data_PCOD8061020
_publ_section_title
;
Structure prediction by ZEFSAII (Michael W. Deem and Ramdas Pophale) SiO2 
 PCOD8061020
Probable space group: P 2/M
;
_chemical_formula_sum "Si O2"
_cell_formula_units_Z 30
_cell_length_a 11.349070
_cell_length_b 14.358816
_cell_length_c 17.091659
_cell_angle_alpha 90.000000
_cell_angle_beta 32.889029
_cell_angle_gamma 90.000000
_cell_volume 1512.425137
_symmetry_space_group_name_H-M "P 2/M"
_symmetry_group_IT_number 10
_symmetry_cell_setting 'monoclinic'
loop_
_space_group_symop_operation_xyz
x,y,z
-x,y,-z
-x,-y,-z
x,-y,z
loop_
_atom_site_type_symbol
_atom_site_label
_atom_site_fract_x
_atom_site_fract_y
_atom_site_fract_z
Si Si1 0.846312 0.334579 0.762382
Si Si2 0.717831 0.896777 0.020582
Si Si3 0.519119 0.107767 0.301545
Si Si4 0.080885 0.604381 0.109264
Si Si5 0.555818 0.394747 0.786139
Si Si6 0.820266 0.745894 0.536430
Si Si7 0.091758 0.778476 0.862140
Si Si8 0.500000 0.813583 0.000000
O O1 0.905384 0.396088 0.804552
O O2 0.703148 0.394007 0.781669
O O3 0.713409 0.245057 0.863396
O O4 0.071816 0.304807 0.597236
O O5 0.597772 0.885957 0.169325
O O6 0.542332 0.876919 0.051692
O O7 0.811163 0.000000 0.959319
O O8 0.923954 0.829773 0.898202
O O9 0.286933 0.158669 0.434665
O O10 0.681499 0.166010 0.267329
O O11 0.500933 0.000000 0.339666
O O12 0.022395 0.500000 0.114742
O O13 0.893847 0.672924 0.179589
O O14 0.312563 0.636483 0.944056
O O15 0.560743 0.500000 0.750068
O O16 0.640426 0.323350 0.673566
O O17 0.000000 0.772672 0.500000
O O18 0.000000 0.777821 0.000000
#
# Coordination Sequence:
#
# PCOD8061020 Si02
#       8
#     4   4   4   4   4   4   4   2
#     4  11  20  34  56  82 122 157 194 236 294 346
#     4  10  19  32  56  88 115 150 195 242 294 344
#     4  10  21  39  62  84 111 154 201 242 290 350
#     4  11  21  35  59  88 116 153 197 244 293 343
#     4  10  19  34  57  88 123 158 196 237 286 345
#     4  10  22  37  58  88 119 157 192 240 293 346
#     4  10  19  36  59  83 118 152 196 248 287 343
#     4  12  19  34  57  82 124 156 185 246 293 354
#
# _framework density 19.835692000000002
#
# number of rings (size 3 to 8) (size 9 to 14) (size 15 to 20)
#    0.000    1.600    2.667    4.200    0.000    6.133 
#    0.000    2.667    0.000    1.600    0.000    0.000 
#    0.000    0.000    0.000    0.000    0.000    0.000 
#
# Total GULP energy -372031.145612 kJ/mol
# GULP energy per Si atom -12401.038187 kJ/mol
# Density = 1.979055 g / cm^3
# Si number density = 19.835692 Si / 1000 Ang^3
#
#
#
# Elastic Constant Matrix: (Units=GPa)
#
#
# Indices 1 2 3 4 5 6 
#
# 1 74.1722 45.6811 21.2258 0.0000 -10.5419 0.0000
# 2 45.6811 132.3144 48.7974 0.0000 -15.5944 0.0000
# 3 21.2258 48.7974 73.4389 0.0000 -0.6814 0.0000
# 4 0.0000 0.0000 0.0000 17.2204 0.0000 -1.9506
# 5 -10.5419 -15.5944 -0.6814 0.0000 21.9707 0.0000
# 6 0.0000 0.0000 0.0000 -1.9506 0.0000 35.0211
#
#
#
# Elastic Compliance Matrix: (Units=1/GPa)
#
#
# Indices 1 2 3 4 5 6 
#
# 1 0.017704 -0.004838 -0.001856 0.000000 0.005003 0.000000
# 2 -0.004838 0.012501 -0.006849 0.000000 0.006339 0.000000
# 3 -0.001856 -0.006849 0.018656 0.000000 -0.005173 0.000000
# 4 0.000000 0.000000 0.000000 0.058439 0.000000 0.003255
# 5 0.005003 0.006339 -0.005173 0.000000 0.052255 0.000000
# 6 0.000000 0.000000 0.000000 0.003255 0.000000 0.028736
#
#
# Mechanical properties :
#
#
# Convention : Reuss Voigt Hill
#
# Bulk Modulus (GPa) = 45.92446 56.81490 51.36968
# Shear Modulus (GPa) = 22.45814 25.79052 24.12433
#
# Velocity S-wave (km/s) = 3.36848 3.60975 3.49120
# Velocity P-wave (km/s) = 6.19125 6.78813 6.49655
#
# Compressibility (1/GPa) = 0.02177489
#
# Stress axis : x y z
#
# Youngs Moduli (GPa) = 56.48442 79.99124 53.60108
#
# Poissons Ratio (x) = 0.38702 0.09947
# Poissons Ratio (y) = 0.27328 0.36714
# Poissons Ratio (z) = 0.10482 0.54790
#
# Static dielectric constant tensor:
#      x y z
#    x 3.705430 0.000000 0.058160 
#    y 0.000000 3.693660 0.000000 
#    z 0.058160 0.000000 3.492300 
# 
# 
# High freq. dielectric constant tensor:
#      x y z
#    x 1.768190 0.000000 -0.002520 
#    y 0.000000 1.782920 0.000000 
#    z -0.002520 0.000000 1.744200 
# 
# From -- ./inp_files/76893.got.cif
#   From: 2010.06.25/outbox.cif.g09.slc.cpg/sg10_39_cif.got.tgz:76893.got - 2010.06.27 22:07:45.
