data_PCOD8061929
_publ_section_title
;
Structure prediction by ZEFSAII (Michael W. Deem and Ramdas Pophale) SiO2 
 PCOD8061929
Probable space group: P 2/M
;
_chemical_formula_sum "Si O2"
_cell_formula_units_Z 32
_cell_length_a 21.442589
_cell_length_b 9.130236
_cell_length_c 26.089247
_cell_angle_alpha 90.000000
_cell_angle_beta 22.126320
_cell_angle_gamma 90.000000
_cell_volume 1923.793976
_symmetry_space_group_name_H-M "P 2/M"
_symmetry_group_IT_number 10
_symmetry_cell_setting 'monoclinic'
loop_
_space_group_symop_operation_xyz
x,y,z
-x,y,-z
-x,-y,-z
x,-y,z
loop_
_atom_site_type_symbol
_atom_site_label
_atom_site_fract_x
_atom_site_fract_y
_atom_site_fract_z
Si Si1 0.899430 0.336711 0.928731
Si Si2 0.528760 0.667180 0.835836
Si Si3 0.898989 0.827868 0.026949
Si Si4 0.604578 0.662349 0.220179
Si Si5 0.057948 0.827486 0.310562
Si Si6 0.187819 0.827750 0.100721
Si Si7 0.281486 0.670850 0.411090
Si Si8 0.340571 0.331687 0.152224
O O1 0.976049 0.500000 0.865901
O O2 0.925900 0.250063 0.855769
O O3 0.982973 0.250751 0.913414
O O4 0.701569 0.345379 0.091407
O O5 0.462863 0.500000 0.882037
O O6 0.650711 0.707499 0.696776
O O7 0.635445 0.688733 0.805786
O O8 0.376173 0.777313 0.953420
O O9 0.901356 0.000000 0.016385
O O10 0.000000 0.780425 0.000000
O O11 0.706952 0.773096 0.179285
O O12 0.604007 0.500000 0.245679
O O13 0.418989 0.714608 0.349284
O O14 0.874961 0.769743 0.459068
O O15 0.115165 0.780013 0.210512
O O16 0.180104 0.760223 0.259385
O O17 0.059126 0.000000 0.316417
O O18 0.179205 0.000000 0.098015
O O19 0.235707 0.500000 0.450545
O O20 0.309160 0.500000 0.160840
O O21 0.500000 0.271478 0.000000
#
# Coordination Sequence:
#
# PCOD8061929 Si02
#       8
#     4   4   4   4   4   4   4   4
#     4   9  17  29  48  73 101 130 168 209 246 290
#     4  10  19  34  57  78  97 125 169 215 259 310
#     4   9  16  26  44  75 112 143 169 202 246 295
#     4   8  16  29  48  73 100 132 169 208 247 290
#     4  11  25  38  50  73 105 135 168 211 260 315
#     4  11  21  33  51  75 100 132 169 211 260 306
#     4  10  20  36  54  74 101 133 170 214 257 303
#     4  10  20  35  57  78  96 128 170 213 261 312
#
# _framework density 16.633799
#
# number of rings (size 3 to 8) (size 9 to 14) (size 15 to 20)
#    0.750    1.500    2.500    1.125    0.000    4.750 
#    0.000    2.500    0.000    0.000    0.000    0.875 
#    0.000    7.000    0.000    0.000    0.000    0.000 
#
# Total GULP energy -396653.323373 kJ/mol
# GULP energy per Si atom -12395.416355 kJ/mol
# Density = 1.659594 g / cm^3
# Si number density = 16.633799 Si / 1000 Ang^3
#
#
#
# Elastic Constant Matrix: (Units=GPa)
#
#
# Indices 1 2 3 4 5 6 
#
# 1 114.8483 56.9579 38.0484 0.0000 -9.9227 0.0000
# 2 56.9579 78.7414 28.6696 0.0000 -3.8398 0.0000
# 3 38.0484 28.6696 63.9519 0.0000 -7.1377 0.0000
# 4 0.0000 0.0000 0.0000 23.6907 0.0000 -1.7551
# 5 -9.9227 -3.8398 -7.1377 0.0000 19.8777 0.0000
# 6 0.0000 0.0000 0.0000 -1.7551 0.0000 26.3901
#
#
#
# Elastic Compliance Matrix: (Units=1/GPa)
#
#
# Indices 1 2 3 4 5 6 
#
# 1 0.015019 -0.009055 -0.004412 0.000000 0.004164 0.000000
# 2 -0.009055 0.020641 -0.004090 0.000000 -0.002001 0.000000
# 3 -0.004412 -0.004090 0.020586 0.000000 0.004400 0.000000
# 4 0.000000 0.000000 0.000000 0.042420 0.000000 0.002821
# 5 0.004164 -0.002001 0.004400 0.000000 0.053580 0.000000
# 6 0.000000 0.000000 0.000000 0.002821 0.000000 0.038081
#
#
# Mechanical properties :
#
#
# Convention : Reuss Voigt Hill
#
# Bulk Modulus (GPa) = 47.31703 56.09927 51.70815
# Shear Modulus (GPa) = 21.50697 22.91606 22.21152
#
# Velocity S-wave (km/s) = 3.59969 3.71574 3.65817
# Velocity P-wave (km/s) = 6.76647 7.22553 6.99976
#
# Compressibility (1/GPa) = 0.02113404
#
# Stress axis : x y z
#
# Youngs Moduli (GPa) = 66.58195 48.44721 48.57693
#
# Poissons Ratio (x) = 0.43868 0.21430
# Poissons Ratio (y) = 0.60288 0.19866
# Poissons Ratio (z) = 0.29374 0.19813
#
# Static dielectric constant tensor:
#      x y z
#    x 3.135890 0.000000 0.011990 
#    y 0.000000 3.107650 0.000000 
#    z 0.011990 0.000000 2.827500 
# 
# 
# High freq. dielectric constant tensor:
#      x y z
#    x 1.640390 0.000000 -0.004810 
#    y 0.000000 1.646580 0.000000 
#    z -0.004810 0.000000 1.605110 
# 
# From -- ./inp_files/93674.got.cif
#   From: 2010.06.25/outbox.cif.g09.slc.cpg/sg10_47_cif.got.tgz:93674.got - 2010.06.27 22:07:45.
