data_PCOD8061102
_publ_section_title
;
Structure prediction by ZEFSAII (Michael W. Deem and Ramdas Pophale) SiO2 
 PCOD8061102
Probable space group: P 2/M
;
_chemical_formula_sum "Si O2"
_cell_formula_units_Z 28
_cell_length_a 31.428598
_cell_length_b 8.608472
_cell_length_c 31.428594
_cell_angle_alpha 90.000000
_cell_angle_beta 170.500174
_cell_angle_gamma 90.000000
_cell_volume 1403.386774
_symmetry_space_group_name_H-M "P 2/M"
_symmetry_group_IT_number 10
_symmetry_cell_setting 'monoclinic'
loop_
_space_group_symop_operation_xyz
x,y,z
-x,y,-z
-x,-y,-z
x,-y,z
loop_
_atom_site_type_symbol
_atom_site_label
_atom_site_fract_x
_atom_site_fract_y
_atom_site_fract_z
Si Si1 0.451432 0.314538 0.048566
Si Si2 0.831254 0.183014 0.668750
Si Si3 0.403448 0.684106 0.096550
Si Si4 0.878160 0.315467 0.621838
Si Si5 0.736324 0.179384 0.763676
Si Si6 0.690711 0.681349 0.809285
Si Si7 0.024102 0.685271 0.475900
O O1 0.451110 0.500000 0.048895
O O2 0.427397 0.247573 0.072609
O O3 0.713626 0.251228 0.286256
O O4 0.213738 0.251228 0.786369
O O5 0.569979 0.246150 0.430635
O O6 0.855648 0.232593 0.644363
O O7 0.829404 0.000000 0.670596
O O8 0.069368 0.246149 0.930024
O O9 0.404710 0.500000 0.095302
O O10 0.642625 0.742688 0.360445
O O11 0.139548 0.742687 0.857366
O O12 0.874807 0.500000 0.625189
O O13 0.500000 0.219689 0.500000
O O14 0.715853 0.288608 0.784145
O O15 0.729008 0.000000 0.770987
O O16 0.000000 0.219689 0.000000
O O17 0.686016 0.500000 0.813985
O O18 0.023890 0.500000 0.476113
O O19 0.000000 0.749840 0.500000
#
# Coordination Sequence:
#
# PCOD8061102 Si02
#       7
#     4   4   4   4   4   4   4
#     4   9  15  23  34  51  77 111 157 207 255 308
#     4  12  25  42  63  88 120 157 196 238 294 357
#     4   9  17  28  45  67  92 125 167 220 272 322
#     4  10  19  33  52  75 102 133 176 225 274 327
#     4  10  21  38  61  89 123 161 198 239 291 347
#     4  12  25  42  65  93 124 158 200 248 293 340
#     4   9  15  21  30  46  73 112 158 205 249 302
#
# _framework density 19.951734999999999
#
# number of rings (size 3 to 8) (size 9 to 14) (size 15 to 20)
#    0.000    1.857    0.000    5.571    0.000    8.000 
#    0.000    0.000    0.000    0.000    0.000    0.000 
#    0.000    0.000    0.000    0.000    0.000   50.000 
#
# Total GULP energy -347290.392742 kJ/mol
# GULP energy per Si atom -12403.228312 kJ/mol
# Density = 1.990632 g / cm^3
# Si number density = 19.951735 Si / 1000 Ang^3
#
#
#
# Elastic Constant Matrix: (Units=GPa)
#
#
# Indices 1 2 3 4 5 6 
#
# 1 188.5179 45.8767 109.3750 0.0000 0.3390 0.0000
# 2 45.8767 72.9421 43.5339 0.0000 -0.2068 0.0000
# 3 109.3750 43.5339 225.5301 0.0000 2.9218 0.0000
# 4 0.0000 0.0000 0.0000 15.9993 0.0000 2.9582
# 5 0.3390 -0.2068 2.9218 0.0000 41.7229 0.0000
# 6 0.0000 0.0000 0.0000 2.9582 0.0000 -17.5571
#
#
#
# Elastic Compliance Matrix: (Units=1/GPa)
#
#
# Indices 1 2 3 4 5 6 
#
# 1 0.007939 -0.003045 -0.003264 0.000000 0.000149 0.000000
# 2 -0.003045 0.016666 -0.001743 0.000000 0.000229 0.000000
# 3 -0.003264 -0.001743 0.006359 0.000000 -0.000427 0.000000
# 4 0.000000 0.000000 0.000000 0.060614 0.000000 0.010213
# 5 0.000149 0.000229 -0.000427 0.000000 0.023998 0.000000
# 6 0.000000 0.000000 0.000000 0.010213 0.000000 -0.055236
#
#
# Mechanical properties :
#
#
# Convention : Reuss Voigt Hill
#
# Bulk Modulus (GPa) = 67.29898 98.28457 82.79178
# Shear Modulus (GPa) = 61.42700 27.24666 44.33683
#
# Velocity S-wave (km/s) = 5.55470 3.69945 4.71914
# Velocity P-wave (km/s) = 8.65700 8.22290 8.44274
#
# Compressibility (1/GPa) = 0.01485907
#
# Stress axis : x y z
#
# Youngs Moduli (GPa) = 125.95752 60.00408 157.25151
#
# Poissons Ratio (x) = 0.18269 0.51335
# Poissons Ratio (y) = 0.38349 0.27415
# Poissons Ratio (z) = 0.41119 0.10461
#
# Static dielectric constant tensor:
#      x y z
#    x 3.863250 0.000000 0.012050 
#    y 0.000000 3.145720 0.000000 
#    z 0.012050 0.000000 3.999850 
# 
# 
# High freq. dielectric constant tensor:
#      x y z
#    x 1.799270 0.000000 0.000340 
#    y 0.000000 1.727290 0.000000 
#    z 0.000340 0.000000 1.803120 
# 
# From -- ./inp_files/95993.got.cif
#   From: 2010.06.25/outbox.cif.g09.slc.cpg/sg10_48_cif.got.tgz:95993.got - 2010.06.27 22:07:45.
