data_PCOD8061842
_publ_section_title
;
Structure prediction by ZEFSAII (Michael W. Deem and Ramdas Pophale) SiO2 
 PCOD8061842
Probable space group: P 2/M
;
_chemical_formula_sum "Si O2"
_cell_formula_units_Z 32
_cell_length_a 14.564134
_cell_length_b 18.062187
_cell_length_c 13.958736
_cell_angle_alpha 90.000000
_cell_angle_beta 148.387588
_cell_angle_gamma 90.000000
_cell_volume 1924.746725
_symmetry_space_group_name_H-M "P 2/M"
_symmetry_group_IT_number 10
_symmetry_cell_setting 'monoclinic'
loop_
_space_group_symop_operation_xyz
x,y,z
-x,y,-z
-x,-y,-z
x,-y,z
loop_
_atom_site_type_symbol
_atom_site_label
_atom_site_fract_x
_atom_site_fract_y
_atom_site_fract_z
Si Si1 0.843949 0.916774 0.226566
Si Si2 0.523058 0.342790 0.217394
Si Si3 0.039128 0.584870 0.135111
Si Si4 0.882937 0.585622 0.489029
Si Si5 0.223141 0.917998 0.608941
Si Si6 0.587525 0.412608 0.475505
Si Si7 0.469465 0.184847 0.086260
Si Si8 0.178331 0.416214 0.883946
O O1 0.803932 0.920586 0.302335
O O2 0.047080 0.891281 0.396626
O O3 0.815535 0.000000 0.158496
O O4 0.716612 0.856794 0.063457
O O5 0.704883 0.366824 0.328940
O O6 0.510467 0.365104 0.318488
O O7 0.481206 0.257503 0.161507
O O8 0.363271 0.382099 0.019988
O O9 0.087456 0.500000 0.155866
O O10 0.211556 0.615368 0.340968
O O11 0.861709 0.591799 0.038786
O O12 0.000000 0.626248 0.000000
O O13 0.830060 0.500000 0.461105
O O14 0.000000 0.595415 0.500000
O O15 0.009089 0.619716 0.682549
O O16 0.383384 0.864274 0.731550
O O17 0.272055 0.000000 0.615842
O O18 0.500000 0.393528 0.500000
O O19 0.565980 0.500000 0.431830
O O20 0.500000 0.200580 0.000000
O O21 0.185962 0.500000 0.854581
#
# Coordination Sequence:
#
# PCOD8061842 Si02
#       8
#     4   4   4   4   4   4   4   4
#     4   8  14  28  49  70  93 125 167 206 235 273
#     4  12  23  34  50  73 103 132 164 205 261 317
#     4   9  16  29  50  75  93 108 145 205 266 309
#     4  10  22  38  52  64  85 127 180 222 247 281
#     4   8  14  28  50  70  90 126 170 206 236 270
#     4  10  19  34  56  76  94 121 165 222 271 310
#     4  10  21  31  42  69 104 138 164 195 238 295
#     4  10  20  34  51  67  89 123 166 213 252 295
#
# _framework density 16.625564000000001
#
# number of rings (size 3 to 8) (size 9 to 14) (size 15 to 20)
#    0.000    2.375    1.250    3.000    1.750    4.500 
#    2.250    1.875    0.000    0.000    0.000    0.000 
#    0.000    2.000    0.000    2.750    0.000    0.250 
#
# Total GULP energy -396438.262525 kJ/mol
# GULP energy per Si atom -12388.695704 kJ/mol
# Density = 1.658772 g / cm^3
# Si number density = 16.625564 Si / 1000 Ang^3
#
#
#
# Elastic Constant Matrix: (Units=GPa)
#
#
# Indices 1 2 3 4 5 6 
#
# 1 52.3078 28.5258 31.9008 0.0000 3.9763 0.0000
# 2 28.5258 83.1010 69.2630 0.0000 2.6148 0.0000
# 3 31.9008 69.2630 130.2442 0.0000 22.0834 0.0000
# 4 0.0000 0.0000 0.0000 19.3578 0.0000 -8.7656
# 5 3.9763 2.6148 22.0834 0.0000 25.1621 0.0000
# 6 0.0000 0.0000 0.0000 -8.7656 0.0000 1.5035
#
#
#
# Elastic Compliance Matrix: (Units=1/GPa)
#
#
# Indices 1 2 3 4 5 6 
#
# 1 0.024057 -0.006217 -0.002410 0.000000 -0.001041 0.000000
# 2 -0.006217 0.025205 -0.013632 0.000000 0.010327 0.000000
# 3 -0.002410 -0.013632 0.017872 0.000000 -0.013888 0.000000
# 4 0.000000 0.000000 0.000000 -0.031499 0.000000 -0.183643
# 5 -0.001041 0.010327 -0.013888 0.000000 0.051023 0.000000
# 6 0.000000 0.000000 0.000000 -0.183643 0.000000 -0.405552
#
#
# Mechanical properties :
#
#
# Convention : Reuss Voigt Hill
#
# Bulk Modulus (GPa) = 44.21519 58.33692 51.27605
# Shear Modulus (GPa) = -18.73786 18.26890 -0.23448
#
# Velocity S-wave (km/s) = -3.36080 3.31848 -0.37596
# Velocity P-wave (km/s) = 3.40477 7.06031 5.54258
#
# Compressibility (1/GPa) = 0.02261666
#
# Stress axis : x y z
#
# Youngs Moduli (GPa) = 41.56877 39.67539 55.95235
#
# Poissons Ratio (x) = 0.24664 0.13484
# Poissons Ratio (y) = 0.25841 0.76274
# Poissons Ratio (z) = 0.10017 0.54086
#
# Static dielectric constant tensor:
#      x y z
#    x 2.879990 0.000000 0.126000 
#    y 0.000000 2.924010 0.000000 
#    z 0.126000 0.000000 3.554960 
# 
# 
# High freq. dielectric constant tensor:
#      x y z
#    x 1.604540 0.000000 0.016380 
#    y 0.000000 1.598710 0.000000 
#    z 0.016380 0.000000 1.665400 
# 
# From -- ./inp_files/67747.got.cif
#   From: 2010.06.25/outbox.cif.g09.slc.cpg/sg10_34_cif.got.tgz:67747.got - 2010.06.27 22:07:45.
