data_PCOD8061090
_publ_section_title
;
Structure prediction by ZEFSAII (Michael W. Deem and Ramdas Pophale) SiO2 
 PCOD8061090
Probable space group: P 2/M
;
_chemical_formula_sum "Si O2"
_cell_formula_units_Z 28
_cell_length_a 31.354906
_cell_length_b 8.703469
_cell_length_c 31.354825
_cell_angle_alpha 90.000000
_cell_angle_beta 170.491605
_cell_angle_gamma 90.000000
_cell_volume 1413.486239
_symmetry_space_group_name_H-M "P 2/M"
_symmetry_group_IT_number 10
_symmetry_cell_setting 'monoclinic'
loop_
_space_group_symop_operation_xyz
x,y,z
-x,y,-z
-x,-y,-z
x,-y,z
loop_
_atom_site_type_symbol
_atom_site_label
_atom_site_fract_x
_atom_site_fract_y
_atom_site_fract_z
Si Si1 0.095931 0.821547 0.403914
Si Si2 0.475511 0.681577 0.024532
Si Si3 0.810043 0.817989 0.689297
Si Si4 0.664495 0.182590 0.836266
Si Si5 0.045647 0.821938 0.454289
Si Si6 0.237685 0.183366 0.262317
Si Si7 0.382731 0.318451 0.117428
O O1 0.070812 0.794639 0.429125
O O2 0.356222 0.744885 0.644873
O O3 0.102075 0.000000 0.397751
O O4 0.854922 0.744900 0.143583
O O5 0.473672 0.500000 0.026395
O O6 0.713955 0.745095 0.285899
O O7 0.500000 0.736180 0.000000
O O8 0.214148 0.745079 0.786096
O O9 0.570576 0.760836 0.424988
O O10 0.786407 0.749876 0.713615
O O11 0.808910 0.000000 0.690974
O O12 0.073869 0.760710 0.928143
O O13 0.641579 0.266767 0.858175
O O14 0.660872 0.000000 0.839937
O O15 0.039654 0.000000 0.460261
O O16 0.500000 0.245867 0.500000
O O17 0.237276 0.000000 0.262744
O O18 0.000000 0.245870 0.000000
O O19 0.384154 0.500000 0.115976
#
# Coordination Sequence:
#
# PCOD8061090 Si02
#       7
#     4   4   4   4   4   4   4
#     4  11  24  43  64  88 120 157 196 238 294 357
#     4  11  24  41  62  90 125 163 200 241 293 349
#     4   9  17  28  45  70  99 138 183 220 269 338
#     4  10  19  33  52  73 104 144 183 225 276 337
#     4  11  24  41  64  92 120 155 200 247 291 344
#     4   9  15  23  37  61  97 134 167 214 274 327
#     4  12  25  40  61  90 119 150 195 246 295 346
#
# _framework density 19.809177999999999
#
# number of rings (size 3 to 8) (size 9 to 14) (size 15 to 20)
#    0.000    1.571    0.000    5.571    0.000   13.143 
#    0.000    0.000    0.000    0.000    0.000    0.000 
#    0.000   11.429    0.000    0.000    0.000    0.000 
#
# Total GULP energy -347309.027562 kJ/mol
# GULP energy per Si atom -12403.893842 kJ/mol
# Density = 1.976409 g / cm^3
# Si number density = 19.809178 Si / 1000 Ang^3
#
#
#
# Elastic Constant Matrix: (Units=GPa)
#
#
# Indices 1 2 3 4 5 6 
#
# 1 125.7630 72.3537 78.8547 0.0000 4.4168 0.0000
# 2 72.3537 90.1122 63.3681 0.0000 -0.7756 0.0000
# 3 78.8547 63.3681 211.9022 0.0000 3.4173 0.0000
# 4 0.0000 0.0000 0.0000 28.3967 0.0000 7.3117
# 5 4.4168 -0.7756 3.4173 0.0000 48.0429 0.0000
# 6 0.0000 0.0000 0.0000 7.3117 0.0000 -54.8269
#
#
#
# Elastic Compliance Matrix: (Units=1/GPa)
#
#
# Indices 1 2 3 4 5 6 
#
# 1 0.015976 -0.010987 -0.002636 0.000000 -0.001459 0.000000
# 2 -0.010987 0.021621 -0.002402 0.000000 0.001530 0.000000
# 3 -0.002636 -0.002402 0.006423 0.000000 -0.000253 0.000000
# 4 0.000000 0.000000 0.000000 0.034046 0.000000 0.004540
# 5 -0.001459 0.001530 -0.000253 0.000000 0.020992 0.000000
# 6 0.000000 0.000000 0.000000 0.004540 0.000000 -0.017634
#
#
# Mechanical properties :
#
#
# Convention : Reuss Voigt Hill
#
# Bulk Modulus (GPa) = 83.53938 95.21447 89.37693
# Shear Modulus (GPa) = 42.56627 18.53592 30.55109
#
# Velocity S-wave (km/s) = 4.64056 3.06228 3.93143
# Velocity P-wave (km/s) = 8.42477 7.78933 8.11327
#
# Compressibility (1/GPa) = 0.01197040
#
# Stress axis : x y z
#
# Youngs Moduli (GPa) = 62.59196 46.25134 155.70181
#
# Poissons Ratio (x) = 0.50815 0.41047
# Poissons Ratio (y) = 0.68768 0.37397
# Poissons Ratio (z) = 0.16501 0.11109
#
# Static dielectric constant tensor:
#      x y z
#    x 3.919260 0.000000 0.000470 
#    y 0.000000 3.404160 0.000000 
#    z 0.000470 0.000000 3.934510 
# 
# 
# High freq. dielectric constant tensor:
#      x y z
#    x 1.795660 0.000000 0.000160 
#    y 0.000000 1.745220 0.000000 
#    z 0.000160 0.000000 1.797460 
# 
# From -- ./inp_files/96005.got.cif
#   From: 2010.06.25/outbox.cif.g09.slc.cpg/sg10_49_cif.got.tgz:96005.got - 2010.06.27 22:07:45.
