data_PCOD8061742
_publ_section_title
;
Structure prediction by ZEFSAII (Michael W. Deem and Ramdas Pophale) SiO2 
 PCOD8061742
Probable space group: P 2/M
;
_chemical_formula_sum "Si O2"
_cell_formula_units_Z 32
_cell_length_a 12.516853
_cell_length_b 9.465813
_cell_length_c 19.243393
_cell_angle_alpha 90.000000
_cell_angle_beta 48.105396
_cell_angle_gamma 90.000000
_cell_volume 1697.173229
_symmetry_space_group_name_H-M "P 2/M"
_symmetry_group_IT_number 10
_symmetry_cell_setting 'monoclinic'
loop_
_space_group_symop_operation_xyz
x,y,z
-x,y,-z
-x,-y,-z
x,-y,z
loop_
_atom_site_type_symbol
_atom_site_label
_atom_site_fract_x
_atom_site_fract_y
_atom_site_fract_z
Si Si1 0.427099 0.837679 0.193619
Si Si2 0.083105 0.340870 0.028896
Si Si3 0.850633 0.831757 0.348227
Si Si4 0.811173 0.658136 0.233817
Si Si5 0.820701 0.832531 0.793266
Si Si6 0.608644 0.663936 0.515079
Si Si7 0.700438 0.161838 0.990366
Si Si8 0.536295 0.661373 0.275883
O O1 0.272557 0.782304 0.232892
O O2 0.475134 0.752989 0.240002
O O3 0.419313 0.000000 0.220369
O O4 0.532632 0.821624 0.080984
O O5 0.134951 0.500000 0.989362
O O6 0.976449 0.338157 0.140492
O O7 0.220461 0.246523 0.983271
O O8 0.000000 0.274648 0.000000
O O9 0.788771 0.775199 0.302192
O O10 0.752605 0.759365 0.449490
O O11 0.015529 0.781039 0.286519
O O12 0.836299 0.000000 0.357334
O O13 0.771371 0.500000 0.279713
O O14 0.706604 0.690222 0.213630
O O15 0.745233 0.773050 0.896290
O O16 0.814740 0.000000 0.800100
O O17 0.500000 0.704238 0.500000
O O18 0.652003 0.500000 0.491560
O O19 0.538550 0.701442 0.619111
O O20 0.750342 0.000000 0.972886
O O21 0.506899 0.500000 0.268337
#
# Coordination Sequence:
#
# PCOD8061742 Si02
#       8
#     4   4   4   4   4   4   4   4
#     4  10  21  37  58  81 109 148 189 229 276 326
#     4  10  20  32  49  75 110 149 184 222 271 327
#     4  11  21  34  57  86 112 138 178 232 275 318
#     4  10  19  34  54  76 109 149 182 217 273 335
#     4   9  19  37  57  80 112 149 187 227 275 324
#     4  10  20  38  61  82 109 148 183 218 275 339
#     4  10  19  34  56  80 107 144 190 232 269 320
#     4  10  21  38  59  81 110 145 182 227 276 329
#
# _framework density 18.854880999999999
#
# number of rings (size 3 to 8) (size 9 to 14) (size 15 to 20)
#    0.000    2.000    2.500    1.500    0.000    4.500 
#    0.000    2.500    0.000    5.250    0.000    0.000 
#    0.000    0.000    0.000    0.000    0.000    0.000 
#
# Total GULP energy -396723.602713 kJ/mol
# GULP energy per Si atom -12397.612585 kJ/mol
# Density = 1.881197 g / cm^3
# Si number density = 18.854881 Si / 1000 Ang^3
#
#
#
# Elastic Constant Matrix: (Units=GPa)
#
#
# Indices 1 2 3 4 5 6 
#
# 1 121.1724 45.4315 33.7472 0.0000 -8.9632 0.0000
# 2 45.4315 63.5077 30.3051 0.0000 -6.1713 0.0000
# 3 33.7472 30.3051 69.2961 0.0000 -7.0578 0.0000
# 4 0.0000 0.0000 0.0000 26.5722 0.0000 13.4647
# 5 -8.9632 -6.1713 -7.0578 0.0000 25.0631 0.0000
# 6 0.0000 0.0000 0.0000 13.4647 0.0000 -25.7470
#
#
#
# Elastic Compliance Matrix: (Units=1/GPa)
#
#
# Indices 1 2 3 4 5 6 
#
# 1 0.011700 -0.007033 -0.002443 0.000000 0.001765 0.000000
# 2 -0.007033 0.024282 -0.007043 0.000000 0.001480 0.000000
# 3 -0.002443 -0.007043 0.018979 0.000000 0.002737 0.000000
# 4 0.000000 0.000000 0.000000 0.029750 0.000000 0.015558
# 5 0.001765 0.001480 0.002737 0.000000 0.041666 0.000000
# 6 0.000000 0.000000 0.000000 0.015558 0.000000 -0.030703
#
#
# Mechanical properties :
#
#
# Convention : Reuss Voigt Hill
#
# Bulk Modulus (GPa) = 45.61234 52.54931 49.08083
# Shear Modulus (GPa) = 36.75916 14.81049 25.78483
#
# Velocity S-wave (km/s) = 4.42020 2.80572 3.70204
# Velocity P-wave (km/s) = 7.09187 6.19895 6.66039
#
# Compressibility (1/GPa) = 0.02192389
#
# Stress axis : x y z
#
# Youngs Moduli (GPa) = 85.46668 41.18226 52.68868
#
# Poissons Ratio (x) = 0.28964 0.12870
# Poissons Ratio (y) = 0.60110 0.37111
# Poissons Ratio (z) = 0.20876 0.29006
#
# Static dielectric constant tensor:
#      x y z
#    x 3.461710 0.000000 -0.166060 
#    y 0.000000 3.268190 0.000000 
#    z -0.166060 0.000000 3.545960 
# 
# 
# High freq. dielectric constant tensor:
#      x y z
#    x 1.726010 0.000000 -0.007620 
#    y 0.000000 1.711870 0.000000 
#    z -0.007620 0.000000 1.736010 
# 
# From -- ./inp_files/55313.got.cif
#   From: 2010.06.25/outbox.cif.g09.slc.cpg/sg10_28_cif.got.tgz:55313.got - 2010.06.27 22:07:45.
