data_PCOD8061993
_publ_section_title
;
Structure prediction by ZEFSAII (Michael W. Deem and Ramdas Pophale) SiO2 
 PCOD8061993
Probable space group: P 2/M
;
_chemical_formula_sum "Si O2"
_cell_formula_units_Z 32
_cell_length_a 8.420653
_cell_length_b 14.991967
_cell_length_c 21.955188
_cell_angle_alpha 90.000000
_cell_angle_beta 145.101999
_cell_angle_gamma 90.000000
_cell_volume 1585.720344
_symmetry_space_group_name_H-M "P 2/M"
_symmetry_group_IT_number 10
_symmetry_cell_setting 'monoclinic'
loop_
_space_group_symop_operation_xyz
x,y,z
-x,y,-z
-x,-y,-z
x,-y,z
loop_
_atom_site_type_symbol
_atom_site_label
_atom_site_fract_x
_atom_site_fract_y
_atom_site_fract_z
Si Si1 0.326054 0.601469 0.503664
Si Si2 0.840203 0.189181 0.219344
Si Si3 0.160366 0.397748 0.113507
Si Si4 0.993156 0.750762 0.142978
Si Si5 0.653974 0.097702 0.984721
Si Si6 0.230457 0.686563 0.689018
Si Si7 0.569217 0.101405 0.591674
Si Si8 0.596650 0.247112 0.377693
O O1 0.500000 0.632863 0.500000
O O2 0.394208 0.500000 0.542876
O O3 0.422076 0.661586 0.590217
O O4 0.999940 0.609313 0.385585
O O5 0.818958 0.251109 0.151519
O O6 0.568728 0.126688 0.136817
O O7 0.851199 0.247855 0.282725
O O8 0.112508 0.128842 0.298045
O O9 0.185658 0.500000 0.142120
O O10 0.468097 0.355808 0.206028
O O11 0.973938 0.345671 0.104526
O O12 0.000000 0.388678 0.000000
O O13 0.309294 0.773374 0.254589
O O14 0.893093 0.828015 0.064864
O O15 0.776949 0.000000 0.005718
O O16 0.500000 0.089774 0.000000
O O17 0.189651 0.740150 0.611465
O O18 0.500000 0.114664 0.500000
O O19 0.352082 0.162497 0.561917
O O20 0.528091 0.000000 0.600211
#
# Coordination Sequence:
#
# PCOD8061993 Si02
#       8
#     4   4   4   4   4   4   4   4
#     4  11  23  39  61  88 116 148 192 244 295 350
#     4  10  19  34  57  83 115 152 192 239 293 347
#     4  10  21  38  58  81 114 156 197 237 287 348
#     4   9  19  34  55  80 109 148 189 234 285 341
#     4   9  17  31  55  85 112 142 187 240 291 342
#     4  11  22  37  59  85 118 154 191 238 293 349
#     4  10  20  36  58  82 112 153 196 235 283 347
#     4  10  21  36  56  81 113 150 185 232 287 341
#
# _framework density 20.180104
#
# number of rings (size 3 to 8) (size 9 to 14) (size 15 to 20)
#    0.000    2.000    0.000    4.500    0.000    6.000 
#    0.000    2.500    0.000   15.750    0.000    0.000 
#    0.000    0.000    0.000    0.000    0.000    0.000 
#
# Total GULP energy -396696.417795 kJ/mol
# GULP energy per Si atom -12396.763056 kJ/mol
# Density = 2.013417 g / cm^3
# Si number density = 20.180104 Si / 1000 Ang^3
#
#
#
# Elastic Constant Matrix: (Units=GPa)
#
#
# Indices 1 2 3 4 5 6 
#
# 1 103.0431 59.8890 19.0624 0.0000 -8.7930 0.0000
# 2 59.8890 134.9978 31.7638 0.0000 -6.4347 0.0000
# 3 19.0624 31.7638 77.8055 0.0000 2.3414 0.0000
# 4 0.0000 0.0000 0.0000 33.9578 0.0000 1.9804
# 5 -8.7930 -6.4347 2.3414 0.0000 25.6592 0.0000
# 6 0.0000 0.0000 0.0000 1.9804 0.0000 19.4638
#
#
#
# Elastic Compliance Matrix: (Units=1/GPa)
#
#
# Indices 1 2 3 4 5 6 
#
# 1 0.013407 -0.005524 -0.001129 0.000000 0.003312 0.000000
# 2 -0.005524 0.010617 -0.003012 0.000000 0.001044 0.000000
# 3 -0.001129 -0.003012 0.014433 0.000000 -0.002459 0.000000
# 4 0.000000 0.000000 0.000000 0.029624 0.000000 -0.003014
# 5 0.003312 0.001044 -0.002459 0.000000 0.040594 0.000000
# 6 0.000000 0.000000 0.000000 -0.003014 0.000000 0.051684
#
#
# Mechanical properties :
#
#
# Convention : Reuss Voigt Hill
#
# Bulk Modulus (GPa) = 52.28630 59.69742 55.99186
# Shear Modulus (GPa) = 26.87242 29.49159 28.18201
#
# Velocity S-wave (km/s) = 3.65311 3.82700 3.74106
# Velocity P-wave (km/s) = 6.61511 7.01245 6.81667
#
# Compressibility (1/GPa) = 0.01912547
#
# Stress axis : x y z
#
# Youngs Moduli (GPa) = 74.58889 94.19099 69.28594
#
# Poissons Ratio (x) = 0.52032 0.07823
# Poissons Ratio (y) = 0.41204 0.20871
# Poissons Ratio (z) = 0.08422 0.28373
#
# Static dielectric constant tensor:
#      x y z
#    x 3.795010 0.000000 -0.112610 
#    y 0.000000 3.854620 0.000000 
#    z -0.112610 0.000000 3.830890 
# 
# 
# High freq. dielectric constant tensor:
#      x y z
#    x 1.773490 0.000000 -0.008890 
#    y 0.000000 1.784340 0.000000 
#    z -0.008890 0.000000 1.803160 
# 
# From -- ./inp_files/35170.got.cif
#   From: 2010.06.25/outbox.cif.g09.slc.cpg/sg10_18_cif.got.tgz:35170.got - 2010.06.27 22:07:45.
