data_PCOD8061687
_publ_section_title
;
Structure prediction by ZEFSAII (Michael W. Deem and Ramdas Pophale) SiO2 
 PCOD8061687
Probable space group: P 2/M
;
_chemical_formula_sum "Si O2"
_cell_formula_units_Z 28
_cell_length_a 8.597349
_cell_length_b 18.690609
_cell_length_c 19.830628
_cell_angle_alpha 90.000000
_cell_angle_beta 29.401179
_cell_angle_gamma 90.000000
_cell_volume 1564.359952
_symmetry_space_group_name_H-M "P 2/M"
_symmetry_group_IT_number 10
_symmetry_cell_setting 'monoclinic'
loop_
_space_group_symop_operation_xyz
x,y,z
-x,y,-z
-x,-y,-z
x,-y,z
loop_
_atom_site_type_symbol
_atom_site_label
_atom_site_fract_x
_atom_site_fract_y
_atom_site_fract_z
Si Si1 0.261272 0.797753 0.532525
Si Si2 0.108008 0.679036 0.033237
Si Si3 0.872452 0.578555 0.856422
Si Si4 0.158819 0.207421 0.776408
Si Si5 0.156709 0.919234 0.872929
Si Si6 0.844524 0.709046 0.778296
Si Si7 0.890554 0.920491 0.613872
O O1 0.500000 0.821346 0.500000
O O2 0.475265 0.782466 0.385692
O O3 0.051666 0.728498 0.633742
O O4 0.026334 0.864547 0.615768
O O5 0.025645 0.610361 0.110047
O O6 0.884880 0.743266 0.141776
O O7 0.474367 0.704218 0.900358
O O8 0.000000 0.657221 0.000000
O O9 0.028734 0.500000 0.785955
O O10 0.969998 0.632741 0.759360
O O11 0.500000 0.570571 0.000000
O O12 0.093359 0.127151 0.828971
O O13 0.909348 0.230335 0.811736
O O14 0.518525 0.919784 0.756857
O O15 0.035599 0.000000 0.903156
O O16 0.000000 0.887362 0.000000
O O17 0.000000 0.893880 0.500000
O O18 0.024373 0.000000 0.579113
#
# Coordination Sequence:
#
# PCOD8061687 Si02
#       7
#     4   4   4   4   4   4   4
#     4  10  21  34  51  75 103 136 175 220 258 306
#     4  10  20  32  52  81 105 137 171 213 259 303
#     4   8  15  32  55  78 107 139 169 207 253 302
#     4  10  19  34  52  73 103 139 170 216 261 310
#     4  10  21  35  53  78 104 136 177 221 267 315
#     4   9  20  35  52  78 108 135 175 213 251 314
#     4  10  20  35  53  73 101 137 179 218 264 311
#
# _framework density 17.898693000000002
#
# number of rings (size 3 to 8) (size 9 to 14) (size 15 to 20)
#    0.000    2.429    1.429    1.714    4.000    0.571 
#    0.000    2.143    0.000   12.429    0.000    0.000 
#    0.000   23.429    0.000    0.000    0.000    0.000 
#
# Total GULP energy -346975.949205 kJ/mol
# GULP energy per Si atom -12391.998186 kJ/mol
# Density = 1.785795 g / cm^3
# Si number density = 17.898693 Si / 1000 Ang^3
#
#
#
# Elastic Constant Matrix: (Units=GPa)
#
#
# Indices 1 2 3 4 5 6 
#
# 1 74.9029 53.8971 31.5836 0.0000 1.9330 0.0000
# 2 53.8971 128.0642 44.5792 0.0000 9.6597 0.0000
# 3 31.5836 44.5792 92.4884 0.0000 18.2342 0.0000
# 4 0.0000 0.0000 0.0000 19.5049 0.0000 -1.5459
# 5 1.9330 9.6597 18.2342 0.0000 25.4469 0.0000
# 6 0.0000 0.0000 0.0000 -1.5459 0.0000 57.3841
#
#
#
# Elastic Compliance Matrix: (Units=1/GPa)
#
#
# Indices 1 2 3 4 5 6 
#
# 1 0.020362 -0.007424 -0.004222 0.000000 0.004297 0.000000
# 2 -0.007424 0.012093 -0.002911 0.000000 -0.001941 0.000000
# 3 -0.004222 -0.002911 0.015576 0.000000 -0.009736 0.000000
# 4 0.000000 0.000000 0.000000 0.051379 0.000000 0.001384
# 5 0.004297 -0.001941 -0.009736 0.000000 0.046684 0.000000
# 6 0.000000 0.000000 0.000000 0.001384 0.000000 0.017464
#
#
# Mechanical properties :
#
#
# Convention : Reuss Voigt Hill
#
# Bulk Modulus (GPa) = 52.86200 61.73059 57.29630
# Shear Modulus (GPa) = 25.12850 31.49357 28.31103
#
# Velocity S-wave (km/s) = 3.75097 4.19924 3.98142
# Velocity P-wave (km/s) = 6.95398 7.62071 7.29497
#
# Compressibility (1/GPa) = 0.01891718
#
# Stress axis : x y z
#
# Youngs Moduli (GPa) = 49.11100 82.69470 64.19967
#
# Poissons Ratio (x) = 0.61392 0.27106
# Poissons Ratio (y) = 0.36460 0.18688
# Poissons Ratio (z) = 0.20736 0.24071
#
# Static dielectric constant tensor:
#      x y z
#    x 3.145690 0.000000 0.147880 
#    y 0.000000 3.670070 0.000000 
#    z 0.147880 0.000000 3.457510 
# 
# 
# High freq. dielectric constant tensor:
#      x y z
#    x 1.676030 0.000000 0.007430 
#    y 0.000000 1.685850 0.000000 
#    z 0.007430 0.000000 1.691820 
# 
# From -- ./inp_files/30175.got.cif
#   From: 2010.06.25/outbox.cif.g09.slc.cpg/sg10_16_cif.got.tgz:30175.got - 2010.06.27 22:07:45.
