data_PCOD8061130
_publ_section_title
;
Structure prediction by ZEFSAII (Michael W. Deem and Ramdas Pophale) SiO2 
 PCOD8061130
Probable space group: P 2/M
;
_chemical_formula_sum "Si O2"
_cell_formula_units_Z 26
_cell_length_a 9.555336
_cell_length_b 16.968819
_cell_length_c 8.299065
_cell_angle_alpha 90.000000
_cell_angle_beta 74.851005
_cell_angle_gamma 90.000000
_cell_volume 1298.871950
_symmetry_space_group_name_H-M "P 2/M"
_symmetry_group_IT_number 10
_symmetry_cell_setting 'monoclinic'
loop_
_space_group_symop_operation_xyz
x,y,z
-x,y,-z
-x,-y,-z
x,-y,z
loop_
_atom_site_type_symbol
_atom_site_label
_atom_site_fract_x
_atom_site_fract_y
_atom_site_fract_z
Si Si1 0.779038 0.712044 0.088433
Si Si2 0.919754 0.586253 0.254652
Si Si3 0.247547 0.587275 0.158844
Si Si4 0.345405 0.788515 0.575085
Si Si5 0.000000 0.156362 0.000000
Si Si6 0.350482 0.374917 0.454919
Si Si7 0.911278 0.090540 0.364047
O O1 0.898302 0.655233 0.132934
O O2 0.659156 0.742096 0.252009
O O3 0.859890 0.790412 0.003653
O O4 0.704890 0.658627 0.973862
O O5 0.913857 0.500000 0.172798
O O6 0.792914 0.587455 0.424032
O O7 0.082357 0.600031 0.274388
O O8 0.264503 0.500000 0.074003
O O9 0.359296 0.591368 0.272910
O O10 0.500000 0.830255 0.500000
O O11 0.327722 0.719460 0.449059
O O12 0.228362 0.855246 0.588512
O O13 0.010673 0.104819 0.832321
O O14 0.500000 0.398233 0.500000
O O15 0.000000 0.111710 0.500000
O O16 0.863283 0.000000 0.385740
#
# Coordination Sequence:
#
# PCOD8061130 Si02
#       7
#     4   4   4   4   2   4   4
#     4  10  19  34  57  85 113 149 201 244 303 344
#     4  10  19  33  52  77 111 147 195 256 303 350
#     4  11  21  33  55  84 111 150 203 257 305 350
#     4   9  21  40  60  82 115 156 195 239 292 352
#     4  10  19  36  61  92 126 160 188 244 297 350
#     4  10  22  37  53  76 113 158 205 244 297 357
#     4  10  22  38  65 100 126 155 193 237 294 361
#
# _framework density 20.017371000000001
#
# number of rings (size 3 to 8) (size 9 to 14) (size 15 to 20)
#    0.000    2.000    1.538    1.615    2.154    4.000 
#    0.000    6.923    0.000   10.615    0.000    5.385 
#    0.000    0.000    0.000    0.000    0.000    0.000 
#
# Total GULP energy -322117.664854 kJ/mol
# GULP energy per Si atom -12389.140956 kJ/mol
# Density = 1.997181 g / cm^3
# Si number density = 20.017371 Si / 1000 Ang^3
#
#
#
# Elastic Constant Matrix: (Units=GPa)
#
#
# Indices 1 2 3 4 5 6 
#
# 1 98.9502 49.0424 59.6810 0.0000 3.7284 0.0000
# 2 49.0424 111.6072 48.4113 0.0000 0.2745 0.0000
# 3 59.6810 48.4113 109.6637 0.0000 14.9005 0.0000
# 4 0.0000 0.0000 0.0000 29.2867 0.0000 6.5954
# 5 3.7284 0.2745 14.9005 0.0000 33.1140 0.0000
# 6 0.0000 0.0000 0.0000 6.5954 0.0000 18.0217
#
#
#
# Elastic Compliance Matrix: (Units=1/GPa)
#
#
# Indices 1 2 3 4 5 6 
#
# 1 0.016527 -0.004052 -0.007411 0.000000 0.001507 0.000000
# 2 -0.004052 0.012235 -0.003455 0.000000 0.001910 0.000000
# 3 -0.007411 -0.003455 0.015508 0.000000 -0.006115 0.000000
# 4 0.000000 0.000000 0.000000 0.037212 0.000000 -0.013619
# 5 0.001507 0.001910 -0.006115 0.000000 0.032765 0.000000
# 6 0.000000 0.000000 0.000000 -0.013619 0.000000 0.060473
#
#
# Mechanical properties :
#
#
# Convention : Reuss Voigt Hill
#
# Bulk Modulus (GPa) = 69.27893 70.49895 69.88894
# Shear Modulus (GPa) = 23.88163 26.95690 25.41926
#
# Velocity S-wave (km/s) = 3.45780 3.67369 3.56738
# Velocity P-wave (km/s) = 7.11522 7.30000 7.20820
#
# Compressibility (1/GPa) = 0.01443440
#
# Stress axis : x y z
#
# Youngs Moduli (GPa) = 60.50719 81.73602 64.48261
#
# Poissons Ratio (x) = 0.33116 0.47785
# Poissons Ratio (y) = 0.24515 0.22282
# Poissons Ratio (z) = 0.44839 0.28244
#
# Static dielectric constant tensor:
#      x y z
#    x 3.437970 0.000000 -0.090850 
#    y 0.000000 3.674450 0.000000 
#    z -0.090850 0.000000 3.780300 
# 
# 
# High freq. dielectric constant tensor:
#      x y z
#    x 1.764540 0.000000 -0.010390 
#    y 0.000000 1.777250 0.000000 
#    z -0.010390 0.000000 1.779920 
# 
# From -- ./inp_files/19612.got.cif
#   From: 2010.06.25/outbox.cif.g09.slc.cpg/sg10_10_cif.got.tgz:19612.got - 2010.06.27 22:07:45.
