data_PCOD8061916
_publ_section_title
;
Structure prediction by ZEFSAII (Michael W. Deem and Ramdas Pophale) SiO2 
 PCOD8061916
Probable space group: P 2/M
;
_chemical_formula_sum "Si O2"
_cell_formula_units_Z 24
_cell_length_a 12.259714
_cell_length_b 9.420609
_cell_length_c 24.803902
_cell_angle_alpha 90.000000
_cell_angle_beta 25.461580
_cell_angle_gamma 90.000000
_cell_volume 1231.551550
_symmetry_space_group_name_H-M "P 2/M"
_symmetry_group_IT_number 10
_symmetry_cell_setting 'monoclinic'
loop_
_space_group_symop_operation_xyz
x,y,z
-x,y,-z
-x,-y,-z
x,-y,z
loop_
_atom_site_type_symbol
_atom_site_label
_atom_site_fract_x
_atom_site_fract_y
_atom_site_fract_z
Si Si1 0.107871 0.657205 0.508834
Si Si2 0.257338 0.667602 0.645308
Si Si3 0.730978 0.836070 0.138876
Si Si4 0.402012 0.656983 0.207105
Si Si5 0.689270 0.331378 0.869456
Si Si6 0.577260 0.165343 0.327229
O O1 0.234492 0.500000 0.444593
O O2 0.296721 0.773260 0.447617
O O3 0.000000 0.711557 0.500000
O O4 0.894911 0.644113 0.648936
O O5 0.500000 0.711182 0.500000
O O6 0.265290 0.500000 0.653117
O O7 0.270297 0.750403 0.695629
O O8 0.984627 0.715846 0.742897
O O9 0.517076 0.754619 0.201738
O O10 0.717950 0.808147 0.208105
O O11 0.696018 0.000000 0.140050
O O12 0.000000 0.776756 0.000000
O O13 0.527242 0.500000 0.153815
O O14 0.424885 0.722672 0.136767
O O15 0.681540 0.500000 0.873976
O O16 0.500000 0.269410 0.000000
O O17 0.562248 0.000000 0.349001
#
# Coordination Sequence:
#
# PCOD8061916 Si02
#       6
#     4   4   4   4   4   4
#     4  10  19  34  56  84 115 145 182 230 286 342
#     4  10  21  39  62  85 115 154 192 237 295 346
#     4  10  23  40  55  78 117 158 189 229 288 342
#     4  10  20  36  60  86 111 142 187 238 285 340
#     4   9  19  35  56  84 113 143 185 239 289 335
#     4  11  23  37  58  86 117 151 192 237 281 341
#
# _framework density 19.487613
#
# number of rings (size 3 to 8) (size 9 to 14) (size 15 to 20)
#    0.000    2.000    1.667    1.500    2.333    5.000 
#    0.000    0.833    0.000    1.000    0.000    0.000 
#    0.000    0.000    0.000    0.000    0.000    0.000 
#
# Total GULP energy -297541.136316 kJ/mol
# GULP energy per Si atom -12397.547346 kJ/mol
# Density = 1.944326 g / cm^3
# Si number density = 19.487613 Si / 1000 Ang^3
#
#
#
# Elastic Constant Matrix: (Units=GPa)
#
#
# Indices 1 2 3 4 5 6 
#
# 1 102.6873 44.8828 25.7808 0.0000 11.2216 0.0000
# 2 44.8828 60.7834 26.8665 0.0000 0.9059 0.0000
# 3 25.7808 26.8665 101.3669 0.0000 3.6988 0.0000
# 4 0.0000 0.0000 0.0000 45.1797 0.0000 79.3314
# 5 11.2216 0.9059 3.6988 0.0000 32.1379 0.0000
# 6 0.0000 0.0000 0.0000 79.3314 0.0000 222.0605
#
#
#
# Elastic Compliance Matrix: (Units=1/GPa)
#
#
# Indices 1 2 3 4 5 6 
#
# 1 0.015194 -0.010780 -0.000828 0.000000 -0.004906 0.000000
# 2 -0.010780 0.026284 -0.004353 0.000000 0.003524 0.000000
# 3 -0.000828 -0.004353 0.011262 0.000000 -0.000884 0.000000
# 4 0.000000 0.000000 0.000000 0.059388 0.000000 -0.021216
# 5 -0.004906 0.003524 -0.000884 0.000000 0.032831 0.000000
# 6 0.000000 0.000000 0.000000 -0.021216 0.000000 0.012083
#
#
# Mechanical properties :
#
#
# Convention : Reuss Voigt Hill
#
# Bulk Modulus (GPa) = 48.03858 51.09975 49.56917
# Shear Modulus (GPa) = 25.52272 71.02946 48.27609
#
# Velocity S-wave (km/s) = 3.62289 6.04381 4.98262
# Velocity P-wave (km/s) = 6.49652 8.65922 7.65464
#
# Compressibility (1/GPa) = 0.02081660
#
# Stress axis : x y z
#
# Youngs Moduli (GPa) = 65.81429 38.04635 88.79581
#
# Poissons Ratio (x) = 0.41015 0.07353
# Poissons Ratio (y) = 0.70950 0.38654
# Poissons Ratio (z) = 0.05450 0.16562
#
# Static dielectric constant tensor:
#      x y z
#    x 3.662370 0.000000 0.142870 
#    y 0.000000 3.358440 0.000000 
#    z 0.142870 0.000000 3.735520 
# 
# 
# High freq. dielectric constant tensor:
#      x y z
#    x 1.766910 0.000000 0.010700 
#    y 0.000000 1.732130 0.000000 
#    z 0.010700 0.000000 1.763630 
# 
# From -- ./inp_files/45142.got.cif
#   From: 2010.06.25/outbox.cif.g09.slc.cpg/sg10_23_cif.got.tgz:45142.got - 2010.06.27 22:07:45.
