data_PCOD8061808
_publ_section_title
;
Structure prediction by ZEFSAII (Michael W. Deem and Ramdas Pophale) SiO2 
 PCOD8061808
Probable space group: P 2/M
;
_chemical_formula_sum "Si O2"
_cell_formula_units_Z 32
_cell_length_a 16.013441
_cell_length_b 13.162553
_cell_length_c 23.211162
_cell_angle_alpha 90.000000
_cell_angle_beta 160.766815
_cell_angle_gamma 90.000000
_cell_volume 1611.621882
_symmetry_space_group_name_H-M "P 2/M"
_symmetry_group_IT_number 10
_symmetry_cell_setting 'monoclinic'
loop_
_space_group_symop_operation_xyz
x,y,z
-x,y,-z
-x,-y,-z
x,-y,z
loop_
_atom_site_type_symbol
_atom_site_label
_atom_site_fract_x
_atom_site_fract_y
_atom_site_fract_z
Si Si1 0.302795 0.883366 0.964387
Si Si2 0.422414 0.120371 0.331618
Si Si3 0.029135 0.789999 0.161868
Si Si4 0.851789 0.884089 0.349648
Si Si5 0.038182 0.186469 0.354677
Si Si6 0.719509 0.385734 0.475023
Si Si7 0.238945 0.277401 0.123735
Si Si8 0.250675 0.389969 0.373834
O O1 0.108952 0.877606 0.891765
O O2 0.206117 0.823790 0.844895
O O3 0.332548 0.000000 0.965350
O O4 0.574414 0.834259 0.158835
O O5 0.286534 0.166785 0.300291
O O6 0.720201 0.148139 0.525599
O O7 0.300116 0.170611 0.195328
O O8 0.379485 0.000000 0.301945
O O9 0.072215 0.699636 0.235724
O O10 0.828797 0.747495 0.985597
O O11 0.000000 0.831056 0.500000
O O12 0.016259 0.879373 0.398395
O O13 0.804151 0.000000 0.336172
O O14 0.058398 0.303400 0.390317
O O15 0.806092 0.500000 0.514648
O O16 0.471802 0.355709 0.276975
O O17 0.651475 0.373942 0.497711
O O18 0.000000 0.329895 0.000000
O O19 0.500000 0.390776 0.500000
O O20 0.110366 0.500000 0.277109
#
# Coordination Sequence:
#
# PCOD8061808 Si02
#       8
#     4   4   4   4   4   4   4   4
#     4  11  23  37  59  90 121 156 194 238 286 344
#     4  10  21  35  56  84 122 167 196 233 291 355
#     4  11  22  35  54  88 125 155 194 242 288 351
#     4  10  23  41  64  90 115 153 200 243 289 344
#     4  11  21  40  62  85 120 154 198 245 291 349
#     4  10  21  37  59  83 111 153 199 246 300 351
#     4   9  20  34  51  78 115 159 202 240 283 342
#     4  10  19  34  55  79 113 156 199 241 287 341
#
# _framework density 19.855774
#
# number of rings (size 3 to 8) (size 9 to 14) (size 15 to 20)
#    0.000    1.750    1.250    4.125    3.500    4.500 
#    0.000    1.250    0.000    2.625    0.000    0.000 
#    0.000    0.000    0.000    0.000    0.000    0.000 
#
# Total GULP energy -396690.854541 kJ/mol
# GULP energy per Si atom -12396.589204 kJ/mol
# Density = 1.981058 g / cm^3
# Si number density = 19.855774 Si / 1000 Ang^3
#
#
#
# Elastic Constant Matrix: (Units=GPa)
#
#
# Indices 1 2 3 4 5 6 
#
# 1 77.3130 7.5074 38.1281 0.0000 -4.3291 0.0000
# 2 7.5074 97.9444 39.8546 0.0000 -0.9225 0.0000
# 3 38.1281 39.8546 138.2975 0.0000 -12.7263 0.0000
# 4 0.0000 0.0000 0.0000 19.2228 0.0000 -2.5472
# 5 -4.3291 -0.9225 -12.7263 0.0000 31.4274 0.0000
# 6 0.0000 0.0000 0.0000 -2.5472 0.0000 11.2701
#
#
#
# Elastic Compliance Matrix: (Units=1/GPa)
#
#
# Indices 1 2 3 4 5 6 
#
# 1 0.015005 0.000593 -0.004275 0.000000 0.000353 0.000000
# 2 0.000593 0.011623 -0.003609 0.000000 -0.001038 0.000000
# 3 -0.004275 -0.003609 0.009749 0.000000 0.003253 0.000000
# 4 0.000000 0.000000 0.000000 0.053628 0.000000 0.012121
# 5 0.000353 -0.001038 0.003253 0.000000 0.033155 0.000000
# 6 0.000000 0.000000 0.000000 0.012121 0.000000 0.091470
#
#
# Mechanical properties :
#
#
# Convention : Reuss Voigt Hill
#
# Bulk Modulus (GPa) = 45.88221 53.83725 49.85973
# Shear Modulus (GPa) = 21.14382 27.58837 24.36609
#
# Velocity S-wave (km/s) = 3.26677 3.73156 3.50688
# Velocity P-wave (km/s) = 6.11449 6.76307 6.44694
#
# Compressibility (1/GPa) = 0.02179494
#
# Stress axis : x y z
#
# Youngs Moduli (GPa) = 66.64442 86.03630 102.57815
#
# Poissons Ratio (x) = -0.05100 0.43854
# Poissons Ratio (y) = -0.03951 0.37015
# Poissons Ratio (z) = 0.28492 0.31046
#
# Static dielectric constant tensor:
#      x y z
#    x 3.581130 0.000000 -0.516390 
#    y 0.000000 3.843150 0.000000 
#    z -0.516390 0.000000 5.002360 
# 
# 
# High freq. dielectric constant tensor:
#      x y z
#    x 1.761270 0.000000 -0.015850 
#    y 0.000000 1.758810 0.000000 
#    z -0.015850 0.000000 1.776670 
# 
# From -- ./inp_files/85417.got.cif
#   From: 2010.06.25/outbox.cif.g09.slc.cpg/sg10_43_cif.got.tgz:85417.got - 2010.06.27 22:07:45.
