data_PCOD8061273
_publ_section_title
;
Structure prediction by ZEFSAII (Michael W. Deem and Ramdas Pophale) SiO2 
 PCOD8061273
Probable space group: P 2/M
;
_chemical_formula_sum "Si O2"
_cell_formula_units_Z 28
_cell_length_a 9.525568
_cell_length_b 13.307158
_cell_length_c 17.323041
_cell_angle_alpha 90.000000
_cell_angle_beta 138.896862
_cell_angle_gamma 90.000000
_cell_volume 1443.580274
_symmetry_space_group_name_H-M "P 2/M"
_symmetry_group_IT_number 10
_symmetry_cell_setting 'monoclinic'
loop_
_space_group_symop_operation_xyz
x,y,z
-x,y,-z
-x,-y,-z
x,-y,z
loop_
_atom_site_type_symbol
_atom_site_label
_atom_site_fract_x
_atom_site_fract_y
_atom_site_fract_z
Si Si1 0.422266 0.616917 0.605604
Si Si2 0.920600 0.613102 0.810465
Si Si3 0.560758 0.115194 0.157930
Si Si4 0.192354 0.247161 0.630721
Si Si5 0.031643 0.112468 0.771057
Si Si6 0.910819 0.693700 0.646266
Si Si7 0.898578 0.198431 0.039628
O O1 0.370972 0.500000 0.596364
O O2 0.671312 0.639235 0.704736
O O3 0.340896 0.678611 0.644716
O O4 0.312536 0.653857 0.480585
O O5 0.966877 0.500000 0.856986
O O6 0.996390 0.628397 0.753683
O O7 0.046009 0.684867 0.921516
O O8 0.680147 0.151136 0.284953
O O9 0.718861 0.126616 0.149916
O O10 0.487598 0.000000 0.137856
O O11 0.355780 0.186062 0.064193
O O12 0.000000 0.202447 0.500000
O O13 0.096061 0.315109 0.659423
O O14 0.004816 0.130934 0.851392
O O15 0.883846 0.189754 0.662058
O O16 0.954411 0.000000 0.719281
O O17 0.000000 0.164252 0.000000
#
# Coordination Sequence:
#
# PCOD8061273 Si02
#       7
#     4   4   4   4   4   4   4
#     4  10  19  33  54  78 106 141 175 209 256 308
#     4  10  21  36  54  75 102 139 177 213 256 306
#     4  10  20  36  57  77 102 139 175 208 254 311
#     4   9  19  34  53  81 110 134 166 212 259 301
#     4   9  19  36  56  77 103 137 174 211 256 309
#     4   9  18  32  55  81 106 134 173 215 253 303
#     4  11  22  35  54  77 104 133 174 221 258 302
#
# _framework density 19.39622
#
# number of rings (size 3 to 8) (size 9 to 14) (size 15 to 20)
#    0.000    2.286    0.000    2.571    0.000    7.143 
#    0.000    2.857    0.000   19.714    0.000    0.000 
#    0.000    0.000    0.000    0.000    0.000    0.000 
#
# Total GULP energy -347169.588839 kJ/mol
# GULP energy per Si atom -12398.913887 kJ/mol
# Density = 1.935207 g / cm^3
# Si number density = 19.396220 Si / 1000 Ang^3
#
#
#
# Elastic Constant Matrix: (Units=GPa)
#
#
# Indices 1 2 3 4 5 6 
#
# 1 86.9287 30.1854 23.2793 0.0000 -20.3683 0.0000
# 2 30.1854 114.6065 45.1222 0.0000 6.1970 0.0000
# 3 23.2793 45.1222 71.2009 0.0000 -1.3210 0.0000
# 4 0.0000 0.0000 0.0000 31.9214 0.0000 2.7197
# 5 -20.3683 6.1970 -1.3210 0.0000 26.1698 0.0000
# 6 0.0000 0.0000 0.0000 2.7197 0.0000 19.5612
#
#
#
# Elastic Compliance Matrix: (Units=1/GPa)
#
#
# Indices 1 2 3 4 5 6 
#
# 1 0.016957 -0.004192 -0.002627 0.000000 0.014058 0.000000
# 2 -0.004192 0.012924 -0.006944 0.000000 -0.006674 0.000000
# 3 -0.002627 -0.006944 0.019315 0.000000 0.000575 0.000000
# 4 0.000000 0.000000 0.000000 0.031703 0.000000 -0.004408
# 5 0.014058 -0.006674 0.000575 0.000000 0.050763 0.000000
# 6 0.000000 0.000000 0.000000 -0.004408 0.000000 0.051735
#
#
# Mechanical properties :
#
#
# Convention : Reuss Voigt Hill
#
# Bulk Modulus (GPa) = 46.14498 52.21221 49.17859
# Shear Modulus (GPa) = 22.92065 27.14040 25.03052
#
# Velocity S-wave (km/s) = 3.44133 3.74473 3.59623
# Velocity P-wave (km/s) = 6.29545 6.75829 6.53097
#
# Compressibility (1/GPa) = 0.02167083
#
# Stress axis : x y z
#
# Youngs Moduli (GPa) = 58.97404 77.37325 51.77408
#
# Poissons Ratio (x) = 0.32436 0.13599
# Poissons Ratio (y) = 0.24722 0.35951
# Poissons Ratio (z) = 0.15490 0.53726
#
# Static dielectric constant tensor:
#      x y z
#    x 3.657280 0.000000 -0.142830 
#    y 0.000000 3.512440 0.000000 
#    z -0.142830 0.000000 3.496250 
# 
# 
# High freq. dielectric constant tensor:
#      x y z
#    x 1.762520 0.000000 -0.011280 
#    y 0.000000 1.749680 0.000000 
#    z -0.011280 0.000000 1.743970 
# 
# From -- ./inp_files/75319.got.cif
#   From: 2010.06.25/outbox.cif.g09.slc.cpg/sg10_38_cif.got.tgz:75319.got - 2010.06.27 22:07:45.
