data_PCOD8061113
_publ_section_title
;
Structure prediction by ZEFSAII (Michael W. Deem and Ramdas Pophale) SiO2 
 PCOD8061113
Probable space group: P 2/M
;
_chemical_formula_sum "Si O2"
_cell_formula_units_Z 32
_cell_length_a 23.343358
_cell_length_b 8.537721
_cell_length_c 15.571670
_cell_angle_alpha 90.000000
_cell_angle_beta 31.997235
_cell_angle_gamma 90.000000
_cell_volume 1644.434752
_symmetry_space_group_name_H-M "P 2/M"
_symmetry_group_IT_number 10
_symmetry_cell_setting 'monoclinic'
loop_
_space_group_symop_operation_xyz
x,y,z
-x,y,-z
-x,-y,-z
x,-y,z
loop_
_atom_site_type_symbol
_atom_site_label
_atom_site_fract_x
_atom_site_fract_y
_atom_site_fract_z
Si Si1 0.405765 0.178808 0.674243
Si Si2 0.696335 0.184859 0.023775
Si Si3 0.867724 0.315213 0.397306
Si Si4 0.642704 0.815262 0.749608
Si Si5 0.115159 0.173038 0.810310
Si Si6 0.422711 0.684343 0.986715
Si Si7 0.786059 0.325433 0.160943
Si Si8 0.903424 0.322609 0.840346
O O1 0.500000 0.265997 0.500000
O O2 0.300298 0.192631 0.750484
O O3 0.438450 0.000000 0.646924
O O4 0.378980 0.250044 0.802262
O O5 0.655662 0.276299 0.992459
O O6 0.822707 0.218324 0.884809
O O7 0.683099 0.000000 0.026987
O O8 0.861155 0.500000 0.391220
O O9 0.757956 0.254577 0.578323
O O10 0.888515 0.232454 0.281152
O O11 0.969953 0.274079 0.330287
O O12 0.623016 0.777040 0.873836
O O13 0.642531 0.000000 0.734649
O O14 0.546852 0.739457 0.813233
O O15 0.180588 0.297128 0.783797
O O16 0.168919 0.000000 0.742740
O O17 0.000000 0.160841 0.000000
O O18 0.420327 0.500000 0.008011
O O19 0.736437 0.500000 0.217383
O O20 0.882199 0.306519 0.969688
O O21 0.884955 0.500000 0.832793
#
# Coordination Sequence:
#
# PCOD8061113 Si02
#       8
#     4   4   4   4   4   4   4   4
#     4   9  19  35  53  76 110 149 188 233 283 336
#     4  10  20  35  59  86 113 151 195 241 290 343
#     4  11  22  38  59  85 119 155 196 241 294 352
#     4  11  23  41  64  91 120 149 187 239 297 350
#     4  11  22  34  52  79 112 151 195 238 282 334
#     4  11  22  41  66  89 117 152 194 237 290 352
#     4  10  19  33  52  75 106 147 191 235 283 335
#     4   9  19  35  55  80 113 152 191 235 285 344
#
# _framework density 19.459574
#
# number of rings (size 3 to 8) (size 9 to 14) (size 15 to 20)
#    0.000    1.750    1.250    4.500    0.000    3.750 
#    0.000    4.375    0.000    3.750    0.000    0.000 
#    0.000    0.000    0.000    0.000    0.000    0.000 
#
# Total GULP energy -396610.300288 kJ/mol
# GULP energy per Si atom -12394.071884 kJ/mol
# Density = 1.941528 g / cm^3
# Si number density = 19.459574 Si / 1000 Ang^3
#
#
#
# Elastic Constant Matrix: (Units=GPa)
#
#
# Indices 1 2 3 4 5 6 
#
# 1 104.8828 14.0379 32.4910 0.0000 -5.5509 0.0000
# 2 14.0379 59.9970 19.2540 0.0000 -4.4992 0.0000
# 3 32.4910 19.2540 99.5615 0.0000 -17.2910 0.0000
# 4 0.0000 0.0000 0.0000 35.9845 0.0000 0.2962
# 5 -5.5509 -4.4992 -17.2910 0.0000 20.0453 0.0000
# 6 0.0000 0.0000 0.0000 0.2962 0.0000 31.6917
#
#
#
# Elastic Compliance Matrix: (Units=1/GPa)
#
#
# Indices 1 2 3 4 5 6 
#
# 1 0.010729 -0.001482 -0.003242 0.000000 -0.000158 0.000000
# 2 -0.001482 0.018000 -0.002784 0.000000 0.001228 0.000000
# 3 -0.003242 -0.002784 0.013381 0.000000 0.010019 0.000000
# 4 0.000000 0.000000 0.000000 0.027792 0.000000 -0.000260
# 5 -0.000158 0.001228 0.010019 0.000000 0.058761 0.000000
# 6 0.000000 0.000000 0.000000 -0.000260 0.000000 0.031556
#
#
# Mechanical properties :
#
#
# Convention : Reuss Voigt Hill
#
# Bulk Modulus (GPa) = 36.90968 44.00081 40.45525
# Shear Modulus (GPa) = 27.13472 30.78821 28.96146
#
# Velocity S-wave (km/s) = 3.73824 3.98196 3.86202
# Velocity P-wave (km/s) = 6.13523 6.61829 6.38134
#
# Compressibility (1/GPa) = 0.02709316
#
# Stress axis : x y z
#
# Youngs Moduli (GPa) = 93.20741 55.55632 74.73521
#
# Poissons Ratio (x) = 0.08232 0.24231
# Poissons Ratio (y) = 0.13810 0.20807
# Poissons Ratio (z) = 0.30220 0.15467
#
# Static dielectric constant tensor:
#      x y z
#    x 3.414180 0.000000 -0.166690 
#    y 0.000000 3.594450 0.000000 
#    z -0.166690 0.000000 3.624080 
# 
# 
# High freq. dielectric constant tensor:
#      x y z
#    x 1.753930 0.000000 -0.009660 
#    y 0.000000 1.764290 0.000000 
#    z -0.009660 0.000000 1.747270 
# 
# From -- ./inp_files/71480.got.cif
#   From: 2010.06.25/outbox.cif.g09.slc.cpg/sg10_36_cif.got.tgz:71480.got - 2010.06.27 22:07:45.
