data_PCOD8061900
_publ_section_title
;
Structure prediction by ZEFSAII (Michael W. Deem and Ramdas Pophale) SiO2 
 PCOD8061900
Probable space group: P 2/M
;
_chemical_formula_sum "Si O2"
_cell_formula_units_Z 32
_cell_length_a 15.164678
_cell_length_b 8.763942
_cell_length_c 23.826720
_cell_angle_alpha 90.000000
_cell_angle_beta 29.634234
_cell_angle_gamma 90.000000
_cell_volume 1565.774637
_symmetry_space_group_name_H-M "P 2/M"
_symmetry_group_IT_number 10
_symmetry_cell_setting 'monoclinic'
loop_
_space_group_symop_operation_xyz
x,y,z
-x,y,-z
-x,-y,-z
x,-y,z
loop_
_atom_site_type_symbol
_atom_site_label
_atom_site_fract_x
_atom_site_fract_y
_atom_site_fract_z
Si Si1 0.267667 0.321027 0.495796
Si Si2 0.967493 0.319009 0.151169
Si Si3 0.000593 0.319717 0.260058
Si Si4 0.598722 0.822621 0.797939
Si Si5 0.649798 0.334608 0.873799
Si Si6 0.276004 0.180989 0.904376
Si Si7 0.011216 0.171486 0.428102
Si Si8 0.649800 0.180239 0.263814
O O1 0.310414 0.500000 0.469671
O O2 0.175755 0.276245 0.606278
O O3 0.138025 0.278588 0.516194
O O4 0.447706 0.226737 0.388080
O O5 0.980327 0.500000 0.142816
O O6 0.993496 0.254813 0.200316
O O7 0.771837 0.266612 0.240939
O O8 0.109760 0.253186 0.028534
O O9 0.021374 0.500000 0.244632
O O10 0.174312 0.254497 0.196459
O O11 0.542194 0.779000 0.891813
O O12 0.458723 0.754632 0.830887
O O13 0.796569 0.749622 0.687497
O O14 0.613730 0.000000 0.777671
O O15 0.702817 0.500000 0.817320
O O16 0.500000 0.372303 0.000000
O O17 0.283742 0.229031 0.835120
O O18 0.260192 0.000000 0.920217
O O19 0.000000 0.160304 0.500000
O O20 0.995704 0.000000 0.410844
O O21 0.668538 0.000000 0.260856
#
# Coordination Sequence:
#
# PCOD8061900 Si02
#       8
#     4   4   4   4   4   4   4   4
#     4  11  22  39  62  88 121 160 206 253 298 358
#     4  11  23  41  65  91 118 154 203 255 306 364
#     4   9  20  38  58  85 124 162 195 245 310 358
#     4  10  20  34  55  84 115 151 193 232 280 343
#     4  10  19  34  56  81 114 156 195 232 286 351
#     4  10  22  41  62  87 123 161 196 244 308 368
#     4  10  20  36  57  83 119 161 198 238 294 353
#     4  11  24  43  64  87 120 160 200 251 314 369
#
# _framework density 20.437168
#
# number of rings (size 3 to 8) (size 9 to 14) (size 15 to 20)
#    0.000    1.750    1.250    3.000    0.000    7.000 
#    0.000    7.500    0.000    0.000    0.000    0.000 
#    0.000    0.000    0.000    0.000    0.000    0.000 
#
# Total GULP energy -396607.122826 kJ/mol
# GULP energy per Si atom -12393.972588 kJ/mol
# Density = 2.039065 g / cm^3
# Si number density = 20.437168 Si / 1000 Ang^3
#
#
#
# Elastic Constant Matrix: (Units=GPa)
#
#
# Indices 1 2 3 4 5 6 
#
# 1 116.9349 21.8800 26.0104 0.0000 -2.7629 0.0000
# 2 21.8800 31.5186 22.4715 0.0000 4.2522 0.0000
# 3 26.0104 22.4715 92.9146 0.0000 -0.8123 0.0000
# 4 0.0000 0.0000 0.0000 123.8946 0.0000 25.9879
# 5 -2.7629 4.2522 -0.8123 0.0000 37.6505 0.0000
# 6 0.0000 0.0000 0.0000 25.9879 0.0000 46.9945
#
#
#
# Elastic Compliance Matrix: (Units=1/GPa)
#
#
# Indices 1 2 3 4 5 6 
#
# 1 0.010040 -0.006241 -0.001289 0.000000 0.001414 0.000000
# 2 -0.006241 0.043007 -0.008702 0.000000 -0.005503 0.000000
# 3 -0.001289 -0.008702 0.013238 0.000000 0.001174 0.000000
# 4 0.000000 0.000000 0.000000 0.009130 0.000000 -0.005049
# 5 0.001414 -0.005503 0.001174 0.000000 0.027311 0.000000
# 6 0.000000 0.000000 0.000000 -0.005049 0.000000 0.024071
#
#
# Mechanical properties :
#
#
# Convention : Reuss Voigt Hill
#
# Bulk Modulus (GPa) = 29.56817 42.45468 36.01142
# Shear Modulus (GPa) = 29.31955 53.10833 41.21394
#
# Velocity S-wave (km/s) = 3.79175 5.10319 4.49555
# Velocity P-wave (km/s) = 5.80250 7.45264 6.67873
#
# Compressibility (1/GPa) = 0.03382015
#
# Stress axis : x y z
#
# Youngs Moduli (GPa) = 99.60492 23.25220 75.53904
#
# Poissons Ratio (x) = 0.14513 0.09734
# Poissons Ratio (y) = 0.62168 0.65735
# Poissons Ratio (z) = 0.12835 0.20234
#
# Static dielectric constant tensor:
#      x y z
#    x 3.916200 0.000000 -0.056360 
#    y 0.000000 3.652060 0.000000 
#    z -0.056360 0.000000 3.788330 
# 
# 
# High freq. dielectric constant tensor:
#      x y z
#    x 1.806800 0.000000 -0.002400 
#    y 0.000000 1.779990 0.000000 
#    z -0.002400 0.000000 1.810330 
# 
# From -- ./inp_files/89512.got.cif
#   From: 2010.06.25/outbox.cif.g09.slc.cpg/sg10_45_cif.got.tgz:89512.got - 2010.06.27 22:07:45.
