data_PCOD8061044
_publ_section_title
;
Structure prediction by ZEFSAII (Michael W. Deem and Ramdas Pophale) SiO2 
 PCOD8061044
Probable space group: P 2/M
;
_chemical_formula_sum "Si O2"
_cell_formula_units_Z 32
_cell_length_a 24.866498
_cell_length_b 16.836568
_cell_length_c 9.645045
_cell_angle_alpha 90.000000
_cell_angle_beta 154.385201
_cell_angle_gamma 90.000000
_cell_volume 1745.727467
_symmetry_space_group_name_H-M "P 2/M"
_symmetry_group_IT_number 10
_symmetry_cell_setting 'monoclinic'
loop_
_space_group_symop_operation_xyz
x,y,z
-x,y,-z
-x,-y,-z
x,-y,z
loop_
_atom_site_type_symbol
_atom_site_label
_atom_site_fract_x
_atom_site_fract_y
_atom_site_fract_z
Si Si1 0.298662 0.679317 0.294374
Si Si2 0.959876 0.089388 0.747175
Si Si3 0.041036 0.661766 0.237250
Si Si4 0.148918 0.215314 0.116041
Si Si5 0.355999 0.412747 0.694590
Si Si6 0.757231 0.592616 0.103220
Si Si7 0.227664 0.199807 0.597382
Si Si8 0.411573 0.318918 0.088473
O O1 0.240549 0.766489 0.197299
O O2 0.287220 0.626351 0.405423
O O3 0.441348 0.686370 0.578102
O O4 0.221401 0.636369 0.993772
O O5 0.817377 0.121937 0.421143
O O6 0.962293 0.000000 0.694360
O O7 0.000000 0.094874 0.000000
O O8 0.051393 0.142969 0.863436
O O9 0.117747 0.603527 0.516087
O O10 0.122293 0.735725 0.378896
O O11 0.000000 0.615637 0.000000
O O12 0.921694 0.699962 0.034536
O O13 0.234395 0.189526 0.446236
O O14 0.297800 0.500000 0.586343
O O15 0.500000 0.421886 0.000000
O O16 0.339736 0.359311 0.792246
O O17 0.731019 0.500000 0.018006
O O18 0.633464 0.631437 0.883158
O O19 0.359108 0.228498 0.967305
#
# Coordination Sequence:
#
# PCOD8061044 Si02
#       8
#     4   4   4   4   4   4   4   4
#     4  11  21  31  48  73 102 136 170 211 265 311
#     4   8  14  26  50  83 110 133 165 211 259 297
#     4   8  17  34  53  71  92 128 175 213 258 309
#     4   9  16  30  50  73 104 134 164 208 251 309
#     4   9  17  29  45  65  90 124 170 215 253 295
#     4  11  23  36  50  70  99 133 173 227 273 304
#     4   8  14  28  51  75  99 131 169 210 244 300
#     4  10  19  33  50  70  95 136 181 212 253 307
#
# _framework density 18.330466999999999
#
# number of rings (size 3 to 8) (size 9 to 14) (size 15 to 20)
#    0.000    2.750    1.250    2.625    0.000    2.750 
#    0.000    1.875    0.000    0.750    0.000   19.250 
#    0.000   10.000    0.000    0.000    0.000    0.000 
#
# Total GULP energy -396479.333740 kJ/mol
# GULP energy per Si atom -12389.979179 kJ/mol
# Density = 1.828875 g / cm^3
# Si number density = 18.330467 Si / 1000 Ang^3
#
#
#
# Elastic Constant Matrix: (Units=GPa)
#
#
# Indices 1 2 3 4 5 6 
#
# 1 75.5810 43.8830 26.3845 0.0000 -7.7658 0.0000
# 2 43.8830 110.4627 32.7609 0.0000 4.8056 0.0000
# 3 26.3845 32.7609 69.6036 0.0000 -5.1027 0.0000
# 4 0.0000 0.0000 0.0000 10.9992 0.0000 0.3532
# 5 -7.7658 4.8056 -5.1027 0.0000 25.7784 0.0000
# 6 0.0000 0.0000 0.0000 0.3532 0.0000 20.6984
#
#
#
# Elastic Compliance Matrix: (Units=1/GPa)
#
#
# Indices 1 2 3 4 5 6 
#
# 1 0.019067 -0.006790 -0.003570 0.000000 0.006303 0.000000
# 2 -0.006790 0.013171 -0.004014 0.000000 -0.005295 0.000000
# 3 -0.003570 -0.004014 0.017844 0.000000 0.003205 0.000000
# 4 0.000000 0.000000 0.000000 0.090966 0.000000 -0.001552
# 5 0.006303 -0.005295 0.003205 0.000000 0.042313 0.000000
# 6 0.000000 0.000000 0.000000 -0.001552 0.000000 0.048339
#
#
# Mechanical properties :
#
#
# Convention : Reuss Voigt Hill
#
# Bulk Modulus (GPa) = 46.87010 51.30044 49.08527
# Shear Modulus (GPa) = 18.68750 21.66980 20.17865
#
# Velocity S-wave (km/s) = 3.19639 3.44201 3.32147
# Velocity P-wave (km/s) = 6.26479 6.62146 6.44559
#
# Compressibility (1/GPa) = 0.02133556
#
# Stress axis : x y z
#
# Youngs Moduli (GPa) = 52.44654 75.92402 56.04036
#
# Poissons Ratio (x) = 0.51554 0.20004
# Poissons Ratio (y) = 0.35612 0.22492
# Poissons Ratio (z) = 0.18721 0.30473
#
# Static dielectric constant tensor:
#      x y z
#    x 3.421770 0.000000 0.092740 
#    y 0.000000 3.370000 0.000000 
#    z 0.092740 0.000000 3.388400 
# 
# 
# High freq. dielectric constant tensor:
#      x y z
#    x 1.702860 0.000000 0.008180 
#    y 0.000000 1.675320 0.000000 
#    z 0.008180 0.000000 1.694380 
# 
# From -- ./inp_files/36474.got.cif
#   From: 2010.06.25/outbox.cif.g09.slc.cpg/sg10_19_cif.got.tgz:36474.got - 2010.06.27 22:07:45.
