data_PCOD8061490
_publ_section_title
;
Structure prediction by ZEFSAII (Michael W. Deem and Ramdas Pophale) SiO2 
 PCOD8061490
Probable space group: P 2/M
;
_chemical_formula_sum "Si O2"
_cell_formula_units_Z 26
_cell_length_a 21.011492
_cell_length_b 15.397553
_cell_length_c 24.227835
_cell_angle_alpha 90.000000
_cell_angle_beta 170.119867
_cell_angle_gamma 90.000000
_cell_volume 1344.958475
_symmetry_space_group_name_H-M "P 2/M"
_symmetry_group_IT_number 10
_symmetry_cell_setting 'monoclinic'
loop_
_space_group_symop_operation_xyz
x,y,z
-x,y,-z
-x,-y,-z
x,-y,z
loop_
_atom_site_type_symbol
_atom_site_label
_atom_site_fract_x
_atom_site_fract_y
_atom_site_fract_z
Si Si1 0.103007 0.102126 0.891997
Si Si2 0.198391 0.195213 0.465027
Si Si3 0.952396 0.500000 0.895479
Si Si4 0.199557 0.295539 0.790013
Si Si5 0.301001 0.594721 0.710400
Si Si6 0.612088 0.777975 0.533389
Si Si7 0.713873 0.316041 0.844982
O O1 0.095945 0.147537 0.826076
O O2 0.725861 0.131646 0.601496
O O3 0.101291 0.000000 0.883760
O O4 0.460776 0.130929 0.232378
O O5 0.334767 0.286559 0.552735
O O6 0.983398 0.210796 0.339121
O O7 0.500000 0.500000 0.500000
O O8 0.000000 0.500000 0.000000
O O9 0.185453 0.417856 0.071291
O O10 0.872256 0.355278 0.488530
O O11 0.500000 0.268635 0.000000
O O12 0.364973 0.349177 0.981695
O O13 0.443370 0.500000 0.812436
O O14 0.000000 0.581494 0.500000
O O15 0.500000 0.799403 0.500000
O O16 0.305917 0.727367 0.233812
O O17 0.968426 0.717729 0.843036
#
# Coordination Sequence:
#
# PCOD8061490 Si02
#       7
#     4   4   2   4   4   4   4
#     4  10  21  37  59  82 106 142 175 216 280 342
#     4  10  21  38  57  77 113 141 179 226 273 334
#     4  12  22  34  54  76 105 144 191 226 246 300
#     4  10  19  33  56  79 104 145 187 222 272 327
#     4   9  17  30  48  76 108 136 177 224 265 314
#     4  10  19  34  56  80 107 137 172 222 269 319
#     4  10  21  35  51  76 108 146 182 216 268 307
#
# _framework density 19.331451999999999
#
# number of rings (size 3 to 8) (size 9 to 14) (size 15 to 20)
#    0.000    2.000    0.000    4.615    0.000    2.154 
#    2.769    0.000    0.000    8.308    0.000    0.000 
#    0.000    0.000    0.000    0.000    0.000    0.000 
#
# Total GULP energy -322142.662509 kJ/mol
# GULP energy per Si atom -12390.102404 kJ/mol
# Density = 1.928745 g / cm^3
# Si number density = 19.331452 Si / 1000 Ang^3
#
#
#
# Elastic Constant Matrix: (Units=GPa)
#
#
# Indices 1 2 3 4 5 6 
#
# 1 107.1936 47.6014 25.1827 0.0000 -8.3378 0.0000
# 2 47.6014 118.1983 28.0422 0.0000 7.1110 0.0000
# 3 25.1827 28.0422 71.3494 0.0000 -17.2443 0.0000
# 4 0.0000 0.0000 0.0000 23.7429 0.0000 -7.2591
# 5 -8.3378 7.1110 -17.2443 0.0000 41.0415 0.0000
# 6 0.0000 0.0000 0.0000 -7.2591 0.0000 23.6635
#
#
#
# Elastic Compliance Matrix: (Units=1/GPa)
#
#
# Indices 1 2 3 4 5 6 
#
# 1 0.011963 -0.004524 -0.001856 0.000000 0.002434 0.000000
# 2 -0.004524 0.011520 -0.004046 0.000000 -0.004615 0.000000
# 3 -0.001856 -0.004046 0.018186 0.000000 0.007965 0.000000
# 4 0.000000 0.000000 0.000000 0.046477 0.000000 0.014257
# 5 0.002434 -0.004615 0.007965 0.000000 0.029007 0.000000
# 6 0.000000 0.000000 0.000000 0.014257 0.000000 0.046633
#
#
# Mechanical properties :
#
#
# Convention : Reuss Voigt Hill
#
# Bulk Modulus (GPa) = 48.03877 55.37712 51.70794
# Shear Modulus (GPa) = 26.09916 30.75058 28.42487
#
# Velocity S-wave (km/s) = 3.67834 3.99269 3.83873
# Velocity P-wave (km/s) = 6.55319 7.06850 6.81572
#
# Compressibility (1/GPa) = 0.02081652
#
# Stress axis : x y z
#
# Youngs Moduli (GPa) = 83.58912 86.80601 54.98732
#
# Poissons Ratio (x) = 0.39271 0.10206
# Poissons Ratio (y) = 0.37816 0.22250
# Poissons Ratio (z) = 0.15514 0.35125
#
# Static dielectric constant tensor:
#      x y z
#    x 3.541790 0.000000 -0.298840 
#    y 0.000000 4.409200 0.000000 
#    z -0.298840 0.000000 3.765110 
# 
# 
# High freq. dielectric constant tensor:
#      x y z
#    x 1.752760 0.000000 -0.023290 
#    y 0.000000 1.731200 0.000000 
#    z -0.023290 0.000000 1.759540 
# 
# From -- ./inp_files/11342.got.cif
#   From: 2010.06.25/outbox.cif.g09.slc.cpg/sg10_6_cif.got.tgz:11342.got - 2010.06.27 22:07:45.
