data_PCOD8061995
_publ_section_title
;
Structure prediction by ZEFSAII (Michael W. Deem and Ramdas Pophale) SiO2 
 PCOD8061995
Probable space group: P 2/M
;
_chemical_formula_sum "Si O2"
_cell_formula_units_Z 28
_cell_length_a 15.639725
_cell_length_b 9.266840
_cell_length_c 11.721873
_cell_angle_alpha 90.000000
_cell_angle_beta 123.335250
_cell_angle_gamma 90.000000
_cell_volume 1419.346240
_symmetry_space_group_name_H-M "P 2/M"
_symmetry_group_IT_number 10
_symmetry_cell_setting 'monoclinic'
loop_
_space_group_symop_operation_xyz
x,y,z
-x,y,-z
-x,-y,-z
x,-y,z
loop_
_atom_site_type_symbol
_atom_site_label
_atom_site_fract_x
_atom_site_fract_y
_atom_site_fract_z
Si Si1 0.017989 0.329393 0.141031
Si Si2 0.386056 0.166142 0.386573
Si Si3 0.769465 0.831297 0.326619
Si Si4 0.825633 0.330124 0.148816
Si Si5 0.805960 0.164570 0.608559
Si Si6 0.363322 0.670840 0.146690
Si Si7 0.462228 0.836400 0.844428
O O1 0.029179 0.500000 0.149459
O O2 0.122905 0.265892 0.264640
O O3 0.923610 0.278194 0.149391
O O4 0.000000 0.271893 0.000000
O O5 0.500000 0.221510 0.500000
O O6 0.312647 0.186198 0.442277
O O7 0.337588 0.261282 0.250148
O O8 0.390159 0.000000 0.349767
O O9 0.831367 0.746433 0.275395
O O10 0.819099 0.795740 0.485250
O O11 0.652749 0.777733 0.243232
O O12 0.774370 0.000000 0.301173
O O13 0.826720 0.500000 0.169955
O O14 0.724357 0.282008 0.006369
O O15 0.839293 0.000000 0.654438
O O16 0.369070 0.500000 0.163111
O O17 0.471804 0.731683 0.185757
O O18 0.469271 0.000000 0.801432
O O19 0.500000 0.829096 0.000000
#
# Coordination Sequence:
#
# PCOD8061995 Si02
#       7
#     4   4   4   4   4   4   4
#     4  10  22  42  64  83 111 151 192 235 287 346
#     4  10  21  39  61  83 114 153 192 234 284 346
#     4  10  21  38  59  85 118 153 191 235 285 342
#     4  10  22  38  57  84 115 150 191 236 286 340
#     4  10  22  39  60  87 116 148 189 240 289 334
#     4  11  22  35  56  86 119 150 190 243 290 337
#     4  10  19  34  57  83 115 158 198 229 277 342
#
# _framework density 19.727391999999998
#
# number of rings (size 3 to 8) (size 9 to 14) (size 15 to 20)
#    0.000    1.857    1.429    2.143    0.000    7.714 
#    0.000    4.286    0.000    0.000    0.000    0.000 
#    0.000    0.000    0.000    0.000    0.000    0.000 
#
# Total GULP energy -347332.900047 kJ/mol
# GULP energy per Si atom -12404.746430 kJ/mol
# Density = 1.968249 g / cm^3
# Si number density = 19.727392 Si / 1000 Ang^3
#
#
#
# Elastic Constant Matrix: (Units=GPa)
#
#
# Indices 1 2 3 4 5 6 
#
# 1 125.9219 37.5118 54.0069 0.0000 -10.4667 0.0000
# 2 37.5118 46.7368 34.4824 0.0000 -7.4788 0.0000
# 3 54.0069 34.4824 108.9786 0.0000 -9.1201 0.0000
# 4 0.0000 0.0000 0.0000 22.5490 0.0000 -16.2280
# 5 -10.4667 -7.4788 -9.1201 0.0000 36.3509 0.0000
# 6 0.0000 0.0000 0.0000 -16.2280 0.0000 19.2154
#
#
#
# Elastic Compliance Matrix: (Units=1/GPa)
#
#
# Indices 1 2 3 4 5 6 
#
# 1 0.011468 -0.006398 -0.003568 0.000000 0.001091 0.000000
# 2 -0.006398 0.031951 -0.006684 0.000000 0.003055 0.000000
# 3 -0.003568 -0.006684 0.013134 0.000000 0.000893 0.000000
# 4 0.000000 0.000000 0.000000 0.113071 0.000000 0.095492
# 5 0.001091 0.003055 0.000893 0.000000 0.028676 0.000000
# 6 0.000000 0.000000 0.000000 0.095492 0.000000 0.132687
#
#
# Mechanical properties :
#
#
# Convention : Reuss Voigt Hill
#
# Bulk Modulus (GPa) = 43.00155 59.29328 51.14741
# Shear Modulus (GPa) = 13.43951 25.99882 19.71916
#
# Velocity S-wave (km/s) = 2.61293 3.63423 3.16505
# Velocity P-wave (km/s) = 5.56313 6.90882 6.27217
#
# Compressibility (1/GPa) = 0.02325498
#
# Stress axis : x y z
#
# Youngs Moduli (GPa) = 87.19837 31.29753 76.14009
#
# Poissons Ratio (x) = 0.20023 0.27164
# Poissons Ratio (y) = 0.55787 0.50890
# Poissons Ratio (z) = 0.31110 0.20918
#
# Static dielectric constant tensor:
#      x y z
#    x 3.656670 0.000000 -0.072440 
#    y 0.000000 3.417360 0.000000 
#    z -0.072440 0.000000 3.594110 
# 
# 
# High freq. dielectric constant tensor:
#      x y z
#    x 1.776930 0.000000 -0.006920 
#    y 0.000000 1.755280 0.000000 
#    z -0.006920 0.000000 1.774520 
# 
# From -- ./inp_files/50026.got.cif
#   From: 2010.06.25/outbox.cif.g09.slc.cpg/sg10_26_cif.got.tgz:50026.got - 2010.06.27 22:07:45.
