data_PCOD8061363
_publ_section_title
;
Structure prediction by ZEFSAII (Michael W. Deem and Ramdas Pophale) SiO2 
 PCOD8061363
Probable space group: P 2/M
;
_chemical_formula_sum "Si O2"
_cell_formula_units_Z 32
_cell_length_a 28.356425
_cell_length_b 8.643887
_cell_length_c 21.619142
_cell_angle_alpha 90.000000
_cell_angle_beta 161.659995
_cell_angle_gamma 90.000000
_cell_volume 1667.377912
_symmetry_space_group_name_H-M "P 2/M"
_symmetry_group_IT_number 10
_symmetry_cell_setting 'monoclinic'
loop_
_space_group_symop_operation_xyz
x,y,z
-x,y,-z
-x,-y,-z
x,-y,z
loop_
_atom_site_type_symbol
_atom_site_label
_atom_site_fract_x
_atom_site_fract_y
_atom_site_fract_z
Si Si1 0.574709 0.679318 0.907563
Si Si2 0.438231 0.181049 0.856581
Si Si3 0.830401 0.822865 0.163171
Si Si4 0.071720 0.323202 0.909177
Si Si5 0.904058 0.181073 0.585728
Si Si6 0.334838 0.321451 0.153726
Si Si7 0.596066 0.183062 0.420365
Si Si8 0.067152 0.817870 0.146771
O O1 0.546447 0.500000 0.861174
O O2 0.532213 0.724627 0.923709
O O3 0.473921 0.773575 0.733212
O O4 0.752121 0.719030 0.118809
O O5 0.265393 0.230421 0.637664
O O6 0.459519 0.000000 0.870379
O O7 0.500000 0.229361 0.000000
O O8 0.003052 0.779774 0.361849
O O9 0.815976 0.000000 0.166118
O O10 0.741666 0.795290 0.989323
O O11 0.036642 0.500000 0.881285
O O12 0.964656 0.275853 0.719386
O O13 0.041151 0.223289 0.931505
O O14 0.248071 0.300645 0.110775
O O15 0.919834 0.000000 0.621145
O O16 0.321729 0.500000 0.115287
O O17 0.508494 0.267183 0.368715
O O18 0.765725 0.246477 0.633488
O O19 0.589271 0.000000 0.420950
O O20 0.074275 0.000000 0.149901
O O21 0.000000 0.745964 0.000000
#
# Coordination Sequence:
#
# PCOD8061363 Si02
#       8
#     4   4   4   4   4   4   4   4
#     4  11  21  33  52  78 106 134 166 205 252 304
#     4  10  21  37  54  73 101 136 173 212 252 296
#     4   9  16  29  51  77 102 128 164 208 251 295
#     4  10  20  33  53  80 105 133 167 205 253 305
#     4   9  18  33  55  80 102 130 169 211 253 297
#     4   9  17  30  49  76 106 130 160 204 252 300
#     4  10  19  33  55  79 101 130 170 210 250 297
#     4  10  22  38  53  72 101 136 173 212 251 294
#
# _framework density 19.19181
#
# number of rings (size 3 to 8) (size 9 to 14) (size 15 to 20)
#    0.000    2.250    0.000    4.875    0.000    7.000 
#    0.000    1.250    0.000    7.500    0.000    0.000 
#    0.000    0.000    0.000    0.000    0.000    0.000 
#
# Total GULP energy -396655.529403 kJ/mol
# GULP energy per Si atom -12395.485294 kJ/mol
# Density = 1.914813 g / cm^3
# Si number density = 19.191810 Si / 1000 Ang^3
#
#
#
# Elastic Constant Matrix: (Units=GPa)
#
#
# Indices 1 2 3 4 5 6 
#
# 1 129.6765 27.7823 71.4921 0.0000 26.1172 0.0000
# 2 27.7823 43.1279 21.2306 0.0000 6.8649 0.0000
# 3 71.4921 21.2306 50.8908 0.0000 12.2714 0.0000
# 4 0.0000 0.0000 0.0000 10.2660 0.0000 10.3537
# 5 26.1172 6.8649 12.2714 0.0000 30.0046 0.0000
# 6 0.0000 0.0000 0.0000 10.3537 0.0000 18.4476
#
#
#
# Elastic Compliance Matrix: (Units=1/GPa)
#
#
# Indices 1 2 3 4 5 6 
#
# 1 0.038272 0.002931 -0.051913 0.000000 -0.012753 0.000000
# 2 0.002931 0.029500 -0.015733 0.000000 -0.002866 0.000000
# 3 -0.051913 -0.015733 0.096937 0.000000 0.009141 0.000000
# 4 0.000000 0.000000 0.000000 0.224468 0.000000 -0.125983
# 5 -0.012753 -0.002866 0.009141 0.000000 0.041346 0.000000
# 6 0.000000 0.000000 0.000000 -0.125983 0.000000 0.124916
#
#
# Mechanical properties :
#
#
# Convention : Reuss Voigt Hill
#
# Bulk Modulus (GPa) = 28.34525 51.63393 39.98959
# Shear Modulus (GPa) = 7.17742 18.62298 12.90020
#
# Velocity S-wave (km/s) = 1.93596 3.11844 2.59544
# Velocity P-wave (km/s) = 4.44958 6.31892 5.46478
#
# Compressibility (1/GPa) = 0.03527928
#
# Stress axis : x y z
#
# Youngs Moduli (GPa) = 26.12855 33.89840 10.31595
#
# Poissons Ratio (x) = -0.09935 0.53553
# Poissons Ratio (y) = -0.07658 0.16230
# Poissons Ratio (z) = 1.35641 0.53332
#
# Static dielectric constant tensor:
#      x y z
#    x 3.619550 0.000000 0.507750 
#    y 0.000000 3.417090 0.000000 
#    z 0.507750 0.000000 3.691630 
# 
# 
# High freq. dielectric constant tensor:
#      x y z
#    x 1.743520 0.000000 0.038140 
#    y 0.000000 1.745730 0.000000 
#    z 0.038140 0.000000 1.727420 
# 
# From -- ./inp_files/86925.got.cif
#   From: 2010.06.25/outbox.cif.g09.slc.cpg/sg10_44_cif.got.tgz:86925.got - 2010.06.27 22:07:45.
