data_PCOD8061390
_publ_section_title
;
Structure prediction by ZEFSAII (Michael W. Deem and Ramdas Pophale) SiO2 
 PCOD8061390
Probable space group: P 2/M
;
_chemical_formula_sum "Si O2"
_cell_formula_units_Z 28
_cell_length_a 9.145322
_cell_length_b 8.748968
_cell_length_c 25.675122
_cell_angle_alpha 90.000000
_cell_angle_beta 44.547072
_cell_angle_gamma 90.000000
_cell_volume 1441.096055
_symmetry_space_group_name_H-M "P 2/M"
_symmetry_group_IT_number 10
_symmetry_cell_setting 'monoclinic'
loop_
_space_group_symop_operation_xyz
x,y,z
-x,y,-z
-x,-y,-z
x,-y,z
loop_
_atom_site_type_symbol
_atom_site_label
_atom_site_fract_x
_atom_site_fract_y
_atom_site_fract_z
Si Si1 0.085240 0.819358 0.786415
Si Si2 0.119851 0.180951 0.355182
Si Si3 0.008508 0.319102 0.081645
Si Si4 0.455263 0.818735 0.354610
Si Si5 0.657295 0.818544 0.503501
Si Si6 0.785940 0.319232 0.778675
Si Si7 0.325019 0.680884 0.915501
O O1 0.321630 0.757338 0.721838
O O2 0.979909 0.760349 0.865696
O O3 0.960492 0.760065 0.768642
O O4 0.080267 0.000000 0.787127
O O5 0.277543 0.234944 0.360032
O O6 0.180221 0.274436 0.289187
O O7 0.890636 0.232136 0.430822
O O8 0.133269 0.000000 0.340876
O O9 0.002898 0.500000 0.091345
O O10 0.806297 0.259758 0.101059
O O11 0.214728 0.268423 0.997269
O O12 0.405941 0.750258 0.424235
O O13 0.457833 0.000000 0.357505
O O14 0.500000 0.751704 0.500000
O O15 0.641006 0.000000 0.509067
O O16 0.800248 0.500000 0.782041
O O17 0.559554 0.255799 0.854013
O O18 0.323033 0.500000 0.912783
#
# Coordination Sequence:
#
# PCOD8061390 Si02
#       7
#     4   4   4   4   4   4   4
#     4  11  22  35  51  76 108 138 171 212 259 305
#     4  10  19  33  55  80 104 132 171 217 259 299
#     4   9  17  35  59  79 100 131 173 215 256 303
#     4   9  18  32  52  78 106 137 173 211 252 303
#     4   9  16  28  50  79 108 137 169 206 250 303
#     4  11  22  36  53  75 104 138 174 210 256 310
#     4   8  17  34  57  79 100 133 175 213 250 306
#
# _framework density 19.429655
#
# number of rings (size 3 to 8) (size 9 to 14) (size 15 to 20)
#    0.000    2.429    0.000    3.857    0.000    4.571 
#    0.000    7.143    0.000    6.429    0.000    0.000 
#    0.000    0.000    0.000    0.000    0.000    0.000 
#
# Total GULP energy -347204.131262 kJ/mol
# GULP energy per Si atom -12400.147545 kJ/mol
# Density = 1.938543 g / cm^3
# Si number density = 19.429655 Si / 1000 Ang^3
#
#
#
# Elastic Constant Matrix: (Units=GPa)
#
#
# Indices 1 2 3 4 5 6 
#
# 1 149.7058 17.0207 76.3029 0.0000 1.3764 0.0000
# 2 17.0207 30.4923 24.5671 0.0000 -2.0119 0.0000
# 3 76.3029 24.5671 145.3871 0.0000 5.7419 0.0000
# 4 0.0000 0.0000 0.0000 72.5232 0.0000 46.9243
# 5 1.3764 -2.0119 5.7419 0.0000 34.5232 0.0000
# 6 0.0000 0.0000 0.0000 46.9243 0.0000 62.4712
#
#
#
# Elastic Compliance Matrix: (Units=1/GPa)
#
#
# Indices 1 2 3 4 5 6 
#
# 1 0.009177 -0.001402 -0.004592 0.000000 0.000316 0.000000
# 2 -0.001402 0.038555 -0.005909 0.000000 0.003286 0.000000
# 3 -0.004592 -0.005909 0.010361 0.000000 -0.001885 0.000000
# 4 0.000000 0.000000 0.000000 0.026826 0.000000 -0.020150
# 5 0.000316 0.003286 -0.001885 0.000000 0.029458 0.000000
# 6 0.000000 0.000000 0.000000 -0.020150 0.000000 0.031143
#
#
# Mechanical properties :
#
#
# Convention : Reuss Voigt Hill
#
# Bulk Modulus (GPa) = 29.16512 62.37406 45.76959
# Shear Modulus (GPa) = 27.66178 47.74983 37.70580
#
# Velocity S-wave (km/s) = 3.77727 4.96277 4.41004
# Velocity P-wave (km/s) = 5.83669 8.06294 7.03839
#
# Compressibility (1/GPa) = 0.03428754
#
# Stress axis : x y z
#
# Youngs Moduli (GPa) = 108.97301 25.93679 96.51661
#
# Poissons Ratio (x) = 0.03637 0.44317
# Poissons Ratio (y) = 0.15279 0.57030
# Poissons Ratio (z) = 0.50037 0.15326
#
# Static dielectric constant tensor:
#      x y z
#    x 3.730180 0.000000 -0.131370 
#    y 0.000000 3.049310 0.000000 
#    z -0.131370 0.000000 3.898020 
# 
# 
# High freq. dielectric constant tensor:
#      x y z
#    x 1.768710 0.000000 -0.000020 
#    y 0.000000 1.708940 0.000000 
#    z -0.000020 0.000000 1.774170 
# 
# From -- ./inp_files/91986.got.cif
#   From: 2010.06.25/outbox.cif.g09.slc.cpg/sg10_46_cif.got.tgz:91986.got - 2010.06.27 22:07:45.
