data_PCOD8061620
_publ_section_title
;
Structure prediction by ZEFSAII (Michael W. Deem and Ramdas Pophale) SiO2 
 PCOD8061620
Probable space group: P 2/M
;
_chemical_formula_sum "Si O2"
_cell_formula_units_Z 32
_cell_length_a 12.058538
_cell_length_b 8.807948
_cell_length_c 16.138529
_cell_angle_alpha 90.000000
_cell_angle_beta 91.591718
_cell_angle_gamma 90.000000
_cell_volume 1713.427514
_symmetry_space_group_name_H-M "P 2/M"
_symmetry_group_IT_number 10
_symmetry_cell_setting 'monoclinic'
loop_
_space_group_symop_operation_xyz
x,y,z
-x,y,-z
-x,-y,-z
x,-y,z
loop_
_atom_site_type_symbol
_atom_site_label
_atom_site_fract_x
_atom_site_fract_y
_atom_site_fract_z
Si Si1 0.265416 0.177544 0.881207
Si Si2 0.244793 0.676566 0.618266
Si Si3 0.379005 0.323398 0.032774
Si Si4 0.144560 0.323636 0.296781
Si Si5 0.094237 0.675548 0.768984
Si Si6 0.656680 0.823615 0.793202
Si Si7 0.414967 0.824869 0.730860
Si Si8 0.118689 0.820935 0.472317
O O1 0.144379 0.222810 0.843837
O O2 0.358050 0.225318 0.815826
O O3 0.269183 0.000000 0.902090
O O4 0.287389 0.273282 0.964205
O O5 0.248433 0.500000 0.599595
O O6 0.151288 0.720584 0.683382
O O7 0.365061 0.729134 0.653726
O O8 0.216734 0.760144 0.532459
O O9 0.363751 0.500000 0.054105
O O10 0.361777 0.222256 0.112875
O O11 0.500000 0.287382 0.000000
O O12 0.149100 0.500000 0.320715
O O13 0.248473 0.279421 0.243460
O O14 0.144572 0.227492 0.380014
O O15 0.035470 0.287502 0.240466
O O16 0.117481 0.500000 0.789920
O O17 0.545320 0.792363 0.738588
O O18 0.689875 0.000000 0.789941
O O19 0.388281 0.000000 0.713383
O O20 0.000000 0.754243 0.500000
O O21 0.118010 0.000000 0.477292
#
# Coordination Sequence:
#
# PCOD8061620 Si02
#       8
#     4   4   4   4   4   4   4   4
#     4  10  19  33  57  86 115 147 188 237 286 337
#     4  10  19  33  57  86 115 147 188 237 286 337
#     4  11  22  36  58  87 117 150 193 239 283 336
#     4  11  23  40  60  84 118 155 192 234 286 344
#     4   9  19  35  55  82 116 151 186 231 287 340
#     4  11  23  40  60  84 118 155 192 234 286 344
#     4   9  19  35  55  82 116 151 186 231 287 340
#     4  11  22  36  58  87 117 150 193 239 283 336
#
# _framework density 18.676017000000002
#
# number of rings (size 3 to 8) (size 9 to 14) (size 15 to 20)
#    0.000    1.750    2.500    2.250    0.000    4.000 
#    0.000    1.250    0.000    7.500    0.000    0.000 
#    0.000    0.000    0.000    0.000    0.000    0.000 
#
# Total GULP energy -396965.749654 kJ/mol
# GULP energy per Si atom -12405.179677 kJ/mol
# Density = 1.863351 g / cm^3
# Si number density = 18.676017 Si / 1000 Ang^3
#
#
#
# Elastic Constant Matrix: (Units=GPa)
#
#
# Indices 1 2 3 4 5 6 
#
# 1 95.2357 31.7792 34.7458 0.0000 11.5391 0.0000
# 2 31.7792 59.7138 28.0130 0.0000 13.1899 0.0000
# 3 34.7458 28.0130 75.7752 0.0000 16.8832 0.0000
# 4 0.0000 0.0000 0.0000 34.2853 0.0000 2.0931
# 5 11.5391 13.1899 16.8832 0.0000 27.5850 0.0000
# 6 0.0000 0.0000 0.0000 2.0931 0.0000 28.6878
#
#
#
# Elastic Compliance Matrix: (Units=1/GPa)
#
#
# Indices 1 2 3 4 5 6 
#
# 1 0.013892 -0.005232 -0.004282 0.000000 -0.000688 0.000000
# 2 -0.005232 0.023098 -0.004825 0.000000 -0.005903 0.000000
# 3 -0.004282 -0.004825 0.018562 0.000000 -0.007263 0.000000
# 4 0.000000 0.000000 0.000000 0.029298 0.000000 -0.002138
# 5 -0.000688 -0.005903 -0.007263 0.000000 0.043807 0.000000
# 6 0.000000 0.000000 0.000000 -0.002138 0.000000 0.035014
#
#
# Mechanical properties :
#
#
# Convention : Reuss Voigt Hill
#
# Bulk Modulus (GPa) = 37.21060 46.64452 41.92756
# Shear Modulus (GPa) = 24.83758 27.19074 26.01416
#
# Velocity S-wave (km/s) = 3.65076 3.81979 3.73623
# Velocity P-wave (km/s) = 6.14315 6.66965 6.41180
#
# Compressibility (1/GPa) = 0.02687406
#
# Stress axis : x y z
#
# Youngs Moduli (GPa) = 71.98407 43.29310 53.87252
#
# Poissons Ratio (x) = 0.22652 0.23070
# Poissons Ratio (y) = 0.37663 0.25992
# Poissons Ratio (z) = 0.30826 0.20888
#
# Static dielectric constant tensor:
#      x y z
#    x 3.488990 0.000000 0.177010 
#    y 0.000000 3.438200 0.000000 
#    z 0.177010 0.000000 3.275630 
# 
# 
# High freq. dielectric constant tensor:
#      x y z
#    x 1.717140 0.000000 0.022470 
#    y 0.000000 1.734550 0.000000 
#    z 0.022470 0.000000 1.715930 
# 
# From -- ./inp_files/49779.got.cif
#   From: 2010.06.25/outbox.cif.g09.slc.cpg/sg10_25_cif.got.tgz:49779.got - 2010.06.27 22:07:45.
