data_PCOD8061525
_publ_section_title
;
Structure prediction by ZEFSAII (Michael W. Deem and Ramdas Pophale) SiO2 
 PCOD8061525
Probable space group: P 2/M
;
_chemical_formula_sum "Si O2"
_cell_formula_units_Z 30
_cell_length_a 19.888942
_cell_length_b 14.638493
_cell_length_c 13.990028
_cell_angle_alpha 90.000000
_cell_angle_beta 20.876205
_cell_angle_gamma 90.000000
_cell_volume 1451.454373
_symmetry_space_group_name_H-M "P 2/M"
_symmetry_group_IT_number 10
_symmetry_cell_setting 'monoclinic'
loop_
_space_group_symop_operation_xyz
x,y,z
-x,y,-z
-x,-y,-z
x,-y,z
loop_
_atom_site_type_symbol
_atom_site_label
_atom_site_fract_x
_atom_site_fract_y
_atom_site_fract_z
Si Si1 0.848862 0.103650 0.893515
Si Si2 0.522356 0.600852 0.680305
Si Si3 0.179627 0.202732 0.887263
Si Si4 0.500000 0.657786 0.500000
Si Si5 0.213561 0.599394 0.245887
Si Si6 0.142487 0.787718 0.398557
Si Si7 0.240960 0.775495 0.595436
Si Si8 0.566978 0.106092 0.098961
O O1 0.024939 0.172517 0.643452
O O2 0.915229 0.000000 0.787386
O O3 0.785945 0.117440 0.086910
O O4 0.673828 0.126698 0.056825
O O5 0.596725 0.500000 0.609054
O O6 0.479710 0.599248 0.623532
O O7 0.681865 0.673300 0.495354
O O8 0.334231 0.624098 0.990764
O O9 0.309683 0.284000 0.750753
O O10 0.232266 0.173578 0.709851
O O11 0.963020 0.235125 0.180311
O O12 0.279432 0.500000 0.201895
O O13 0.228809 0.684982 0.300535
O O14 0.000000 0.587886 0.500000
O O15 0.000000 0.781524 0.500000
O O16 0.308375 0.859158 0.155219
O O17 0.372077 0.838156 0.354895
O O18 0.522802 0.000000 0.143509
#
# Coordination Sequence:
#
# PCOD8061525 Si02
#       8
#     4   4   4   2   4   4   4   4
#     4  10  20  34  55  84 111 144 189 237 282 324
#     4  10  19  35  59  85 115 147 186 229 275 330
#     4  10  22  37  58  76 112 147 187 227 278 332
#     4  10  21  36  57  86 112 142 185 234 281 320
#     4   9  17  28  51  85 113 143 182 223 269 324
#     4   9  17  30  53  78 114 145 181 227 279 324
#     4  10  21  39  54  80 110 152 185 224 278 341
#     4  10  19  33  56  82 108 143 186 230 279 334
#
# _framework density 20.668924000000001
#
# number of rings (size 3 to 8) (size 9 to 14) (size 15 to 20)
#    0.000    2.267    1.333    2.200    3.733    2.667 
#    0.000    9.667    0.000    2.400    0.000    1.867 
#    0.000    0.000    0.000    0.000    0.000    0.000 
#
# Total GULP energy -371819.126946 kJ/mol
# GULP energy per Si atom -12393.970898 kJ/mol
# Density = 2.062188 g / cm^3
# Si number density = 20.668924 Si / 1000 Ang^3
#
#
#
# Elastic Constant Matrix: (Units=GPa)
#
#
# Indices 1 2 3 4 5 6 
#
# 1 26.6748 13.9595 14.8241 0.0000 -2.4982 0.0000
# 2 13.9595 124.7283 42.6213 0.0000 -0.9261 0.0000
# 3 14.8241 42.6213 110.8456 0.0000 -6.2783 0.0000
# 4 0.0000 0.0000 0.0000 20.9242 0.0000 18.7948
# 5 -2.4982 -0.9261 -6.2783 0.0000 25.0345 0.0000
# 6 0.0000 0.0000 0.0000 18.7948 0.0000 3.5898
#
#
#
# Elastic Compliance Matrix: (Units=1/GPa)
#
#
# Indices 1 2 3 4 5 6 
#
# 1 0.041779 -0.003226 -0.004177 0.000000 0.003002 0.000000
# 2 -0.003226 0.009487 -0.003261 0.000000 -0.000789 0.000000
# 3 -0.004177 -0.003261 0.010959 0.000000 0.002211 0.000000
# 4 0.000000 0.000000 0.000000 -0.012907 0.000000 0.067575
# 5 0.003002 -0.000789 0.002211 0.000000 0.040770 0.000000
# 6 0.000000 0.000000 0.000000 0.067575 0.000000 -0.075231
#
#
# Mechanical properties :
#
#
# Convention : Reuss Voigt Hill
#
# Bulk Modulus (GPa) = 24.45153 45.00648 34.72901
# Shear Modulus (GPa) = 100.36482 22.63260 61.49871
#
# Velocity S-wave (km/s) = 6.97594 3.31268 5.46066
# Velocity P-wave (km/s) = 8.76018 6.03771 7.52312
#
# Compressibility (1/GPa) = 0.04089723
#
# Stress axis : x y z
#
# Youngs Moduli (GPa) = 23.93527 105.40737 91.24683
#
# Poissons Ratio (x) = 0.34008 0.38112
# Poissons Ratio (y) = 0.07722 0.29756
# Poissons Ratio (z) = 0.09997 0.34374
#
# Static dielectric constant tensor:
#      x y z
#    x 3.425330 0.000000 0.179900 
#    y 0.000000 4.003270 0.000000 
#    z 0.179900 0.000000 3.866290 
# 
# 
# High freq. dielectric constant tensor:
#      x y z
#    x 1.772330 0.000000 0.013120 
#    y 0.000000 1.810520 0.000000 
#    z 0.013120 0.000000 1.819680 
# 
# From -- ./inp_files/70704.got.cif
#   From: 2010.06.25/outbox.cif.g09.slc.cpg/sg10_36_cif.got.tgz:70704.got - 2010.06.27 22:07:45.
