data_PCOD8061563
_publ_section_title
;
Structure prediction by ZEFSAII (Michael W. Deem and Ramdas Pophale) SiO2 
 PCOD8061563
Probable space group: P 2/M
;
_chemical_formula_sum "Si O2"
_cell_formula_units_Z 32
_cell_length_a 12.628769
_cell_length_b 8.917550
_cell_length_c 14.415359
_cell_angle_alpha 90.000000
_cell_angle_beta 85.681711
_cell_angle_gamma 90.000000
_cell_volume 1618.815613
_symmetry_space_group_name_H-M "P 2/M"
_symmetry_group_IT_number 10
_symmetry_cell_setting 'monoclinic'
loop_
_space_group_symop_operation_xyz
x,y,z
-x,y,-z
-x,-y,-z
x,-y,z
loop_
_atom_site_type_symbol
_atom_site_label
_atom_site_fract_x
_atom_site_fract_y
_atom_site_fract_z
Si Si1 0.972348 0.822278 0.398489
Si Si2 0.868966 0.676469 0.756920
Si Si3 0.504538 0.829799 0.108529
Si Si4 0.757651 0.822460 0.323842
Si Si5 0.628329 0.325055 0.739523
Si Si6 0.109527 0.826236 0.046148
Si Si7 0.260579 0.177770 0.877979
Si Si8 0.527103 0.821997 0.395519
O O1 0.851579 0.769029 0.385775
O O2 0.000000 0.767355 0.500000
O O3 0.049790 0.747825 0.320034
O O4 0.984262 0.000000 0.387715
O O5 0.886116 0.500000 0.758523
O O6 0.751884 0.718699 0.728093
O O7 0.889729 0.737089 0.858398
O O8 0.414228 0.724698 0.157002
O O9 0.618346 0.767159 0.132547
O O10 0.487532 0.000000 0.145090
O O11 0.500000 0.821450 0.000000
O O12 0.788885 0.770361 0.217220
O O13 0.643478 0.755800 0.361982
O O14 0.747658 0.000000 0.327216
O O15 0.610630 0.500000 0.726729
O O16 0.564258 0.238354 0.665103
O O17 0.131221 0.000000 0.068053
O O18 0.198070 0.756225 0.970611
O O19 0.000000 0.805658 0.000000
O O20 0.255155 0.000000 0.888672
O O21 0.500000 0.766374 0.500000
O O22 0.526274 0.000000 0.387864
#
# Coordination Sequence:
#
# PCOD8061563 Si02
#       8
#     4   4   4   4   4   4   4   4
#     4  10  22  39  64  92 116 148 195 252 302 348
#     4  11  25  42  58  83 124 167 201 240 292 353
#     4  10  19  33  56  84 113 150 196 243 291 342
#     4   9  17  34  58  89 122 144 182 245 301 351
#     4  11  24  40  57  83 124 166 201 240 288 352
#     4  10  20  36  62  91 116 151 200 251 301 349
#     4   9  16  29  53  83 114 145 180 234 294 343
#     4  10  21  37  64  93 117 151 195 250 307 355
#
# _framework density 19.76754
#
# number of rings (size 3 to 8) (size 9 to 14) (size 15 to 20)
#    0.000    2.000    1.250    2.250    1.750    6.000 
#    0.000    1.250    0.000    0.000    0.000    0.000 
#    0.000    0.000    0.000    0.000    0.000    0.000 
#
# Total GULP energy -396764.331446 kJ/mol
# GULP energy per Si atom -12398.885358 kJ/mol
# Density = 1.972255 g / cm^3
# Si number density = 19.767540 Si / 1000 Ang^3
#
#
#
# Elastic Constant Matrix: (Units=GPa)
#
#
# Indices 1 2 3 4 5 6 
#
# 1 118.3066 32.6919 72.1515 0.0000 1.9411 0.0000
# 2 32.6919 30.2297 29.9869 0.0000 -1.4457 0.0000
# 3 72.1515 29.9869 147.2418 0.0000 -3.6756 0.0000
# 4 0.0000 0.0000 0.0000 7.9812 0.0000 4.0742
# 5 1.9411 -1.4457 -3.6756 0.0000 39.0498 0.0000
# 6 0.0000 0.0000 0.0000 4.0742 0.0000 21.1777
#
#
#
# Elastic Compliance Matrix: (Units=1/GPa)
#
#
# Indices 1 2 3 4 5 6 
#
# 1 0.014481 -0.010850 -0.004926 0.000000 -0.001585 0.000000
# 2 -0.010850 0.049606 -0.004738 0.000000 0.001930 0.000000
# 3 -0.004926 -0.004738 0.010196 0.000000 0.001029 0.000000
# 4 0.000000 0.000000 0.000000 0.138939 0.000000 -0.026729
# 5 -0.001585 0.001930 0.001029 0.000000 0.025855 0.000000
# 6 0.000000 0.000000 0.000000 -0.026729 0.000000 0.052362
#
#
# Mechanical properties :
#
#
# Convention : Reuss Voigt Hill
#
# Bulk Modulus (GPa) = 30.07017 62.82652 46.44834
# Shear Modulus (GPa) = 14.55388 24.37159 19.46274
#
# Velocity S-wave (km/s) = 2.71634 3.51509 3.14121
# Velocity P-wave (km/s) = 5.00828 6.95170 6.05843
#
# Compressibility (1/GPa) = 0.03325555
#
# Stress axis : x y z
#
# Youngs Moduli (GPa) = 69.05631 20.15896 98.07883
#
# Poissons Ratio (x) = 0.21872 0.48312
# Poissons Ratio (y) = 0.74926 0.46467
# Poissons Ratio (z) = 0.34016 0.09551
#
# Static dielectric constant tensor:
#      x y z
#    x 3.711160 0.000000 -0.052980 
#    y 0.000000 3.260820 0.000000 
#    z -0.052980 0.000000 3.772420 
# 
# 
# High freq. dielectric constant tensor:
#      x y z
#    x 1.786730 0.000000 0.001420 
#    y 0.000000 1.728430 0.000000 
#    z 0.001420 0.000000 1.786650 
# 
# From -- ./inp_files/63799.got.cif
#   From: 2010.06.25/outbox.cif.g09.slc.cpg/sg10_32_cif.got.tgz:63799.got - 2010.06.27 22:07:45.
