data_PCOD8061177
_publ_section_title
;
Structure prediction by ZEFSAII (Michael W. Deem and Ramdas Pophale) SiO2 
 PCOD8061177
Probable space group: P 2/M
;
_chemical_formula_sum "Si O2"
_cell_formula_units_Z 26
_cell_length_a 19.288460
_cell_length_b 9.672874
_cell_length_c 10.937017
_cell_angle_alpha 90.000000
_cell_angle_beta 43.867589
_cell_angle_gamma 90.000000
_cell_volume 1414.104552
_symmetry_space_group_name_H-M "P 2/M"
_symmetry_group_IT_number 10
_symmetry_cell_setting 'monoclinic'
loop_
_space_group_symop_operation_xyz
x,y,z
-x,y,-z
-x,-y,-z
x,-y,z
loop_
_atom_site_type_symbol
_atom_site_label
_atom_site_fract_x
_atom_site_fract_y
_atom_site_fract_z
Si Si1 0.500000 0.248482 0.000000
Si Si2 0.721810 0.341075 0.146565
Si Si3 0.460974 0.347189 0.786097
Si Si4 0.294965 0.848788 0.356498
Si Si5 0.089207 0.337197 0.234839
Si Si6 0.369810 0.840352 0.525545
Si Si7 0.870686 0.336791 0.546919
O O1 0.467312 0.339446 0.924889
O O2 0.594555 0.155908 0.842603
O O3 0.722543 0.500000 0.193141
O O4 0.653120 0.328362 0.112791
O O5 0.686285 0.238276 0.295749
O O6 0.833201 0.289745 0.967977
O O7 0.500042 0.500000 0.698467
O O8 0.524037 0.231892 0.634594
O O9 0.300992 0.827995 0.493989
O O10 0.222956 0.731292 0.399464
O O11 0.250756 0.000000 0.382295
O O12 0.094400 0.500000 0.244500
O O13 0.121772 0.277453 0.325199
O O14 0.975132 0.295344 0.346108
O O15 0.389427 0.000000 0.536479
O O16 0.852301 0.500000 0.565103
#
# Coordination Sequence:
#
# PCOD8061177 Si02
#       7
#     2   4   4   4   4   4   4
#     4  10  20  34  54  78 106 136 166 198 250 312
#     4  10  19  33  53  76 102 132 170 213 251 292
#     4  10  20  33  53  80 105 131 166 210 253 297
#     4  10  21  36  52  72 103 137 170 210 252 295
#     4   8  16  32  54  80 106 130 161 207 257 305
#     4  10  22  37  50  69 102 142 176 207 250 301
#     4   9  17  33  57  80 103 132 165 203 255 309
#
# _framework density 18.386192999999999
#
# number of rings (size 3 to 8) (size 9 to 14) (size 15 to 20)
#    0.000    2.462    0.000    3.231    0.000    8.000 
#    0.000    5.385    0.000    4.615    0.000    0.000 
#    0.000    0.000    0.000    0.000    0.000    0.000 
#
# Total GULP energy -322279.315060 kJ/mol
# GULP energy per Si atom -12395.358272 kJ/mol
# Density = 1.834435 g / cm^3
# Si number density = 18.386193 Si / 1000 Ang^3
#
#
#
# Elastic Constant Matrix: (Units=GPa)
#
#
# Indices 1 2 3 4 5 6 
#
# 1 79.5094 41.1821 49.7066 0.0000 -8.6218 0.0000
# 2 41.1821 96.4882 51.1465 0.0000 -0.9194 0.0000
# 3 49.7066 51.1465 125.1888 0.0000 1.3732 0.0000
# 4 0.0000 0.0000 0.0000 14.3868 0.0000 2.2655
# 5 -8.6218 -0.9194 1.3732 0.0000 24.2631 0.0000
# 6 0.0000 0.0000 0.0000 2.2655 0.0000 15.2267
#
#
#
# Elastic Compliance Matrix: (Units=1/GPa)
#
#
# Indices 1 2 3 4 5 6 
#
# 1 0.019669 -0.005292 -0.005725 0.000000 0.007113 0.000000
# 2 -0.005292 0.014669 -0.003880 0.000000 -0.001105 0.000000
# 3 -0.005725 -0.003880 0.011878 0.000000 -0.002854 0.000000
# 4 0.000000 0.000000 0.000000 0.071176 0.000000 -0.010590
# 5 0.007113 -0.001105 -0.002854 0.000000 0.043862 0.000000
# 6 0.000000 0.000000 0.000000 -0.010590 0.000000 0.067250
#
#
# Mechanical properties :
#
#
# Convention : Reuss Voigt Hill
#
# Bulk Modulus (GPa) = 60.89862 65.02853 62.96358
# Shear Modulus (GPa) = 18.95589 21.38541 20.17065
#
# Velocity S-wave (km/s) = 3.21438 3.41416 3.31577
# Velocity P-wave (km/s) = 6.85348 7.14051 6.99847
#
# Compressibility (1/GPa) = 0.01642073
#
# Stress axis : x y z
#
# Youngs Moduli (GPa) = 50.84182 68.17264 84.19239
#
# Poissons Ratio (x) = 0.36078 0.48204
# Poissons Ratio (y) = 0.26906 0.32663
# Poissons Ratio (z) = 0.29109 0.26448
#
# Static dielectric constant tensor:
#      x y z
#    x 3.334880 0.000000 -0.065980 
#    y 0.000000 3.241280 0.000000 
#    z -0.065980 0.000000 3.665440 
# 
# 
# High freq. dielectric constant tensor:
#      x y z
#    x 1.705940 0.000000 -0.002850 
#    y 0.000000 1.698050 0.000000 
#    z -0.002850 0.000000 1.713640 
# 
# From -- ./inp_files/55130.got.cif
#   From: 2010.06.25/outbox.cif.g09.slc.cpg/sg10_28_cif.got.tgz:55130.got - 2010.06.27 22:07:45.
