data_PCOD8061094
_publ_section_title
;
Structure prediction by ZEFSAII (Michael W. Deem and Ramdas Pophale) SiO2 
 PCOD8061094
Probable space group: P 2/M
;
_chemical_formula_sum "Si O2"
_cell_formula_units_Z 28
_cell_length_a 26.402698
_cell_length_b 8.811590
_cell_length_c 20.332982
_cell_angle_alpha 90.000000
_cell_angle_beta 18.876598
_cell_angle_gamma 90.000000
_cell_volume 1530.451340
_symmetry_space_group_name_H-M "P 2/M"
_symmetry_group_IT_number 10
_symmetry_cell_setting 'monoclinic'
loop_
_space_group_symop_operation_xyz
x,y,z
-x,y,-z
-x,-y,-z
x,-y,z
loop_
_atom_site_type_symbol
_atom_site_label
_atom_site_fract_x
_atom_site_fract_y
_atom_site_fract_z
Si Si1 0.441653 0.179359 0.968310
Si Si2 0.358297 0.322946 0.935287
Si Si3 0.847820 0.680699 0.149293
Si Si4 0.261504 0.820839 0.315236
Si Si5 0.065740 0.820074 0.230276
Si Si6 0.523804 0.677344 0.601083
Si Si7 0.797800 0.679996 0.062736
O O1 0.423786 0.273799 0.924383
O O2 0.605208 0.234528 0.798328
O O3 0.439092 0.000000 0.956503
O O4 0.303301 0.226125 0.189000
O O5 0.317177 0.500000 0.984581
O O6 0.490112 0.284937 0.718694
O O7 0.201894 0.230826 0.111930
O O8 0.847479 0.500000 0.154852
O O9 0.689892 0.750621 0.376002
O O10 0.852295 0.732194 0.067839
O O11 0.000000 0.746941 0.000000
O O12 0.094960 0.753573 0.541796
O O13 0.258247 0.000000 0.322331
O O14 0.063196 0.000000 0.228969
O O15 0.084653 0.753600 0.134019
O O16 0.537837 0.500000 0.571068
O O17 0.379707 0.738085 0.733299
O O18 0.805656 0.500000 0.044109
#
# Coordination Sequence:
#
# PCOD8061094 Si02
#       7
#     4   4   4   4   4   4   4
#     4   9  17  34  55  72  94 127 166 202 239 286
#     4  10  20  33  49  74 103 128 159 200 245 288
#     4   9  16  26  44  70  94 119 156 196 233 279
#     4   8  17  33  53  73  94 127 168 202 234 286
#     4  10  19  33  52  73  97 128 165 200 240 289
#     4   8  15  28  44  62  90 126 156 185 228 283
#     4   9  17  30  48  69  94 123 156 196 240 281
#
# _framework density 18.295255999999998
#
# number of rings (size 3 to 8) (size 9 to 14) (size 15 to 20)
#    0.000    3.000    0.000    3.000    0.000    3.429 
#    0.000    8.571    0.000    8.143    0.000    0.000 
#    0.000    0.000    0.000    0.000    0.000    0.000 
#
# Total GULP energy -347086.366614 kJ/mol
# GULP energy per Si atom -12395.941665 kJ/mol
# Density = 1.825362 g / cm^3
# Si number density = 18.295256 Si / 1000 Ang^3
#
#
#
# Elastic Constant Matrix: (Units=GPa)
#
#
# Indices 1 2 3 4 5 6 
#
# 1 138.9973 21.1975 41.8740 0.0000 6.5456 0.0000
# 2 21.1975 28.0421 21.4636 0.0000 4.9395 0.0000
# 3 41.8740 21.4636 95.3946 0.0000 1.8045 0.0000
# 4 0.0000 0.0000 0.0000 17.0989 0.0000 2.2343
# 5 6.5456 4.9395 1.8045 0.0000 19.1612 0.0000
# 6 0.0000 0.0000 0.0000 2.2343 0.0000 21.3145
#
#
#
# Elastic Compliance Matrix: (Units=1/GPa)
#
#
# Indices 1 2 3 4 5 6 
#
# 1 0.008773 -0.004126 -0.002891 0.000000 -0.001661 0.000000
# 2 -0.004126 0.047111 -0.008601 0.000000 -0.009925 0.000000
# 3 -0.002891 -0.008601 0.013651 0.000000 0.001919 0.000000
# 4 0.000000 0.000000 0.000000 0.059296 0.000000 -0.006216
# 5 -0.001661 -0.009925 0.001919 0.000000 0.055134 0.000000
# 6 0.000000 0.000000 0.000000 -0.006216 0.000000 0.047568
#
#
# Mechanical properties :
#
#
# Convention : Reuss Voigt Hill
#
# Bulk Modulus (GPa) = 26.11077 47.94492 37.02785
# Shear Modulus (GPa) = 18.14650 23.37483 20.76066
#
# Velocity S-wave (km/s) = 3.15281 3.57829 3.37227
# Velocity P-wave (km/s) = 5.24943 6.58296 5.95365
#
# Compressibility (1/GPa) = 0.03829837
#
# Stress axis : x y z
#
# Youngs Moduli (GPa) = 113.98862 21.22634 73.25603
#
# Poissons Ratio (x) = 0.08758 0.21179
# Poissons Ratio (y) = 0.47033 0.63008
# Poissons Ratio (z) = 0.32955 0.18257
#
# Static dielectric constant tensor:
#      x y z
#    x 3.417820 0.000000 0.006890 
#    y 0.000000 2.925660 0.000000 
#    z 0.006890 0.000000 3.859640 
# 
# 
# High freq. dielectric constant tensor:
#      x y z
#    x 1.714260 0.000000 0.006150 
#    y 0.000000 1.665530 0.000000 
#    z 0.006150 0.000000 1.716680 
# 
# From -- ./inp_files/79219.got.cif
#   From: 2010.06.25/outbox.cif.g09.slc.cpg/sg10_40_cif.got.tgz:79219.got - 2010.06.27 22:07:45.
