data_PCOD8061603
_publ_section_title
;
Structure prediction by ZEFSAII (Michael W. Deem and Ramdas Pophale) SiO2 
 PCOD8061603
Probable space group: P 2/M
;
_chemical_formula_sum "Si O2"
_cell_formula_units_Z 32
_cell_length_a 12.791771
_cell_length_b 8.719306
_cell_length_c 31.455051
_cell_angle_alpha 90.000000
_cell_angle_beta 27.437187
_cell_angle_gamma 90.000000
_cell_volume 1616.563452
_symmetry_space_group_name_H-M "P 2/M"
_symmetry_group_IT_number 10
_symmetry_cell_setting 'monoclinic'
loop_
_space_group_symop_operation_xyz
x,y,z
-x,y,-z
-x,-y,-z
x,-y,z
loop_
_atom_site_type_symbol
_atom_site_label
_atom_site_fract_x
_atom_site_fract_y
_atom_site_fract_z
Si Si1 0.040237 0.681529 0.070797
Si Si2 0.055772 0.677909 0.158121
Si Si3 0.264244 0.676809 0.398814
Si Si4 0.691056 0.825250 0.399774
Si Si5 0.557479 0.180627 0.221933
Si Si6 0.558612 0.179873 0.123721
Si Si7 0.403464 0.827647 0.661510
Si Si8 0.839402 0.681623 0.787876
O O1 0.003991 0.500000 0.081388
O O2 0.799599 0.761291 0.150938
O O3 0.150056 0.727669 0.077610
O O4 0.212130 0.735371 0.972746
O O5 0.087020 0.500000 0.153191
O O6 0.172597 0.747898 0.158714
O O7 0.792038 0.716718 0.251502
O O8 0.334013 0.500000 0.376555
O O9 0.354238 0.742275 0.321597
O O10 0.365252 0.770516 0.401629
O O11 0.000000 0.701605 0.500000
O O12 0.500000 0.757990 0.500000
O O13 0.569545 0.819167 0.398408
O O14 0.915163 0.720684 0.320452
O O15 0.758682 0.000000 0.387552
O O16 0.515531 0.224824 0.188052
O O17 0.548525 0.000000 0.232116
O O18 0.349391 0.233162 0.170900
O O19 0.595782 0.000000 0.104532
O O20 0.347050 0.000000 0.696964
O O21 0.798211 0.500000 0.800362
#
# Coordination Sequence:
#
# PCOD8061603 Si02
#       8
#     4   4   4   4   4   4   4   4
#     4  11  22  38  64  92 119 156 200 245 300 360
#     4   9  19  36  59  86 117 152 190 242 294 343
#     4  11  24  40  59  86 119 154 194 245 302 356
#     4   9  19  36  58  85 117 154 196 241 293 353
#     4  11  24  42  63  87 118 157 202 250 299 354
#     4  11  25  42  59  85 124 162 199 249 301 353
#     4  10  19  33  57  84 112 150 193 239 291 349
#     4  10  21  38  59  85 119 156 199 246 298 354
#
# _framework density 19.795076999999999
#
# number of rings (size 3 to 8) (size 9 to 14) (size 15 to 20)
#    0.000    1.750    1.250    2.625    0.000    7.750 
#    0.000    6.250    0.000    0.000    0.000    0.000 
#    0.000    0.000    0.000    0.000    0.000    0.000 
#
# Total GULP energy -396728.064127 kJ/mol
# GULP energy per Si atom -12397.752004 kJ/mol
# Density = 1.975002 g / cm^3
# Si number density = 19.795077 Si / 1000 Ang^3
#
#
#
# Elastic Constant Matrix: (Units=GPa)
#
#
# Indices 1 2 3 4 5 6 
#
# 1 118.8597 25.5386 43.6766 0.0000 4.9436 0.0000
# 2 25.5386 -39.6366 2.4013 0.0000 17.9560 0.0000
# 3 43.6766 2.4013 94.1644 0.0000 19.1764 0.0000
# 4 0.0000 0.0000 0.0000 30.4136 0.0000 2.9257
# 5 4.9436 17.9560 19.1764 0.0000 22.5042 0.0000
# 6 0.0000 0.0000 0.0000 2.9257 0.0000 20.8667
#
#
#
# Elastic Compliance Matrix: (Units=1/GPa)
#
#
# Indices 1 2 3 4 5 6 
#
# 1 0.008939 0.004483 -0.003790 0.000000 -0.002311 0.000000
# 2 0.004483 -0.015577 -0.004855 0.000000 0.015581 0.000000
# 3 -0.003790 -0.004855 0.013967 0.000000 -0.007195 0.000000
# 4 0.000000 0.000000 0.000000 0.033330 0.000000 -0.004673
# 5 -0.002311 0.015581 -0.007195 0.000000 0.038643 0.000000
# 6 0.000000 0.000000 0.000000 -0.004673 0.000000 0.048578
#
#
# Mechanical properties :
#
#
# Convention : Reuss Voigt Hill
#
# Bulk Modulus (GPa) = -1004.82675 35.18008 -484.82334
# Shear Modulus (GPa) = 36.79934 21.54164 29.17049
#
# Velocity S-wave (km/s) = 4.31631 3.30241 3.84294
# Velocity P-wave (km/s) = 21.99718 5.68788 15.02538
#
# Compressibility (1/GPa) = -0.00099520
#
# Stress axis : x y z
#
# Youngs Moduli (GPa) = 111.87180 -64.19893 71.59934
#
# Poissons Ratio (x) = 0.28780 0.27135
# Poissons Ratio (y) = -0.50151 0.34762
# Poissons Ratio (z) = 0.42397 -0.31169
#
# Static dielectric constant tensor:
#      x y z
#    x 3.872620 0.000000 0.258440 
#    y 0.000000 3.681650 0.000000 
#    z 0.258440 0.000000 3.602800 
# 
# 
# High freq. dielectric constant tensor:
#      x y z
#    x 1.785400 0.000000 0.010720 
#    y 0.000000 1.775790 0.000000 
#    z 0.010720 0.000000 1.765980 
# 
# From -- ./inp_files/94978.got.cif
#   From: 2010.06.25/outbox.cif.g09.slc.cpg/sg10_48_cif.got.tgz:94978.got - 2010.06.27 22:07:45.
