data_PCOD8061049
_publ_section_title
;
Structure prediction by ZEFSAII (Michael W. Deem and Ramdas Pophale) SiO2 
 PCOD8061049
Probable space group: P 2/M
;
_chemical_formula_sum "Si O2"
_cell_formula_units_Z 24
_cell_length_a 9.953993
_cell_length_b 12.818887
_cell_length_c 12.602378
_cell_angle_alpha 90.000000
_cell_angle_beta 65.057671
_cell_angle_gamma 90.000000
_cell_volume 1458.073567
_symmetry_space_group_name_H-M "P 2/M"
_symmetry_group_IT_number 10
_symmetry_cell_setting 'monoclinic'
loop_
_space_group_symop_operation_xyz
x,y,z
-x,y,-z
-x,-y,-z
x,-y,z
loop_
_atom_site_type_symbol
_atom_site_label
_atom_site_fract_x
_atom_site_fract_y
_atom_site_fract_z
Si Si1 0.649120 0.622653 0.000643
Si Si2 0.830418 0.285916 0.366049
Si Si3 0.328158 0.380981 0.771471
Si Si4 0.858057 0.620601 0.742671
Si Si5 0.650882 0.117025 0.515675
Si Si6 0.651077 0.679867 0.620651
O O1 0.622489 0.500000 0.021914
O O2 0.676923 0.669218 0.108762
O O3 0.500000 0.672653 0.000000
O O4 0.790001 0.647207 0.880147
O O5 0.787661 0.319007 0.261969
O O6 0.785297 0.164076 0.398453
O O7 0.741753 0.354259 0.484446
O O8 0.004811 0.303048 0.324729
O O9 0.274896 0.500000 0.791466
O O10 0.492212 0.374239 0.668520
O O11 0.908701 0.500000 0.720345
O O12 0.732814 0.641583 0.697898
O O13 0.500000 0.118931 0.500000
O O14 0.632569 0.192993 0.624449
O O15 0.691397 0.000000 0.538549
#
# Coordination Sequence:
#
# PCOD8061049 Si02
#       6
#     4   4   4   4   4   4
#     4   9  18  32  49  68  94 144 188 200 231 285
#     4  10  21  33  46  81 104 128 174 200 265 307
#     4  11  19  31  50  72 106 137 172 212 233 291
#     4  11  21  33  49  72 112 146 166 202 245 298
#     4   9  18  36  55  75 101 129 168 215 259 309
#     4  10  19  33  50  78  99 133 177 195 254 312
#
# _framework density 16.460076000000001
#
# number of rings (size 3 to 8) (size 9 to 14) (size 15 to 20)
#    1.000    1.000    3.333    2.000    0.000    4.667 
#    0.000    4.167    0.000    0.000    0.000    7.000 
#    0.000    0.000    0.000    0.000    0.000    0.000 
#
# Total GULP energy -297438.278440 kJ/mol
# GULP energy per Si atom -12393.261602 kJ/mol
# Density = 1.642261 g / cm^3
# Si number density = 16.460076 Si / 1000 Ang^3
#
#
#
# Elastic Constant Matrix: (Units=GPa)
#
#
# Indices 1 2 3 4 5 6 
#
# 1 46.3484 9.1629 -2.7069 0.0000 -3.7223 0.0000
# 2 9.1629 62.5660 10.9876 0.0000 -4.5888 0.0000
# 3 -2.7069 10.9876 70.8534 0.0000 7.5527 0.0000
# 4 0.0000 0.0000 0.0000 1.9754 0.0000 0.9099
# 5 -3.7223 -4.5888 7.5527 0.0000 28.4758 0.0000
# 6 0.0000 0.0000 0.0000 0.9099 0.0000 15.1341
#
#
#
# Elastic Compliance Matrix: (Units=1/GPa)
#
#
# Indices 1 2 3 4 5 6 
#
# 1 0.022472 -0.003340 0.001153 0.000000 0.002093 0.000000
# 2 -0.003340 0.017257 -0.003143 0.000000 0.003178 0.000000
# 3 0.001153 -0.003143 0.015110 0.000000 -0.004363 0.000000
# 4 0.000000 0.000000 0.000000 0.520638 0.000000 -0.031303
# 5 0.002093 0.003178 -0.004363 0.000000 0.037061 0.000000
# 6 0.000000 0.000000 0.000000 -0.031303 0.000000 0.067958
#
#
# Mechanical properties :
#
#
# Convention : Reuss Voigt Hill
#
# Bulk Modulus (GPa) = 22.63443 23.85056 23.24249
# Shear Modulus (GPa) = 7.08335 19.93868 13.51101
#
# Velocity S-wave (km/s) = 2.07670 3.48420 2.86813
# Velocity P-wave (km/s) = 4.41941 5.54144 5.01193
#
# Compressibility (1/GPa) = 0.04418048
#
# Stress axis : x y z
#
# Youngs Moduli (GPa) = 44.50079 57.94679 66.18065
#
# Poissons Ratio (x) = 0.19354 -0.07633
# Poissons Ratio (y) = 0.14863 0.20797
# Poissons Ratio (z) = -0.05132 0.18210
#
# Static dielectric constant tensor:
#      x y z
#    x 3.024380 0.000000 0.080040 
#    y 0.000000 2.868550 0.000000 
#    z 0.080040 0.000000 3.148120 
# 
# 
# High freq. dielectric constant tensor:
#      x y z
#    x 1.638960 0.000000 0.004350 
#    y 0.000000 1.587470 0.000000 
#    z 0.004350 0.000000 1.630810 
# 
# From -- ./inp_files/42408.got.cif
#   From: 2010.06.25/outbox.cif.g09.slc.cpg/sg10_22_cif.got.tgz:42408.got - 2010.06.27 22:07:45.
