data_PCOD8061132
_publ_section_title
;
Structure prediction by ZEFSAII (Michael W. Deem and Ramdas Pophale) SiO2 
 PCOD8061132
Probable space group: P 2/M
;
_chemical_formula_sum "Si O2"
_cell_formula_units_Z 32
_cell_length_a 27.275182
_cell_length_b 9.224502
_cell_length_c 21.307214
_cell_angle_alpha 90.000000
_cell_angle_beta 19.186997
_cell_angle_gamma 90.000000
_cell_volume 1761.870371
_symmetry_space_group_name_H-M "P 2/M"
_symmetry_group_IT_number 10
_symmetry_cell_setting 'monoclinic'
loop_
_space_group_symop_operation_xyz
x,y,z
-x,y,-z
-x,-y,-z
x,-y,z
loop_
_atom_site_type_symbol
_atom_site_label
_atom_site_fract_x
_atom_site_fract_y
_atom_site_fract_z
Si Si1 0.341796 0.667638 0.871569
Si Si2 0.999634 0.333017 0.718662
Si Si3 0.845296 0.327107 0.215486
Si Si4 0.506212 0.171924 0.199786
Si Si5 0.059976 0.171435 0.525666
Si Si6 0.210507 0.331343 0.575953
Si Si7 0.551450 0.331630 0.503519
Si Si8 0.777157 0.170823 0.791542
O O1 0.358292 0.500000 0.872647
O O2 0.424004 0.770879 0.820539
O O3 0.416892 0.693405 0.713866
O O4 0.171344 0.716901 0.071439
O O5 0.013320 0.500000 0.683829
O O6 0.088920 0.244625 0.557691
O O7 0.068656 0.302702 0.703430
O O8 0.845658 0.500000 0.214230
O O9 0.828258 0.273049 0.307779
O O10 0.706383 0.264491 0.342871
O O11 0.000000 0.266217 0.000000
O O12 0.346813 0.243416 0.381003
O O13 0.489800 0.000000 0.223712
O O14 0.613451 0.219464 0.012180
O O15 0.189782 0.221625 0.319818
O O16 0.902424 0.229835 0.688401
O O17 0.061068 0.000000 0.534363
O O18 0.255274 0.500000 0.524276
O O19 0.500000 0.258462 0.500000
O O20 0.582973 0.500000 0.453792
O O21 0.794735 0.000000 0.772174
#
# Coordination Sequence:
#
# PCOD8061132 Si02
#       8
#     4   4   4   4   4   4   4   4
#     4  10  19  33  52  78 109 137 169 217 268 304
#     4  10  21  33  50  77 110 140 170 210 263 317
#     4   9  17  29  48  73 101 135 172 209 253 302
#     4  11  20  34  56  80 101 134 181 218 254 309
#     4   9  16  32  54  75 103 134 170 217 262 302
#     4  10  21  37  52  74 110 144 172 212 262 311
#     4   9  17  28  47  76 104 129 168 217 256 297
#     4   8  16  30  52  78 101 131 171 219 262 299
#
# _framework density 18.162517000000001
#
# number of rings (size 3 to 8) (size 9 to 14) (size 15 to 20)
#    0.000    2.500    2.500    1.125    1.750    0.500 
#    0.000    3.125    0.000    4.500    0.000    0.000 
#    0.000    0.000    0.000    0.000    0.000    0.000 
#
# Total GULP energy -396708.197942 kJ/mol
# GULP energy per Si atom -12397.131186 kJ/mol
# Density = 1.812118 g / cm^3
# Si number density = 18.162517 Si / 1000 Ang^3
#
#
#
# Elastic Constant Matrix: (Units=GPa)
#
#
# Indices 1 2 3 4 5 6 
#
# 1 103.1308 17.7778 36.2131 0.0000 7.8418 0.0000
# 2 17.7778 30.2470 20.9621 0.0000 2.3551 0.0000
# 3 36.2131 20.9621 97.8419 0.0000 13.1190 0.0000
# 4 0.0000 0.0000 0.0000 19.3020 0.0000 -4.7007
# 5 7.8418 2.3551 13.1190 0.0000 28.1456 0.0000
# 6 0.0000 0.0000 0.0000 -4.7007 0.0000 7.6378
#
#
#
# Elastic Compliance Matrix: (Units=1/GPa)
#
#
# Indices 1 2 3 4 5 6 
#
# 1 0.011703 -0.004577 -0.003163 0.000000 -0.001403 0.000000
# 2 -0.004577 0.040628 -0.007174 0.000000 0.001219 0.000000
# 3 -0.003163 -0.007174 0.013578 0.000000 -0.004847 0.000000
# 4 0.000000 0.000000 0.000000 0.060943 0.000000 0.037508
# 5 -0.001403 0.001219 -0.004847 0.000000 0.038078 0.000000
# 6 0.000000 0.000000 0.000000 0.037508 0.000000 0.154013
#
#
# Mechanical properties :
#
#
# Convention : Reuss Voigt Hill
#
# Bulk Modulus (GPa) = 27.71489 42.34730 35.03110
# Shear Modulus (GPa) = 13.85823 21.43485 17.64654
#
# Velocity S-wave (km/s) = 2.76527 3.43909 3.12042
# Velocity P-wave (km/s) = 5.04857 6.25589 5.68438
#
# Compressibility (1/GPa) = 0.03608168
#
# Stress axis : x y z
#
# Youngs Moduli (GPa) = 85.45070 24.61347 73.64867
#
# Poissons Ratio (x) = 0.11266 0.23292
# Poissons Ratio (y) = 0.39113 0.52834
# Poissons Ratio (z) = 0.27024 0.17657
#
# Static dielectric constant tensor:
#      x y z
#    x 3.419550 0.000000 0.088570 
#    y 0.000000 2.981630 0.000000 
#    z 0.088570 0.000000 3.666430 
# 
# 
# High freq. dielectric constant tensor:
#      x y z
#    x 1.702360 0.000000 0.008700 
#    y 0.000000 1.656870 0.000000 
#    z 0.008700 0.000000 1.713770 
# 
# From -- ./inp_files/86795.got.cif
#   From: 2010.06.25/outbox.cif.g09.slc.cpg/sg10_44_cif.got.tgz:86795.got - 2010.06.27 22:07:45.
