data_PCOD8061357
_publ_section_title
;
Structure prediction by ZEFSAII (Michael W. Deem and Ramdas Pophale) SiO2 
 PCOD8061357
Probable space group: P 2/M
;
_chemical_formula_sum "Si O2"
_cell_formula_units_Z 28
_cell_length_a 18.673545
_cell_length_b 10.046942
_cell_length_c 13.559481
_cell_angle_alpha 90.000000
_cell_angle_beta 36.074192
_cell_angle_gamma 90.000000
_cell_volume 1497.943377
_symmetry_space_group_name_H-M "P 2/M"
_symmetry_group_IT_number 10
_symmetry_cell_setting 'monoclinic'
loop_
_space_group_symop_operation_xyz
x,y,z
-x,y,-z
-x,-y,-z
x,-y,z
loop_
_atom_site_type_symbol
_atom_site_label
_atom_site_fract_x
_atom_site_fract_y
_atom_site_fract_z
Si Si1 0.712580 0.649059 0.412319
Si Si2 0.077544 0.147810 0.821116
Si Si3 0.604333 0.844259 0.962581
Si Si4 0.301988 0.351164 0.793061
Si Si5 0.865623 0.148717 0.917443
Si Si6 0.124419 0.156161 0.314312
Si Si7 0.471366 0.350878 0.783485
O O1 0.766697 0.500000 0.358907
O O2 0.814626 0.754214 0.322758
O O3 0.656408 0.672246 0.365848
O O4 0.614024 0.669731 0.607966
O O5 0.002941 0.140692 0.802748
O O6 0.127054 0.000000 0.792724
O O7 0.000000 0.202189 0.000000
O O8 0.746262 0.814251 0.772093
O O9 0.590966 0.000000 0.003114
O O10 0.500000 0.802623 0.000000
O O11 0.580871 0.759735 0.086190
O O12 0.247238 0.500000 0.866914
O O13 0.416037 0.331413 0.736938
O O14 0.201558 0.242963 0.931033
O O15 0.862462 0.212002 0.811492
O O16 0.807182 0.000000 0.982503
O O17 0.000000 0.219538 0.500000
O O18 0.102497 0.000000 0.331882
O O19 0.444136 0.500000 0.855097
#
# Coordination Sequence:
#
# PCOD8061357 Si02
#       7
#     4   4   4   4   4   4   4
#     4  10  21  35  53  79 111 149 188 224 267 326
#     4  10  20  33  50  76 109 143 181 226 272 318
#     4  10  21  37  60  87 110 139 186 236 280 335
#     4  10  19  33  55  79 106 142 185 224 262 316
#     4  10  19  33  55  78 104 140 180 220 268 325
#     4   9  18  34  56  80 106 138 177 223 277 334
#     4  10  21  37  56  80 111 146 184 226 275 326
#
# _framework density 18.692295999999999
#
# number of rings (size 3 to 8) (size 9 to 14) (size 15 to 20)
#    0.000    2.143    2.857    0.429    0.000    4.571 
#    0.000    2.857    0.000    4.286    0.000    0.000 
#    0.000    0.000    0.000    0.000    0.000    0.000 
#
# Total GULP energy -346985.078029 kJ/mol
# GULP energy per Si atom -12392.324215 kJ/mol
# Density = 1.864975 g / cm^3
# Si number density = 18.692296 Si / 1000 Ang^3
#
#
#
# Elastic Constant Matrix: (Units=GPa)
#
#
# Indices 1 2 3 4 5 6 
#
# 1 75.4175 16.3134 27.1698 0.0000 -12.6412 0.0000
# 2 16.3134 70.8772 42.4210 0.0000 -8.0097 0.0000
# 3 27.1698 42.4210 91.1944 0.0000 -11.3445 0.0000
# 4 0.0000 0.0000 0.0000 25.6672 0.0000 -0.3679
# 5 -12.6412 -8.0097 -11.3445 0.0000 26.7609 0.0000
# 6 0.0000 0.0000 0.0000 -0.3679 0.0000 25.7796
#
#
#
# Elastic Compliance Matrix: (Units=1/GPa)
#
#
# Indices 1 2 3 4 5 6 
#
# 1 0.015674 -0.000825 -0.003585 0.000000 0.005638 0.000000
# 2 -0.000825 0.019709 -0.008696 0.000000 0.001823 0.000000
# 3 -0.003585 -0.008696 0.016410 0.000000 0.002660 0.000000
# 4 0.000000 0.000000 0.000000 0.038968 0.000000 0.000556
# 5 0.005638 0.001823 0.002660 0.000000 0.041704 0.000000
# 6 0.000000 0.000000 0.000000 0.000556 0.000000 0.038798
#
#
# Mechanical properties :
#
#
# Convention : Reuss Voigt Hill
#
# Bulk Modulus (GPa) = 39.08952 45.47750 42.28351
# Shear Modulus (GPa) = 24.27157 25.74721 25.00939
#
# Velocity S-wave (km/s) = 3.60735 3.71539 3.66177
# Velocity P-wave (km/s) = 6.18936 6.54124 6.36773
#
# Compressibility (1/GPa) = 0.02558231
#
# Stress axis : x y z
#
# Youngs Moduli (GPa) = 63.79825 50.73755 60.94029
#
# Poissons Ratio (x) = 0.04186 0.21846
# Poissons Ratio (y) = 0.05263 0.52991
# Poissons Ratio (z) = 0.22871 0.44119
#
# Static dielectric constant tensor:
#      x y z
#    x 3.494720 0.000000 -0.097550 
#    y 0.000000 3.384210 0.000000 
#    z -0.097550 0.000000 3.398700 
# 
# 
# High freq. dielectric constant tensor:
#      x y z
#    x 1.726510 0.000000 -0.007240 
#    y 0.000000 1.712930 0.000000 
#    z -0.007240 0.000000 1.711260 
# 
# From -- ./inp_files/49155.got.cif
#   From: 2010.06.25/outbox.cif.g09.slc.cpg/sg10_25_cif.got.tgz:49155.got - 2010.06.27 22:07:45.
