data_PCOD8061368
_publ_section_title
;
Structure prediction by ZEFSAII (Michael W. Deem and Ramdas Pophale) SiO2 
 PCOD8061368
Probable space group: P 2/M
;
_chemical_formula_sum "Si O2"
_cell_formula_units_Z 32
_cell_length_a 28.484011
_cell_length_b 8.945718
_cell_length_c 17.325915
_cell_angle_alpha 90.000000
_cell_angle_beta 22.871813
_cell_angle_gamma 90.000000
_cell_volume 1715.909399
_symmetry_space_group_name_H-M "P 2/M"
_symmetry_group_IT_number 10
_symmetry_cell_setting 'monoclinic'
loop_
_space_group_symop_operation_xyz
x,y,z
-x,y,-z
-x,-y,-z
x,-y,z
loop_
_atom_site_type_symbol
_atom_site_label
_atom_site_fract_x
_atom_site_fract_y
_atom_site_fract_z
Si Si1 0.178149 0.175689 0.092146
Si Si2 0.221809 0.172233 0.195167
Si Si3 0.091130 0.824428 0.542839
Si Si4 0.488321 0.826299 0.749021
Si Si5 0.891784 0.324667 0.328040
Si Si6 0.087179 0.167578 0.940633
Si Si7 0.721875 0.324426 0.444050
Si Si8 0.419277 0.675774 0.695997
O O1 0.173013 0.238017 0.188045
O O2 0.051472 0.209459 0.243688
O O3 0.209974 0.000000 0.044979
O O4 0.284487 0.260603 0.885450
O O5 0.155653 0.245344 0.369163
O O6 0.185102 0.000000 0.252577
O O7 0.365259 0.197010 0.983329
O O8 0.149224 0.739809 0.527602
O O9 0.117048 0.000000 0.512380
O O10 0.590186 0.748148 0.646431
O O11 0.480589 0.752507 0.676790
O O12 0.518398 0.000000 0.692470
O O13 0.912645 0.500000 0.300768
O O14 0.788470 0.283277 0.422886
O O15 0.019572 0.249749 0.112750
O O16 0.207602 0.257420 0.736406
O O17 0.121741 0.000000 0.914552
O O18 0.000000 0.164529 0.000000
O O19 0.711990 0.500000 0.446841
O O20 0.500000 0.715350 0.500000
O O21 0.412098 0.500000 0.721712
#
# Coordination Sequence:
#
# PCOD8061368 Si02
#       8
#     4   4   4   4   4   4   4   4
#     4   9  18  33  55  80 103 132 172 215 260 311
#     4   8  16  33  55  78 102 130 169 218 267 311
#     4  10  19  33  55  79 104 135 172 218 268 312
#     4  10  20  35  57  80 102 134 178 222 260 306
#     4  10  21  35  50  74 109 142 173 213 261 312
#     4   9  17  31  52  75  98 128 169 213 253 298
#     4  10  20  35  54  75 104 142 177 212 259 313
#     4  10  21  36  53  76 109 144 173 206 253 309
#
# _framework density 18.649003
#
# number of rings (size 3 to 8) (size 9 to 14) (size 15 to 20)
#    0.000    2.500    0.000    3.000    0.000    7.000 
#    0.000    6.250    0.000    7.500    0.000    0.000 
#    0.000    0.000    0.000    0.000    0.000    0.000 
#
# Total GULP energy -396811.965797 kJ/mol
# GULP energy per Si atom -12400.373931 kJ/mol
# Density = 1.860656 g / cm^3
# Si number density = 18.649003 Si / 1000 Ang^3
#
#
#
# Elastic Constant Matrix: (Units=GPa)
#
#
# Indices 1 2 3 4 5 6 
#
# 1 81.5766 45.3838 51.8008 0.0000 5.5480 0.0000
# 2 45.3838 89.8351 48.5578 0.0000 0.0065 0.0000
# 3 51.8008 48.5578 98.5836 0.0000 9.2088 0.0000
# 4 0.0000 0.0000 0.0000 12.6168 0.0000 -1.2640
# 5 5.5480 0.0065 9.2088 0.0000 30.9404 0.0000
# 6 0.0000 0.0000 0.0000 -1.2640 0.0000 29.0938
#
#
#
# Elastic Compliance Matrix: (Units=1/GPa)
#
#
# Indices 1 2 3 4 5 6 
#
# 1 0.020736 -0.006350 -0.007633 0.000000 -0.001445 0.000000
# 2 -0.006350 0.017273 -0.005429 0.000000 0.002751 0.000000
# 3 -0.007633 -0.005429 0.017178 0.000000 -0.003743 0.000000
# 4 0.000000 0.000000 0.000000 0.079606 0.000000 0.003458
# 5 -0.001445 0.002751 -0.003743 0.000000 0.033693 0.000000
# 6 0.000000 0.000000 0.000000 0.003458 0.000000 0.034522
#
#
# Mechanical properties :
#
#
# Convention : Reuss Voigt Hill
#
# Bulk Modulus (GPa) = 61.10758 62.38668 61.74713
# Shear Modulus (GPa) = 20.21947 22.81374 21.51661
#
# Velocity S-wave (km/s) = 3.29631 3.50140 3.40040
# Velocity P-wave (km/s) = 6.87938 7.06202 6.97130
#
# Compressibility (1/GPa) = 0.01636458
#
# Stress axis : x y z
#
# Youngs Moduli (GPa) = 48.22434 57.89260 58.21346
#
# Poissons Ratio (x) = 0.36760 0.44437
# Poissons Ratio (y) = 0.30621 0.31602
# Poissons Ratio (z) = 0.36812 0.31427
#
# Static dielectric constant tensor:
#      x y z
#    x 3.334220 0.000000 0.060640 
#    y 0.000000 3.356420 0.000000 
#    z 0.060640 0.000000 3.507160 
# 
# 
# High freq. dielectric constant tensor:
#      x y z
#    x 1.714220 0.000000 0.001190 
#    y 0.000000 1.717090 0.000000 
#    z 0.001190 0.000000 1.723200 
# 
# From -- ./inp_files/71559.got.cif
#   From: 2010.06.25/outbox.cif.g09.slc.cpg/sg10_36_cif.got.tgz:71559.got - 2010.06.27 22:07:45.
