data_PCOD8061908
_publ_section_title
;
Structure prediction by ZEFSAII (Michael W. Deem and Ramdas Pophale) SiO2 
 PCOD8061908
Probable space group: P 2/M
;
_chemical_formula_sum "Si O2"
_cell_formula_units_Z 28
_cell_length_a 15.583644
_cell_length_b 17.294308
_cell_length_c 9.297766
_cell_angle_alpha 90.000000
_cell_angle_beta 39.095663
_cell_angle_gamma 90.000000
_cell_volume 1580.216299
_symmetry_space_group_name_H-M "P 2/M"
_symmetry_group_IT_number 10
_symmetry_cell_setting 'monoclinic'
loop_
_space_group_symop_operation_xyz
x,y,z
-x,y,-z
-x,-y,-z
x,-y,z
loop_
_atom_site_type_symbol
_atom_site_label
_atom_site_fract_x
_atom_site_fract_y
_atom_site_fract_z
Si Si1 0.382365 0.000000 0.952751
Si Si2 0.109215 0.587587 0.563610
Si Si3 0.808928 0.412959 0.862301
Si Si4 0.353649 0.302948 0.742872
Si Si5 0.852278 0.701045 0.244341
Si Si6 0.301895 0.000000 0.382139
Si Si7 0.847673 0.879169 0.236242
Si Si8 0.643121 0.125161 0.245269
O O1 0.544705 0.000000 0.759136
O O2 0.334528 0.076114 0.928412
O O3 0.303871 0.000000 0.206584
O O4 0.115719 0.500000 0.616716
O O5 0.190395 0.591821 0.309808
O O6 0.183148 0.647771 0.573191
O O7 0.953338 0.612892 0.740606
O O8 0.775695 0.500000 0.955392
O O9 0.690740 0.356204 0.067633
O O10 0.500000 0.329947 0.500000
O O11 0.254081 0.316697 0.740467
O O12 0.355794 0.215216 0.797461
O O13 0.847905 0.791155 0.291293
O O14 0.000000 0.675483 0.000000
O O15 0.219500 0.074349 0.545409
O O16 0.761780 0.893047 0.203672
O O17 0.000000 0.907222 0.000000
O O18 0.500000 0.100261 0.500000
#
# Coordination Sequence:
#
# PCOD8061908 Si02
#       8
#     2   4   4   4   4   2   4   4
#     4  11  22  36  60  82 104 142 187 220 253 315
#     4   9  18  33  56  80 106 144 184 220 260 315
#     4   9  18  34  54  79 110 144 180 218 267 319
#     4  10  21  34  54  82 110 139 176 224 270 313
#     4  10  19  34  56  83 107 138 183 223 261 314
#     4  11  22  37  56  85 110 135 180 228 263 307
#     4  10  21  36  57  81 111 141 172 221 277 317
#     4  10  19  37  59  78 104 147 186 210 257 330
#
# _framework density 17.719093999999998
#
# number of rings (size 3 to 8) (size 9 to 14) (size 15 to 20)
#    0.000    2.143    2.857    1.714    0.000    2.286 
#    0.000    2.143    0.000    1.714    0.000    0.000 
#    0.000    0.000    0.000    0.000    0.000    0.000 
#
# Total GULP energy -347227.402493 kJ/mol
# GULP energy per Si atom -12400.978660 kJ/mol
# Density = 1.767876 g / cm^3
# Si number density = 17.719094 Si / 1000 Ang^3
#
#
#
# Elastic Constant Matrix: (Units=GPa)
#
#
# Indices 1 2 3 4 5 6 
#
# 1 87.3894 45.5012 50.3704 0.0000 0.2378 0.0000
# 2 45.5012 100.2174 62.7099 0.0000 15.4717 0.0000
# 3 50.3704 62.7099 121.9260 0.0000 -0.5082 0.0000
# 4 0.0000 0.0000 0.0000 23.6990 0.0000 2.6471
# 5 0.2378 15.4717 -0.5082 0.0000 31.1334 0.0000
# 6 0.0000 0.0000 0.0000 2.6471 0.0000 23.5171
#
#
#
# Elastic Compliance Matrix: (Units=1/GPa)
#
#
# Indices 1 2 3 4 5 6 
#
# 1 0.016577 -0.005350 -0.004087 0.000000 0.002465 0.000000
# 2 -0.005350 0.018390 -0.007287 0.000000 -0.009217 0.000000
# 3 -0.004087 -0.007287 0.013654 0.000000 0.003875 0.000000
# 4 0.000000 0.000000 0.000000 0.042733 0.000000 -0.004810
# 5 0.002465 -0.009217 0.003875 0.000000 0.036745 0.000000
# 6 0.000000 0.000000 0.000000 -0.004810 0.000000 0.043064
#
#
# Mechanical properties :
#
#
# Convention : Reuss Voigt Hill
#
# Bulk Modulus (GPa) = 65.89947 69.63287 67.76617
# Shear Modulus (GPa) = 23.84737 25.73333 24.79035
#
# Velocity S-wave (km/s) = 3.67257 3.81503 3.74448
# Velocity P-wave (km/s) = 7.43342 7.66743 7.55133
#
# Compressibility (1/GPa) = 0.01517463
#
# Stress axis : x y z
#
# Youngs Moduli (GPa) = 60.32307 54.37810 73.23993
#
# Poissons Ratio (x) = 0.29093 0.29930
# Poissons Ratio (y) = 0.32273 0.53367
# Poissons Ratio (z) = 0.24651 0.39623
#
# Static dielectric constant tensor:
#      x y z
#    x 3.191340 0.000000 -0.049730 
#    y 0.000000 3.342490 0.000000 
#    z -0.049730 0.000000 3.160010 
# 
# 
# High freq. dielectric constant tensor:
#      x y z
#    x 1.679200 0.000000 -0.002070 
#    y 0.000000 1.693750 0.000000 
#    z -0.002070 0.000000 1.675150 
# 
# From -- ./inp_files/30127.got.cif
#   From: 2010.06.25/outbox.cif.g09.slc.cpg/sg10_16_cif.got.tgz:30127.got - 2010.06.27 22:07:45.
