data_PCOD8061783
_publ_section_title
;
Structure prediction by ZEFSAII (Michael W. Deem and Ramdas Pophale) SiO2 
 PCOD8061783
Probable space group: P 2/M
;
_chemical_formula_sum "Si O2"
_cell_formula_units_Z 32
_cell_length_a 28.232816
_cell_length_b 9.158480
_cell_length_c 21.839563
_cell_angle_alpha 90.000000
_cell_angle_beta 18.657947
_cell_angle_gamma 90.000000
_cell_volume 1806.590799
_symmetry_space_group_name_H-M "P 2/M"
_symmetry_group_IT_number 10
_symmetry_cell_setting 'monoclinic'
loop_
_space_group_symop_operation_xyz
x,y,z
-x,y,-z
-x,-y,-z
x,-y,z
loop_
_atom_site_type_symbol
_atom_site_label
_atom_site_fract_x
_atom_site_fract_y
_atom_site_fract_z
Si Si1 0.834484 0.834682 0.344544
Si Si2 0.099750 0.832111 0.934227
Si Si3 0.165960 0.326157 0.297879
Si Si4 0.291105 0.331562 0.395721
Si Si5 0.404959 0.328529 0.556388
Si Si6 0.664517 0.325717 0.792547
Si Si7 0.594218 0.669921 0.091879
Si Si8 0.455857 0.172665 0.371030
O O1 0.827307 0.745622 0.415878
O O2 0.710160 0.783890 0.447657
O O3 0.798414 0.000000 0.405635
O O4 0.999503 0.815493 0.117202
O O5 0.240170 0.729631 0.769850
O O6 0.151122 0.000000 0.860881
O O7 0.000000 0.779194 0.000000
O O8 0.166131 0.500000 0.300857
O O9 0.238915 0.261944 0.270190
O O10 0.000000 0.263112 0.500000
O O11 0.257556 0.278223 0.125264
O O12 0.252923 0.500000 0.446133
O O13 0.269112 0.272812 0.353673
O O14 0.458554 0.300798 0.212036
O O15 0.500000 0.293037 0.500000
O O16 0.398521 0.500000 0.550428
O O17 0.481030 0.247333 0.405910
O O18 0.659447 0.500000 0.800872
O O19 0.500000 0.262151 0.000000
O O20 0.602639 0.500000 0.100022
O O21 0.575796 0.764534 0.176053
O O22 0.478297 0.000000 0.350035
#
# Coordination Sequence:
#
# PCOD8061783 Si02
#       8
#     4   4   4   4   4   4   4   4
#     4   9  18  32  51  76 106 134 166 215 261 307
#     4  10  19  36  58  80 106 138 178 218 261 315
#     4   9  16  26  43  69  99 130 164 206 258 306
#     4   9  16  26  45  71  97 129 169 211 252 302
#     4  11  24  39  55  81 113 141 174 220 268 313
#     4   9  14  24  42  65  93 124 161 202 244 296
#     4   9  16  28  47  72  99 128 168 214 257 305
#     4  10  19  34  55  77 103 138 177 213 257 317
#
# _framework density 17.712921000000001
#
# number of rings (size 3 to 8) (size 9 to 14) (size 15 to 20)
#    0.000    2.500    2.500    0.750    0.000    2.250 
#    0.000    1.250    0.000    4.500    0.000    0.000 
#    0.000    0.000    0.000    0.000    0.000    0.000 
#
# Total GULP energy -396754.288460 kJ/mol
# GULP energy per Si atom -12398.571514 kJ/mol
# Density = 1.767261 g / cm^3
# Si number density = 17.712921 Si / 1000 Ang^3
#
#
#
# Elastic Constant Matrix: (Units=GPa)
#
#
# Indices 1 2 3 4 5 6 
#
# 1 135.3801 53.5269 70.1837 0.0000 16.2190 0.0000
# 2 53.5269 59.7441 43.2523 0.0000 10.8486 0.0000
# 3 70.1837 43.2523 112.2971 0.0000 12.3059 0.0000
# 4 0.0000 0.0000 0.0000 18.2784 0.0000 -3.5559
# 5 16.2190 10.8486 12.3059 0.0000 30.1554 0.0000
# 6 0.0000 0.0000 0.0000 -3.5559 0.0000 6.2211
#
#
#
# Elastic Compliance Matrix: (Units=1/GPa)
#
#
# Indices 1 2 3 4 5 6 
#
# 1 0.013439 -0.007939 -0.005090 0.000000 -0.002295 0.000000
# 2 -0.007939 0.028619 -0.005654 0.000000 -0.003719 0.000000
# 3 -0.005090 -0.005654 0.014384 0.000000 -0.001098 0.000000
# 4 0.000000 0.000000 0.000000 0.061554 0.000000 0.035184
# 5 -0.002295 -0.003719 -0.001098 0.000000 0.036182 0.000000
# 6 0.000000 0.000000 0.000000 0.035184 0.000000 0.180855
#
#
# Mechanical properties :
#
#
# Convention : Reuss Voigt Hill
#
# Bulk Modulus (GPa) = 52.41899 71.26080 61.83989
# Shear Modulus (GPa) = 13.20104 20.29486 16.74795
#
# Velocity S-wave (km/s) = 2.73294 3.38859 3.07827
# Velocity P-wave (km/s) = 6.29416 7.45844 6.90090
#
# Compressibility (1/GPa) = 0.01907706
#
# Stress axis : x y z
#
# Youngs Moduli (GPa) = 74.40882 34.94154 69.52139
#
# Poissons Ratio (x) = 0.27740 0.35387
# Poissons Ratio (y) = 0.59073 0.39305
# Poissons Ratio (z) = 0.37874 0.19755
#
# Static dielectric constant tensor:
#      x y z
#    x 3.342460 0.000000 0.156520 
#    y 0.000000 3.018350 0.000000 
#    z 0.156520 0.000000 3.310680 
# 
# 
# High freq. dielectric constant tensor:
#      x y z
#    x 1.680120 0.000000 0.022640 
#    y 0.000000 1.655380 0.000000 
#    z 0.022640 0.000000 1.680210 
# 
# From -- ./inp_files/86742.got.cif
#   From: 2010.06.25/outbox.cif.g09.slc.cpg/sg10_44_cif.got.tgz:86742.got - 2010.06.27 22:07:45.
