data_PCOD8061849
_publ_section_title
;
Structure prediction by ZEFSAII (Michael W. Deem and Ramdas Pophale) SiO2 
 PCOD8061849
Probable space group: P 2/M
;
_chemical_formula_sum "Si O2"
_cell_formula_units_Z 18
_cell_length_a 8.252603
_cell_length_b 21.971154
_cell_length_c 9.469680
_cell_angle_alpha 90.000000
_cell_angle_beta 31.973219
_cell_angle_gamma 90.000000
_cell_volume 909.209158
_symmetry_space_group_name_H-M "P 2/M"
_symmetry_group_IT_number 10
_symmetry_cell_setting 'monoclinic'
loop_
_space_group_symop_operation_xyz
x,y,z
-x,y,-z
-x,-y,-z
x,-y,z
loop_
_atom_site_type_symbol
_atom_site_label
_atom_site_fract_x
_atom_site_fract_y
_atom_site_fract_z
Si Si1 0.231044 0.808677 0.083503
Si Si2 0.356995 0.368847 0.258528
Si Si3 0.398867 0.745364 0.415248
Si Si4 0.643740 0.500000 0.742945
Si Si5 0.144470 0.065717 0.243994
O O1 0.089077 0.877294 0.180102
O O2 0.958218 0.763276 0.329174
O O3 0.500000 0.803043 0.000000
O O4 0.378421 0.794777 0.822506
O O5 0.463771 0.318158 0.289351
O O6 0.455331 0.435206 0.253830
O O7 0.000000 0.366406 0.500000
O O8 0.500000 0.356093 0.000000
O O9 0.500000 0.738306 0.500000
O O10 0.000000 0.500000 0.500000
O O11 0.500000 0.500000 0.000000
O O12 0.000000 0.083996 0.500000
O O13 0.008979 0.000000 0.289902
O O14 0.500000 0.056709 0.000000
#
# Coordination Sequence:
#
# PCOD8061849 Si02
#       5
#     4   4   4   2   4
#     4  11  21  37  59  80 105 142 184 221 263 320
#     4  10  19  34  56  78 103 137 179 218 260 316
#     4  12  24  36  52  80 115 145 176 221 271 313
#     4   8  16  30  51  78 101 128 171 222 261 302
#     4   9  17  30  52  82 107 128 169 228 272 305
#
# _framework density 19.797425
#
# number of rings (size 3 to 8) (size 9 to 14) (size 15 to 20)
#    0.000    1.778    0.000    7.333    0.000    0.000 
#    0.000    0.556    0.000    4.000    0.000   12.444 
#    0.000    0.000    0.000    0.000    0.000    0.000 
#
# Total GULP energy -222989.858781 kJ/mol
# GULP energy per Si atom -12388.325488 kJ/mol
# Density = 1.975237 g / cm^3
# Si number density = 19.797425 Si / 1000 Ang^3
#
#
#
# Elastic Constant Matrix: (Units=GPa)
#
#
# Indices 1 2 3 4 5 6 
#
# 1 62.2755 64.7091 37.1990 0.0000 18.5132 0.0000
# 2 64.7091 183.4399 57.2191 0.0000 23.0302 0.0000
# 3 37.1990 57.2191 158.3661 0.0000 10.4556 0.0000
# 4 0.0000 0.0000 0.0000 33.0181 0.0000 0.8102
# 5 18.5132 23.0302 10.4556 0.0000 30.2815 0.0000
# 6 0.0000 0.0000 0.0000 0.8102 0.0000 4.6621
#
#
#
# Elastic Compliance Matrix: (Units=1/GPa)
#
#
# Indices 1 2 3 4 5 6 
#
# 1 0.029645 -0.008055 -0.003337 0.000000 -0.010846 0.000000
# 2 -0.008055 0.008845 -0.001212 0.000000 -0.001384 0.000000
# 3 -0.003337 -0.001212 0.007512 0.000000 0.000368 0.000000
# 4 0.000000 0.000000 0.000000 0.030416 0.000000 -0.005286
# 5 -0.010846 -0.001384 0.000368 0.000000 0.040579 0.000000
# 6 0.000000 0.000000 0.000000 -0.005286 0.000000 0.215414
#
#
# Mechanical properties :
#
#
# Convention : Reuss Voigt Hill
#
# Bulk Modulus (GPa) = 48.09262 80.25952 64.17607
# Shear Modulus (GPa) = 13.71553 29.92263 21.81908
#
# Velocity S-wave (km/s) = 2.63495 3.89194 3.32342
# Velocity P-wave (km/s) = 5.79676 7.79902 6.87121
#
# Compressibility (1/GPa) = 0.02079321
#
# Stress axis : x y z
#
# Youngs Moduli (GPa) = 33.73289 113.06388 133.12033
#
# Poissons Ratio (x) = 0.91070 0.44422
# Poissons Ratio (y) = 0.27171 0.16138
# Poissons Ratio (z) = 0.11257 0.13706
#
# Static dielectric constant tensor:
#      x y z
#    x 2.919280 0.000000 -0.042320 
#    y 0.000000 5.613100 0.000000 
#    z -0.042320 0.000000 3.905750 
# 
# 
# High freq. dielectric constant tensor:
#      x y z
#    x 1.690640 0.000000 -0.006100 
#    y 0.000000 1.804820 0.000000 
#    z -0.006100 0.000000 1.807850 
# 
# From -- ./inp_files/20537.got.cif
#   From: 2010.06.25/outbox.cif.g09.slc.cpg/sg10_11_cif.got.tgz:20537.got - 2010.06.27 22:07:45.
