data_PCOD8061777
_publ_section_title
;
Structure prediction by ZEFSAII (Michael W. Deem and Ramdas Pophale) SiO2 
 PCOD8061777
Probable space group: P 2/M
;
_chemical_formula_sum "Si O2"
_cell_formula_units_Z 28
_cell_length_a 12.880104
_cell_length_b 14.302100
_cell_length_c 9.048672
_cell_angle_alpha 90.000000
_cell_angle_beta 69.300787
_cell_angle_gamma 90.000000
_cell_volume 1559.279927
_symmetry_space_group_name_H-M "P 2/M"
_symmetry_group_IT_number 10
_symmetry_cell_setting 'monoclinic'
loop_
_space_group_symop_operation_xyz
x,y,z
-x,y,-z
-x,-y,-z
x,-y,z
loop_
_atom_site_type_symbol
_atom_site_label
_atom_site_fract_x
_atom_site_fract_y
_atom_site_fract_z
Si Si1 0.766621 0.764302 0.600689
Si Si2 0.425424 0.391771 0.821055
Si Si3 0.929328 0.106367 0.355162
Si Si4 0.618965 0.761760 0.393322
Si Si5 0.668788 0.607598 0.817720
Si Si6 0.813522 0.105364 0.814225
Si Si7 0.216062 0.892563 0.844848
O O1 0.879220 0.808100 0.476381
O O2 0.681478 0.744574 0.514286
O O3 0.769855 0.667001 0.692457
O O4 0.731099 0.839664 0.744713
O O5 0.414182 0.500000 0.783296
O O6 0.386548 0.333367 0.698480
O O7 0.552625 0.367990 0.796029
O O8 0.345968 0.369347 0.000907
O O9 0.891531 0.121791 0.204776
O O10 0.060422 0.113277 0.306822
O O11 0.891025 0.000000 0.424416
O O12 0.500000 0.799950 0.500000
O O13 0.676066 0.842064 0.270911
O O14 0.700583 0.500000 0.779813
O O15 0.771078 0.000000 0.837502
O O16 0.810670 0.148447 0.980081
O O17 0.248566 0.000000 0.839550
#
# Coordination Sequence:
#
# PCOD8061777 Si02
#       7
#     4   4   4   4   4   4   4
#     4  11  20  30  49  78 106 133 163 204 254 304
#     4   9  18  34  54  73  96 130 171 211 247 287
#     4   9  18  33  54  78 102 128 165 215 261 292
#     4  11  21  33  48  73 107 140 165 202 250 298
#     4   9  18  33  53  75  99 129 166 208 250 293
#     4  10  19  34  55  76  98 129 173 220 253 287
#     4   9  19  34  52  74 101 136 174 205 245 301
#
# _framework density 17.957006
#
# number of rings (size 3 to 8) (size 9 to 14) (size 15 to 20)
#    0.000    2.286    1.429    3.000    0.000    4.571 
#    0.000    0.000    0.000    3.429    0.000    0.000 
#    0.000   17.143    0.000    0.000    0.000    0.000 
#
# Total GULP energy -346880.769531 kJ/mol
# GULP energy per Si atom -12388.598912 kJ/mol
# Density = 1.791614 g / cm^3
# Si number density = 17.957006 Si / 1000 Ang^3
#
#
#
# Elastic Constant Matrix: (Units=GPa)
#
#
# Indices 1 2 3 4 5 6 
#
# 1 54.7556 34.4576 37.1870 0.0000 19.0730 0.0000
# 2 34.4576 83.3555 55.6105 0.0000 6.9515 0.0000
# 3 37.1870 55.6105 96.6803 0.0000 17.3838 0.0000
# 4 0.0000 0.0000 0.0000 39.7593 0.0000 -0.4163
# 5 19.0730 6.9515 17.3838 0.0000 35.8251 0.0000
# 6 0.0000 0.0000 0.0000 -0.4163 0.0000 4.8517
#
#
#
# Elastic Compliance Matrix: (Units=1/GPa)
#
#
# Indices 1 2 3 4 5 6 
#
# 1 0.031446 -0.008755 -0.004771 0.000000 -0.012728 0.000000
# 2 -0.008755 0.022013 -0.010260 0.000000 0.005368 0.000000
# 3 -0.004771 -0.010260 0.018915 0.000000 -0.004648 0.000000
# 4 0.000000 0.000000 0.000000 0.025174 0.000000 0.002160
# 5 -0.012728 0.005368 -0.004648 0.000000 0.035903 0.000000
# 6 0.000000 0.000000 0.000000 0.002160 0.000000 0.206297
#
#
# Mechanical properties :
#
#
# Convention : Reuss Voigt Hill
#
# Bulk Modulus (GPa) = 40.31674 54.36682 47.34178
# Shear Modulus (GPa) = 12.63944 23.25633 17.94789
#
# Velocity S-wave (km/s) = 2.65594 3.60267 3.16490
# Velocity P-wave (km/s) = 5.64853 6.90272 6.30688
#
# Compressibility (1/GPa) = 0.02480359
#
# Stress axis : x y z
#
# Youngs Moduli (GPa) = 31.80053 45.42807 52.86670
#
# Poissons Ratio (x) = 0.39771 0.25223
# Poissons Ratio (y) = 0.27840 0.54239
# Poissons Ratio (z) = 0.15172 0.46607
#
# Static dielectric constant tensor:
#      x y z
#    x 3.144200 0.000000 0.216790 
#    y 0.000000 3.295400 0.000000 
#    z 0.216790 0.000000 3.654110 
# 
# 
# High freq. dielectric constant tensor:
#      x y z
#    x 1.665000 0.000000 0.022600 
#    y 0.000000 1.684270 0.000000 
#    z 0.022600 0.000000 1.719050 
# 
# From -- ./inp_files/24912.got.cif
#   From: 2010.06.25/outbox.cif.g09.slc.cpg/sg10_13_cif.got.tgz:24912.got - 2010.06.27 22:07:45.
