data_PCOD8061756
_publ_section_title
;
Structure prediction by ZEFSAII (Michael W. Deem and Ramdas Pophale) SiO2 
 PCOD8061756
Probable space group: P 2/M
;
_chemical_formula_sum "Si O2"
_cell_formula_units_Z 24
_cell_length_a 28.802799
_cell_length_b 11.247028
_cell_length_c 12.443562
_cell_angle_alpha 90.000000
_cell_angle_beta 20.012807
_cell_angle_gamma 90.000000
_cell_volume 1379.543789
_symmetry_space_group_name_H-M "P 2/M"
_symmetry_group_IT_number 10
_symmetry_cell_setting 'monoclinic'
loop_
_space_group_symop_operation_xyz
x,y,z
-x,y,-z
-x,-y,-z
x,-y,z
loop_
_atom_site_type_symbol
_atom_site_label
_atom_site_fract_x
_atom_site_fract_y
_atom_site_fract_z
Si Si1 0.842789 0.751812 0.860383
Si Si2 0.284318 0.000000 0.923144
Si Si3 0.298025 0.359054 0.642425
Si Si4 0.343764 0.368845 0.309019
Si Si5 0.360120 0.637627 0.853307
Si Si6 0.591076 0.250725 0.039270
Si Si7 0.564096 0.000000 0.189282
O O1 0.000000 0.732038 0.500000
O O2 0.803329 0.885849 0.917346
O O3 0.809293 0.717682 0.056266
O O4 0.761838 0.659001 0.962887
O O5 0.421009 0.000000 0.558806
O O6 0.317114 0.000000 0.979292
O O7 0.284797 0.500000 0.693294
O O8 0.265667 0.328986 0.587500
O O9 0.448901 0.319981 0.347308
O O10 0.294493 0.500000 0.379564
O O11 0.500000 0.375181 0.000000
O O12 0.322085 0.277554 0.257704
O O13 0.500000 0.691694 0.500000
O O14 0.378612 0.500000 0.836831
O O15 0.325397 0.703788 0.039523
O O16 0.573104 0.110324 0.088796
#
# Coordination Sequence:
#
# PCOD8061756 Si02
#       7
#     4   2   4   4   4   4   2
#     4  12  24  37  55  80 112 149 184 224 270 327
#     4  11  21  40  51  77 110 151 181 217 276 330
#     4  10  19  34  54  79 115 147 174 219 275 326
#     4   8  16  30  51  78 110 144 173 214 274 329
#     4  11  20  32  54  82 111 140 175 227 279 321
#     4  11  18  32  53  83 107 140 183 222 271 320
#     4  11  20  32  60  80 109 139 180 237 271 307
#
# _framework density 17.397055999999999
#
# number of rings (size 3 to 8) (size 9 to 14) (size 15 to 20)
#    0.000    1.500    5.000    3.250    0.000    1.333 
#    0.000    4.583    0.000    1.000    0.000    4.667 
#    0.000    0.000    0.000    0.000    0.000    0.000 
#
# Total GULP energy -297579.894925 kJ/mol
# GULP energy per Si atom -12399.162289 kJ/mol
# Density = 1.735746 g / cm^3
# Si number density = 17.397056 Si / 1000 Ang^3
#
#
#
# Elastic Constant Matrix: (Units=GPa)
#
#
# Indices 1 2 3 4 5 6 
#
# 1 104.8414 39.4452 45.0499 0.0000 24.1129 0.0000
# 2 39.4452 84.7685 22.5046 0.0000 9.4696 0.0000
# 3 45.0499 22.5046 81.7961 0.0000 4.6146 0.0000
# 4 0.0000 0.0000 0.0000 -154.9390 0.0000 212.2785
# 5 24.1129 9.4696 4.6146 0.0000 25.4445 0.0000
# 6 0.0000 0.0000 0.0000 212.2785 0.0000 -229.8859
#
#
#
# Elastic Compliance Matrix: (Units=1/GPa)
#
#
# Indices 1 2 3 4 5 6 
#
# 1 0.017772 -0.004689 -0.007725 0.000000 -0.013696 0.000000
# 2 -0.004689 0.014411 -0.001344 0.000000 -0.000676 0.000000
# 3 -0.007725 -0.001344 0.016579 0.000000 0.004815 0.000000
# 4 0.000000 0.000000 0.000000 0.024342 0.000000 0.022478
# 5 -0.013696 -0.000676 0.004815 0.000000 0.051658 0.000000
# 6 0.000000 0.000000 0.000000 0.022478 0.000000 0.016406
#
#
# Mechanical properties :
#
#
# Convention : Reuss Voigt Hill
#
# Bulk Modulus (GPa) = 47.07106 53.93393 50.50250
# Shear Modulus (GPa) = 28.44679 -60.91565 -16.23443
#
# Velocity S-wave (km/s) = 4.04809 -5.92376 -3.05810
# Velocity P-wave (km/s) = 6.99750 3.96470 4.07714
#
# Compressibility (1/GPa) = 0.02124448
#
# Stress axis : x y z
#
# Youngs Moduli (GPa) = 56.26917 69.39088 60.31907
#
# Poissons Ratio (x) = 0.32536 0.46598
# Poissons Ratio (y) = 0.26384 0.08109
# Poissons Ratio (z) = 0.43469 0.09329
#
# Static dielectric constant tensor:
#      x y z
#    x 3.534080 0.000000 0.342640 
#    y 0.000000 3.357510 0.000000 
#    z 0.342640 0.000000 2.975870 
# 
# 
# High freq. dielectric constant tensor:
#      x y z
#    x 1.676330 0.000000 0.020810 
#    y 0.000000 1.678770 0.000000 
#    z 0.020810 0.000000 1.625710 
# 
# From -- ./inp_files/57723.got.cif
#   From: 2010.06.25/outbox.cif.g09.slc.cpg/sg10_29_cif.got.tgz:57723.got - 2010.06.27 22:07:45.
