data_PCOD8061348
_publ_section_title
;
Structure prediction by ZEFSAII (Michael W. Deem and Ramdas Pophale) SiO2 
 PCOD8061348
Probable space group: P 2/M
;
_chemical_formula_sum "Si O2"
_cell_formula_units_Z 26
_cell_length_a 30.002884
_cell_length_b 8.734338
_cell_length_c 30.034351
_cell_angle_alpha 90.000000
_cell_angle_beta 9.824028
_cell_angle_gamma 90.000000
_cell_volume 1342.913815
_symmetry_space_group_name_H-M "P 2/M"
_symmetry_group_IT_number 10
_symmetry_cell_setting 'monoclinic'
loop_
_space_group_symop_operation_xyz
x,y,z
-x,y,-z
-x,-y,-z
x,-y,z
loop_
_atom_site_type_symbol
_atom_site_label
_atom_site_fract_x
_atom_site_fract_y
_atom_site_fract_z
Si Si1 0.603643 0.322436 0.141519
Si Si2 0.936006 0.318324 0.459347
Si Si3 0.917316 0.820328 0.381276
Si Si4 0.607319 0.323876 0.241306
Si Si5 0.233474 0.000000 0.735959
Si Si6 0.119615 0.168376 0.764806
Si Si7 0.468090 0.680977 0.982111
O O1 0.541726 0.500000 0.192346
O O2 0.361630 0.220096 0.364835
O O3 0.660060 0.294046 0.137675
O O4 0.860688 0.274283 0.862251
O O5 0.927910 0.500000 0.457719
O O6 0.919586 0.225679 0.430257
O O7 0.195316 0.267456 0.229817
O O8 0.697448 0.261150 0.724402
O O9 0.970116 0.000000 0.323981
O O10 0.583271 0.500000 0.276777
O O11 0.335178 0.249726 0.522935
O O12 0.847577 0.257800 0.032812
O O13 0.500000 0.000000 0.500000
O O14 0.215029 0.150688 0.722307
O O15 0.000000 0.000000 0.000000
O O16 0.070055 0.000000 0.792583
O O17 0.483630 0.500000 0.970777
O O18 0.500000 0.753244 0.000000
#
# Coordination Sequence:
#
# PCOD8061348 Si02
#       7
#     4   4   4   4   2   4   4
#     4  11  24  41  62  84 117 161 200 240 292 360
#     4  10  19  33  55  77 108 147 186 231 283 352
#     4  12  25  40  58  87 118 157 197 248 292 340
#     4  11  22  39  60  89 124 155 193 249 308 351
#     4  10  20  38  64  90 120 160 210 248 286 346
#     4  10  22  36  62  91 115 161 201 245 288 351
#     4   9  17  30  52  82 106 133 181 239 286 332
#
# _framework density 19.360886000000001
#
# number of rings (size 3 to 8) (size 9 to 14) (size 15 to 20)
#    0.462    1.077    0.000    6.000    0.000    9.231 
#    0.000    0.000    0.000   12.000    0.000    0.000 
#    0.000    0.000    0.000    0.000    0.000    0.000 
#
# Total GULP energy -322452.824289 kJ/mol
# GULP energy per Si atom -12402.031703 kJ/mol
# Density = 1.931682 g / cm^3
# Si number density = 19.360886 Si / 1000 Ang^3
#
#
#
# Elastic Constant Matrix: (Units=GPa)
#
#
# Indices 1 2 3 4 5 6 
#
# 1 100.7875 33.3770 30.9826 0.0000 -3.4580 0.0000
# 2 33.3770 83.2853 21.1071 0.0000 -3.3527 0.0000
# 3 30.9826 21.1071 132.6830 0.0000 -3.6178 0.0000
# 4 0.0000 0.0000 0.0000 15.4399 0.0000 5.6385
# 5 -3.4580 -3.3527 -3.6178 0.0000 48.5534 0.0000
# 6 0.0000 0.0000 0.0000 5.6385 0.0000 -4.8129
#
#
#
# Elastic Compliance Matrix: (Units=1/GPa)
#
#
# Indices 1 2 3 4 5 6 
#
# 1 0.011994 -0.004255 -0.002113 0.000000 0.000403 0.000000
# 2 -0.004255 0.014046 -0.001225 0.000000 0.000576 0.000000
# 3 -0.002113 -0.001225 0.008235 0.000000 0.000379 0.000000
# 4 0.000000 0.000000 0.000000 0.045360 0.000000 0.053141
# 5 0.000403 0.000576 0.000379 0.000000 0.020693 0.000000
# 6 0.000000 0.000000 0.000000 0.053141 0.000000 -0.145518
#
#
# Mechanical properties :
#
#
# Convention : Reuss Voigt Hill
#
# Bulk Modulus (GPa) = 52.38530 54.18767 53.28649
# Shear Modulus (GPa) = -211.50568 27.25537 -92.12516
#
# Velocity S-wave (km/s) = -10.46331 3.75608 -6.90554
# Velocity P-wave (km/s) = 10.90223 6.84542 5.99995
#
# Compressibility (1/GPa) = 0.01908932
#
# Stress axis : x y z
#
# Youngs Moduli (GPa) = 83.37270 71.19554 121.42776
#
# Poissons Ratio (x) = 0.30294 0.25656
# Poissons Ratio (y) = 0.35476 0.14876
# Poissons Ratio (z) = 0.17616 0.08722
#
# Static dielectric constant tensor:
#      x y z
#    x 1.986090 0.000000 4.141570 
#    y 0.000000 3.361790 0.000000 
#    z 4.141570 0.000000 -6.766960 
# 
# 
# High freq. dielectric constant tensor:
#      x y z
#    x 1.761920 0.000000 0.000650 
#    y 0.000000 1.733960 0.000000 
#    z 0.000650 0.000000 1.774530 
# 
# From -- ./inp_files/95946.got.cif
#   From: 2010.06.25/outbox.cif.g09.slc.cpg/sg10_48_cif.got.tgz:95946.got - 2010.06.27 22:07:45.
