data_PCOD8061441
_publ_section_title
;
Structure prediction by ZEFSAII (Michael W. Deem and Ramdas Pophale) SiO2 
 PCOD8061441
Probable space group: P 2/M
;
_chemical_formula_sum "Si O2"
_cell_formula_units_Z 28
_cell_length_a 16.913649
_cell_length_b 9.366763
_cell_length_c 22.025069
_cell_angle_alpha 90.000000
_cell_angle_beta 26.576827
_cell_angle_gamma 90.000000
_cell_volume 1561.124694
_symmetry_space_group_name_H-M "P 2/M"
_symmetry_group_IT_number 10
_symmetry_cell_setting 'monoclinic'
loop_
_space_group_symop_operation_xyz
x,y,z
-x,y,-z
-x,-y,-z
x,-y,z
loop_
_atom_site_type_symbol
_atom_site_label
_atom_site_fract_x
_atom_site_fract_y
_atom_site_fract_z
Si Si1 0.851417 0.665136 0.396944
Si Si2 0.451280 0.667628 0.700229
Si Si3 0.992148 0.833362 0.407807
Si Si4 0.399131 0.664065 0.873916
Si Si5 0.283400 0.166546 0.301510
Si Si6 0.003985 0.664360 0.833279
Si Si7 0.144050 0.831623 0.850466
O O1 0.882244 0.500000 0.389773
O O2 0.649987 0.709504 0.546753
O O3 0.981481 0.750422 0.352002
O O4 0.898703 0.703199 0.295718
O O5 0.413181 0.500000 0.717227
O O6 0.411451 0.717101 0.796082
O O7 0.327843 0.756937 0.740315
O O8 0.834103 0.783333 0.560590
O O9 0.179394 0.798313 0.310856
O O10 0.975666 0.000000 0.405800
O O11 0.455767 0.500000 0.838671
O O12 0.531853 0.750961 0.825602
O O13 0.203779 0.690884 0.033170
O O14 0.323466 0.000000 0.278722
O O15 0.038696 0.500000 0.828932
O O16 0.079316 0.770670 0.831275
O O17 0.173667 0.000000 0.824379
O O18 0.000000 0.792635 0.000000
#
# Coordination Sequence:
#
# PCOD8061441 Si02
#       7
#     4   4   4   4   4   4   4
#     4  10  21  37  56  81 109 140 178 219 266 317
#     4  10  20  35  57  81 106 138 179 221 263 313
#     4   9  18  33  53  79 111 144 176 216 268 317
#     4  10  19  33  55  82 105 137 182 221 261 312
#     4   9  18  32  53  81 110 141 178 220 265 312
#     4  10  22  39  57  77 109 145 174 215 272 322
#     4  11  23  37  56  83 109 137 179 223 263 311
#
# _framework density 17.935787000000001
#
# number of rings (size 3 to 8) (size 9 to 14) (size 15 to 20)
#    0.000    2.143    2.857    1.286    0.000    4.000 
#    0.000    5.000    0.000    4.286    0.000    0.000 
#    0.000    0.000    0.000    0.000    0.000    0.000 
#
# Total GULP energy -347301.985355 kJ/mol
# GULP energy per Si atom -12403.642334 kJ/mol
# Density = 1.789496 g / cm^3
# Si number density = 17.935787 Si / 1000 Ang^3
#
#
#
# Elastic Constant Matrix: (Units=GPa)
#
#
# Indices 1 2 3 4 5 6 
#
# 1 107.4204 59.6013 38.0127 0.0000 -10.0219 0.0000
# 2 59.6013 64.1222 31.2477 0.0000 -8.2964 0.0000
# 3 38.0127 31.2477 77.0281 0.0000 1.7633 0.0000
# 4 0.0000 0.0000 0.0000 5.6726 0.0000 -2.3913
# 5 -10.0219 -8.2964 1.7633 0.0000 28.4999 0.0000
# 6 0.0000 0.0000 0.0000 -2.3913 0.0000 38.0451
#
#
#
# Elastic Compliance Matrix: (Units=1/GPa)
#
#
# Indices 1 2 3 4 5 6 
#
# 1 0.019861 -0.016648 -0.003101 0.000000 0.002330 0.000000
# 2 -0.016648 0.034534 -0.005898 0.000000 0.004564 0.000000
# 3 -0.003101 -0.005898 0.016994 0.000000 -0.003859 0.000000
# 4 0.000000 0.000000 0.000000 0.181083 0.000000 0.011382
# 5 0.002330 0.004564 -0.003859 0.000000 0.037474 0.000000
# 6 0.000000 0.000000 0.000000 0.011382 0.000000 0.027000
#
#
# Mechanical properties :
#
#
# Convention : Reuss Voigt Hill
#
# Bulk Modulus (GPa) = 49.76517 56.25488 53.01003
# Shear Modulus (GPa) = 13.33552 22.42414 17.87983
#
# Velocity S-wave (km/s) = 2.72970 3.53972 3.16077
# Velocity P-wave (km/s) = 6.14342 6.93821 6.55288
#
# Compressibility (1/GPa) = 0.02009438
#
# Stress axis : x y z
#
# Youngs Moduli (GPa) = 50.35011 28.95673 58.84570
#
# Poissons Ratio (x) = 0.48207 0.18248
# Poissons Ratio (y) = 0.83823 0.34708
# Poissons Ratio (z) = 0.15613 0.17079
#
# Static dielectric constant tensor:
#      x y z
#    x 3.229300 0.000000 -0.049080 
#    y 0.000000 3.223200 0.000000 
#    z -0.049080 0.000000 3.313740 
# 
# 
# High freq. dielectric constant tensor:
#      x y z
#    x 1.695070 0.000000 -0.010380 
#    y 0.000000 1.690110 0.000000 
#    z -0.010380 0.000000 1.687910 
# 
# From -- ./inp_files/49385.got.cif
#   From: 2010.06.25/outbox.cif.g09.slc.cpg/sg10_25_cif.got.tgz:49385.got - 2010.06.27 22:07:45.
