data_PCOD8061682
_publ_section_title
;
Structure prediction by ZEFSAII (Michael W. Deem and Ramdas Pophale) SiO2 
 PCOD8061682
Probable space group: P 2/M
;
_chemical_formula_sum "Si O2"
_cell_formula_units_Z 30
_cell_length_a 9.048452
_cell_length_b 18.755570
_cell_length_c 17.174250
_cell_angle_alpha 90.000000
_cell_angle_beta 141.510248
_cell_angle_gamma 90.000000
_cell_volume 1813.987243
_symmetry_space_group_name_H-M "P 2/M"
_symmetry_group_IT_number 10
_symmetry_cell_setting 'monoclinic'
loop_
_space_group_symop_operation_xyz
x,y,z
-x,y,-z
-x,-y,-z
x,-y,z
loop_
_atom_site_type_symbol
_atom_site_label
_atom_site_fract_x
_atom_site_fract_y
_atom_site_fract_z
Si Si1 0.921202 0.807800 0.884301
Si Si2 0.205771 0.081798 0.463372
Si Si3 0.655543 0.578639 0.796676
Si Si4 0.753327 0.080735 0.697559
Si Si5 0.455855 0.275574 0.736761
Si Si6 0.630146 0.720116 0.979117
Si Si7 0.000000 0.812525 0.500000
Si Si8 0.838666 0.577873 0.046688
O O1 0.904929 0.873178 0.819142
O O2 0.676725 0.765332 0.790164
O O3 0.000000 0.839113 0.000000
O O4 0.118602 0.755539 0.933019
O O5 0.476186 0.088908 0.602834
O O6 0.188607 0.104513 0.366310
O O7 0.043906 0.136142 0.444625
O O8 0.118805 0.000000 0.439484
O O9 0.537647 0.500000 0.734413
O O10 0.463781 0.642460 0.708453
O O11 0.876363 0.589049 0.828375
O O12 0.766554 0.583385 0.927400
O O13 0.835035 0.000000 0.743234
O O14 0.464219 0.273754 0.834354
O O15 0.218462 0.238762 0.608893
O O16 0.500000 0.755469 0.000000
O O17 0.692577 0.639004 0.030681
O O18 0.770868 0.500000 0.053025
#
# Coordination Sequence:
#
# PCOD8061682 Si02
#       8
#     4   4   4   4   4   4   2   4
#     4  10  19  34  52  71 105 137 163 201 247 306
#     4   9  19  34  54  76  99 128 164 213 255 288
#     4   8  13  26  47  67  94 130 169 203 239 294
#     4   9  18  35  55  75  98 129 170 204 247 303
#     4  10  20  33  47  76 100 134 172 204 246 297
#     4  10  20  31  48  73 105 131 159 207 256 299
#     4  12  21  32  53  76 106 130 166 216 245 294
#     4   8  13  24  46  71  94 125 162 204 250 293
#
# _framework density 16.538153999999999
#
# number of rings (size 3 to 8) (size 9 to 14) (size 15 to 20)
#    0.000    2.667    2.667    1.800    1.867    0.533 
#    0.000    0.333    0.000    0.400    0.000    0.000 
#    0.000    3.200    0.000    0.000    0.000    0.000 
#
# Total GULP energy -371799.115881 kJ/mol
# GULP energy per Si atom -12393.303863 kJ/mol
# Density = 1.650051 g / cm^3
# Si number density = 16.538154 Si / 1000 Ang^3
#
#
#
# Elastic Constant Matrix: (Units=GPa)
#
#
# Indices 1 2 3 4 5 6 
#
# 1 76.0089 35.7668 35.0759 0.0000 2.4764 0.0000
# 2 35.7668 103.0806 53.2755 0.0000 -0.9399 0.0000
# 3 35.0759 53.2755 76.5707 0.0000 5.2239 0.0000
# 4 0.0000 0.0000 0.0000 25.3878 0.0000 2.8645
# 5 2.4764 -0.9399 5.2239 0.0000 17.7898 0.0000
# 6 0.0000 0.0000 0.0000 2.8645 0.0000 -7.6102
#
#
#
# Elastic Compliance Matrix: (Units=1/GPa)
#
#
# Indices 1 2 3 4 5 6 
#
# 1 0.017259 -0.003031 -0.005737 0.000000 -0.000878 0.000000
# 2 -0.003031 0.015962 -0.010004 0.000000 0.004203 0.000000
# 3 -0.005737 -0.010004 0.023092 0.000000 -0.006511 0.000000
# 4 0.000000 0.000000 0.000000 0.037784 0.000000 0.014222
# 5 -0.000878 0.004203 -0.006511 0.000000 0.058468 0.000000
# 6 0.000000 0.000000 0.000000 0.014222 0.000000 -0.126050
#
#
# Mechanical properties :
#
#
# Convention : Reuss Voigt Hill
#
# Bulk Modulus (GPa) = 53.28038 55.98852 54.63445
# Shear Modulus (GPa) = 71.10824 15.88294 43.49559
#
# Velocity S-wave (km/s) = 6.56428 3.10236 5.13393
# Velocity P-wave (km/s) = 9.47310 6.83817 8.26136
#
# Compressibility (1/GPa) = 0.01876864
#
# Stress axis : x y z
#
# Youngs Moduli (GPa) = 57.94124 62.65074 43.30455
#
# Poissons Ratio (x) = 0.18992 0.24844
# Poissons Ratio (y) = 0.17564 0.43320
# Poissons Ratio (z) = 0.33241 0.62673
#
# Static dielectric constant tensor:
#      x y z
#    x 3.018790 0.000000 0.019750 
#    y 0.000000 3.361590 0.000000 
#    z 0.019750 0.000000 2.795750 
# 
# 
# High freq. dielectric constant tensor:
#      x y z
#    x 1.630330 0.000000 0.005270 
#    y 0.000000 1.646630 0.000000 
#    z 0.005270 0.000000 1.598040 
# 
# From -- ./inp_files/75449.got.cif
#   From: 2010.06.25/outbox.cif.g09.slc.cpg/sg10_38_cif.got.tgz:75449.got - 2010.06.27 22:07:45.
