data_PCOD8061235
_publ_section_title
;
Structure prediction by ZEFSAII (Michael W. Deem and Ramdas Pophale) SiO2 
 PCOD8061235
Probable space group: P 2/M
;
_chemical_formula_sum "Si O2"
_cell_formula_units_Z 32
_cell_length_a 24.246650
_cell_length_b 9.185489
_cell_length_c 18.454307
_cell_angle_alpha 90.000000
_cell_angle_beta 25.929847
_cell_angle_gamma 90.000000
_cell_volume 1797.222225
_symmetry_space_group_name_H-M "P 2/M"
_symmetry_group_IT_number 10
_symmetry_cell_setting 'monoclinic'
loop_
_space_group_symop_operation_xyz
x,y,z
-x,y,-z
-x,-y,-z
x,-y,z
loop_
_atom_site_type_symbol
_atom_site_label
_atom_site_fract_x
_atom_site_fract_y
_atom_site_fract_z
Si Si1 0.229562 0.172843 0.560658
Si Si2 0.309291 0.668062 0.052507
Si Si3 0.470963 0.665421 0.312855
Si Si4 0.406399 0.332881 0.550317
Si Si5 0.364183 0.837569 0.127764
Si Si6 0.173645 0.832529 0.468543
Si Si7 0.941797 0.833087 0.644833
Si Si8 0.860651 0.672646 0.192957
O O1 0.375132 0.219161 0.391987
O O2 0.178530 0.232237 0.543618
O O3 0.149073 0.251611 0.717694
O O4 0.216330 0.000000 0.585624
O O5 0.292719 0.500000 0.089933
O O6 0.374074 0.741798 0.044716
O O7 0.175049 0.736163 0.194800
O O8 0.393041 0.694809 0.882287
O O9 0.425104 0.500000 0.350731
O O10 0.479849 0.689825 0.388287
O O11 0.500000 0.257196 0.500000
O O12 0.392594 0.500000 0.588964
O O13 0.259661 0.273850 0.715342
O O14 0.271919 0.760764 0.295571
O O15 0.312893 0.000000 0.168485
O O16 0.500000 0.849772 0.000000
O O17 0.034960 0.810848 0.601542
O O18 0.214122 0.000000 0.427017
O O19 0.000000 0.778212 0.500000
O O20 0.900070 0.000000 0.685470
O O21 0.849125 0.500000 0.217266
O O22 0.000000 0.716423 0.000000
#
# Coordination Sequence:
#
# PCOD8061235 Si02
#       8
#     4   4   4   4   4   4   4   4
#     4  10  19  33  56  81 104 132 171 216 260 304
#     4  11  22  34  49  75 108 134 166 215 267 313
#     4   9  19  35  52  74 107 137 164 207 261 311
#     4   8  14  29  54  76  96 131 174 209 244 297
#     4  10  19  33  54  75  96 130 177 217 250 307
#     4   9  18  33  51  74  99 129 172 215 256 302
#     4  10  19  36  57  69  93 139 181 216 254 305
#     4   9  18  34  54  79 109 141 175 210 255 315
#
# _framework density 17.805254999999999
#
# number of rings (size 3 to 8) (size 9 to 14) (size 15 to 20)
#    0.000    2.500    1.250    2.250    0.000    2.750 
#    2.250    2.500    0.000    6.000    0.000    0.000 
#    0.000    0.000    0.000    0.000    0.000    0.000 
#
# Total GULP energy -396586.792360 kJ/mol
# GULP energy per Si atom -12393.337261 kJ/mol
# Density = 1.776473 g / cm^3
# Si number density = 17.805255 Si / 1000 Ang^3
#
#
#
# Elastic Constant Matrix: (Units=GPa)
#
#
# Indices 1 2 3 4 5 6 
#
# 1 128.9060 28.6984 59.6123 0.0000 1.1990 0.0000
# 2 28.6984 49.2772 41.0061 0.0000 2.1444 0.0000
# 3 59.6123 41.0061 139.2817 0.0000 0.2003 0.0000
# 4 0.0000 0.0000 0.0000 25.0910 0.0000 2.2757
# 5 1.1990 2.1444 0.2003 0.0000 22.8721 0.0000
# 6 0.0000 0.0000 0.0000 2.2757 0.0000 16.6675
#
#
#
# Elastic Compliance Matrix: (Units=1/GPa)
#
#
# Indices 1 2 3 4 5 6 
#
# 1 0.009996 -0.002983 -0.003400 0.000000 -0.000215 0.000000
# 2 -0.002983 0.027907 -0.006936 0.000000 -0.002399 0.000000
# 3 -0.003400 -0.006936 0.010676 0.000000 0.000735 0.000000
# 4 0.000000 0.000000 0.000000 0.040355 0.000000 -0.005510
# 5 -0.000215 -0.002399 0.000735 0.000000 0.043951 0.000000
# 6 0.000000 0.000000 0.000000 -0.005510 0.000000 0.060749
#
#
# Mechanical properties :
#
#
# Convention : Reuss Voigt Hill
#
# Bulk Modulus (GPa) = 45.57656 64.01095 54.79376
# Shear Modulus (GPa) = 21.96989 25.46933 23.71961
#
# Velocity S-wave (km/s) = 3.51650 3.78622 3.65385
# Velocity P-wave (km/s) = 6.49157 7.42580 6.97435
#
# Compressibility (1/GPa) = 0.02194110
#
# Stress axis : x y z
#
# Youngs Moduli (GPa) = 100.04121 35.83358 93.67092
#
# Poissons Ratio (x) = 0.10690 0.31845
# Poissons Ratio (y) = 0.29843 0.64969
# Poissons Ratio (z) = 0.34010 0.24854
#
# Static dielectric constant tensor:
#      x y z
#    x 3.421150 0.000000 -0.000200 
#    y 0.000000 3.108500 0.000000 
#    z -0.000200 0.000000 3.359600 
# 
# 
# High freq. dielectric constant tensor:
#      x y z
#    x 1.692260 0.000000 -0.002380 
#    y 0.000000 1.660530 0.000000 
#    z -0.002380 0.000000 1.692630 
# 
# From -- ./inp_files/79928.got.cif
#   From: 2010.06.25/outbox.cif.g09.slc.cpg/sg10_40_cif.got.tgz:79928.got - 2010.06.27 22:07:45.
